# generated using pymatgen
data_Cs27Sn13Pb14I81
_symmetry_space_group_name_H-M   'P 1'
_cell_length_a   18.97941124
_cell_length_b   18.98005441
_cell_length_c   18.97245753
_cell_angle_alpha   90.00017472
_cell_angle_beta   89.99907403
_cell_angle_gamma   90.00119766
_symmetry_Int_Tables_number   1
_chemical_formula_structural   Cs27Sn13Pb14I81
_chemical_formula_sum   'Cs27 Sn13 Pb14 I81'
_cell_volume   6834.45326923
_cell_formula_units_Z   1
loop_
 _symmetry_equiv_pos_site_id
 _symmetry_equiv_pos_as_xyz
  1  'x, y, z'
loop_
 _atom_site_type_symbol
 _atom_site_label
 _atom_site_symmetry_multiplicity
 _atom_site_fract_x
 _atom_site_fract_y
 _atom_site_fract_z
 _atom_site_occupancy
  Cs  Cs0  1  -0.00727798  -0.00885284  -0.00325849  1
  Cs  Cs1  1  0.00109178  0.00173527  0.33075888  1
  Cs  Cs2  1  0.00385563  0.00123038  0.67143950  1
  Cs  Cs3  1  -0.00170165  0.33219794  -0.00191226  1
  Cs  Cs4  1  -0.00158907  0.33278924  0.33565283  1
  Cs  Cs5  1  0.00236770  0.33265570  0.66408846  1
  Cs  Cs6  1  0.00776216  0.67458636  -0.00017848  1
  Cs  Cs7  1  0.00046241  0.66633297  0.33338697  1
  Cs  Cs8  1  -0.00160450  0.66607312  0.66589377  1
  Cs  Cs9  1  0.33376219  -0.00116432  0.00067448  1
  Cs  Cs10  1  0.33593898  0.00240835  0.33361211  1
  Cs  Cs11  1  0.33255326  0.00282426  0.66785813  1
  Cs  Cs12  1  0.33470817  0.34032895  -0.00402544  1
  Cs  Cs13  1  0.33268207  0.33027797  0.33174076  1
  Cs  Cs14  1  0.33110283  0.33016367  0.67228282  1
  Cs  Cs15  1  0.32708730  0.66103261  0.00067839  1
  Cs  Cs16  1  0.33368407  0.66755297  0.33195892  1
  Cs  Cs17  1  0.33357962  0.66848413  0.66624038  1
  Cs  Cs18  1  0.67134529  0.00117455  -0.00051625  1
  Cs  Cs19  1  0.66373350  0.00052950  0.33221406  1
  Cs  Cs20  1  0.66435693  -0.00166080  0.66816529  1
  Cs  Cs21  1  0.66478785  0.33169589  -0.00282179  1
  Cs  Cs22  1  0.66753808  0.33368358  0.33290863  1
  Cs  Cs23  1  0.66686782  0.33450909  0.66714551  1
  Cs  Cs24  1  0.66530541  0.66613095  -0.00074338  1
  Cs  Cs25  1  0.66593218  0.66526810  0.33648751  1
  Cs  Cs26  1  0.66759958  0.66705043  0.66311913  1
  Sn  Sn27  1  0.49995636  0.83307991  0.83498405  1
  Sn  Sn28  1  0.16704912  0.50067087  0.49959470  1
  Sn  Sn29  1  0.16700126  0.16662092  0.16631393  1
  Sn  Sn30  1  0.83447597  0.83397746  0.49965473  1
  Sn  Sn31  1  0.49938224  0.49864034  0.49981840  1
  Sn  Sn32  1  0.83330523  0.49986305  0.49987253  1
  Sn  Sn33  1  0.16574495  0.83297775  0.49957137  1
  Sn  Sn34  1  0.83347708  0.50033469  0.16635518  1
  Sn  Sn35  1  0.50012608  0.83353497  0.16529607  1
  Sn  Sn36  1  0.83349687  0.50033487  0.83349112  1
  Sn  Sn37  1  0.83245789  0.16624674  0.49981994  1
  Sn  Sn38  1  0.50084353  0.16782491  0.49945015  1
  Sn  Sn39  1  0.49902436  0.16624888  0.16715065  1
  Pb  Pb40  1  0.49999505  0.16483962  0.83371762  1
  Pb  Pb41  1  0.83152238  0.83110889  0.83083727  1
  Pb  Pb42  1  0.16686024  0.16666832  0.49912112  1
  Pb  Pb43  1  0.50149728  0.49954418  0.16840703  1
  Pb  Pb44  1  0.83289489  0.16828420  0.16828190  1
  Pb  Pb45  1  0.16391336  0.50001662  0.83075847  1
  Pb  Pb46  1  0.83114304  0.83107898  0.16897028  1
  Pb  Pb47  1  0.49988452  0.83370684  0.49959504  1
  Pb  Pb48  1  0.16418248  0.49792406  0.16883838  1
  Pb  Pb49  1  0.50171127  0.50212881  0.83052301  1
  Pb  Pb50  1  0.16891988  0.83533197  0.16901123  1
  Pb  Pb51  1  0.16663708  0.16652546  0.83774556  1
  Pb  Pb52  1  0.83324289  0.16879088  0.83034390  1
  Pb  Pb53  1  0.16919181  0.83330513  0.83076638  1
  I  I54  1  0.16846139  0.00303793  0.17264093  1
  I  I55  1  0.16435100  -0.00226093  0.49819653  1
  I  I56  1  0.16693640  -0.00024151  0.82739724  1
  I  I57  1  0.17395192  0.33034476  0.17171863  1
  I  I58  1  0.16308676  0.33589333  0.49802895  1
  I  I59  1  0.16717042  0.33352657  0.82917492  1
  I  I60  1  0.16734118  0.66665016  0.16686119  1
  I  I61  1  0.16373729  0.66594746  0.49962017  1
  I  I62  1  0.16741863  0.66661767  0.83507314  1
  I  I63  1  0.49718526  0.00074984  0.17146524  1
  I  I64  1  0.50323859  0.00248975  0.49888179  1
  I  I65  1  0.50100536  -0.00299482  0.82941276  1
  I  I66  1  0.49837387  0.33042610  0.17159871  1
  I  I67  1  0.50434532  0.33315064  0.49449856  1
  I  I68  1  0.50125968  0.33358292  0.83452870  1
  I  I69  1  0.50346464  0.66887391  0.16694393  1
  I  I70  1  0.50341228  0.66457500  0.50004336  1
  I  I71  1  0.50175251  0.66979615  0.83608131  1
  I  I72  1  0.83441767  -0.00002873  0.16991135  1
  I  I73  1  0.83159435  0.00009989  0.49838661  1
  I  I74  1  0.83266228  -0.00035511  0.83153598  1
  I  I75  1  0.83140107  0.33634689  0.17171634  1
  I  I76  1  0.83271877  0.33456102  0.49966308  1
  I  I77  1  0.83152661  0.33709162  0.83012061  1
  I  I78  1  0.83077649  0.66315346  0.17205084  1
  I  I79  1  0.83239987  0.66531927  0.50025669  1
  I  I80  1  0.83084268  0.66330337  0.82796726  1
  I  I81  1  0.17477507  0.16846148  0.00540915  1
  I  I82  1  0.16886648  0.16690998  0.33164989  1
  I  I83  1  0.16662005  0.16680875  0.66638611  1
  I  I84  1  0.16530208  0.49828815  0.00021346  1
  I  I85  1  0.16365972  0.50325018  0.33743327  1
  I  I86  1  0.16482209  0.50226947  0.66182006  1
  I  I87  1  0.16577953  0.83493431  0.00027665  1
  I  I88  1  0.16498848  0.82881727  0.33708992  1
  I  I89  1  0.16505353  0.83004702  0.66229398  1
  I  I90  1  0.49617477  0.16445790  0.00359561  1
  I  I91  1  0.50061288  0.16397667  0.33425797  1
  I  I92  1  0.50437452  0.16868235  0.66325934  1
  I  I93  1  0.50366942  0.49802197  -0.00000188  1
  I  I94  1  0.50412671  0.50179305  0.33710174  1
  I  I95  1  0.50317250  0.49721722  0.66184358  1
  I  I96  1  0.50176903  0.83957059  0.00108927  1
  I  I97  1  0.50044903  0.83483330  0.33161517  1
  I  I98  1  0.50102843  0.83172798  0.66772241  1
  I  I99  1  0.83294330  0.17003350  0.00014009  1
  I  I100  1  0.83156716  0.17033400  0.33702538  1
  I  I101  1  0.82772891  0.16888994  0.66140527  1
  I  I102  1  0.83022701  0.49809147  0.00024685  1
  I  I103  1  0.83281431  0.49963674  0.33579920  1
  I  I104  1  0.83262871  0.50042172  0.66415862  1
  I  I105  1  0.83339771  0.83138104  0.00009500  1
  I  I106  1  0.83327811  0.82980359  0.33749901  1
  I  I107  1  0.83277435  0.83027271  0.66224014  1
  I  I108  1  0.00179590  0.17087361  0.17163779  1
  I  I109  1  -0.00252309  0.17008515  0.49783976  1
  I  I110  1  -0.00020573  0.16723477  0.83143832  1
  I  I111  1  -0.00376671  0.49754340  0.17170377  1
  I  I112  1  -0.00147161  0.50020394  0.50014917  1
  I  I113  1  -0.00419719  0.50011721  0.82935084  1
  I  I114  1  -0.00007174  0.83442996  0.16678430  1
  I  I115  1  -0.00088387  0.82892023  0.49967984  1
  I  I116  1  -0.00012179  0.83253196  0.83358239  1
  I  I117  1  0.33508200  0.16258456  0.17605416  1
  I  I118  1  0.33626096  0.16861420  0.49741007  1
  I  I119  1  0.33360908  0.16632219  0.82533939  1
  I  I120  1  0.33334946  0.50170201  0.16988769  1
  I  I121  1  0.33368447  0.50171304  0.49851305  1
  I  I122  1  0.33331089  0.50064863  0.83133239  1
  I  I123  1  0.33702591  0.83393684  0.16749172  1
  I  I124  1  0.33146362  0.82938153  0.49987297  1
  I  I125  1  0.33707380  0.83300823  0.83318928  1
  I  I126  1  0.66358839  0.16409596  0.17052935  1
  I  I127  1  0.66628645  0.16982746  0.49456725  1
  I  I128  1  0.66663005  0.16667385  0.83620489  1
  I  I129  1  0.66950909  0.49866047  0.17229424  1
  I  I130  1  0.66777527  0.50046993  0.49980442  1
  I  I131  1  0.66966119  0.50058986  0.82857811  1
  I  I132  1  0.66326475  0.83990369  0.16712930  1
  I  I133  1  0.66878436  0.82979591  0.49998046  1
  I  I134  1  0.66378118  0.83289508  0.83307455  1
