# generated using pymatgen
data_Cs27Sn14Pb13I81
_symmetry_space_group_name_H-M   'P 1'
_cell_length_a   18.96468407
_cell_length_b   18.97923265
_cell_length_c   18.98417303
_cell_angle_alpha   90.00003691
_cell_angle_beta   90.00034169
_cell_angle_gamma   89.99902430
_symmetry_Int_Tables_number   1
_chemical_formula_structural   Cs27Sn14Pb13I81
_chemical_formula_sum   'Cs27 Sn14 Pb13 I81'
_cell_volume   6833.07118379
_cell_formula_units_Z   1
loop_
 _symmetry_equiv_pos_site_id
 _symmetry_equiv_pos_as_xyz
  1  'x, y, z'
loop_
 _atom_site_type_symbol
 _atom_site_label
 _atom_site_symmetry_multiplicity
 _atom_site_fract_x
 _atom_site_fract_y
 _atom_site_fract_z
 _atom_site_occupancy
  Cs  Cs0  1  -0.00473488  -0.00999436  0.00123273  1
  Cs  Cs1  1  -0.00872115  0.00079425  0.33391888  1
  Cs  Cs2  1  -0.00912621  0.00017227  0.66498763  1
  Cs  Cs3  1  -0.00354848  0.33381311  -0.00085642  1
  Cs  Cs4  1  0.00312811  0.33013299  0.33627271  1
  Cs  Cs5  1  0.00098650  0.33316211  0.66495603  1
  Cs  Cs6  1  -0.00353763  0.67579229  -0.00048016  1
  Cs  Cs7  1  0.00335256  0.66866283  0.33174414  1
  Cs  Cs8  1  0.00149554  0.66517892  0.66951554  1
  Cs  Cs9  1  0.33380175  0.00044829  -0.00009301  1
  Cs  Cs10  1  0.33424620  0.00193328  0.33188900  1
  Cs  Cs11  1  0.33515320  0.00245830  0.66841975  1
  Cs  Cs12  1  0.33402135  0.33133960  -0.00051742  1
  Cs  Cs13  1  0.33253264  0.33315258  0.33263853  1
  Cs  Cs14  1  0.33291999  0.33326323  0.66740034  1
  Cs  Cs15  1  0.33231267  0.66796622  -0.00009115  1
  Cs  Cs16  1  0.33327998  0.66506500  0.33451418  1
  Cs  Cs17  1  0.33367789  0.66535096  0.66594469  1
  Cs  Cs18  1  0.66577803  0.00406107  -0.00000087  1
  Cs  Cs19  1  0.67052297  -0.00342715  0.33533141  1
  Cs  Cs20  1  0.66829476  -0.00334360  0.66424221  1
  Cs  Cs21  1  0.67084691  0.33456351  0.00157972  1
  Cs  Cs22  1  0.66567340  0.33580004  0.32846043  1
  Cs  Cs23  1  0.66436981  0.33431783  0.66974485  1
  Cs  Cs24  1  0.67029362  0.66141485  0.00244595  1
  Cs  Cs25  1  0.66821591  0.66655187  0.33437471  1
  Cs  Cs26  1  0.66685540  0.66777010  0.66382521  1
  Sn  Sn27  1  0.16682110  0.16701423  0.83443859  1
  Sn  Sn28  1  0.49912188  0.16584015  0.16657036  1
  Sn  Sn29  1  0.83346580  0.49951162  0.49999427  1
  Sn  Sn30  1  0.49997216  0.49904377  0.50055803  1
  Sn  Sn31  1  0.49895157  0.50016081  0.83289035  1
  Sn  Sn32  1  0.16751479  0.49932215  0.83409226  1
  Sn  Sn33  1  0.16731189  0.83358913  0.50024770  1
  Sn  Sn34  1  0.49966896  0.16751329  0.49990769  1
  Sn  Sn35  1  0.16712313  0.49938643  0.16585656  1
  Sn  Sn36  1  0.16677631  0.50086592  0.50011894  1
  Sn  Sn37  1  0.16709418  0.16715809  0.16526557  1
  Sn  Sn38  1  0.49921099  0.83390853  0.16589347  1
  Sn  Sn39  1  0.49941585  0.83297379  0.83443847  1
  Sn  Sn40  1  0.49929121  0.16687416  0.83345635  1
  Pb  Pb41  1  0.49833771  0.49975694  0.16630805  1
  Pb  Pb42  1  0.16847950  0.83399105  0.83134417  1
  Pb  Pb43  1  0.82946460  0.83320254  0.16673369  1
  Pb  Pb44  1  0.49851346  0.83313998  0.49997389  1
  Pb  Pb45  1  0.83389682  0.16688534  0.83339664  1
  Pb  Pb46  1  0.83378330  0.49988368  0.83144234  1
  Pb  Pb47  1  0.82944704  0.16959956  0.50008064  1
  Pb  Pb48  1  0.83386638  0.16690725  0.16650854  1
  Pb  Pb49  1  0.82940750  0.83311288  0.83321151  1
  Pb  Pb50  1  0.16852719  0.83424931  0.16855413  1
  Pb  Pb51  1  0.16819686  0.16663578  0.50029690  1
  Pb  Pb52  1  0.83675304  0.83044314  0.50012883  1
  Pb  Pb53  1  0.83757266  0.49975489  0.16924127  1
  I  I54  1  0.17084120  0.00341634  0.16354943  1
  I  I55  1  0.17243978  -0.00170154  0.49989330  1
  I  I56  1  0.17303786  0.00325522  0.83626571  1
  I  I57  1  0.17346048  0.33331893  0.16943912  1
  I  I58  1  0.16550195  0.33657695  0.49960982  1
  I  I59  1  0.17480481  0.33418208  0.83097996  1
  I  I60  1  0.16880042  0.66409930  0.16655026  1
  I  I61  1  0.16951603  0.66375337  0.49962841  1
  I  I62  1  0.17131022  0.66355671  0.83370481  1
  I  I63  1  0.49372467  0.00153819  0.16432290  1
  I  I64  1  0.49587604  0.00246466  0.50235898  1
  I  I65  1  0.49567256  0.00125532  0.83321579  1
  I  I66  1  0.49788135  0.33054055  0.16617923  1
  I  I67  1  0.49750468  0.33442718  0.50272029  1
  I  I68  1  0.49629866  0.33344095  0.83104903  1
  I  I69  1  0.49769582  0.66840338  0.16446533  1
  I  I70  1  0.50061889  0.66331876  0.50272563  1
  I  I71  1  0.49545287  0.66543162  0.83185259  1
  I  I72  1  0.83842850  0.00004374  0.16859797  1
  I  I73  1  0.83402588  0.00002161  0.49971180  1
  I  I74  1  0.83495547  0.00001932  0.83176453  1
  I  I75  1  0.82659660  0.33351208  0.16715825  1
  I  I76  1  0.84072036  0.33714153  0.50051645  1
  I  I77  1  0.82793817  0.33347337  0.83242901  1
  I  I78  1  0.83241539  0.66636100  0.16738236  1
  I  I79  1  0.82587224  0.66270608  0.50037706  1
  I  I80  1  0.83391463  0.66637069  0.83234124  1
  I  I81  1  0.17687267  0.17613610  -0.00026018  1
  I  I82  1  0.17269176  0.17070166  0.33112406  1
  I  I83  1  0.17267173  0.17030936  0.66934268  1
  I  I84  1  0.17442729  0.49488716  -0.00097179  1
  I  I85  1  0.16744784  0.49999689  0.33407120  1
  I  I86  1  0.16766108  0.50006173  0.66659090  1
  I  I87  1  0.16601599  0.82962713  -0.00009116  1
  I  I88  1  0.17103446  0.82701394  0.33613459  1
  I  I89  1  0.17091138  0.82737388  0.66378451  1
  I  I90  1  0.49604020  0.16530832  -0.00038295  1
  I  I91  1  0.49517657  0.16701665  0.33296579  1
  I  I92  1  0.49573343  0.16752773  0.66748142  1
  I  I93  1  0.49522840  0.49889832  -0.00299570  1
  I  I94  1  0.49858243  0.49763353  0.33605731  1
  I  I95  1  0.49605735  0.49759041  0.66651043  1
  I  I96  1  0.49762921  0.83647222  -0.00053753  1
  I  I97  1  0.49742785  0.83664015  0.33128626  1
  I  I98  1  0.49784273  0.83537661  0.66908250  1
  I  I99  1  0.82781746  0.16843178  -0.00001249  1
  I  I100  1  0.83430330  0.16742355  0.33343171  1
  I  I101  1  0.83468257  0.16671021  0.66655651  1
  I  I102  1  0.83134210  0.49997726  0.00007003  1
  I  I103  1  0.82910299  0.50000340  0.33723331  1
  I  I104  1  0.83668977  0.50002106  0.66350862  1
  I  I105  1  0.83880970  0.83176730  0.00002684  1
  I  I106  1  0.83078779  0.83289628  0.33364695  1
  I  I107  1  0.83072444  0.83389159  0.66636238  1
  I  I108  1  0.00413337  0.17249638  0.16374493  1
  I  I109  1  0.00009118  0.16629985  0.49961184  1
  I  I110  1  0.00423259  0.17331278  0.83641491  1
  I  I111  1  0.00589356  0.49377213  0.16656729  1
  I  I112  1  0.00176900  0.50538966  0.49965242  1
  I  I113  1  0.00405428  0.49455141  0.83133782  1
  I  I114  1  0.00029185  0.83319836  0.16903996  1
  I  I115  1  0.00472068  0.82912382  0.49962733  1
  I  I116  1  0.00031198  0.83306395  0.83127927  1
  I  I117  1  0.33419583  0.16719717  0.16614753  1
  I  I118  1  0.33663404  0.17227343  0.50009763  1
  I  I119  1  0.33454216  0.16831172  0.83375679  1
  I  I120  1  0.33031170  0.49911483  0.17243455  1
  I  I121  1  0.33327119  0.50042214  0.50107598  1
  I  I122  1  0.33370284  0.49910718  0.82756242  1
  I  I123  1  0.33649534  0.83503852  0.16347187  1
  I  I124  1  0.33121207  0.82512886  0.49987142  1
  I  I125  1  0.33684882  0.83306617  0.83590257  1
  I  I126  1  0.66265249  0.16265807  0.16623125  1
  I  I127  1  0.66089642  0.16959051  0.50076674  1
  I  I128  1  0.66223504  0.16745652  0.83366520  1
  I  I129  1  0.66652087  0.50062431  0.16719679  1
  I  I130  1  0.66472714  0.49518018  0.50518786  1
  I  I131  1  0.66283276  0.49963807  0.82910944  1
  I  I132  1  0.66113322  0.83928765  0.16441672  1
  I  I133  1  0.66646422  0.83313091  0.49983994  1
  I  I134  1  0.66073064  0.83381907  0.83483523  1
