# generated using pymatgen
data_Cs27Sn14Pb13I81
_symmetry_space_group_name_H-M   'P 1'
_cell_length_a   18.96264527
_cell_length_b   18.96314672
_cell_length_c   18.95607104
_cell_angle_alpha   89.99932059
_cell_angle_beta   89.99857547
_cell_angle_gamma   90.00086173
_symmetry_Int_Tables_number   1
_chemical_formula_structural   Cs27Sn14Pb13I81
_chemical_formula_sum   'Cs27 Sn14 Pb13 I81'
_cell_volume   6816.44058468
_cell_formula_units_Z   1
loop_
 _symmetry_equiv_pos_site_id
 _symmetry_equiv_pos_as_xyz
  1  'x, y, z'
loop_
 _atom_site_type_symbol
 _atom_site_label
 _atom_site_symmetry_multiplicity
 _atom_site_fract_x
 _atom_site_fract_y
 _atom_site_fract_z
 _atom_site_occupancy
  Cs  Cs0  1  0.00160390  -0.00451638  0.00170956  1
  Cs  Cs1  1  -0.00040083  0.00070484  0.33308912  1
  Cs  Cs2  1  0.00101683  0.00164042  0.66543945  1
  Cs  Cs3  1  0.00127899  0.33637092  -0.00656478  1
  Cs  Cs4  1  -0.00359739  0.33216275  0.33273661  1
  Cs  Cs5  1  -0.00039975  0.33423178  0.66926610  1
  Cs  Cs6  1  -0.00009515  0.66968318  0.01129907  1
  Cs  Cs7  1  0.00309829  0.66660604  0.32813992  1
  Cs  Cs8  1  -0.00112544  0.66435501  0.66512256  1
  Cs  Cs9  1  0.33247971  0.00122800  -0.00030615  1
  Cs  Cs10  1  0.33354165  -0.00071544  0.33389631  1
  Cs  Cs11  1  0.33370954  0.00006580  0.66634414  1
  Cs  Cs12  1  0.33378093  0.33274710  -0.00125207  1
  Cs  Cs13  1  0.33549607  0.33346144  0.33254158  1
  Cs  Cs14  1  0.33211595  0.33316673  0.66750584  1
  Cs  Cs15  1  0.33159066  0.66721747  0.00487650  1
  Cs  Cs16  1  0.33193462  0.66757774  0.33401523  1
  Cs  Cs17  1  0.33530281  0.66665410  0.66484704  1
  Cs  Cs18  1  0.66847357  -0.00188620  -0.00147986  1
  Cs  Cs19  1  0.66596539  0.00504277  0.33488687  1
  Cs  Cs20  1  0.66628728  -0.00091098  0.66683756  1
  Cs  Cs21  1  0.66504500  0.33395869  0.00373846  1
  Cs  Cs22  1  0.66698328  0.33087784  0.32778148  1
  Cs  Cs23  1  0.66735789  0.33449743  0.66592426  1
  Cs  Cs24  1  0.67052575  0.66704766  -0.00330850  1
  Cs  Cs25  1  0.66450335  0.66453351  0.33594666  1
  Cs  Cs26  1  0.66616149  0.66633751  0.66757356  1
  Sn  Sn27  1  0.83245115  0.50075367  0.50057048  1
  Sn  Sn28  1  0.16661771  0.16701432  0.16768966  1
  Sn  Sn29  1  0.50008717  0.83342509  0.49917674  1
  Sn  Sn30  1  0.83337032  0.83257827  0.50025790  1
  Sn  Sn31  1  0.50081734  0.49961840  0.50074884  1
  Sn  Sn32  1  0.50062193  0.83343666  0.16747450  1
  Sn  Sn33  1  0.16661028  0.83270176  0.83232461  1
  Sn  Sn34  1  0.49921748  0.16694616  0.50084292  1
  Sn  Sn35  1  0.50100886  0.16731058  0.83242138  1
  Sn  Sn36  1  0.16646406  0.83405298  0.50120282  1
  Sn  Sn37  1  0.16738223  0.16622451  0.49907610  1
  Sn  Sn38  1  0.83240214  0.49938332  0.83243872  1
  Sn  Sn39  1  0.83228545  0.16699598  0.83290320  1
  Sn  Sn40  1  0.50060354  0.49922593  0.83243665  1
  Pb  Pb41  1  0.50009319  0.50230625  0.16653011  1
  Pb  Pb42  1  0.16846894  0.83490948  0.16769958  1
  Pb  Pb43  1  0.83024958  0.83356277  0.17032528  1
  Pb  Pb44  1  0.49857371  0.83305831  0.83285173  1
  Pb  Pb45  1  0.16693259  0.49651490  0.16679778  1
  Pb  Pb46  1  0.16667021  0.50318708  0.83323860  1
  Pb  Pb47  1  0.83325330  0.16709675  0.50146414  1
  Pb  Pb48  1  0.83574914  0.83274762  0.83131614  1
  Pb  Pb49  1  0.83303737  0.49987937  0.16671083  1
  Pb  Pb50  1  0.16690830  0.16520377  0.83264595  1
  Pb  Pb51  1  0.83610477  0.16665048  0.16284320  1
  Pb  Pb52  1  0.16659762  0.49966866  0.49989096  1
  Pb  Pb53  1  0.49876994  0.16490155  0.16635828  1
  I  I54  1  0.16852001  0.00255165  0.16786779  1
  I  I55  1  0.16971712  -0.00042404  0.50054866  1
  I  I56  1  0.16757565  -0.00255280  0.83104560  1
  I  I57  1  0.16870349  0.32857824  0.17243139  1
  I  I58  1  0.17014346  0.33001236  0.49658086  1
  I  I59  1  0.16627290  0.33335046  0.83400858  1
  I  I60  1  0.16727324  0.66702232  0.16566652  1
  I  I61  1  0.16946037  0.66985630  0.50434656  1
  I  I62  1  0.16855425  0.67087718  0.82581564  1
  I  I63  1  0.49799546  -0.00288684  0.17156506  1
  I  I64  1  0.49913496  -0.00003582  0.50019537  1
  I  I65  1  0.50180531  0.00259425  0.83009341  1
  I  I66  1  0.49789859  0.33316612  0.16881077  1
  I  I67  1  0.49900914  0.33301884  0.50479466  1
  I  I68  1  0.50194985  0.33295136  0.82625422  1
  I  I69  1  0.49762874  0.67018138  0.17143863  1
  I  I70  1  0.50004214  0.66691701  0.50024760  1
  I  I71  1  0.50295420  0.66392355  0.82991907  1
  I  I72  1  0.83325418  -0.00001360  0.16611121  1
  I  I73  1  0.83143891  -0.00223657  0.50189251  1
  I  I74  1  0.83015778  0.00217571  0.83139528  1
  I  I75  1  0.83362348  0.33318154  0.17257926  1
  I  I76  1  0.83121126  0.33606434  0.50258525  1
  I  I77  1  0.83166024  0.33380709  0.82695496  1
  I  I78  1  0.83462121  0.66689615  0.16145839  1
  I  I79  1  0.82989788  0.66654110  0.50614760  1
  I  I80  1  0.82847220  0.66363713  0.82996805  1
  I  I81  1  0.16676290  0.16367618  0.00135958  1
  I  I82  1  0.17216012  0.16044317  0.33572789  1
  I  I83  1  0.16858511  0.16326124  0.66372068  1
  I  I84  1  0.16705608  0.50113073  -0.00040695  1
  I  I85  1  0.16704532  0.50523236  0.33388360  1
  I  I86  1  0.16664944  0.49609331  0.66651372  1
  I  I87  1  0.16893822  0.83525996  -0.00174542  1
  I  I88  1  0.16576768  0.83526905  0.33715327  1
  I  I89  1  0.16966814  0.83964633  0.66418999  1
  I  I90  1  0.50086771  0.16908095  -0.00326248  1
  I  I91  1  0.49776506  0.16797877  0.33678398  1
  I  I92  1  0.49738226  0.16464962  0.66563803  1
  I  I93  1  0.50324313  0.49681723  -0.00366743  1
  I  I94  1  0.50354073  0.49789725  0.33725101  1
  I  I95  1  0.50352953  0.50151518  0.66564921  1
  I  I96  1  0.49537663  0.83420761  0.00142555  1
  I  I97  1  0.49748291  0.83332495  0.33639477  1
  I  I98  1  0.50067399  0.83370750  0.66324036  1
  I  I99  1  0.82834117  0.17202166  -0.00526670  1
  I  I100  1  0.83175704  0.16665114  0.33362311  1
  I  I101  1  0.83435033  0.16734856  0.66933255  1
  I  I102  1  0.82913499  0.49545431  -0.00384759  1
  I  I103  1  0.82960610  0.50406576  0.33725126  1
  I  I104  1  0.82910118  0.50028827  0.66634345  1
  I  I105  1  0.83469118  0.83332818  -0.00013701  1
  I  I106  1  0.83926975  0.82812058  0.33873467  1
  I  I107  1  0.82809196  0.83259267  0.66296799  1
  I  I108  1  0.00390925  0.16418858  0.17385745  1
  I  I109  1  0.00243024  0.16283060  0.49846724  1
  I  I110  1  -0.00208912  0.16991028  0.83266544  1
  I  I111  1  -0.00010877  0.50167581  0.16648312  1
  I  I112  1  -0.00320531  0.50267727  0.50472422  1
  I  I113  1  -0.00334896  0.49475919  0.82773553  1
  I  I114  1  0.00009384  0.83408389  0.16594721  1
  I  I115  1  0.00057957  0.83430259  0.50616950  1
  I  I116  1  0.00335199  0.83575743  0.82748748  1
  I  I117  1  0.33086642  0.16410721  0.16658238  1
  I  I118  1  0.33441326  0.16330499  0.50213132  1
  I  I119  1  0.33620622  0.16928250  0.83201091  1
  I  I120  1  0.33381788  0.50171389  0.16622325  1
  I  I121  1  0.33687961  0.50223187  0.50418612  1
  I  I122  1  0.33679805  0.49607871  0.82838012  1
  I  I123  1  0.33608850  0.83391449  0.17203685  1
  I  I124  1  0.33394268  0.83405549  0.50006174  1
  I  I125  1  0.33088061  0.83510899  0.82767706  1
  I  I126  1  0.66657858  0.16553459  0.16898987  1
  I  I127  1  0.66359667  0.16320603  0.50273451  1
  I  I128  1  0.66537764  0.16857308  0.82733733  1
  I  I129  1  0.66640248  0.49964513  0.16741845  1
  I  I130  1  0.66571880  0.50428821  0.50438285  1
  I  I131  1  0.66612963  0.49700665  0.82845956  1
  I  I132  1  0.66244299  0.83444339  0.16977377  1
  I  I133  1  0.66570952  0.83323471  0.49599717  1
  I  I134  1  0.66674036  0.83437310  0.83366197  1
