# generated using pymatgen
data_Cs27Sn14Pb13I81
_symmetry_space_group_name_H-M   'P 1'
_cell_length_a   18.98117059
_cell_length_b   18.97221448
_cell_length_c   18.97302479
_cell_angle_alpha   90.00138984
_cell_angle_beta   90.00059459
_cell_angle_gamma   90.00088432
_symmetry_Int_Tables_number   1
_chemical_formula_structural   Cs27Sn14Pb13I81
_chemical_formula_sum   'Cs27 Sn14 Pb13 I81'
_cell_volume   6832.46777631
_cell_formula_units_Z   1
loop_
 _symmetry_equiv_pos_site_id
 _symmetry_equiv_pos_as_xyz
  1  'x, y, z'
loop_
 _atom_site_type_symbol
 _atom_site_label
 _atom_site_symmetry_multiplicity
 _atom_site_fract_x
 _atom_site_fract_y
 _atom_site_fract_z
 _atom_site_occupancy
  Cs  Cs0  1  0.00550164  0.00080420  0.00071824  1
  Cs  Cs1  1  0.00016096  -0.00139646  0.33135616  1
  Cs  Cs2  1  0.00190819  0.00152936  0.66593493  1
  Cs  Cs3  1  -0.00246906  0.33598622  -0.00048407  1
  Cs  Cs4  1  -0.01220568  0.33519688  0.33388258  1
  Cs  Cs5  1  0.00027886  0.33882177  0.66612445  1
  Cs  Cs6  1  -0.00025390  0.66358657  -0.00279074  1
  Cs  Cs7  1  0.00141417  0.66847371  0.33470937  1
  Cs  Cs8  1  0.00115111  0.65879872  0.66840537  1
  Cs  Cs9  1  0.32921821  0.00128396  -0.00044232  1
  Cs  Cs10  1  0.33159599  -0.00176684  0.33414936  1
  Cs  Cs11  1  0.33413266  0.00144304  0.66636011  1
  Cs  Cs12  1  0.33536550  0.33234276  0.00135749  1
  Cs  Cs13  1  0.33607697  0.33423978  0.33137255  1
  Cs  Cs14  1  0.33249091  0.33238609  0.66755210  1
  Cs  Cs15  1  0.33239486  0.66644330  0.00203536  1
  Cs  Cs16  1  0.33330287  0.66786877  0.33390922  1
  Cs  Cs17  1  0.33390235  0.66509444  0.66539734  1
  Cs  Cs18  1  0.66665916  -0.00227579  -0.00471862  1
  Cs  Cs19  1  0.66828014  -0.00146551  0.33506992  1
  Cs  Cs20  1  0.66581281  -0.00017078  0.66774239  1
  Cs  Cs21  1  0.66461462  0.33504232  0.00895562  1
  Cs  Cs22  1  0.67259756  0.33440760  0.32533461  1
  Cs  Cs23  1  0.66386454  0.32942398  0.66473393  1
  Cs  Cs24  1  0.67012988  0.66759598  -0.00156065  1
  Cs  Cs25  1  0.66532406  0.66831140  0.33186057  1
  Cs  Cs26  1  0.66510293  0.66990547  0.67019398  1
  Sn  Sn27  1  0.16681904  0.49954175  0.16726079  1
  Sn  Sn28  1  0.49999239  0.83350796  0.49935558  1
  Sn  Sn29  1  0.16645069  0.16616067  0.83219103  1
  Sn  Sn30  1  0.50058208  0.83387609  0.16716387  1
  Sn  Sn31  1  0.83346728  0.83337825  0.50000240  1
  Sn  Sn32  1  0.50003988  0.49958110  0.50047947  1
  Sn  Sn33  1  0.49987708  0.49905567  0.83269685  1
  Sn  Sn34  1  0.83256377  0.83372345  0.16690115  1
  Sn  Sn35  1  0.83338078  0.16673807  0.83317281  1
  Sn  Sn36  1  0.50005544  0.16766140  0.83275848  1
  Sn  Sn37  1  0.16657548  0.83387210  0.50132395  1
  Sn  Sn38  1  0.16710825  0.16640401  0.50028336  1
  Sn  Sn39  1  0.49944825  0.16700533  0.50018213  1
  Sn  Sn40  1  0.16693301  0.83352182  0.83203025  1
  Pb  Pb41  1  0.16660790  0.16941910  0.16772257  1
  Pb  Pb42  1  0.83596095  0.50313058  0.16666784  1
  Pb  Pb43  1  0.16655505  0.83223132  0.16702777  1
  Pb  Pb44  1  0.49984564  0.16377758  0.16714448  1
  Pb  Pb45  1  0.83336500  0.16362886  0.16385102  1
  Pb  Pb46  1  0.16859827  0.49919758  0.49819234  1
  Pb  Pb47  1  0.16887739  0.49916518  0.83468691  1
  Pb  Pb48  1  0.82973928  0.50298724  0.50033849  1
  Pb  Pb49  1  0.82977368  0.49679683  0.83304766  1
  Pb  Pb50  1  0.83638079  0.83498108  0.83285784  1
  Pb  Pb51  1  0.49891629  0.50245238  0.16677837  1
  Pb  Pb52  1  0.49798553  0.83378156  0.83299151  1
  Pb  Pb53  1  0.83335743  0.16468477  0.50161372  1
  I  I54  1  0.16654973  -0.00003921  0.16522067  1
  I  I55  1  0.17180969  -0.00086272  0.50338773  1
  I  I56  1  0.16965264  0.00079143  0.83138315  1
  I  I57  1  0.17041607  0.33660689  0.16491028  1
  I  I58  1  0.17244438  0.32983214  0.50450545  1
  I  I59  1  0.16544139  0.32963638  0.82986224  1
  I  I60  1  0.16804395  0.66491345  0.16605271  1
  I  I61  1  0.16788578  0.66980405  0.50209282  1
  I  I62  1  0.16849289  0.66897741  0.83087412  1
  I  I63  1  0.50169767  -0.00423305  0.17049827  1
  I  I64  1  0.49931032  -0.00031646  0.50054217  1
  I  I65  1  0.50121613  0.00301620  0.83077065  1
  I  I66  1  0.49845425  0.33337234  0.16835684  1
  I  I67  1  0.49302389  0.33220887  0.50674644  1
  I  I68  1  0.49752912  0.33196050  0.82547825  1
  I  I69  1  0.50184493  0.67033054  0.17065135  1
  I  I70  1  0.49952543  0.66778148  0.50000964  1
  I  I71  1  0.49688193  0.66511258  0.83039847  1
  I  I72  1  0.83083208  -0.00411152  0.17201080  1
  I  I73  1  0.82883711  -0.00355933  0.49710487  1
  I  I74  1  0.82696641  0.00268448  0.83312096  1
  I  I75  1  0.83431344  0.33338284  0.16589278  1
  I  I76  1  0.83452808  0.33314707  0.50121412  1
  I  I77  1  0.84104220  0.32889743  0.83154291  1
  I  I78  1  0.82858011  0.67095759  0.16976779  1
  I  I79  1  0.83538811  0.67152816  0.49646241  1
  I  I80  1  0.83342796  0.66686304  0.83452372  1
  I  I81  1  0.16799878  0.16205145  -0.00339255  1
  I  I82  1  0.17365745  0.16076593  0.33739759  1
  I  I83  1  0.16864119  0.16150838  0.66697326  1
  I  I84  1  0.17005377  0.50306423  0.00208676  1
  I  I85  1  0.17114943  0.50345821  0.33105533  1
  I  I86  1  0.16622594  0.50167394  0.66648131  1
  I  I87  1  0.16767554  0.83662837  -0.00221589  1
  I  I88  1  0.16752257  0.83613246  0.33668991  1
  I  I89  1  0.16804005  0.83691316  0.66542584  1
  I  I90  1  0.49883032  0.17004602  -0.00342561  1
  I  I91  1  0.49407277  0.16829841  0.33727345  1
  I  I92  1  0.49935832  0.16475035  0.66643293  1
  I  I93  1  0.49757311  0.49589727  -0.00251766  1
  I  I94  1  0.49715210  0.49891551  0.33633271  1
  I  I95  1  0.49813844  0.50236222  0.66595167  1
  I  I96  1  0.50256074  0.83255848  0.00187478  1
  I  I97  1  0.49799402  0.83264563  0.33551043  1
  I  I98  1  0.50248848  0.83308535  0.66346372  1
  I  I99  1  0.83345932  0.16429832  -0.00429434  1
  I  I100  1  0.83359728  0.16786956  0.33356270  1
  I  I101  1  0.83215789  0.16209756  0.66949603  1
  I  I102  1  0.83152972  0.50276247  -0.00018536  1
  I  I103  1  0.83158849  0.49603090  0.33349989  1
  I  I104  1  0.83810020  0.50432935  0.66672170  1
  I  I105  1  0.82891753  0.83494711  0.00214077  1
  I  I106  1  0.83423571  0.83405719  0.33437555  1
  I  I107  1  0.82846958  0.83544192  0.66370868  1
  I  I108  1  0.00011206  0.16438748  0.16653875  1
  I  I109  1  0.00309515  0.16083683  0.50405402  1
  I  I110  1  0.00151694  0.15934959  0.83068458  1
  I  I111  1  0.00336101  0.50186493  0.16572621  1
  I  I112  1  0.00000247  0.50022018  0.49761372  1
  I  I113  1  0.00013531  0.50043820  0.83628221  1
  I  I114  1  -0.00206769  0.83172006  0.16986636  1
  I  I115  1  0.00102663  0.83936623  0.49844844  1
  I  I116  1  0.00420282  0.83881995  0.83136463  1
  I  I117  1  0.33330503  0.16370480  0.16152375  1
  I  I118  1  0.33398305  0.16091761  0.50808554  1
  I  I119  1  0.33341681  0.16624382  0.82935958  1
  I  I120  1  0.33155937  0.50434141  0.16614258  1
  I  I121  1  0.33668194  0.50539608  0.50284655  1
  I  I122  1  0.33653231  0.49572375  0.82988017  1
  I  I123  1  0.33542710  0.83120987  0.17003557  1
  I  I124  1  0.33381252  0.83382761  0.49932577  1
  I  I125  1  0.33025024  0.83805418  0.83083544  1
  I  I126  1  0.66645741  0.16933564  0.16635900  1
  I  I127  1  0.66339835  0.16466536  0.50526100  1
  I  I128  1  0.66508026  0.16958105  0.82893352  1
  I  I129  1  0.66664978  0.49962617  0.16627770  1
  I  I130  1  0.66140964  0.49862785  0.50314919  1
  I  I131  1  0.66173494  0.49814949  0.82998161  1
  I  I132  1  0.66602391  0.83301413  0.17464908  1
  I  I133  1  0.66541680  0.83311068  0.49467833  1
  I  I134  1  0.66654245  0.83402199  0.83240962  1
