# generated using pymatgen
data_Cs27Sn14Pb13I81
_symmetry_space_group_name_H-M   'P 1'
_cell_length_a   18.96420776
_cell_length_b   18.96340633
_cell_length_c   18.96025984
_cell_angle_alpha   90.00023664
_cell_angle_beta   89.99871303
_cell_angle_gamma   90.00058669
_symmetry_Int_Tables_number   1
_chemical_formula_structural   Cs27Sn14Pb13I81
_chemical_formula_sum   'Cs27 Sn14 Pb13 I81'
_cell_volume   6818.60197674
_cell_formula_units_Z   1
loop_
 _symmetry_equiv_pos_site_id
 _symmetry_equiv_pos_as_xyz
  1  'x, y, z'
loop_
 _atom_site_type_symbol
 _atom_site_label
 _atom_site_symmetry_multiplicity
 _atom_site_fract_x
 _atom_site_fract_y
 _atom_site_fract_z
 _atom_site_occupancy
  Cs  Cs0  1  0.00130401  0.00085038  0.00011642  1
  Cs  Cs1  1  0.00159007  0.00185435  0.33294232  1
  Cs  Cs2  1  0.00171744  -0.00310497  0.66646853  1
  Cs  Cs3  1  0.00021799  0.32981590  0.00067508  1
  Cs  Cs4  1  -0.00203069  0.33151588  0.33209147  1
  Cs  Cs5  1  -0.00220069  0.33495089  0.66711153  1
  Cs  Cs6  1  0.00150491  0.66750850  -0.00126002  1
  Cs  Cs7  1  -0.00020205  0.66588047  0.33325023  1
  Cs  Cs8  1  0.00009266  0.66686369  0.66888156  1
  Cs  Cs9  1  0.33462261  0.00461382  -0.00315614  1
  Cs  Cs10  1  0.33124413  0.00013293  0.33841948  1
  Cs  Cs11  1  0.33365343  0.00263189  0.66481102  1
  Cs  Cs12  1  0.33202536  0.33323481  -0.00208837  1
  Cs  Cs13  1  0.33375869  0.33437482  0.33370202  1
  Cs  Cs14  1  0.33258851  0.33008731  0.67009303  1
  Cs  Cs15  1  0.33227145  0.66513954  0.00327293  1
  Cs  Cs16  1  0.33340388  0.66675870  0.33195137  1
  Cs  Cs17  1  0.32937113  0.66929776  0.66668050  1
  Cs  Cs18  1  0.66540009  -0.00218011  -0.00262020  1
  Cs  Cs19  1  0.66646913  -0.00113074  0.33375278  1
  Cs  Cs20  1  0.66351860  0.00092394  0.66958218  1
  Cs  Cs21  1  0.66747591  0.33411594  0.00097987  1
  Cs  Cs22  1  0.66822268  0.33486672  0.33299022  1
  Cs  Cs23  1  0.66750979  0.33354908  0.66604677  1
  Cs  Cs24  1  0.66666481  0.66684268  0.00098285  1
  Cs  Cs25  1  0.66641466  0.66510835  0.33254126  1
  Cs  Cs26  1  0.66790913  0.66605950  0.66685938  1
  Sn  Sn27  1  0.16722335  0.50047698  0.16759901  1
  Sn  Sn28  1  0.50080028  0.50038795  0.83328626  1
  Sn  Sn29  1  0.83343622  0.50006582  0.50060002  1
  Sn  Sn30  1  0.49931468  0.49997311  0.16661953  1
  Sn  Sn31  1  0.49958954  0.83367303  0.16688748  1
  Sn  Sn32  1  0.49959433  0.50012581  0.50044588  1
  Sn  Sn33  1  0.83346014  0.83307738  0.16738059  1
  Sn  Sn34  1  0.16651976  0.49990773  0.49911724  1
  Sn  Sn35  1  0.83310082  0.16656517  0.50075374  1
  Sn  Sn36  1  0.50011869  0.16681478  0.16712822  1
  Sn  Sn37  1  0.83295323  0.83320378  0.49914027  1
  Sn  Sn38  1  0.83316030  0.16751372  0.83263811  1
  Sn  Sn39  1  0.16685564  0.83266309  0.16677282  1
  Sn  Sn40  1  0.83251713  0.49924095  0.83276387  1
  Pb  Pb41  1  0.16453906  0.83126577  0.49804664  1
  Pb  Pb42  1  0.49978596  0.83086057  0.83524283  1
  Pb  Pb43  1  0.50203211  0.16884535  0.49826388  1
  Pb  Pb44  1  0.83328775  0.83316273  0.83294374  1
  Pb  Pb45  1  0.16702403  0.83335178  0.83579368  1
  Pb  Pb46  1  0.16650565  0.49999778  0.83344485  1
  Pb  Pb47  1  0.83364301  0.50145694  0.16633485  1
  Pb  Pb48  1  0.16426119  0.16928556  0.50000642  1
  Pb  Pb49  1  0.50180764  0.83129645  0.49831546  1
  Pb  Pb50  1  0.16944127  0.16682764  0.16683850  1
  Pb  Pb51  1  0.50207384  0.16898659  0.83513393  1
  Pb  Pb52  1  0.16391488  0.16672549  0.83306994  1
  Pb  Pb53  1  0.83146990  0.16381376  0.16656350  1
  I  I54  1  0.16545966  -0.00326445  0.16566409  1
  I  I55  1  0.16396551  -0.00021623  0.49752773  1
  I  I56  1  0.16353534  0.00003536  0.83666305  1
  I  I57  1  0.17053837  0.33684564  0.16954032  1
  I  I58  1  0.16462529  0.33814570  0.49267694  1
  I  I59  1  0.16782053  0.33397372  0.83712507  1
  I  I60  1  0.17089036  0.66569088  0.17012792  1
  I  I61  1  0.16463102  0.66259894  0.49734390  1
  I  I62  1  0.16289026  0.66606342  0.83242512  1
  I  I63  1  0.50266586  -0.00087823  0.16647166  1
  I  I64  1  0.50318127  -0.00000439  0.49630000  1
  I  I65  1  0.50300774  0.00030658  0.83753518  1
  I  I66  1  0.49670236  0.33537904  0.16678360  1
  I  I67  1  0.50312352  0.33779990  0.49624678  1
  I  I68  1  0.50248641  0.33753756  0.83617975  1
  I  I69  1  0.49984148  0.66558259  0.16670293  1
  I  I70  1  0.50341731  0.66226326  0.49686614  1
  I  I71  1  0.50784546  0.66195219  0.83556528  1
  I  I72  1  0.83350940  -0.00418957  0.17006498  1
  I  I73  1  0.83300205  -0.00016916  0.49831204  1
  I  I74  1  0.83390658  0.00266229  0.83164589  1
  I  I75  1  0.83290534  0.33335769  0.16854516  1
  I  I76  1  0.83308741  0.33483805  0.50423824  1
  I  I77  1  0.82972926  0.33480449  0.82629028  1
  I  I78  1  0.82930414  0.66942341  0.17001826  1
  I  I79  1  0.83289562  0.66521869  0.49922524  1
  I  I80  1  0.83002659  0.66344979  0.83069418  1
  I  I81  1  0.16337290  0.16895895  0.00041286  1
  I  I82  1  0.16280063  0.16658534  0.33320659  1
  I  I83  1  0.16968239  0.16922687  0.66638248  1
  I  I84  1  0.16977191  0.50419394  0.00330448  1
  I  I85  1  0.16899631  0.50364347  0.33274601  1
  I  I86  1  0.16747108  0.49911915  0.66354104  1
  I  I87  1  0.16283378  0.82489379  0.00522716  1
  I  I88  1  0.16859455  0.82999215  0.32947136  1
  I  I89  1  0.16267376  0.83045015  0.66604211  1
  I  I90  1  0.50307008  0.16858238  0.00343904  1
  I  I91  1  0.50335727  0.16957405  0.33000863  1
  I  I92  1  0.50000503  0.16848937  0.66663419  1
  I  I93  1  0.50088901  0.50056049  0.00125665  1
  I  I94  1  0.50073319  0.50045283  0.33268268  1
  I  I95  1  0.50265592  0.49940724  0.66605670  1
  I  I96  1  0.50422304  0.83022471  0.00478618  1
  I  I97  1  0.49953879  0.82964952  0.32923453  1
  I  I98  1  0.50370620  0.83133783  0.66638387  1
  I  I99  1  0.83138304  0.17156929  -0.00235054  1
  I  I100  1  0.83185990  0.17065622  0.33606082  1
  I  I101  1  0.83274856  0.16768406  0.66596636  1
  I  I102  1  0.83011586  0.49744515  -0.00245205  1
  I  I103  1  0.83123678  0.49824953  0.33614988  1
  I  I104  1  0.83070599  0.50133900  0.66536657  1
  I  I105  1  0.83290737  0.83228855  0.00308666  1
  I  I106  1  0.83252923  0.83170339  0.33315545  1
  I  I107  1  0.83352583  0.83166922  0.66341505  1
  I  I108  1  -0.00027801  0.16694318  0.16601541  1
  I  I109  1  -0.00457443  0.16922712  0.50136089  1
  I  I110  1  -0.00484531  0.17481784  0.83214846  1
  I  I111  1  0.00242585  0.50488640  0.16941575  1
  I  I112  1  -0.00127714  0.50020050  0.49947004  1
  I  I113  1  -0.00329684  0.49707153  0.83040399  1
  I  I114  1  -0.00016655  0.82772714  0.17027715  1
  I  I115  1  -0.00402499  0.83079151  0.49405391  1
  I  I116  1  -0.00046890  0.83065429  0.83707611  1
  I  I117  1  0.33745519  0.16477761  0.16631658  1
  I  I118  1  0.33358638  0.16801857  0.49760086  1
  I  I119  1  0.33389210  0.16853312  0.83636599  1
  I  I120  1  0.33452980  0.50427201  0.16912363  1
  I  I121  1  0.33393002  0.50050053  0.49735996  1
  I  I122  1  0.33641380  0.50116057  0.83301979  1
  I  I123  1  0.33383877  0.82955476  0.16490790  1
  I  I124  1  0.33326897  0.83108566  0.49802369  1
  I  I125  1  0.33353968  0.83013333  0.83489828  1
  I  I126  1  0.66376152  0.17017634  0.16718730  1
  I  I127  1  0.67059060  0.16971799  0.50191124  1
  I  I128  1  0.67020886  0.16928159  0.83007700  1
  I  I129  1  0.66392963  0.50109623  0.16845871  1
  I  I130  1  0.66728782  0.50002430  0.49920422  1
  I  I131  1  0.66724219  0.49705533  0.83173855  1
  I  I132  1  0.66639397  0.83174002  0.17008174  1
  I  I133  1  0.67043452  0.82986992  0.49335592  1
  I  I134  1  0.66687189  0.83340112  0.83794312  1
