# generated using pymatgen
data_Cs27Sn13Pb14I81
_symmetry_space_group_name_H-M   'P 1'
_cell_length_a   18.97644427
_cell_length_b   18.97485327
_cell_length_c   18.97995757
_cell_angle_alpha   90.00162796
_cell_angle_beta   89.99986985
_cell_angle_gamma   89.99904733
_symmetry_Int_Tables_number   1
_chemical_formula_structural   Cs27Sn13Pb14I81
_chemical_formula_sum   'Cs27 Sn13 Pb14 I81'
_cell_volume   6834.21288484
_cell_formula_units_Z   1
loop_
 _symmetry_equiv_pos_site_id
 _symmetry_equiv_pos_as_xyz
  1  'x, y, z'
loop_
 _atom_site_type_symbol
 _atom_site_label
 _atom_site_symmetry_multiplicity
 _atom_site_fract_x
 _atom_site_fract_y
 _atom_site_fract_z
 _atom_site_occupancy
  Cs  Cs0  1  -0.00778129  -0.00752099  0.00558589  1
  Cs  Cs1  1  0.00708369  0.00017975  0.32726168  1
  Cs  Cs2  1  0.00311385  -0.00197202  0.66911209  1
  Cs  Cs3  1  0.00022149  0.33096742  -0.00165364  1
  Cs  Cs4  1  0.00218170  0.33306457  0.33381922  1
  Cs  Cs5  1  0.00025408  0.33489125  0.66671974  1
  Cs  Cs6  1  0.00156088  0.67296715  0.00149693  1
  Cs  Cs7  1  -0.00176756  0.66552701  0.33157651  1
  Cs  Cs8  1  -0.00019461  0.66220421  0.66641697  1
  Cs  Cs9  1  0.33305585  -0.00069341  -0.00080693  1
  Cs  Cs10  1  0.33052754  -0.00011499  0.33505672  1
  Cs  Cs11  1  0.33145817  -0.00476138  0.66515012  1
  Cs  Cs12  1  0.33495813  0.33574095  -0.00077528  1
  Cs  Cs13  1  0.33224497  0.33233232  0.33094031  1
  Cs  Cs14  1  0.33189771  0.33215302  0.66810050  1
  Cs  Cs15  1  0.33473403  0.66576954  0.00028589  1
  Cs  Cs16  1  0.33207716  0.66853793  0.33026721  1
  Cs  Cs17  1  0.33439505  0.67355640  0.66841337  1
  Cs  Cs18  1  0.67349329  0.00071752  0.00239275  1
  Cs  Cs19  1  0.66473329  -0.00007538  0.33216618  1
  Cs  Cs20  1  0.66629611  0.00022497  0.66765083  1
  Cs  Cs21  1  0.66478567  0.33228083  -0.00077025  1
  Cs  Cs22  1  0.66635034  0.33425895  0.33616707  1
  Cs  Cs23  1  0.66788204  0.33310374  0.66507532  1
  Cs  Cs24  1  0.66304052  0.66693555  -0.00147019  1
  Cs  Cs25  1  0.66781418  0.66568597  0.33576397  1
  Cs  Cs26  1  0.66500926  0.66712924  0.66532919  1
  Sn  Sn27  1  0.49930643  0.16682540  0.83291611  1
  Sn  Sn28  1  0.83338153  0.49959344  0.50020763  1
  Sn  Sn29  1  0.16712033  0.49974462  0.50070208  1
  Sn  Sn30  1  0.50014160  0.83414889  0.16683708  1
  Sn  Sn31  1  0.83360165  0.83405115  0.50008284  1
  Sn  Sn32  1  0.50040967  0.16739141  0.50021621  1
  Sn  Sn33  1  0.49932228  0.49946618  0.50016636  1
  Sn  Sn34  1  0.16691964  0.16712249  0.83358255  1
  Sn  Sn35  1  0.83333087  0.16619540  0.49996936  1
  Sn  Sn36  1  0.50009899  0.16591670  0.16689565  1
  Sn  Sn37  1  0.83386723  0.49974052  0.83361079  1
  Sn  Sn38  1  0.16606030  0.49913832  0.83244618  1
  Sn  Sn39  1  0.83319653  0.49945892  0.16623595  1
  Pb  Pb40  1  0.83354128  0.16829841  0.83134600  1
  Pb  Pb41  1  0.83138900  0.16872289  0.16935117  1
  Pb  Pb42  1  0.83316480  0.83027154  0.83086202  1
  Pb  Pb43  1  0.16415869  0.49978858  0.16603014  1
  Pb  Pb44  1  0.16367840  0.83022144  0.49996965  1
  Pb  Pb45  1  0.50031822  0.83688664  0.83586737  1
  Pb  Pb46  1  0.16910286  0.16688973  0.16327105  1
  Pb  Pb47  1  0.16684997  0.16841513  0.50167985  1
  Pb  Pb48  1  0.16943188  0.83330514  0.16675040  1
  Pb  Pb49  1  0.50176494  0.49953594  0.16902774  1
  Pb  Pb50  1  0.49977282  0.49837804  0.83084024  1
  Pb  Pb51  1  0.16658765  0.83313059  0.83332615  1
  Pb  Pb52  1  0.83130475  0.83101910  0.16913478  1
  Pb  Pb53  1  0.50159960  0.83382502  0.49859417  1
  I  I54  1  0.16362267  0.00032613  0.16587357  1
  I  I55  1  0.16650582  0.00012574  0.50176056  1
  I  I56  1  0.17334352  0.00334754  0.83163709  1
  I  I57  1  0.16938587  0.33342326  0.16902343  1
  I  I58  1  0.16200762  0.33679442  0.50198352  1
  I  I59  1  0.16689190  0.33439746  0.82891864  1
  I  I60  1  0.16948686  0.66623581  0.16557254  1
  I  I61  1  0.16767316  0.66148490  0.50636668  1
  I  I62  1  0.16169409  0.66273330  0.82884506  1
  I  I63  1  0.50092038  0.00151051  0.16906097  1
  I  I64  1  0.50531164  0.00362734  0.50157555  1
  I  I65  1  0.49405989  0.00523913  0.82601701  1
  I  I66  1  0.50157787  0.33038828  0.16594804  1
  I  I67  1  0.50563776  0.33296362  0.49817788  1
  I  I68  1  0.49937280  0.33025776  0.83746187  1
  I  I69  1  0.50248154  0.66827955  0.16974708  1
  I  I70  1  0.50217863  0.66379600  0.49807242  1
  I  I71  1  0.49984120  0.66649154  0.83381067  1
  I  I72  1  0.83366137  0.00011217  0.16790007  1
  I  I73  1  0.82506090  0.00101599  0.50100404  1
  I  I74  1  0.83338509  0.00020588  0.83123100  1
  I  I75  1  0.83060407  0.33674941  0.17010165  1
  I  I76  1  0.83117728  0.33481696  0.50023556  1
  I  I77  1  0.83374284  0.33673686  0.82955830  1
  I  I78  1  0.83066140  0.66301839  0.16992322  1
  I  I79  1  0.83290727  0.66436835  0.49978926  1
  I  I80  1  0.83882540  0.66158829  0.83087961  1
  I  I81  1  0.17208128  0.17552466  -0.00474730  1
  I  I82  1  0.16701582  0.16826034  0.33343995  1
  I  I83  1  0.17213945  0.17035129  0.66951014  1
  I  I84  1  0.16282820  0.49617387  -0.00378801  1
  I  I85  1  0.16534256  0.50023245  0.33649535  1
  I  I86  1  0.16065393  0.49572367  0.66627475  1
  I  I87  1  0.16662121  0.83053679  -0.00009446  1
  I  I88  1  0.16625024  0.83163906  0.33366322  1
  I  I89  1  0.16818764  0.83478813  0.66647793  1
  I  I90  1  0.49502024  0.16330979  -0.00019843  1
  I  I91  1  0.50608572  0.16742204  0.33443502  1
  I  I92  1  0.50113594  0.17320079  0.66566341  1
  I  I93  1  0.50122912  0.49934138  -0.00010591  1
  I  I94  1  0.50148044  0.49519934  0.33732801  1
  I  I95  1  0.50549489  0.49514516  0.66269189  1
  I  I96  1  0.50082153  0.83558055  0.00376973  1
  I  I97  1  0.50218827  0.83785344  0.33092962  1
  I  I98  1  0.50083958  0.83289808  0.66654118  1
  I  I99  1  0.83161151  0.16984734  -0.00004938  1
  I  I100  1  0.82761271  0.17056110  0.33773140  1
  I  I101  1  0.82701810  0.17038429  0.66300400  1
  I  I102  1  0.83689318  0.49859909  -0.00073206  1
  I  I103  1  0.83214651  0.50052703  0.33551345  1
  I  I104  1  0.83426249  0.49984483  0.66509350  1
  I  I105  1  0.83269800  0.83178834  0.00029229  1
  I  I106  1  0.83114430  0.82900923  0.33691492  1
  I  I107  1  0.83110566  0.83065793  0.66268475  1
  I  I108  1  -0.00025918  0.16805419  0.16738104  1
  I  I109  1  -0.00273840  0.16952008  0.50253419  1
  I  I110  1  0.00241060  0.17142117  0.82901709  1
  I  I111  1  -0.00389799  0.50024880  0.17328125  1
  I  I112  1  -0.00139485  0.50017175  0.50088950  1
  I  I113  1  -0.00017989  0.49388929  0.82681920  1
  I  I114  1  -0.00048956  0.83189120  0.16703722  1
  I  I115  1  -0.00449973  0.83313210  0.50003826  1
  I  I116  1  -0.00018533  0.83814997  0.83374426  1
  I  I117  1  0.33776806  0.16470523  0.17351513  1
  I  I118  1  0.33668620  0.17194976  0.49790961  1
  I  I119  1  0.33406270  0.17368414  0.83235952  1
  I  I120  1  0.33362360  0.50076470  0.16759136  1
  I  I121  1  0.33369744  0.49408422  0.50366885  1
  I  I122  1  0.33063012  0.49737086  0.82871083  1
  I  I123  1  0.33762344  0.83598763  0.16886708  1
  I  I124  1  0.33331460  0.83237800  0.49844057  1
  I  I125  1  0.33358110  0.82812502  0.83339110  1
  I  I126  1  0.66304654  0.16408275  0.16211032  1
  I  I127  1  0.66591377  0.17241603  0.50158937  1
  I  I128  1  0.66392434  0.16859689  0.83406334  1
  I  I129  1  0.66969278  0.49952496  0.16795225  1
  I  I130  1  0.66777970  0.49926016  0.49966010  1
  I  I131  1  0.66925685  0.49873621  0.83143640  1
  I  I132  1  0.66373953  0.83796886  0.16777101  1
  I  I133  1  0.66943031  0.82686399  0.49896608  1
  I  I134  1  0.66668845  0.83201566  0.83284912  1
