# generated using pymatgen
data_Cs27Sn14Pb13I81
_symmetry_space_group_name_H-M   'P 1'
_cell_length_a   18.97668082
_cell_length_b   18.98113138
_cell_length_c   18.97211117
_cell_angle_alpha   90.00063635
_cell_angle_beta   90.00109861
_cell_angle_gamma   89.99871940
_symmetry_Int_Tables_number   1
_chemical_formula_structural   Cs27Sn14Pb13I81
_chemical_formula_sum   'Cs27 Sn14 Pb13 I81'
_cell_volume   6833.73303595
_cell_formula_units_Z   1
loop_
 _symmetry_equiv_pos_site_id
 _symmetry_equiv_pos_as_xyz
  1  'x, y, z'
loop_
 _atom_site_type_symbol
 _atom_site_label
 _atom_site_symmetry_multiplicity
 _atom_site_fract_x
 _atom_site_fract_y
 _atom_site_fract_z
 _atom_site_occupancy
  Cs  Cs0  1  -0.00110055  -0.00052654  0.00181370  1
  Cs  Cs1  1  0.00017639  -0.00190117  0.33024771  1
  Cs  Cs2  1  -0.00050781  0.00113936  0.66688194  1
  Cs  Cs3  1  -0.00097911  0.33491832  0.00068300  1
  Cs  Cs4  1  -0.00247064  0.33481438  0.33384211  1
  Cs  Cs5  1  -0.00189171  0.33776984  0.66454826  1
  Cs  Cs6  1  0.00149982  0.66464828  -0.00128693  1
  Cs  Cs7  1  0.00432919  0.66707363  0.33331919  1
  Cs  Cs8  1  0.00891663  0.65961359  0.66638551  1
  Cs  Cs9  1  0.32881838  0.00347730  0.00378035  1
  Cs  Cs10  1  0.32931969  0.00229875  0.32873530  1
  Cs  Cs11  1  0.33570765  0.00081224  0.66708846  1
  Cs  Cs12  1  0.33458833  0.33053795  0.00392764  1
  Cs  Cs13  1  0.33453950  0.33161084  0.32890208  1
  Cs  Cs14  1  0.33500363  0.33145139  0.66700129  1
  Cs  Cs15  1  0.33283525  0.66711960  -0.00012799  1
  Cs  Cs16  1  0.33356548  0.66701375  0.33509111  1
  Cs  Cs17  1  0.33032176  0.66759756  0.66569364  1
  Cs  Cs18  1  0.66891973  -0.00145442  -0.00302303  1
  Cs  Cs19  1  0.66816442  -0.00423308  0.33585035  1
  Cs  Cs20  1  0.66569573  0.00051734  0.66678658  1
  Cs  Cs21  1  0.66733265  0.33435767  -0.00051240  1
  Cs  Cs22  1  0.66808219  0.33406175  0.33437473  1
  Cs  Cs23  1  0.66725545  0.33260625  0.66615384  1
  Cs  Cs24  1  0.66711145  0.66856869  0.00150237  1
  Cs  Cs25  1  0.66445692  0.67103760  0.33038215  1
  Cs  Cs26  1  0.66522316  0.66868137  0.66778801  1
  Sn  Sn27  1  0.50053564  0.83370286  0.83263424  1
  Sn  Sn28  1  0.83318419  0.83364445  0.83167893  1
  Sn  Sn29  1  0.50018174  0.49995899  0.83256625  1
  Sn  Sn30  1  0.49927712  0.16654599  0.50050764  1
  Sn  Sn31  1  0.83265102  0.16744106  0.16603338  1
  Sn  Sn32  1  0.50061069  0.83372160  0.50103568  1
  Sn  Sn33  1  0.83325572  0.83296935  0.50174996  1
  Sn  Sn34  1  0.83389742  0.49941853  0.16656953  1
  Sn  Sn35  1  0.50001309  0.16647561  0.83277283  1
  Sn  Sn36  1  0.83342825  0.16637249  0.83381112  1
  Sn  Sn37  1  0.16723083  0.16665616  0.50076381  1
  Sn  Sn38  1  0.16600044  0.49972084  0.16662957  1
  Sn  Sn39  1  0.50040426  0.49980653  0.50088866  1
  Sn  Sn40  1  0.16641508  0.16686515  0.83239077  1
  Pb  Pb41  1  0.83136954  0.50040905  0.83452398  1
  Pb  Pb42  1  0.49979538  0.83374943  0.16622030  1
  Pb  Pb43  1  0.16662517  0.83035650  0.16651409  1
  Pb  Pb44  1  0.50284915  0.16638655  0.16677146  1
  Pb  Pb45  1  0.16947525  0.49714781  0.49824515  1
  Pb  Pb46  1  0.83329554  0.83318694  0.16615762  1
  Pb  Pb47  1  0.16973720  0.49704853  0.83494698  1
  Pb  Pb48  1  0.83093641  0.50323730  0.49793013  1
  Pb  Pb49  1  0.83303812  0.16520294  0.50056220  1
  Pb  Pb50  1  0.16674808  0.83571065  0.83317839  1
  Pb  Pb51  1  0.50039693  0.49994552  0.16662817  1
  Pb  Pb52  1  0.16718885  0.83589742  0.50033357  1
  Pb  Pb53  1  0.16398404  0.16807025  0.16674923  1
  I  I54  1  0.16603318  0.00062873  0.16708529  1
  I  I55  1  0.17253001  0.00381940  0.50306575  1
  I  I56  1  0.17135880  0.00408236  0.83071763  1
  I  I57  1  0.16515161  0.33562924  0.16635298  1
  I  I58  1  0.17123025  0.32935805  0.50404391  1
  I  I59  1  0.16563838  0.32896467  0.83010357  1
  I  I60  1  0.15992096  0.66234727  0.16669934  1
  I  I61  1  0.16717284  0.66644862  0.49649230  1
  I  I62  1  0.16660382  0.66629873  0.83663588  1
  I  I63  1  0.50139913  0.00028399  0.16758439  1
  I  I64  1  0.50077840  0.00025646  0.50600460  1
  I  I65  1  0.50158914  0.00065492  0.82747357  1
  I  I66  1  0.49928190  0.33321551  0.16667668  1
  I  I67  1  0.49556967  0.33255153  0.50530054  1
  I  I68  1  0.50018204  0.33216661  0.82829662  1
  I  I69  1  0.50182727  0.66654160  0.16637449  1
  I  I70  1  0.50548123  0.66715445  0.50442642  1
  I  I71  1  0.50573090  0.66728470  0.82890664  1
  I  I72  1  0.83245033  0.00253719  0.16501282  1
  I  I73  1  0.82752310  -0.00253778  0.49862955  1
  I  I74  1  0.82855097  0.00101260  0.83590067  1
  I  I75  1  0.83603852  0.33265891  0.16105873  1
  I  I76  1  0.83236818  0.33336334  0.50058061  1
  I  I77  1  0.83175941  0.33032493  0.83654941  1
  I  I78  1  0.83645157  0.66404400  0.16704078  1
  I  I79  1  0.82692468  0.67106758  0.50423852  1
  I  I80  1  0.82676213  0.66966223  0.83258678  1
  I  I81  1  0.17068807  0.16758822  -0.00294625  1
  I  I82  1  0.17177079  0.16753421  0.33591422  1
  I  I83  1  0.16670545  0.16634557  0.66735960  1
  I  I84  1  0.16446943  0.49737350  0.00269370  1
  I  I85  1  0.16406538  0.49709628  0.33048933  1
  I  I86  1  0.16552608  0.50111214  0.66667298  1
  I  I87  1  0.16737829  0.83687652  -0.00039848  1
  I  I88  1  0.16637502  0.83731194  0.33369526  1
  I  I89  1  0.16499243  0.82940251  0.66674160  1
  I  I90  1  0.49691785  0.16735513  -0.00375981  1
  I  I91  1  0.49597530  0.16754278  0.33690245  1
  I  I92  1  0.50127910  0.16685716  0.66740120  1
  I  I93  1  0.50021466  0.49918511  -0.00311229  1
  I  I94  1  0.50005774  0.49989841  0.33641470  1
  I  I95  1  0.50060742  0.49907858  0.66687587  1
  I  I96  1  0.50536173  0.83252415  -0.00428324  1
  I  I97  1  0.50484917  0.83230045  0.33721977  1
  I  I98  1  0.50502405  0.83401854  0.66689566  1
  I  I99  1  0.83292545  0.16443999  -0.00182277  1
  I  I100  1  0.83348405  0.16871955  0.33151842  1
  I  I101  1  0.83244222  0.16397757  0.66987283  1
  I  I102  1  0.83366295  0.49977735  0.00263665  1
  I  I103  1  0.83438719  0.49332420  0.33001786  1
  I  I104  1  0.83388972  0.49654219  0.66659049  1
  I  I105  1  0.82766689  0.83522998  -0.00344942  1
  I  I106  1  0.82779778  0.83392372  0.33600266  1
  I  I107  1  0.82677170  0.84150155  0.66768203  1
  I  I108  1  -0.00366836  0.16794881  0.16303051  1
  I  I109  1  0.00192532  0.16435424  0.50236360  1
  I  I110  1  -0.00083532  0.16113114  0.83426996  1
  I  I111  1  -0.00094521  0.49485404  0.16593979  1
  I  I112  1  0.00002941  0.50003641  0.49967217  1
  I  I113  1  0.00011084  0.50029202  0.83420689  1
  I  I114  1  -0.00051170  0.83639491  0.16771122  1
  I  I115  1  -0.00286737  0.83645428  0.50236012  1
  I  I116  1  -0.00346424  0.83891191  0.83116521  1
  I  I117  1  0.33317312  0.16877918  0.16463794  1
  I  I118  1  0.33498596  0.16528753  0.50731107  1
  I  I119  1  0.33459759  0.16711414  0.82875708  1
  I  I120  1  0.33144864  0.49910550  0.16662642  1
  I  I121  1  0.33761247  0.50560427  0.50150854  1
  I  I122  1  0.33792080  0.50158061  0.83199720  1
  I  I123  1  0.33335115  0.83160035  0.16681235  1
  I  I124  1  0.33725238  0.83066002  0.50483258  1
  I  I125  1  0.33712176  0.83282604  0.82857151  1
  I  I126  1  0.67061797  0.17341497  0.16260686  1
  I  I127  1  0.66349823  0.16829362  0.50231448  1
  I  I128  1  0.66605380  0.16607112  0.83386557  1
  I  I129  1  0.66921631  0.49630050  0.16640596  1
  I  I130  1  0.66279550  0.49306984  0.50160208  1
  I  I131  1  0.66320430  0.49487924  0.83241249  1
  I  I132  1  0.66684111  0.83012842  0.16780441  1
  I  I133  1  0.66538161  0.83642996  0.50261389  1
  I  I134  1  0.66612086  0.83855906  0.83031398  1
