# generated using pymatgen
data_Cs27Sn13Pb14I81
_symmetry_space_group_name_H-M   'P 1'
_cell_length_a   18.97080204
_cell_length_b   18.98013742
_cell_length_c   18.98060534
_cell_angle_alpha   89.99920900
_cell_angle_beta   90.00144980
_cell_angle_gamma   90.00062745
_symmetry_Int_Tables_number   1
_chemical_formula_structural   Cs27Sn13Pb14I81
_chemical_formula_sum   'Cs27 Sn13 Pb14 I81'
_cell_volume   6834.31675775
_cell_formula_units_Z   1
loop_
 _symmetry_equiv_pos_site_id
 _symmetry_equiv_pos_as_xyz
  1  'x, y, z'
loop_
 _atom_site_type_symbol
 _atom_site_label
 _atom_site_symmetry_multiplicity
 _atom_site_fract_x
 _atom_site_fract_y
 _atom_site_fract_z
 _atom_site_occupancy
  Cs  Cs0  1  -0.00116245  -0.00235172  -0.00444091  1
  Cs  Cs1  1  -0.00064949  -0.00029599  0.33516600  1
  Cs  Cs2  1  -0.00026453  -0.00428059  0.66907371  1
  Cs  Cs3  1  0.00192060  0.33297995  -0.00164797  1
  Cs  Cs4  1  0.00190014  0.33320550  0.33269081  1
  Cs  Cs5  1  -0.00053600  0.33155891  0.66828029  1
  Cs  Cs6  1  -0.00075226  0.66741039  -0.00228466  1
  Cs  Cs7  1  -0.00268193  0.66726233  0.33675461  1
  Cs  Cs8  1  -0.00228228  0.67396564  0.66609413  1
  Cs  Cs9  1  0.33361199  -0.00007607  -0.00140123  1
  Cs  Cs10  1  0.33426024  0.00009925  0.33488749  1
  Cs  Cs11  1  0.33462103  0.00030997  0.66663260  1
  Cs  Cs12  1  0.33153911  0.33510253  -0.00086708  1
  Cs  Cs13  1  0.33076491  0.33253808  0.33461447  1
  Cs  Cs14  1  0.33477670  0.33230903  0.66660716  1
  Cs  Cs15  1  0.33495632  0.66372462  0.00235358  1
  Cs  Cs16  1  0.33193739  0.66707229  0.33210356  1
  Cs  Cs17  1  0.33623528  0.66805684  0.66590479  1
  Cs  Cs18  1  0.66661876  -0.00146501  0.00560458  1
  Cs  Cs19  1  0.66434191  0.00105801  0.32603607  1
  Cs  Cs20  1  0.66394005  0.00197057  0.66710564  1
  Cs  Cs21  1  0.66731878  0.33332315  0.00245515  1
  Cs  Cs22  1  0.67057984  0.33719745  0.32873453  1
  Cs  Cs23  1  0.66669342  0.33286593  0.66662213  1
  Cs  Cs24  1  0.66563889  0.66898643  0.00577289  1
  Cs  Cs25  1  0.67511321  0.66010425  0.32868437  1
  Cs  Cs26  1  0.66610578  0.66486768  0.66493552  1
  Sn  Sn27  1  0.83226188  0.16734048  0.83242344  1
  Sn  Sn28  1  0.16677573  0.16607754  0.16721118  1
  Sn  Sn29  1  0.83310971  0.16648381  0.50065918  1
  Sn  Sn30  1  0.50035012  0.83369341  0.50007880  1
  Sn  Sn31  1  0.16661073  0.83360227  0.16667842  1
  Sn  Sn32  1  0.16677391  0.49959063  0.50065365  1
  Sn  Sn33  1  0.16580944  0.49999576  0.83254872  1
  Sn  Sn34  1  0.50096751  0.16606181  0.83284818  1
  Sn  Sn35  1  0.50057389  0.16622232  0.50045438  1
  Sn  Sn36  1  0.50004931  0.83410042  0.83265377  1
  Sn  Sn37  1  0.16649405  0.50025761  0.16684486  1
  Sn  Sn38  1  0.16641331  0.16704004  0.49964386  1
  Sn  Sn39  1  0.83397121  0.49933979  0.83303859  1
  Pb  Pb40  1  0.50057181  0.49962150  0.83327668  1
  Pb  Pb41  1  0.82972385  0.83642172  0.50004324  1
  Pb  Pb42  1  0.16919013  0.83024254  0.83517383  1
  Pb  Pb43  1  0.49830527  0.83338792  0.16732865  1
  Pb  Pb44  1  0.49796728  0.49974891  0.16696774  1
  Pb  Pb45  1  0.83023661  0.83357347  0.83314890  1
  Pb  Pb46  1  0.83622473  0.16664145  0.16626948  1
  Pb  Pb47  1  0.83633660  0.83348778  0.16681566  1
  Pb  Pb48  1  0.83631057  0.49974825  0.16376788  1
  Pb  Pb49  1  0.83606267  0.49768494  0.50237011  1
  Pb  Pb50  1  0.16681290  0.16778402  0.83276402  1
  Pb  Pb51  1  0.16833453  0.83371057  0.49855624  1
  Pb  Pb52  1  0.49839818  0.49945415  0.49987558  1
  Pb  Pb53  1  0.49760680  0.16694514  0.16676516  1
  I  I54  1  0.16789433  0.00092706  0.17212587  1
  I  I55  1  0.16585166  0.00345706  0.49510911  1
  I  I56  1  0.16454917  -0.00007518  0.83478776  1
  I  I57  1  0.16705985  0.33343792  0.16773996  1
  I  I58  1  0.16896152  0.33223744  0.49550306  1
  I  I59  1  0.16806366  0.33585158  0.83758000  1
  I  I60  1  0.16855893  0.66571996  0.16560949  1
  I  I61  1  0.16940546  0.66401556  0.49887322  1
  I  I62  1  0.16241990  0.66207793  0.83291366  1
  I  I63  1  0.49522591  0.00020871  0.16576301  1
  I  I64  1  0.49621757  0.00176483  0.50492409  1
  I  I65  1  0.50322168  0.00148439  0.82940737  1
  I  I66  1  0.49635771  0.33295240  0.16555063  1
  I  I67  1  0.49927781  0.32937786  0.50564939  1
  I  I68  1  0.49960402  0.33005628  0.82832724  1
  I  I69  1  0.49549836  0.66687216  0.16476227  1
  I  I70  1  0.49477935  0.66947461  0.50549731  1
  I  I71  1  0.49713340  0.66924668  0.82953036  1
  I  I72  1  0.83697537  0.00044219  0.16412723  1
  I  I73  1  0.84139824  0.00487163  0.50716553  1
  I  I74  1  0.83298978  0.00353150  0.82962596  1
  I  I75  1  0.83545018  0.33313642  0.16816062  1
  I  I76  1  0.82894542  0.32935219  0.50198470  1
  I  I77  1  0.83250363  0.33215721  0.82967767  1
  I  I78  1  0.83479036  0.66639533  0.16495984  1
  I  I79  1  0.83403253  0.66651952  0.50069637  1
  I  I80  1  0.83845791  0.66387590  0.83474179  1
  I  I81  1  0.16723851  0.16855235  0.00200223  1
  I  I82  1  0.16735316  0.17143445  0.33447900  1
  I  I83  1  0.16773468  0.17195555  0.66365486  1
  I  I84  1  0.16366434  0.49911420  0.00002168  1
  I  I85  1  0.16986414  0.49811171  0.33347730  1
  I  I86  1  0.16455901  0.49296653  0.66648192  1
  I  I87  1  0.16924867  0.83515927  0.00315918  1
  I  I88  1  0.17024186  0.82961223  0.33059448  1
  I  I89  1  0.16641735  0.83288560  0.66672775  1
  I  I90  1  0.50273632  0.16307203  -0.00338203  1
  I  I91  1  0.50067137  0.16179039  0.33696993  1
  I  I92  1  0.49727053  0.16300289  0.66635537  1
  I  I93  1  0.49621455  0.50008127  -0.00041014  1
  I  I94  1  0.49742556  0.50016234  0.33370277  1
  I  I95  1  0.49445225  0.50081262  0.66676398  1
  I  I96  1  0.49826523  0.83732907  -0.00276482  1
  I  I97  1  0.49612609  0.84033484  0.33656491  1
  I  I98  1  0.49727322  0.83815130  0.66673690  1
  I  I99  1  0.83025330  0.17036821  -0.00356484  1
  I  I100  1  0.83141251  0.16545299  0.33656619  1
  I  I101  1  0.83488632  0.17110092  0.66685980  1
  I  I102  1  0.83868017  0.49292032  -0.00414760  1
  I  I103  1  0.83356812  0.49919582  0.33351615  1
  I  I104  1  0.83969607  0.49737691  0.67016422  1
  I  I105  1  0.83141520  0.83547296  -0.00034614  1
  I  I106  1  0.83116533  0.83467779  0.33363198  1
  I  I107  1  0.83855574  0.83097856  0.66667344  1
  I  I108  1  0.00459833  0.16831974  0.17030594  1
  I  I109  1  0.00076930  0.17262585  0.49928839  1
  I  I110  1  -0.00217905  0.17008814  0.83151696  1
  I  I111  1  0.00480411  0.49860655  0.16911618  1
  I  I112  1  0.00448643  0.49467123  0.49640664  1
  I  I113  1  0.00091200  0.49278325  0.83495292  1
  I  I114  1  0.00491709  0.83326715  0.16658307  1
  I  I115  1  -0.00000829  0.83363447  0.49769771  1
  I  I116  1  0.00006620  0.83536919  0.83583032  1
  I  I117  1  0.32913129  0.16804918  0.16990942  1
  I  I118  1  0.33310613  0.16693225  0.50002493  1
  I  I119  1  0.33572687  0.16481643  0.83088826  1
  I  I120  1  0.32837497  0.49940188  0.16274494  1
  I  I121  1  0.32934897  0.49402678  0.50188208  1
  I  I122  1  0.33032989  0.49930271  0.83513109  1
  I  I123  1  0.32995403  0.83244646  0.16639769  1
  I  I124  1  0.33606661  0.83930100  0.50351174  1
  I  I125  1  0.33671409  0.83946654  0.82996221  1
  I  I126  1  0.66677963  0.16598070  0.16877316  1
  I  I127  1  0.66610217  0.16133682  0.50703641  1
  I  I128  1  0.66652787  0.16918958  0.82511822  1
  I  I129  1  0.66745060  0.50096414  0.16523249  1
  I  I130  1  0.66709065  0.49992377  0.50264953  1
  I  I131  1  0.66958467  0.49790496  0.83169837  1
  I  I132  1  0.66639995  0.83356912  0.16567216  1
  I  I133  1  0.66173051  0.83798427  0.50565648  1
  I  I134  1  0.66241358  0.83283790  0.82939820  1
