# generated using pymatgen
data_Cs27Sn13Pb14I81
_symmetry_space_group_name_H-M   'P 1'
_cell_length_a   18.98641271
_cell_length_b   18.96910506
_cell_length_c   18.97877300
_cell_angle_alpha   89.99768667
_cell_angle_beta   89.99913655
_cell_angle_gamma   89.99864724
_symmetry_Int_Tables_number   1
_chemical_formula_structural   Cs27Sn13Pb14I81
_chemical_formula_sum   'Cs27 Sn13 Pb14 I81'
_cell_volume   6835.30486534
_cell_formula_units_Z   1
loop_
 _symmetry_equiv_pos_site_id
 _symmetry_equiv_pos_as_xyz
  1  'x, y, z'
loop_
 _atom_site_type_symbol
 _atom_site_label
 _atom_site_symmetry_multiplicity
 _atom_site_fract_x
 _atom_site_fract_y
 _atom_site_fract_z
 _atom_site_occupancy
  Cs  Cs0  1  -0.00077926  -0.00035350  0.00037433  1
  Cs  Cs1  1  -0.00113990  -0.00098705  0.33144444  1
  Cs  Cs2  1  0.00257187  -0.00109736  0.66683375  1
  Cs  Cs3  1  -0.00153020  0.33162579  -0.00237581  1
  Cs  Cs4  1  0.00122980  0.33217828  0.33387288  1
  Cs  Cs5  1  -0.00162700  0.33389147  0.66775961  1
  Cs  Cs6  1  0.00227318  0.66670222  -0.00280499  1
  Cs  Cs7  1  -0.00155054  0.66843132  0.33392400  1
  Cs  Cs8  1  -0.00237064  0.66739303  0.66886465  1
  Cs  Cs9  1  0.33740483  0.00181804  -0.00011879  1
  Cs  Cs10  1  0.33288308  0.00038892  0.33414629  1
  Cs  Cs11  1  0.33257276  -0.00223590  0.66606489  1
  Cs  Cs12  1  0.33262098  0.33506127  0.00243337  1
  Cs  Cs13  1  0.33270739  0.33400859  0.33423597  1
  Cs  Cs14  1  0.33224677  0.33352420  0.66410430  1
  Cs  Cs15  1  0.33132768  0.66441311  -0.00114641  1
  Cs  Cs16  1  0.33236363  0.66464927  0.33343480  1
  Cs  Cs17  1  0.33317877  0.66797631  0.66705434  1
  Cs  Cs18  1  0.66302428  0.00384303  0.00278763  1
  Cs  Cs19  1  0.66930618  -0.00817048  0.32591980  1
  Cs  Cs20  1  0.66196446  0.00146687  0.67070980  1
  Cs  Cs21  1  0.66771812  0.32740023  -0.00239312  1
  Cs  Cs22  1  0.66494949  0.33598938  0.33694351  1
  Cs  Cs23  1  0.66951571  0.33209262  0.66552817  1
  Cs  Cs24  1  0.66443155  0.66889365  0.00364551  1
  Cs  Cs25  1  0.67064427  0.66967862  0.33208338  1
  Cs  Cs26  1  0.66838770  0.66805764  0.66489022  1
  Sn  Sn27  1  0.83372627  0.49946067  0.16647360  1
  Sn  Sn28  1  0.49931991  0.49969644  0.50028915  1
  Sn  Sn29  1  0.50024777  0.49982005  0.16679230  1
  Sn  Sn30  1  0.16686314  0.49947026  0.49952247  1
  Sn  Sn31  1  0.16696715  0.83263932  0.16578812  1
  Sn  Sn32  1  0.16615758  0.50064711  0.16744796  1
  Sn  Sn33  1  0.83324786  0.16626190  0.49972609  1
  Sn  Sn34  1  0.50015134  0.49980474  0.83287199  1
  Sn  Sn35  1  0.83351759  0.83354890  0.83343576  1
  Sn  Sn36  1  0.50002228  0.16704397  0.49960512  1
  Sn  Sn37  1  0.16661665  0.16752234  0.50083525  1
  Sn  Sn38  1  0.16687967  0.16606507  0.83276562  1
  Sn  Sn39  1  0.16609705  0.83429689  0.83431656  1
  Pb  Pb40  1  0.49946904  0.83140194  0.83340372  1
  Pb  Pb41  1  0.49738571  0.16909630  0.83117488  1
  Pb  Pb42  1  0.83336853  0.83639024  0.50233511  1
  Pb  Pb43  1  0.83544058  0.16455362  0.83146621  1
  Pb  Pb44  1  0.83043325  0.50170554  0.83571457  1
  Pb  Pb45  1  0.83332527  0.16883243  0.16893875  1
  Pb  Pb46  1  0.83357008  0.49877958  0.49851881  1
  Pb  Pb47  1  0.50002061  0.83298800  0.49984136  1
  Pb  Pb48  1  0.49704606  0.83097515  0.16672090  1
  Pb  Pb49  1  0.16662212  0.83303916  0.50004688  1
  Pb  Pb50  1  0.16666357  0.16686447  0.16685985  1
  Pb  Pb51  1  0.16776890  0.49998264  0.83299904  1
  Pb  Pb52  1  0.83580382  0.83132824  0.16435607  1
  Pb  Pb53  1  0.49999863  0.16906763  0.16952489  1
  I  I54  1  0.16511292  -0.00265625  0.16629569  1
  I  I55  1  0.16798650  0.00324112  0.50097190  1
  I  I56  1  0.16315640  -0.00018005  0.83206740  1
  I  I57  1  0.16825403  0.33695592  0.16789242  1
  I  I58  1  0.16793532  0.33350539  0.49980358  1
  I  I59  1  0.16919893  0.33120750  0.83153851  1
  I  I60  1  0.16766243  0.66501022  0.16612567  1
  I  I61  1  0.17239577  0.66325548  0.49885720  1
  I  I62  1  0.16509527  0.66894339  0.83438907  1
  I  I63  1  0.49905087  0.00002369  0.16811795  1
  I  I64  1  0.49699224  0.00360884  0.50238076  1
  I  I65  1  0.50080699  0.00031476  0.83067339  1
  I  I66  1  0.49503926  0.33800034  0.16479007  1
  I  I67  1  0.49815148  0.33456219  0.49928559  1
  I  I68  1  0.49802121  0.33718849  0.83623268  1
  I  I69  1  0.50185911  0.66204709  0.16997512  1
  I  I70  1  0.49383081  0.66225035  0.49986349  1
  I  I71  1  0.49660924  0.66298681  0.83097258  1
  I  I72  1  0.83557733  -0.00026720  0.16801458  1
  I  I73  1  0.83578613  0.00461639  0.49984577  1
  I  I74  1  0.83624084  -0.00329816  0.83210019  1
  I  I75  1  0.83664578  0.33739063  0.16582413  1
  I  I76  1  0.83419700  0.33068820  0.50006026  1
  I  I77  1  0.83409989  0.33323795  0.83398733  1
  I  I78  1  0.83026530  0.66311324  0.16867198  1
  I  I79  1  0.83332459  0.66665403  0.49956054  1
  I  I80  1  0.84198667  0.66933118  0.83280547  1
  I  I81  1  0.16592239  0.16667858  -0.00263862  1
  I  I82  1  0.16756172  0.16838248  0.33682215  1
  I  I83  1  0.16696276  0.16699664  0.66537553  1
  I  I84  1  0.16874963  0.50093010  0.00254717  1
  I  I85  1  0.17121908  0.49977228  0.33329472  1
  I  I86  1  0.17199242  0.49882061  0.66386371  1
  I  I87  1  0.16292920  0.83109594  -0.00030499  1
  I  I88  1  0.16771319  0.83104779  0.33074438  1
  I  I89  1  0.16363394  0.83401519  0.66955598  1
  I  I90  1  0.49852849  0.16878765  -0.00014672  1
  I  I91  1  0.49490121  0.17316843  0.33796765  1
  I  I92  1  0.50158113  0.17374651  0.66305898  1
  I  I93  1  0.49791435  0.50306202  0.00089781  1
  I  I94  1  0.49768625  0.49532158  0.33368892  1
  I  I95  1  0.49382046  0.49679401  0.66525233  1
  I  I96  1  0.50078961  0.83024177  0.00002234  1
  I  I97  1  0.49863107  0.83210532  0.33320491  1
  I  I98  1  0.49768736  0.82914405  0.66678640  1
  I  I99  1  0.83555972  0.16741038  -0.00021708  1
  I  I100  1  0.83753810  0.16781655  0.33731940  1
  I  I101  1  0.83185741  0.16890628  0.66333928  1
  I  I102  1  0.83612676  0.50098308  0.00369256  1
  I  I103  1  0.83034545  0.49944926  0.33046264  1
  I  I104  1  0.83329007  0.50041239  0.66672447  1
  I  I105  1  0.83710217  0.83177316  -0.00318647  1
  I  I106  1  0.83399425  0.83367373  0.33300144  1
  I  I107  1  0.84157730  0.83081311  0.67002328  1
  I  I108  1  0.00035170  0.17055804  0.16990352  1
  I  I109  1  0.00164031  0.17137956  0.50375906  1
  I  I110  1  0.00361724  0.16750006  0.82735969  1
  I  I111  1  0.00157151  0.50392715  0.17206324  1
  I  I112  1  0.00317602  0.49579790  0.49542869  1
  I  I113  1  0.00005137  0.49860105  0.83350007  1
  I  I114  1  0.00368076  0.82666682  0.16561684  1
  I  I115  1  0.00028685  0.83253783  0.49832484  1
  I  I116  1  0.00190288  0.83576414  0.83678181  1
  I  I117  1  0.33307566  0.16824016  0.16809200  1
  I  I118  1  0.33255462  0.17221288  0.50376335  1
  I  I119  1  0.32949864  0.16063634  0.82792149  1
  I  I120  1  0.33289260  0.50388620  0.16790489  1
  I  I121  1  0.33299115  0.49272391  0.49551797  1
  I  I122  1  0.33562574  0.50141438  0.83661514  1
  I  I123  1  0.32900589  0.82784965  0.16086282  1
  I  I124  1  0.33298358  0.83661057  0.50241057  1
  I  I125  1  0.32976118  0.83571651  0.83640205  1
  I  I126  1  0.66657763  0.16851643  0.16753136  1
  I  I127  1  0.66581261  0.17371018  0.49983575  1
  I  I128  1  0.66644029  0.16580576  0.83139741  1
  I  I129  1  0.66577217  0.49851350  0.16756184  1
  I  I130  1  0.66360501  0.49562835  0.49934782  1
  I  I131  1  0.66259086  0.50176527  0.83100564  1
  I  I132  1  0.66678648  0.83159196  0.16575103  1
  I  I133  1  0.66676732  0.83177430  0.50221390  1
  I  I134  1  0.66902668  0.82966844  0.83088416  1
