# generated using pymatgen
data_Cs27Sn13Pb14I81
_symmetry_space_group_name_H-M   'P 1'
_cell_length_a   18.98214856
_cell_length_b   18.96758846
_cell_length_c   18.97908818
_cell_angle_alpha   89.99853154
_cell_angle_beta   90.00158787
_cell_angle_gamma   89.99802798
_symmetry_Int_Tables_number   1
_chemical_formula_structural   Cs27Sn13Pb14I81
_chemical_formula_sum   'Cs27 Sn13 Pb14 I81'
_cell_volume   6833.33683953
_cell_formula_units_Z   1
loop_
 _symmetry_equiv_pos_site_id
 _symmetry_equiv_pos_as_xyz
  1  'x, y, z'
loop_
 _atom_site_type_symbol
 _atom_site_label
 _atom_site_symmetry_multiplicity
 _atom_site_fract_x
 _atom_site_fract_y
 _atom_site_fract_z
 _atom_site_occupancy
  Cs  Cs0  1  0.00372404  -0.00158705  0.00464831  1
  Cs  Cs1  1  0.00278119  0.00248576  0.33006304  1
  Cs  Cs2  1  -0.00109524  -0.00031679  0.66497958  1
  Cs  Cs3  1  0.00036556  0.33799828  -0.00344418  1
  Cs  Cs4  1  0.00242040  0.32840241  0.34345833  1
  Cs  Cs5  1  -0.00512907  0.33919088  0.66128133  1
  Cs  Cs6  1  -0.00195790  0.66445422  0.00178011  1
  Cs  Cs7  1  -0.00511297  0.66828917  0.32763986  1
  Cs  Cs8  1  0.00251425  0.66468169  0.66906573  1
  Cs  Cs9  1  0.33351157  0.00078143  -0.00001573  1
  Cs  Cs10  1  0.33286997  0.00077362  0.33243709  1
  Cs  Cs11  1  0.33532023  -0.00204669  0.66820195  1
  Cs  Cs12  1  0.33316497  0.33324045  0.00008779  1
  Cs  Cs13  1  0.33190875  0.33495026  0.33438946  1
  Cs  Cs14  1  0.33025901  0.33742052  0.66690720  1
  Cs  Cs15  1  0.33310725  0.66594624  -0.00126688  1
  Cs  Cs16  1  0.33650622  0.66480212  0.33409154  1
  Cs  Cs17  1  0.33262403  0.66773273  0.66806246  1
  Cs  Cs18  1  0.66520807  0.00195470  -0.00048114  1
  Cs  Cs19  1  0.66528027  -0.00064511  0.33290604  1
  Cs  Cs20  1  0.66580563  -0.00017150  0.66715030  1
  Cs  Cs21  1  0.66888292  0.33099524  -0.00063445  1
  Cs  Cs22  1  0.66678734  0.34014112  0.33220065  1
  Cs  Cs23  1  0.67634649  0.32902543  0.66729777  1
  Cs  Cs24  1  0.66687622  0.66552946  0.00313635  1
  Cs  Cs25  1  0.66591439  0.66068360  0.33073733  1
  Cs  Cs26  1  0.66479157  0.67053616  0.66504552  1
  Sn  Sn27  1  0.49988968  0.83396805  0.16666086  1
  Sn  Sn28  1  0.16679983  0.49993255  0.16697736  1
  Sn  Sn29  1  0.83324072  0.83370896  0.50046688  1
  Sn  Sn30  1  0.83332373  0.83374116  0.83304539  1
  Sn  Sn31  1  0.50047209  0.50030561  0.83302274  1
  Sn  Sn32  1  0.83281191  0.16654863  0.16662157  1
  Sn  Sn33  1  0.50000449  0.83406851  0.49965428  1
  Sn  Sn34  1  0.50079031  0.16608560  0.16766051  1
  Sn  Sn35  1  0.16639157  0.16630948  0.83282544  1
  Sn  Sn36  1  0.16648368  0.83442709  0.83279114  1
  Sn  Sn37  1  0.49982210  0.16620628  0.49939522  1
  Sn  Sn38  1  0.16665654  0.83343980  0.50040876  1
  Sn  Sn39  1  0.50012751  0.83253860  0.83366175  1
  Pb  Pb40  1  0.83636129  0.16399683  0.83506375  1
  Pb  Pb41  1  0.50014877  0.49971430  0.50283307  1
  Pb  Pb42  1  0.49889153  0.49929691  0.16477085  1
  Pb  Pb43  1  0.83069689  0.83478228  0.16670019  1
  Pb  Pb44  1  0.83613279  0.49647388  0.16677086  1
  Pb  Pb45  1  0.83318495  0.50315625  0.50004347  1
  Pb  Pb46  1  0.16904010  0.16444036  0.50267053  1
  Pb  Pb47  1  0.16720197  0.16864722  0.16502959  1
  Pb  Pb48  1  0.16805823  0.50060518  0.83430582  1
  Pb  Pb49  1  0.16909396  0.83193573  0.16656104  1
  Pb  Pb50  1  0.49885641  0.16654889  0.83302319  1
  Pb  Pb51  1  0.16677950  0.50331690  0.49752309  1
  Pb  Pb52  1  0.83086185  0.16405731  0.49798443  1
  Pb  Pb53  1  0.83039527  0.50286177  0.83336638  1
  I  I54  1  0.16597836  -0.00008996  0.16708717  1
  I  I55  1  0.16600985  -0.00408932  0.50036678  1
  I  I56  1  0.17048714  -0.00245580  0.83212078  1
  I  I57  1  0.16985327  0.33586030  0.16190337  1
  I  I58  1  0.16895051  0.33310563  0.50101429  1
  I  I59  1  0.17189899  0.33125560  0.83799895  1
  I  I60  1  0.16985351  0.66465579  0.16443867  1
  I  I61  1  0.17094497  0.67177624  0.50760145  1
  I  I62  1  0.16653488  0.67054145  0.83051609  1
  I  I63  1  0.50185138  -0.00069477  0.16478210  1
  I  I64  1  0.49980561  -0.00223213  0.50122891  1
  I  I65  1  0.50076086  -0.00349996  0.83337125  1
  I  I66  1  0.50173182  0.33000268  0.16903197  1
  I  I67  1  0.49865684  0.33014778  0.49545424  1
  I  I68  1  0.49476001  0.33509522  0.83514776  1
  I  I69  1  0.49795352  0.66956640  0.16848931  1
  I  I70  1  0.49995856  0.67071678  0.49784033  1
  I  I71  1  0.49736607  0.66989286  0.83371593  1
  I  I72  1  0.83199197  0.00242127  0.16600829  1
  I  I73  1  0.83403235  -0.00417704  0.50442361  1
  I  I74  1  0.82662645  -0.00428891  0.82969540  1
  I  I75  1  0.82418031  0.32898567  0.16515224  1
  I  I76  1  0.83190358  0.33271635  0.49898882  1
  I  I77  1  0.83306664  0.33305005  0.83526891  1
  I  I78  1  0.83281089  0.66687549  0.16688761  1
  I  I79  1  0.82974007  0.67205846  0.50266329  1
  I  I80  1  0.83848914  0.67159078  0.83083196  1
  I  I81  1  0.16997868  0.15922473  -0.00268738  1
  I  I82  1  0.16531967  0.16655898  0.33355699  1
  I  I83  1  0.17027040  0.16373491  0.67037098  1
  I  I84  1  0.16933654  0.50213272  0.00195041  1
  I  I85  1  0.16965256  0.49968680  0.33003919  1
  I  I86  1  0.16853948  0.49885295  0.66661333  1
  I  I87  1  0.16772874  0.83535389  -0.00303678  1
  I  I88  1  0.16730072  0.83122262  0.33603251  1
  I  I89  1  0.17151025  0.83653470  0.66756951  1
  I  I90  1  0.50127301  0.16286100  0.00243294  1
  I  I91  1  0.50202501  0.15712513  0.33279479  1
  I  I92  1  0.49714629  0.16164405  0.66427912  1
  I  I93  1  0.49754150  0.50620492  -0.00281393  1
  I  I94  1  0.49865232  0.50323346  0.33331666  1
  I  I95  1  0.49666274  0.50663639  0.67042019  1
  I  I96  1  0.49930860  0.83356818  -0.00069211  1
  I  I97  1  0.49912532  0.83813169  0.33381951  1
  I  I98  1  0.49974772  0.83329336  0.66671543  1
  I  I99  1  0.82531998  0.16368004  0.00272535  1
  I  I100  1  0.83305962  0.16327714  0.33021676  1
  I  I101  1  0.83192564  0.16725704  0.66651718  1
  I  I102  1  0.83357895  0.50330415  0.00003047  1
  I  I103  1  0.83218133  0.50410327  0.33313081  1
  I  I104  1  0.83405990  0.49600226  0.66695189  1
  I  I105  1  0.83326501  0.83485846  -0.00271408  1
  I  I106  1  0.83395489  0.83505913  0.33604333  1
  I  I107  1  0.82848765  0.83402666  0.66697280  1
  I  I108  1  -0.00193203  0.16669853  0.16353535  1
  I  I109  1  0.00000617  0.16466690  0.49781177  1
  I  I110  1  0.00393621  0.16030930  0.83706551  1
  I  I111  1  0.00341763  0.50281060  0.16316480  1
  I  I112  1  0.00016897  0.49998201  0.50005381  1
  I  I113  1  -0.00005603  0.50083142  0.83586488  1
  I  I114  1  -0.00002336  0.83373781  0.16675938  1
  I  I115  1  0.00014528  0.83177069  0.50772860  1
  I  I116  1  0.00062380  0.83837796  0.82690917  1
  I  I117  1  0.33655790  0.16323830  0.16831920  1
  I  I118  1  0.33693808  0.15956721  0.49352224  1
  I  I119  1  0.33123402  0.16006995  0.83583116  1
  I  I120  1  0.33145061  0.49964649  0.16447847  1
  I  I121  1  0.33354391  0.50264281  0.49994163  1
  I  I122  1  0.33587754  0.50658529  0.83450206  1
  I  I123  1  0.33729601  0.83871973  0.16577602  1
  I  I124  1  0.33434540  0.83648278  0.50300553  1
  I  I125  1  0.33393948  0.83319324  0.83121340  1
  I  I126  1  0.66472245  0.16133805  0.16830811  1
  I  I127  1  0.66284065  0.15955740  0.50106374  1
  I  I128  1  0.66670952  0.16661192  0.83255058  1
  I  I129  1  0.66662969  0.50209963  0.16557527  1
  I  I130  1  0.66629298  0.50268201  0.49900714  1
  I  I131  1  0.66242889  0.50500291  0.83519141  1
  I  I132  1  0.66248911  0.83432995  0.16575130  1
  I  I133  1  0.66549477  0.83732423  0.50410103  1
  I  I134  1  0.66557943  0.82900487  0.83081958  1
