# generated using pymatgen
data_Cs27Sn14Pb13I81
_symmetry_space_group_name_H-M   'P 1'
_cell_length_a   18.97268780
_cell_length_b   18.97852263
_cell_length_c   18.97546092
_cell_angle_alpha   90.00004943
_cell_angle_beta   89.99996142
_cell_angle_gamma   89.99900605
_symmetry_Int_Tables_number   1
_chemical_formula_structural   Cs27Sn14Pb13I81
_chemical_formula_sum   'Cs27 Sn14 Pb13 I81'
_cell_volume   6832.56223568
_cell_formula_units_Z   1
loop_
 _symmetry_equiv_pos_site_id
 _symmetry_equiv_pos_as_xyz
  1  'x, y, z'
loop_
 _atom_site_type_symbol
 _atom_site_label
 _atom_site_symmetry_multiplicity
 _atom_site_fract_x
 _atom_site_fract_y
 _atom_site_fract_z
 _atom_site_occupancy
  Cs  Cs0  1  -0.00139269  -0.00053958  -0.00031590  1
  Cs  Cs1  1  -0.00116324  -0.00086864  0.33169555  1
  Cs  Cs2  1  -0.00117105  0.00212891  0.66728216  1
  Cs  Cs3  1  -0.00190076  0.33190293  0.00184804  1
  Cs  Cs4  1  -0.00173488  0.33310619  0.33095123  1
  Cs  Cs5  1  0.00163838  0.32717256  0.66381605  1
  Cs  Cs6  1  0.00027683  0.66806504  0.00101246  1
  Cs  Cs7  1  0.00230807  0.66652858  0.33134676  1
  Cs  Cs8  1  0.00173257  0.66893751  0.66687821  1
  Cs  Cs9  1  0.33563700  0.00001804  -0.00050218  1
  Cs  Cs10  1  0.34177151  0.00112693  0.33108791  1
  Cs  Cs11  1  0.33126046  0.00357211  0.67048138  1
  Cs  Cs12  1  0.33255605  0.33359045  0.00068410  1
  Cs  Cs13  1  0.33476348  0.33165934  0.33135325  1
  Cs  Cs14  1  0.33248082  0.33215006  0.66462567  1
  Cs  Cs15  1  0.33197688  0.66710360  0.00011134  1
  Cs  Cs16  1  0.33071219  0.66743321  0.33155393  1
  Cs  Cs17  1  0.33223245  0.66510063  0.66750008  1
  Cs  Cs18  1  0.66705681  0.00099556  -0.00028224  1
  Cs  Cs19  1  0.65834975  -0.00008146  0.33891024  1
  Cs  Cs20  1  0.67013043  -0.00176280  0.66650761  1
  Cs  Cs21  1  0.66949755  0.33408345  -0.00127612  1
  Cs  Cs22  1  0.66588980  0.33356627  0.34143384  1
  Cs  Cs23  1  0.66488326  0.34245486  0.66258782  1
  Cs  Cs24  1  0.66954464  0.66491514  -0.00216848  1
  Cs  Cs25  1  0.66585394  0.66707702  0.34365813  1
  Cs  Cs26  1  0.66441958  0.65987735  0.66170349  1
  Sn  Sn27  1  0.16656946  0.83276737  0.83336186  1
  Sn  Sn28  1  0.16619970  0.16605654  0.16628292  1
  Sn  Sn29  1  0.83309803  0.83373657  0.83411008  1
  Sn  Sn30  1  0.50002947  0.50039291  0.16616029  1
  Sn  Sn31  1  0.16636265  0.83396442  0.16674786  1
  Sn  Sn32  1  0.50152247  0.16637494  0.83378396  1
  Sn  Sn33  1  0.16651649  0.50056205  0.49978973  1
  Sn  Sn34  1  0.16669373  0.83331200  0.49980675  1
  Sn  Sn35  1  0.83354485  0.16531319  0.16623566  1
  Sn  Sn36  1  0.83338356  0.83422198  0.16625790  1
  Sn  Sn37  1  0.16626680  0.50033696  0.83347925  1
  Sn  Sn38  1  0.16748756  0.49993855  0.16638509  1
  Sn  Sn39  1  0.50033146  0.83371520  0.83368919  1
  Sn  Sn40  1  0.83202372  0.16608676  0.83410238  1
  Pb  Pb41  1  0.16663460  0.16598754  0.49632659  1
  Pb  Pb42  1  0.83325006  0.50045857  0.16681215  1
  Pb  Pb43  1  0.83342399  0.16628835  0.49980620  1
  Pb  Pb44  1  0.83680114  0.50016255  0.49998819  1
  Pb  Pb45  1  0.49994099  0.16653029  0.50393677  1
  Pb  Pb46  1  0.50092322  0.83138320  0.16467561  1
  Pb  Pb47  1  0.83626207  0.50005388  0.83324558  1
  Pb  Pb48  1  0.49766636  0.50001865  0.83500607  1
  Pb  Pb49  1  0.50116468  0.16857845  0.16482946  1
  Pb  Pb50  1  0.16620410  0.16634050  0.83532706  1
  Pb  Pb51  1  0.49672188  0.50019468  0.49697723  1
  Pb  Pb52  1  0.83559459  0.83347917  0.49993871  1
  Pb  Pb53  1  0.49671869  0.83344430  0.50361003  1
  I  I54  1  0.16194862  -0.00104040  0.16533664  1
  I  I55  1  0.16539208  -0.00340701  0.50307992  1
  I  I56  1  0.16726341  -0.00328742  0.83284070  1
  I  I57  1  0.16671945  0.33385633  0.16582876  1
  I  I58  1  0.16702584  0.33627402  0.50168218  1
  I  I59  1  0.16740364  0.33557688  0.83395903  1
  I  I60  1  0.16659307  0.66718223  0.16640656  1
  I  I61  1  0.16630952  0.66693233  0.49646469  1
  I  I62  1  0.16712907  0.66818718  0.83705859  1
  I  I63  1  0.49561773  -0.00011533  0.16703683  1
  I  I64  1  0.49624287  -0.00024867  0.49461907  1
  I  I65  1  0.49630610  -0.00085877  0.83525397  1
  I  I66  1  0.49235819  0.33607284  0.16321015  1
  I  I67  1  0.49730582  0.33359752  0.50181159  1
  I  I68  1  0.50280434  0.33089064  0.83611827  1
  I  I69  1  0.49265873  0.66392315  0.16322434  1
  I  I70  1  0.50262707  0.66675512  0.50254905  1
  I  I71  1  0.50087024  0.66952426  0.83530886  1
  I  I72  1  0.84443784  -0.00048175  0.16091568  1
  I  I73  1  0.83824921  -0.00023650  0.50067946  1
  I  I74  1  0.83573152  -0.00099245  0.83721836  1
  I  I75  1  0.83857680  0.33038806  0.16105030  1
  I  I76  1  0.83599479  0.33316551  0.49988197  1
  I  I77  1  0.83076225  0.33005770  0.83875081  1
  I  I78  1  0.83865835  0.67016381  0.16060142  1
  I  I79  1  0.83145151  0.66704814  0.49978438  1
  I  I80  1  0.83254712  0.67034804  0.83864108  1
  I  I81  1  0.16608495  0.16795897  0.00338452  1
  I  I82  1  0.16057872  0.16796889  0.32807441  1
  I  I83  1  0.16706691  0.16801038  0.66684701  1
  I  I84  1  0.17044031  0.50309192  0.00073804  1
  I  I85  1  0.17001805  0.50335149  0.33221687  1
  I  I86  1  0.16539421  0.50785277  0.66719951  1
  I  I87  1  0.16610776  0.83027342  -0.00004090  1
  I  I88  1  0.16102732  0.82944672  0.33181317  1
  I  I89  1  0.16732583  0.82586931  0.66804699  1
  I  I90  1  0.49956091  0.16273708  -0.00299007  1
  I  I91  1  0.49937266  0.16874910  0.33302321  1
  I  I92  1  0.50333479  0.16297954  0.67222100  1
  I  I93  1  0.49080545  0.50027701  0.00248416  1
  I  I94  1  0.49434783  0.49961258  0.32921032  1
  I  I95  1  0.49867843  0.49916958  0.66672849  1
  I  I96  1  0.49355065  0.83601177  -0.00334952  1
  I  I97  1  0.50016298  0.83153179  0.33326852  1
  I  I98  1  0.50065976  0.83637614  0.67190669  1
  I  I99  1  0.83474244  0.16267128  0.00000001  1
  I  I100  1  0.84033948  0.16386831  0.32938599  1
  I  I101  1  0.83131434  0.16156410  0.67048197  1
  I  I102  1  0.83649359  0.49972215  0.00007120  1
  I  I103  1  0.83466137  0.49958355  0.33289383  1
  I  I104  1  0.83397447  0.49965406  0.66699909  1
  I  I105  1  0.83976158  0.83693828  -0.00046049  1
  I  I106  1  0.83962095  0.83624871  0.32967493  1
  I  I107  1  0.83550789  0.83809859  0.67041286  1
  I  I108  1  0.00047973  0.16843633  0.16086597  1
  I  I109  1  0.00039474  0.16831295  0.50610510  1
  I  I110  1  -0.00252317  0.16425123  0.83552422  1
  I  I111  1  0.00374535  0.50009661  0.16691867  1
  I  I112  1  0.00512528  0.50451283  0.49639717  1
  I  I113  1  0.00467467  0.50446856  0.83743783  1
  I  I114  1  0.00174542  0.83172048  0.16250781  1
  I  I115  1  0.00402250  0.82845254  0.50380419  1
  I  I116  1  0.00083420  0.83304180  0.83388616  1
  I  I117  1  0.33081900  0.16516710  0.16540897  1
  I  I118  1  0.33288870  0.16691946  0.50040588  1
  I  I119  1  0.33478061  0.16349356  0.83511834  1
  I  I120  1  0.33015238  0.50002151  0.16645941  1
  I  I121  1  0.32874304  0.50491918  0.50297752  1
  I  I122  1  0.32927047  0.50391672  0.83254842  1
  I  I123  1  0.32998534  0.83466636  0.16585091  1
  I  I124  1  0.32843189  0.82821715  0.49749560  1
  I  I125  1  0.33195597  0.83343198  0.83343872  1
  I  I126  1  0.67008268  0.16331526  0.16311126  1
  I  I127  1  0.66667662  0.16678991  0.49338249  1
  I  I128  1  0.66765361  0.15768141  0.84075873  1
  I  I129  1  0.66420967  0.49953150  0.16305724  1
  I  I130  1  0.66626437  0.49896913  0.49849948  1
  I  I131  1  0.66661893  0.50225401  0.83586578  1
  I  I132  1  0.67001468  0.83647067  0.16029157  1
  I  I133  1  0.66653370  0.83388327  0.49867536  1
  I  I134  1  0.66755470  0.83915272  0.84049577  1
