# generated using pymatgen
data_Cs27Sn13Pb14I81
_symmetry_space_group_name_H-M   'P 1'
_cell_length_a   18.97711773
_cell_length_b   18.99330769
_cell_length_c   19.00369151
_cell_angle_alpha   89.99984014
_cell_angle_beta   89.99977579
_cell_angle_gamma   90.00086812
_symmetry_Int_Tables_number   1
_chemical_formula_structural   Cs27Sn13Pb14I81
_chemical_formula_sum   'Cs27 Sn13 Pb14 I81'
_cell_volume   6849.65704798
_cell_formula_units_Z   1
loop_
 _symmetry_equiv_pos_site_id
 _symmetry_equiv_pos_as_xyz
  1  'x, y, z'
loop_
 _atom_site_type_symbol
 _atom_site_label
 _atom_site_symmetry_multiplicity
 _atom_site_fract_x
 _atom_site_fract_y
 _atom_site_fract_z
 _atom_site_occupancy
  Cs  Cs0  1  0.00236598  0.00317024  -0.00150428  1
  Cs  Cs1  1  0.00187411  0.00272182  0.33387428  1
  Cs  Cs2  1  0.00105184  0.00314346  0.66752367  1
  Cs  Cs3  1  -0.00057057  0.33077339  0.00141046  1
  Cs  Cs4  1  0.00041642  0.33345890  0.33413187  1
  Cs  Cs5  1  -0.00154724  0.33166435  0.66362910  1
  Cs  Cs6  1  -0.00035524  0.66718726  0.00439723  1
  Cs  Cs7  1  -0.00587772  0.66425018  0.33506218  1
  Cs  Cs8  1  -0.00235924  0.66560862  0.65866205  1
  Cs  Cs9  1  0.33131841  0.00068793  0.00188998  1
  Cs  Cs10  1  0.33705212  0.00150353  0.33336577  1
  Cs  Cs11  1  0.33251585  0.00106364  0.66503103  1
  Cs  Cs12  1  0.33298571  0.33427355  0.00067316  1
  Cs  Cs13  1  0.33519690  0.33434157  0.33357878  1
  Cs  Cs14  1  0.33315607  0.33448250  0.66645234  1
  Cs  Cs15  1  0.33336801  0.66429823  -0.00196794  1
  Cs  Cs16  1  0.33206648  0.66157694  0.33329550  1
  Cs  Cs17  1  0.33418152  0.66384502  0.66919383  1
  Cs  Cs18  1  0.66717219  -0.00828783  0.00048846  1
  Cs  Cs19  1  0.65674965  -0.00444954  0.33461879  1
  Cs  Cs20  1  0.66825307  -0.00806696  0.66492974  1
  Cs  Cs21  1  0.66933881  0.33618772  -0.00448126  1
  Cs  Cs22  1  0.66230415  0.33184597  0.33260095  1
  Cs  Cs23  1  0.66657741  0.33473795  0.67314363  1
  Cs  Cs24  1  0.67279451  0.67161364  -0.00555226  1
  Cs  Cs25  1  0.67668324  0.67214088  0.33339120  1
  Cs  Cs26  1  0.67013376  0.67413739  0.67298441  1
  Sn  Sn27  1  0.16726336  0.49979899  0.16597431  1
  Sn  Sn28  1  0.16707581  0.83329109  0.16718050  1
  Sn  Sn29  1  0.49997854  0.50039648  0.16730582  1
  Sn  Sn30  1  0.50059740  0.50039167  0.49936403  1
  Sn  Sn31  1  0.16726554  0.83406708  0.49962639  1
  Sn  Sn32  1  0.83326156  0.16706878  0.49855506  1
  Sn  Sn33  1  0.49928070  0.16626918  0.83350966  1
  Sn  Sn34  1  0.16650599  0.16603872  0.49963802  1
  Sn  Sn35  1  0.16648791  0.49970882  0.83402032  1
  Sn  Sn36  1  0.16641683  0.16685242  0.16706660  1
  Sn  Sn37  1  0.16776470  0.16707277  0.83331377  1
  Sn  Sn38  1  0.83336139  0.16673642  0.16799544  1
  Sn  Sn39  1  0.16680081  0.83308022  0.83315497  1
  Pb  Pb40  1  0.16748759  0.49971296  0.49970863  1
  Pb  Pb41  1  0.50017008  0.16801889  0.50206644  1
  Pb  Pb42  1  0.83343317  0.16649493  0.83339064  1
  Pb  Pb43  1  0.83614612  0.83681130  0.16682204  1
  Pb  Pb44  1  0.49750403  0.82978860  0.16669024  1
  Pb  Pb45  1  0.83692858  0.49996356  0.83334655  1
  Pb  Pb46  1  0.83336254  0.49765482  0.16670919  1
  Pb  Pb47  1  0.50021678  0.16833131  0.16448514  1
  Pb  Pb48  1  0.83606550  0.83648575  0.49975157  1
  Pb  Pb49  1  0.49721788  0.83603366  0.83344273  1
  Pb  Pb50  1  0.49719481  0.83011854  0.49982174  1
  Pb  Pb51  1  0.82948412  0.49720521  0.49992283  1
  Pb  Pb52  1  0.49836926  0.49874052  0.83387149  1
  Pb  Pb53  1  0.83709351  0.83358201  0.83337989  1
  I  I54  1  0.16140739  0.00084136  0.16368170  1
  I  I55  1  0.16311870  0.00130194  0.50098413  1
  I  I56  1  0.16982721  0.00092710  0.83554941  1
  I  I57  1  0.16656406  0.33277240  0.16386471  1
  I  I58  1  0.16467225  0.33026182  0.50067051  1
  I  I59  1  0.17065258  0.33241505  0.83590748  1
  I  I60  1  0.17278655  0.66628150  0.16278269  1
  I  I61  1  0.17041485  0.66898482  0.50127417  1
  I  I62  1  0.16669799  0.66655874  0.83653595  1
  I  I63  1  0.49967020  0.00000879  0.16539769  1
  I  I64  1  0.50166272  0.00001419  0.50182741  1
  I  I65  1  0.49297881  0.00403012  0.83283418  1
  I  I66  1  0.49142013  0.33596708  0.16969067  1
  I  I67  1  0.49500498  0.33554404  0.49656485  1
  I  I68  1  0.49196025  0.33080848  0.83294908  1
  I  I69  1  0.49111448  0.66187825  0.16959539  1
  I  I70  1  0.49431647  0.66244931  0.49639643  1
  I  I71  1  0.49755876  0.66669062  0.83269671  1
  I  I72  1  0.84027905  0.00467436  0.16882011  1
  I  I73  1  0.83562844  0.00437899  0.49717284  1
  I  I74  1  0.83502037  0.00043366  0.83359418  1
  I  I75  1  0.84209147  0.32984364  0.16940653  1
  I  I76  1  0.84421859  0.32936943  0.49699302  1
  I  I77  1  0.83587094  0.33277534  0.83329070  1
  I  I78  1  0.83439515  0.66685165  0.16636477  1
  I  I79  1  0.83487511  0.66690403  0.50032876  1
  I  I80  1  0.83229953  0.66680734  0.83324835  1
  I  I81  1  0.16645154  0.16515950  0.00019336  1
  I  I82  1  0.16213311  0.16492953  0.33310362  1
  I  I83  1  0.16659790  0.16456549  0.66673951  1
  I  I84  1  0.17237733  0.49896137  0.00087250  1
  I  I85  1  0.16910045  0.49912331  0.33043530  1
  I  I86  1  0.16934955  0.49918269  0.66893420  1
  I  I87  1  0.16687122  0.83638327  0.00014161  1
  I  I88  1  0.16700329  0.83686065  0.33305978  1
  I  I89  1  0.16699992  0.83729395  0.66681089  1
  I  I90  1  0.49264034  0.16989188  -0.00290840  1
  I  I91  1  0.49725613  0.16726822  0.33322811  1
  I  I92  1  0.49275297  0.17094649  0.66946399  1
  I  I93  1  0.49456980  0.49652958  0.00279672  1
  I  I94  1  0.48989100  0.49634021  0.33233510  1
  I  I95  1  0.49586244  0.49611590  0.66499364  1
  I  I96  1  0.49723297  0.83249537  0.00002850  1
  I  I97  1  0.49549141  0.83788570  0.33325643  1
  I  I98  1  0.49666048  0.83116546  0.66665644  1
  I  I99  1  0.83941749  0.16798192  0.00271996  1
  I  I100  1  0.84519563  0.16823421  0.33318204  1
  I  I101  1  0.83907459  0.16741759  0.66401847  1
  I  I102  1  0.82928576  0.49599560  0.00018333  1
  I  I103  1  0.83970079  0.50036641  0.33332001  1
  I  I104  1  0.83438494  0.49570432  0.66649615  1
  I  I105  1  0.83501654  0.83562924  0.00021938  1
  I  I106  1  0.83725835  0.83092083  0.33328547  1
  I  I107  1  0.83555861  0.83582598  0.66645795  1
  I  I108  1  0.00310566  0.16845961  0.16476646  1
  I  I109  1  0.00253660  0.16389349  0.50197539  1
  I  I110  1  0.00400701  0.16590406  0.83360256  1
  I  I111  1  0.00388278  0.50181057  0.16188097  1
  I  I112  1  0.00000139  0.50219073  0.50088967  1
  I  I113  1  0.00587675  0.49563681  0.83955080  1
  I  I114  1  0.00524705  0.82743195  0.16572917  1
  I  I115  1  0.00480289  0.83253909  0.50089424  1
  I  I116  1  0.00583228  0.83855408  0.83424420  1
  I  I117  1  0.32950613  0.16492309  0.16862752  1
  I  I118  1  0.32981838  0.16404157  0.49796588  1
  I  I119  1  0.32992789  0.16694420  0.83315633  1
  I  I120  1  0.33093234  0.49714661  0.16670335  1
  I  I121  1  0.33482599  0.49681943  0.49862529  1
  I  I122  1  0.32945121  0.50104578  0.83475154  1
  I  I123  1  0.32834641  0.84063955  0.16583726  1
  I  I124  1  0.32859789  0.84228583  0.50028028  1
  I  I125  1  0.32837931  0.83136285  0.83371146  1
  I  I126  1  0.66928073  0.17069005  0.16992207  1
  I  I127  1  0.66932144  0.17117929  0.49636439  1
  I  I128  1  0.66398224  0.17095717  0.83326486  1
  I  I129  1  0.66364472  0.49460187  0.17164820  1
  I  I130  1  0.66192641  0.49549279  0.49250729  1
  I  I131  1  0.66634842  0.49523845  0.83382186  1
  I  I132  1  0.66682262  0.83402252  0.16657555  1
  I  I133  1  0.66677321  0.83452371  0.50029627  1
  I  I134  1  0.66660001  0.83509108  0.83302394  1
