# generated using pymatgen
data_Cs27Sn14Pb13I81
_symmetry_space_group_name_H-M   'P 1'
_cell_length_a   18.95666402
_cell_length_b   18.96242795
_cell_length_c   18.96198445
_cell_angle_alpha   89.99619524
_cell_angle_beta   90.00298163
_cell_angle_gamma   89.99700522
_symmetry_Int_Tables_number   1
_chemical_formula_structural   Cs27Sn14Pb13I81
_chemical_formula_sum   'Cs27 Sn14 Pb13 I81'
_cell_volume   6816.15786961
_cell_formula_units_Z   1
loop_
 _symmetry_equiv_pos_site_id
 _symmetry_equiv_pos_as_xyz
  1  'x, y, z'
loop_
 _atom_site_type_symbol
 _atom_site_label
 _atom_site_symmetry_multiplicity
 _atom_site_fract_x
 _atom_site_fract_y
 _atom_site_fract_z
 _atom_site_occupancy
  Cs  Cs0  1  0.00055955  -0.00045589  -0.00211989  1
  Cs  Cs1  1  -0.00188090  0.00239766  0.33261816  1
  Cs  Cs2  1  0.00079163  -0.00253341  0.66842882  1
  Cs  Cs3  1  0.00136297  0.33267726  0.00178063  1
  Cs  Cs4  1  0.00094148  0.33437590  0.33352278  1
  Cs  Cs5  1  -0.00212539  0.33496664  0.66283767  1
  Cs  Cs6  1  -0.00062255  0.66781677  -0.00113981  1
  Cs  Cs7  1  0.00160098  0.66378485  0.33548387  1
  Cs  Cs8  1  0.00334537  0.66841817  0.66521379  1
  Cs  Cs9  1  0.32876134  0.00113505  -0.00097692  1
  Cs  Cs10  1  0.33804387  -0.00393968  0.33665303  1
  Cs  Cs11  1  0.33168340  0.00083414  0.66432679  1
  Cs  Cs12  1  0.33032990  0.33250386  -0.00244340  1
  Cs  Cs13  1  0.32994473  0.33442825  0.33122987  1
  Cs  Cs14  1  0.34136831  0.32956865  0.67243419  1
  Cs  Cs15  1  0.33798089  0.66445944  0.00109152  1
  Cs  Cs16  1  0.33168363  0.66961020  0.33567645  1
  Cs  Cs17  1  0.33073665  0.66871632  0.66592403  1
  Cs  Cs18  1  0.67008147  -0.00335225  0.00388513  1
  Cs  Cs19  1  0.66556742  0.00036889  0.33215204  1
  Cs  Cs20  1  0.66708181  0.00201608  0.66448223  1
  Cs  Cs21  1  0.66716937  0.33521564  -0.00000173  1
  Cs  Cs22  1  0.66870490  0.33300879  0.33354601  1
  Cs  Cs23  1  0.66429850  0.33407155  0.66686473  1
  Cs  Cs24  1  0.66583536  0.66660454  0.00017435  1
  Cs  Cs25  1  0.66624332  0.66654130  0.33169172  1
  Cs  Cs26  1  0.66840807  0.66289031  0.67121699  1
  Sn  Sn27  1  0.16571466  0.83325268  0.16671817  1
  Sn  Sn28  1  0.50068428  0.49884921  0.16789070  1
  Sn  Sn29  1  0.83467370  0.49918439  0.83418403  1
  Sn  Sn30  1  0.83280859  0.16689316  0.16661357  1
  Sn  Sn31  1  0.16553470  0.49983928  0.83344213  1
  Sn  Sn32  1  0.50014242  0.83405933  0.83316695  1
  Sn  Sn33  1  0.83305062  0.83369069  0.49925722  1
  Sn  Sn34  1  0.83322025  0.16751880  0.83348687  1
  Sn  Sn35  1  0.50013396  0.50008546  0.49878613  1
  Sn  Sn36  1  0.83293240  0.49988226  0.16594151  1
  Sn  Sn37  1  0.50052503  0.16768194  0.16649634  1
  Sn  Sn38  1  0.83419360  0.16581846  0.49992511  1
  Sn  Sn39  1  0.83458588  0.83310549  0.16769206  1
  Sn  Sn40  1  0.16621630  0.16691186  0.49987174  1
  Pb  Pb41  1  0.16656111  0.50174734  0.16539099  1
  Pb  Pb42  1  0.83235802  0.83316932  0.83339952  1
  Pb  Pb43  1  0.16402217  0.16853458  0.83102996  1
  Pb  Pb44  1  0.16959451  0.49762063  0.50253604  1
  Pb  Pb45  1  0.50049228  0.50100149  0.83404148  1
  Pb  Pb46  1  0.50042788  0.83327832  0.16560815  1
  Pb  Pb47  1  0.50065140  0.16832261  0.49778468  1
  Pb  Pb48  1  0.50258110  0.16405719  0.83617410  1
  Pb  Pb49  1  0.16907015  0.83143097  0.83534422  1
  Pb  Pb50  1  0.50274428  0.83114587  0.50241178  1
  Pb  Pb51  1  0.16417943  0.83535937  0.49795891  1
  Pb  Pb52  1  0.83224815  0.49979012  0.49991337  1
  Pb  Pb53  1  0.16648329  0.16472769  0.16828331  1
  I  I54  1  0.16257467  -0.00302889  0.16630717  1
  I  I55  1  0.16538099  0.00325945  0.49988345  1
  I  I56  1  0.16677554  0.00017020  0.83354858  1
  I  I57  1  0.16539085  0.33328470  0.16662307  1
  I  I58  1  0.15767341  0.33013737  0.49769549  1
  I  I59  1  0.16697792  0.33649301  0.83529799  1
  I  I60  1  0.16258731  0.66955962  0.16568774  1
  I  I61  1  0.16631069  0.66661773  0.50047549  1
  I  I62  1  0.15976810  0.66353953  0.83335891  1
  I  I63  1  0.50425962  0.00227020  0.16476741  1
  I  I64  1  0.49879995  0.00016260  0.49938711  1
  I  I65  1  0.50258748  -0.00300195  0.83549876  1
  I  I66  1  0.50839311  0.33404382  0.16953802  1
  I  I67  1  0.50301500  0.33619702  0.50000860  1
  I  I68  1  0.49863826  0.33311708  0.83188662  1
  I  I69  1  0.50376427  0.66391816  0.16707735  1
  I  I70  1  0.50205701  0.66336340  0.49361928  1
  I  I71  1  0.50349806  0.66838174  0.83629801  1
  I  I72  1  0.83232105  0.00057264  0.16686785  1
  I  I73  1  0.83563014  0.00105289  0.49729827  1
  I  I74  1  0.83011702  0.00253760  0.83563131  1
  I  I75  1  0.82831019  0.33318250  0.16607054  1
  I  I76  1  0.83512524  0.33043893  0.49785855  1
  I  I77  1  0.83560360  0.33368401  0.83619804  1
  I  I78  1  0.83218656  0.66623974  0.16581229  1
  I  I79  1  0.83016571  0.66876037  0.49694898  1
  I  I80  1  0.83346126  0.66391801  0.83644046  1
  I  I81  1  0.16679390  0.16613670  -0.00000225  1
  I  I82  1  0.15986313  0.16721898  0.33595460  1
  I  I83  1  0.16166262  0.16678774  0.66323081  1
  I  I84  1  0.16687679  0.50018970  -0.00254423  1
  I  I85  1  0.16515728  0.50045945  0.33341142  1
  I  I86  1  0.16043581  0.50103531  0.67016374  1
  I  I87  1  0.15949934  0.83472550  0.00319804  1
  I  I88  1  0.16634136  0.83196560  0.32998583  1
  I  I89  1  0.16652963  0.83284736  0.66650150  1
  I  I90  1  0.50480913  0.17285483  0.00417763  1
  I  I91  1  0.50643863  0.16674606  0.32978980  1
  I  I92  1  0.50114538  0.16818359  0.66667517  1
  I  I93  1  0.50207355  0.49891105  0.00300889  1
  I  I94  1  0.50675312  0.49737584  0.33145363  1
  I  I95  1  0.50103698  0.50193630  0.66522739  1
  I  I96  1  0.50344368  0.83000067  -0.00174804  1
  I  I97  1  0.49864552  0.83407139  0.33328366  1
  I  I98  1  0.50252967  0.83016710  0.66966706  1
  I  I99  1  0.82841459  0.16683788  0.00112080  1
  I  I100  1  0.83299205  0.16593530  0.33257311  1
  I  I101  1  0.83756914  0.16636242  0.66629484  1
  I  I102  1  0.83071943  0.49815745  0.00100615  1
  I  I103  1  0.83029369  0.49853384  0.33026487  1
  I  I104  1  0.83346376  0.49773638  0.66913784  1
  I  I105  1  0.83428796  0.83530263  0.00304591  1
  I  I106  1  0.83542977  0.83616635  0.33192510  1
  I  I107  1  0.82988586  0.83635585  0.66443764  1
  I  I108  1  -0.00376175  0.16884477  0.16555902  1
  I  I109  1  -0.00263157  0.16405900  0.49784288  1
  I  I110  1  -0.00444760  0.16651738  0.83930995  1
  I  I111  1  -0.00349110  0.49756784  0.16434364  1
  I  I112  1  -0.00008026  0.50134836  0.49866607  1
  I  I113  1  -0.00223562  0.49722408  0.83902094  1
  I  I114  1  -0.00267384  0.83343763  0.16881262  1
  I  I115  1  -0.00408389  0.83348316  0.49971836  1
  I  I116  1  -0.00016159  0.83403036  0.83242099  1
  I  I117  1  0.33589691  0.16941660  0.16872249  1
  I  I118  1  0.33153577  0.16932023  0.49784519  1
  I  I119  1  0.33341697  0.16762046  0.83300226  1
  I  I120  1  0.33628856  0.49772271  0.16760744  1
  I  I121  1  0.33716900  0.49912796  0.49482403  1
  I  I122  1  0.33180120  0.50339623  0.83303872  1
  I  I123  1  0.33168580  0.83319472  0.16319072  1
  I  I124  1  0.33335927  0.83425453  0.49922262  1
  I  I125  1  0.33650266  0.82979236  0.83649510  1
  I  I126  1  0.66877838  0.16519203  0.16850903  1
  I  I127  1  0.67019461  0.16420610  0.50086215  1
  I  I128  1  0.67091391  0.17338214  0.82869024  1
  I  I129  1  0.66800998  0.50150268  0.16427720  1
  I  I130  1  0.66450733  0.49851304  0.50064496  1
  I  I131  1  0.66962151  0.49824844  0.83451804  1
  I  I132  1  0.66998354  0.83368975  0.16821969  1
  I  I133  1  0.67067368  0.84009032  0.49297400  1
  I  I134  1  0.66503713  0.82985685  0.83643331  1
