# generated using pymatgen
data_Cs27Sn13Pb14I81
_symmetry_space_group_name_H-M   'P 1'
_cell_length_a   18.98788034
_cell_length_b   18.99380002
_cell_length_c   18.99152328
_cell_angle_alpha   90.00010109
_cell_angle_beta   89.99949303
_cell_angle_gamma   90.00171194
_symmetry_Int_Tables_number   1
_chemical_formula_structural   Cs27Sn13Pb14I81
_chemical_formula_sum   'Cs27 Sn13 Pb14 I81'
_cell_volume   6849.33088698
_cell_formula_units_Z   1
loop_
 _symmetry_equiv_pos_site_id
 _symmetry_equiv_pos_as_xyz
  1  'x, y, z'
loop_
 _atom_site_type_symbol
 _atom_site_label
 _atom_site_symmetry_multiplicity
 _atom_site_fract_x
 _atom_site_fract_y
 _atom_site_fract_z
 _atom_site_occupancy
  Cs  Cs0  1  -0.00123271  -0.00068603  0.00007992  1
  Cs  Cs1  1  -0.00801306  -0.00611630  0.33968881  1
  Cs  Cs2  1  0.00204789  0.00172220  0.66696133  1
  Cs  Cs3  1  0.00182062  0.33437265  -0.00259146  1
  Cs  Cs4  1  -0.00128976  0.33152759  0.34539154  1
  Cs  Cs5  1  -0.00111205  0.34071704  0.66097536  1
  Cs  Cs6  1  0.00485083  0.66560743  0.00037054  1
  Cs  Cs7  1  0.00845920  0.67493324  0.33731376  1
  Cs  Cs8  1  -0.00273513  0.65516426  0.66399769  1
  Cs  Cs9  1  0.33364668  0.00279559  -0.00260570  1
  Cs  Cs10  1  0.33152148  0.00019029  0.33484197  1
  Cs  Cs11  1  0.33286796  -0.00141168  0.66780690  1
  Cs  Cs12  1  0.33404906  0.33156083  0.00053345  1
  Cs  Cs13  1  0.33613900  0.33327135  0.33215641  1
  Cs  Cs14  1  0.33399147  0.33155446  0.66636343  1
  Cs  Cs15  1  0.33196848  0.66615280  0.00193412  1
  Cs  Cs16  1  0.32716071  0.66903388  0.33111747  1
  Cs  Cs17  1  0.33511397  0.67198666  0.66488183  1
  Cs  Cs18  1  0.66853030  0.00028507  -0.00097229  1
  Cs  Cs19  1  0.67452874  -0.00149925  0.33172215  1
  Cs  Cs20  1  0.66570497  -0.00483830  0.66979892  1
  Cs  Cs21  1  0.66555911  0.33322263  0.00135953  1
  Cs  Cs22  1  0.66465059  0.33287319  0.33037832  1
  Cs  Cs23  1  0.66592159  0.33505213  0.66700320  1
  Cs  Cs24  1  0.66471585  0.66460017  0.00006873  1
  Cs  Cs25  1  0.66750911  0.66682720  0.33270251  1
  Cs  Cs26  1  0.66679319  0.66894443  0.66422212  1
  Sn  Sn27  1  0.83486975  0.83346917  0.83386153  1
  Sn  Sn28  1  0.83372263  0.49980432  0.16677076  1
  Sn  Sn29  1  0.49983530  0.49943054  0.83327309  1
  Sn  Sn30  1  0.16518110  0.83388229  0.83358264  1
  Sn  Sn31  1  0.50007812  0.83388194  0.16652823  1
  Sn  Sn32  1  0.50015796  0.16737300  0.83311066  1
  Sn  Sn33  1  0.16637672  0.16621866  0.83418992  1
  Sn  Sn34  1  0.49995043  0.49936514  0.49973504  1
  Sn  Sn35  1  0.83350396  0.16649160  0.83351439  1
  Sn  Sn36  1  0.50072222  0.50018116  0.16674286  1
  Sn  Sn37  1  0.50029451  0.16687422  0.49993839  1
  Sn  Sn38  1  0.49951072  0.16603869  0.16687385  1
  Sn  Sn39  1  0.16637578  0.16680629  0.16647868  1
  Pb  Pb40  1  0.83167205  0.83080446  0.16428924  1
  Pb  Pb41  1  0.83096188  0.49988531  0.83505988  1
  Pb  Pb42  1  0.83011041  0.16661946  0.50335115  1
  Pb  Pb43  1  0.16858638  0.83657653  0.16456761  1
  Pb  Pb44  1  0.16648376  0.49703340  0.16678792  1
  Pb  Pb45  1  0.83400054  0.16843154  0.16486904  1
  Pb  Pb46  1  0.49990145  0.83348346  0.83503935  1
  Pb  Pb47  1  0.83319777  0.83318858  0.50327636  1
  Pb  Pb48  1  0.16675102  0.83372457  0.50351177  1
  Pb  Pb49  1  0.50005118  0.83369307  0.49659992  1
  Pb  Pb50  1  0.16998575  0.49984091  0.49977929  1
  Pb  Pb51  1  0.16880886  0.16652041  0.50012058  1
  Pb  Pb52  1  0.16957078  0.49949652  0.83334160  1
  Pb  Pb53  1  0.83057927  0.50007564  0.49642667  1
  I  I54  1  0.17498336  0.00428345  0.16276741  1
  I  I55  1  0.17177640  0.00035572  0.49823129  1
  I  I56  1  0.16978814  0.00171238  0.83717180  1
  I  I57  1  0.17571726  0.32931225  0.15726801  1
  I  I58  1  0.16465365  0.33294994  0.50313292  1
  I  I59  1  0.16602128  0.32960469  0.83746157  1
  I  I60  1  0.16922399  0.66678099  0.16472962  1
  I  I61  1  0.17001255  0.66682728  0.50093823  1
  I  I62  1  0.16408996  0.66931124  0.83343308  1
  I  I63  1  0.49520656  0.00154792  0.16434466  1
  I  I64  1  0.49860194  0.00337782  0.50269185  1
  I  I65  1  0.50000204  0.00332528  0.83368914  1
  I  I66  1  0.49999550  0.33294286  0.16600804  1
  I  I67  1  0.49976723  0.33293856  0.49705438  1
  I  I68  1  0.50034345  0.33180726  0.83705523  1
  I  I69  1  0.50526254  0.66552851  0.16480081  1
  I  I70  1  0.50076011  0.66353025  0.50236422  1
  I  I71  1  0.50044143  0.66417423  0.83420640  1
  I  I72  1  0.83059189  0.00011485  0.16657611  1
  I  I73  1  0.82950370  0.00019207  0.49575969  1
  I  I74  1  0.82955027  0.00119603  0.83488618  1
  I  I75  1  0.82372309  0.33586578  0.16236701  1
  I  I76  1  0.83554414  0.33333822  0.50345158  1
  I  I77  1  0.83392101  0.33045589  0.83526862  1
  I  I78  1  0.82303733  0.66325261  0.16285141  1
  I  I79  1  0.82877024  0.66639763  0.50379363  1
  I  I80  1  0.83559040  0.66902903  0.83546959  1
  I  I81  1  0.17395620  0.16388335  -0.00127188  1
  I  I82  1  0.17472870  0.16991299  0.33025019  1
  I  I83  1  0.16918454  0.16196647  0.67043528  1
  I  I84  1  0.17057174  0.50175521  -0.00003275  1
  I  I85  1  0.16888096  0.49808604  0.33301355  1
  I  I86  1  0.16744678  0.49840686  0.66692326  1
  I  I87  1  0.16437284  0.83559386  -0.00339746  1
  I  I88  1  0.16900524  0.83331859  0.33301990  1
  I  I89  1  0.16731561  0.84209222  0.67184069  1
  I  I90  1  0.49928704  0.16924869  -0.00033842  1
  I  I91  1  0.49425898  0.17059881  0.33207126  1
  I  I92  1  0.50017322  0.17384484  0.66809835  1
  I  I93  1  0.50358612  0.49709734  0.00047981  1
  I  I94  1  0.50416232  0.49559583  0.33237029  1
  I  I95  1  0.49872933  0.49201667  0.66721362  1
  I  I96  1  0.50022103  0.83273671  0.00270547  1
  I  I97  1  0.49995712  0.83316099  0.32876261  1
  I  I98  1  0.49994073  0.83234014  0.66680685  1
  I  I99  1  0.82699473  0.16400992  -0.00337349  1
  I  I100  1  0.83328835  0.16846599  0.33334758  1
  I  I101  1  0.83357300  0.16362797  0.67180521  1
  I  I102  1  0.82334792  0.49923344  0.00240957  1
  I  I103  1  0.82437507  0.49737224  0.32895469  1
  I  I104  1  0.83178925  0.50059504  0.66666109  1
  I  I105  1  0.83507577  0.83841748  -0.00353750  1
  I  I106  1  0.83106959  0.83267623  0.33294612  1
  I  I107  1  0.83322331  0.83773122  0.67179281  1
  I  I108  1  0.00285423  0.16983292  0.15811970  1
  I  I109  1  -0.00016648  0.16627538  0.49900530  1
  I  I110  1  0.00051308  0.16048919  0.84075833  1
  I  I111  1  -0.00267658  0.49796999  0.16150415  1
  I  I112  1  -0.00031186  0.50020276  0.49974247  1
  I  I113  1  -0.00008135  0.49788707  0.83568479  1
  I  I114  1  0.00015832  0.83186932  0.16696940  1
  I  I115  1  0.00001904  0.83403700  0.49457565  1
  I  I116  1  0.00010051  0.84388116  0.83489812  1
  I  I117  1  0.33586259  0.16856780  0.16131748  1
  I  I118  1  0.33744281  0.17132503  0.50405991  1
  I  I119  1  0.33454612  0.16639544  0.83412311  1
  I  I120  1  0.33737867  0.50133751  0.16645725  1
  I  I121  1  0.33857781  0.49464068  0.49764403  1
  I  I122  1  0.33807233  0.49589829  0.83693426  1
  I  I123  1  0.33676171  0.82752388  0.16377141  1
  I  I124  1  0.33383498  0.83238900  0.50348852  1
  I  I125  1  0.33147305  0.83677992  0.83501086  1
  I  I126  1  0.66298722  0.16616015  0.16541720  1
  I  I127  1  0.66179010  0.17162334  0.49786431  1
  I  I128  1  0.66522315  0.16626137  0.83372506  1
  I  I129  1  0.66326578  0.49732041  0.16570317  1
  I  I130  1  0.66220173  0.49511768  0.50319409  1
  I  I131  1  0.66258014  0.49599246  0.83273983  1
  I  I132  1  0.66330722  0.83845878  0.16331506  1
  I  I133  1  0.66615124  0.83365388  0.50389312  1
  I  I134  1  0.66833111  0.83713731  0.83523323  1
