# generated using pymatgen
data_Cs27Sn13Pb14I81
_symmetry_space_group_name_H-M   'P 1'
_cell_length_a   18.99561281
_cell_length_b   18.99857089
_cell_length_c   18.97888491
_cell_angle_alpha   89.99883444
_cell_angle_beta   89.99680937
_cell_angle_gamma   89.99911320
_symmetry_Int_Tables_number   1
_chemical_formula_structural   Cs27Sn13Pb14I81
_chemical_formula_sum   'Cs27 Sn13 Pb14 I81'
_cell_volume   6849.28020795
_cell_formula_units_Z   1
loop_
 _symmetry_equiv_pos_site_id
 _symmetry_equiv_pos_as_xyz
  1  'x, y, z'
loop_
 _atom_site_type_symbol
 _atom_site_label
 _atom_site_symmetry_multiplicity
 _atom_site_fract_x
 _atom_site_fract_y
 _atom_site_fract_z
 _atom_site_occupancy
  Cs  Cs0  1  0.00051775  -0.00057900  -0.00245585  1
  Cs  Cs1  1  0.00169878  0.00152487  0.33479416  1
  Cs  Cs2  1  0.00179799  0.00040760  0.66511239  1
  Cs  Cs3  1  -0.01184806  0.33208911  -0.00604546  1
  Cs  Cs4  1  -0.00068982  0.33167337  0.33396117  1
  Cs  Cs5  1  0.00040993  0.33571360  0.66832399  1
  Cs  Cs6  1  -0.00135758  0.66803425  -0.00189426  1
  Cs  Cs7  1  0.00051367  0.66645832  0.33429589  1
  Cs  Cs8  1  0.00350249  0.66416058  0.66646905  1
  Cs  Cs9  1  0.33215472  -0.00216834  0.00170968  1
  Cs  Cs10  1  0.33144144  0.00174356  0.33088208  1
  Cs  Cs11  1  0.33326014  0.00426857  0.66936085  1
  Cs  Cs12  1  0.33483887  0.33222774  -0.00017254  1
  Cs  Cs13  1  0.33108217  0.33318260  0.33372146  1
  Cs  Cs14  1  0.34225122  0.34146628  0.67324500  1
  Cs  Cs15  1  0.33410296  0.67007011  0.00321068  1
  Cs  Cs16  1  0.33221760  0.66452980  0.33135638  1
  Cs  Cs17  1  0.33107844  0.65510998  0.66713543  1
  Cs  Cs18  1  0.66761690  -0.00176294  0.00063612  1
  Cs  Cs19  1  0.66643185  -0.00150161  0.33593567  1
  Cs  Cs20  1  0.66336391  -0.00119560  0.66169776  1
  Cs  Cs21  1  0.67596913  0.33434718  -0.00606227  1
  Cs  Cs22  1  0.67071501  0.33169891  0.33248104  1
  Cs  Cs23  1  0.65886215  0.33323415  0.67383877  1
  Cs  Cs24  1  0.66722179  0.66785184  0.00071863  1
  Cs  Cs25  1  0.66758155  0.66995092  0.33473827  1
  Cs  Cs26  1  0.66505728  0.66908063  0.66347171  1
  Sn  Sn27  1  0.16631509  0.83339382  0.16760661  1
  Sn  Sn28  1  0.50049446  0.83341399  0.83378599  1
  Sn  Sn29  1  0.16727178  0.83397987  0.49936045  1
  Sn  Sn30  1  0.49982910  0.16697534  0.16689535  1
  Sn  Sn31  1  0.83309300  0.49867459  0.49970095  1
  Sn  Sn32  1  0.16684227  0.16714638  0.16665032  1
  Sn  Sn33  1  0.83367272  0.83358568  0.16642393  1
  Sn  Sn34  1  0.50010640  0.83350894  0.16651177  1
  Sn  Sn35  1  0.83254197  0.83365679  0.83354180  1
  Sn  Sn36  1  0.49987168  0.49949498  0.16697602  1
  Sn  Sn37  1  0.83381591  0.16794625  0.49992480  1
  Sn  Sn38  1  0.16647671  0.16650073  0.49970673  1
  Sn  Sn39  1  0.16656677  0.49933616  0.16651118  1
  Pb  Pb40  1  0.83333515  0.16361220  0.82960792  1
  Pb  Pb41  1  0.49623692  0.83331358  0.49989464  1
  Pb  Pb42  1  0.50014302  0.50299726  0.83689544  1
  Pb  Pb43  1  0.49899985  0.16668979  0.49791092  1
  Pb  Pb44  1  0.83365657  0.16410183  0.16810482  1
  Pb  Pb45  1  0.50263152  0.49992873  0.49704309  1
  Pb  Pb46  1  0.83344142  0.50240715  0.16799350  1
  Pb  Pb47  1  0.16653791  0.49981007  0.83736954  1
  Pb  Pb48  1  0.83535923  0.83372173  0.50022158  1
  Pb  Pb49  1  0.16723169  0.83334369  0.83321547  1
  Pb  Pb50  1  0.16542161  0.49897453  0.49798703  1
  Pb  Pb51  1  0.83314428  0.50304751  0.83008807  1
  Pb  Pb52  1  0.16669287  0.16684476  0.83335762  1
  Pb  Pb53  1  0.49999898  0.16393357  0.83685153  1
  I  I54  1  0.16951680  -0.00061703  0.17068988  1
  I  I55  1  0.15948427  0.00008543  0.49040728  1
  I  I56  1  0.16646712  -0.00024203  0.83730828  1
  I  I57  1  0.17602812  0.33258944  0.17245228  1
  I  I58  1  0.16239465  0.33007678  0.49261859  1
  I  I59  1  0.16641717  0.33333478  0.83216062  1
  I  I60  1  0.16942119  0.66797607  0.17048444  1
  I  I61  1  0.16440884  0.66893240  0.49544695  1
  I  I62  1  0.16589991  0.66701794  0.83111834  1
  I  I63  1  0.49685811  -0.00093323  0.16312383  1
  I  I64  1  0.50619741  -0.00017609  0.49772292  1
  I  I65  1  0.50353527  -0.00399280  0.83968265  1
  I  I66  1  0.49067024  0.33313086  0.17085780  1
  I  I67  1  0.49622552  0.33328878  0.49745874  1
  I  I68  1  0.49929245  0.33350241  0.83318030  1
  I  I69  1  0.49691116  0.66781032  0.16307054  1
  I  I70  1  0.50154419  0.66689371  0.49741673  1
  I  I71  1  0.50367729  0.67079508  0.83981800  1
  I  I72  1  0.83290812  -0.00396565  0.16593991  1
  I  I73  1  0.83629643  0.00202827  0.49929454  1
  I  I74  1  0.83007653  -0.00409664  0.83777098  1
  I  I75  1  0.83273613  0.33318582  0.16702022  1
  I  I76  1  0.84055693  0.33244138  0.49529656  1
  I  I77  1  0.83396888  0.33330191  0.83550514  1
  I  I78  1  0.83349929  0.67051905  0.16660556  1
  I  I79  1  0.83489775  0.66543389  0.49888222  1
  I  I80  1  0.82998967  0.67081050  0.83702895  1
  I  I81  1  0.17220607  0.16355267  0.00439188  1
  I  I82  1  0.16643188  0.16419311  0.33205941  1
  I  I83  1  0.16014808  0.15753820  0.66280134  1
  I  I84  1  0.17069707  0.50366723  0.00591353  1
  I  I85  1  0.17034112  0.50234726  0.32968653  1
  I  I86  1  0.16469691  0.50246831  0.66631187  1
  I  I87  1  0.16680833  0.83383417  0.00377355  1
  I  I88  1  0.16565665  0.83387386  0.33110021  1
  I  I89  1  0.16423141  0.83906025  0.66355082  1
  I  I90  1  0.49260086  0.16779765  0.00529261  1
  I  I91  1  0.49862826  0.16157192  0.32924875  1
  I  I92  1  0.50002860  0.16432374  0.66686266  1
  I  I93  1  0.49588870  0.49868376  0.00499980  1
  I  I94  1  0.49530669  0.50528579  0.32878661  1
  I  I95  1  0.50031123  0.50177308  0.66696102  1
  I  I96  1  0.49879648  0.83316284  0.00265172  1
  I  I97  1  0.50347181  0.83317293  0.32938867  1
  I  I98  1  0.50642756  0.83427150  0.66937576  1
  I  I99  1  0.83366605  0.16770237  0.00002649  1
  I  I100  1  0.83504949  0.16657244  0.33589186  1
  I  I101  1  0.84162546  0.16793929  0.66173402  1
  I  I102  1  0.83368491  0.49932465  0.00005867  1
  I  I103  1  0.83365240  0.49983120  0.33564768  1
  I  I104  1  0.83626899  0.49831622  0.66239116  1
  I  I105  1  0.83494949  0.83271466  0.00171807  1
  I  I106  1  0.83063662  0.83290713  0.33067078  1
  I  I107  1  0.82909273  0.83331846  0.66901330  1
  I  I108  1  0.00310953  0.16571933  0.16965650  1
  I  I109  1  0.00103746  0.16507838  0.49238323  1
  I  I110  1  -0.00016224  0.16320679  0.83968074  1
  I  I111  1  0.00275367  0.50160691  0.16967508  1
  I  I112  1  -0.00225929  0.50100081  0.49577421  1
  I  I113  1  -0.00037956  0.50367376  0.83627952  1
  I  I114  1  0.00081543  0.83286392  0.16697579  1
  I  I115  1  0.00289833  0.83413622  0.49442099  1
  I  I116  1  -0.00235624  0.83319998  0.83766079  1
  I  I117  1  0.33249768  0.16156079  0.17220259  1
  I  I118  1  0.32949920  0.15936877  0.49563796  1
  I  I119  1  0.33346297  0.16316377  0.82889530  1
  I  I120  1  0.33306672  0.50577364  0.16780165  1
  I  I121  1  0.33321768  0.50132614  0.50141389  1
  I  I122  1  0.33351801  0.50291005  0.82807396  1
  I  I123  1  0.33326042  0.83317494  0.16614891  1
  I  I124  1  0.32854938  0.83965856  0.49401980  1
  I  I125  1  0.33613455  0.83423735  0.83948142  1
  I  I126  1  0.66423973  0.16508439  0.16884877  1
  I  I127  1  0.66917869  0.16894194  0.49751738  1
  I  I128  1  0.66672097  0.16748630  0.83365553  1
  I  I129  1  0.66399759  0.50174295  0.16909132  1
  I  I130  1  0.67048044  0.49649138  0.49686601  1
  I  I131  1  0.66666747  0.49886930  0.83567311  1
  I  I132  1  0.66619005  0.83286761  0.16241396  1
  I  I133  1  0.66656763  0.83345396  0.49721632  1
  I  I134  1  0.66658928  0.83310964  0.84326137  1
