# generated using pymatgen
data_Cs27Sn14Pb13I81
_symmetry_space_group_name_H-M   'P 1'
_cell_length_a   18.97727010
_cell_length_b   18.97681552
_cell_length_c   18.97299191
_cell_angle_alpha   90.00185030
_cell_angle_beta   90.00253398
_cell_angle_gamma   90.00085397
_symmetry_Int_Tables_number   1
_chemical_formula_structural   Cs27Sn14Pb13I81
_chemical_formula_sum   'Cs27 Sn14 Pb13 I81'
_cell_volume   6832.70853900
_cell_formula_units_Z   1
loop_
 _symmetry_equiv_pos_site_id
 _symmetry_equiv_pos_as_xyz
  1  'x, y, z'
loop_
 _atom_site_type_symbol
 _atom_site_label
 _atom_site_symmetry_multiplicity
 _atom_site_fract_x
 _atom_site_fract_y
 _atom_site_fract_z
 _atom_site_occupancy
  Cs  Cs0  1  -0.00275395  0.00028038  -0.00578109  1
  Cs  Cs1  1  0.00251111  -0.00054726  0.33152979  1
  Cs  Cs2  1  -0.00077577  0.00663893  0.67676575  1
  Cs  Cs3  1  0.00023939  0.33342421  0.00263416  1
  Cs  Cs4  1  -0.00046993  0.33522876  0.33090796  1
  Cs  Cs5  1  -0.00387699  0.32862708  0.66663326  1
  Cs  Cs6  1  0.00009378  0.66667081  0.00011327  1
  Cs  Cs7  1  0.00163806  0.66469314  0.33334014  1
  Cs  Cs8  1  0.00052341  0.66622676  0.66541153  1
  Cs  Cs9  1  0.33363271  0.00080810  -0.00235415  1
  Cs  Cs10  1  0.33492198  0.00105024  0.33449346  1
  Cs  Cs11  1  0.33319646  0.00062624  0.66752753  1
  Cs  Cs12  1  0.33617776  0.33819755  0.00115440  1
  Cs  Cs13  1  0.33264580  0.32924150  0.33219598  1
  Cs  Cs14  1  0.33350394  0.33209250  0.66693957  1
  Cs  Cs15  1  0.33392091  0.66234262  -0.00078463  1
  Cs  Cs16  1  0.33016541  0.66781350  0.33594363  1
  Cs  Cs17  1  0.33486651  0.66787834  0.66549052  1
  Cs  Cs18  1  0.66893332  -0.00333920  0.00098178  1
  Cs  Cs19  1  0.66163299  -0.00241503  0.33109085  1
  Cs  Cs20  1  0.66585266  0.00198971  0.66852932  1
  Cs  Cs21  1  0.66363161  0.33648273  -0.00011832  1
  Cs  Cs22  1  0.66957467  0.32819002  0.33444595  1
  Cs  Cs23  1  0.67061500  0.33158205  0.66520742  1
  Cs  Cs24  1  0.66537522  0.66677599  0.00179423  1
  Cs  Cs25  1  0.66709850  0.67071710  0.33612173  1
  Cs  Cs26  1  0.66314925  0.66595578  0.66353608  1
  Sn  Sn27  1  0.83413404  0.50056595  0.83393806  1
  Sn  Sn28  1  0.49914618  0.50012603  0.49949407  1
  Sn  Sn29  1  0.49971738  0.83255659  0.50091733  1
  Sn  Sn30  1  0.16599107  0.16655001  0.16653108  1
  Sn  Sn31  1  0.49984252  0.83388879  0.83290530  1
  Sn  Sn32  1  0.83426465  0.83388814  0.50035264  1
  Sn  Sn33  1  0.83398080  0.16705802  0.16681343  1
  Sn  Sn34  1  0.16563847  0.50004725  0.83281058  1
  Sn  Sn35  1  0.16673684  0.83328439  0.16679745  1
  Sn  Sn36  1  0.49992598  0.16587942  0.83345968  1
  Sn  Sn37  1  0.16608364  0.50019871  0.16684584  1
  Sn  Sn38  1  0.16745204  0.50022570  0.50026173  1
  Sn  Sn39  1  0.16599182  0.83315916  0.49993330  1
  Sn  Sn40  1  0.83379504  0.49961772  0.16602411  1
  Pb  Pb41  1  0.83581690  0.83288505  0.16828741  1
  Pb  Pb42  1  0.49988248  0.16643098  0.50196264  1
  Pb  Pb43  1  0.83357238  0.16314520  0.49720062  1
  Pb  Pb44  1  0.49710162  0.83302832  0.16698155  1
  Pb  Pb45  1  0.83122202  0.16919828  0.83602279  1
  Pb  Pb46  1  0.16828262  0.83131210  0.83293606  1
  Pb  Pb47  1  0.16832776  0.16973186  0.83617443  1
  Pb  Pb48  1  0.50019029  0.16670916  0.16441854  1
  Pb  Pb49  1  0.50017832  0.50042947  0.83113445  1
  Pb  Pb50  1  0.50032292  0.50011729  0.17012145  1
  Pb  Pb51  1  0.16644469  0.16660702  0.49811705  1
  Pb  Pb52  1  0.83385920  0.50116616  0.49946778  1
  Pb  Pb53  1  0.83104763  0.83070541  0.83104687  1
  I  I54  1  0.16445737  -0.00031327  0.17296133  1
  I  I55  1  0.16923412  -0.00368593  0.49388423  1
  I  I56  1  0.16731718  0.00006275  0.83365250  1
  I  I57  1  0.16307786  0.33464177  0.16667538  1
  I  I58  1  0.17204186  0.33700518  0.49918053  1
  I  I59  1  0.16633497  0.33795100  0.83192733  1
  I  I60  1  0.16345973  0.66551707  0.16835458  1
  I  I61  1  0.16806314  0.66643090  0.49487598  1
  I  I62  1  0.16631092  0.66311797  0.83809034  1
  I  I63  1  0.49969140  -0.00017245  0.17072089  1
  I  I64  1  0.49882142  -0.00369430  0.50110253  1
  I  I65  1  0.49889849  -0.00112339  0.82727806  1
  I  I66  1  0.49507333  0.33356161  0.16562853  1
  I  I67  1  0.49471402  0.33626444  0.50119102  1
  I  I68  1  0.49946814  0.33202198  0.83330769  1
  I  I69  1  0.50151095  0.66655939  0.16049968  1
  I  I70  1  0.49889872  0.66772833  0.50594303  1
  I  I71  1  0.49949212  0.66887083  0.82969546  1
  I  I72  1  0.83737534  0.00220417  0.16966997  1
  I  I73  1  0.83199061  -0.00485165  0.49812245  1
  I  I74  1  0.83319801  -0.00007506  0.83366299  1
  I  I75  1  0.84158161  0.33458149  0.16394371  1
  I  I76  1  0.83194420  0.33345005  0.50194969  1
  I  I77  1  0.83477414  0.33712933  0.83267266  1
  I  I78  1  0.83758516  0.66360711  0.16432947  1
  I  I79  1  0.83240116  0.66910894  0.49760236  1
  I  I80  1  0.83548402  0.66293029  0.84082069  1
  I  I81  1  0.16324846  0.16516358  0.00427917  1
  I  I82  1  0.16427012  0.17132876  0.32970530  1
  I  I83  1  0.16846074  0.16665069  0.66715295  1
  I  I84  1  0.16302165  0.50012960  0.00090326  1
  I  I85  1  0.16652196  0.50116806  0.33290896  1
  I  I86  1  0.16779474  0.50655875  0.66584689  1
  I  I87  1  0.16851776  0.83169698  0.00260941  1
  I  I88  1  0.16847362  0.82854470  0.33404296  1
  I  I89  1  0.16676717  0.82677810  0.66335313  1
  I  I90  1  0.49901514  0.16146333  -0.00329720  1
  I  I91  1  0.50021623  0.16639110  0.33315978  1
  I  I92  1  0.49981089  0.16601869  0.66971851  1
  I  I93  1  0.49748416  0.50015895  -0.00009965  1
  I  I94  1  0.49594932  0.50755302  0.33788815  1
  I  I95  1  0.49594337  0.50244848  0.66346551  1
  I  I96  1  0.49850378  0.83724540  -0.00269114  1
  I  I97  1  0.50183045  0.82876890  0.33688149  1
  I  I98  1  0.49759182  0.83244877  0.66522696  1
  I  I99  1  0.83835238  0.16694115  0.00376335  1
  I  I100  1  0.83663099  0.17586230  0.32937267  1
  I  I101  1  0.83148402  0.16807477  0.66703383  1
  I  I102  1  0.84057047  0.49709401  0.00086492  1
  I  I103  1  0.83678093  0.49748209  0.33047229  1
  I  I104  1  0.83537076  0.50295805  0.66858222  1
  I  I105  1  0.83238403  0.83472860  0.00001941  1
  I  I106  1  0.82795576  0.83067865  0.33630287  1
  I  I107  1  0.83828172  0.82959733  0.66299728  1
  I  I108  1  0.00092630  0.16883588  0.16744133  1
  I  I109  1  0.00002412  0.16741075  0.50313261  1
  I  I110  1  -0.00004508  0.16551355  0.83195109  1
  I  I111  1  0.00141655  0.49938261  0.16838734  1
  I  I112  1  0.00321362  0.50524065  0.49903499  1
  I  I113  1  0.00088050  0.50074825  0.83250323  1
  I  I114  1  0.00389124  0.83173423  0.17293949  1
  I  I115  1  0.00154130  0.82670186  0.49283690  1
  I  I116  1  0.00006065  0.83395477  0.83211977  1
  I  I117  1  0.33006890  0.16826551  0.16629073  1
  I  I118  1  0.33318137  0.16417754  0.49682773  1
  I  I119  1  0.33598554  0.16473826  0.83472626  1
  I  I120  1  0.32975771  0.49952554  0.16318887  1
  I  I121  1  0.33190131  0.50806413  0.50061877  1
  I  I122  1  0.33074125  0.50013153  0.83663630  1
  I  I123  1  0.32890248  0.83203306  0.17230098  1
  I  I124  1  0.33296546  0.82820502  0.49945473  1
  I  I125  1  0.33620514  0.83392226  0.82804384  1
  I  I126  1  0.66975218  0.17270938  0.16597420  1
  I  I127  1  0.66667661  0.16867843  0.49723926  1
  I  I128  1  0.66359752  0.16481188  0.83466520  1
  I  I129  1  0.66997425  0.49471634  0.16221379  1
  I  I130  1  0.66467649  0.50524617  0.50129253  1
  I  I131  1  0.66891360  0.49980187  0.83714905  1
  I  I132  1  0.66680362  0.83427375  0.16836447  1
  I  I133  1  0.66555458  0.82810505  0.50365746  1
  I  I134  1  0.66302727  0.83456570  0.82809629  1
