# generated using pymatgen
data_Cs27Sn13Pb14I81
_symmetry_space_group_name_H-M   'P 1'
_cell_length_a   18.97829136
_cell_length_b   18.97741381
_cell_length_c   18.97351075
_cell_angle_alpha   89.99799832
_cell_angle_beta   89.99907097
_cell_angle_gamma   89.99910257
_symmetry_Int_Tables_number   1
_chemical_formula_structural   Cs27Sn13Pb14I81
_chemical_formula_sum   'Cs27 Sn13 Pb14 I81'
_cell_volume   6833.47853667
_cell_formula_units_Z   1
loop_
 _symmetry_equiv_pos_site_id
 _symmetry_equiv_pos_as_xyz
  1  'x, y, z'
loop_
 _atom_site_type_symbol
 _atom_site_label
 _atom_site_symmetry_multiplicity
 _atom_site_fract_x
 _atom_site_fract_y
 _atom_site_fract_z
 _atom_site_occupancy
  Cs  Cs0  1  0.00155172  -0.00226960  0.00249984  1
  Cs  Cs1  1  -0.00102297  -0.00074636  0.32992509  1
  Cs  Cs2  1  0.00090599  -0.00015690  0.66683643  1
  Cs  Cs3  1  -0.00249018  0.33592175  -0.00240483  1
  Cs  Cs4  1  0.00235932  0.33061858  0.33407705  1
  Cs  Cs5  1  -0.00000561  0.33522216  0.66711697  1
  Cs  Cs6  1  0.00134072  0.66633345  0.00112071  1
  Cs  Cs7  1  -0.00477525  0.67016434  0.33127779  1
  Cs  Cs8  1  -0.00131582  0.66622924  0.66645565  1
  Cs  Cs9  1  0.33515144  0.00167530  0.00099583  1
  Cs  Cs10  1  0.33188653  0.00166923  0.33345312  1
  Cs  Cs11  1  0.33513679  -0.00231198  0.66689632  1
  Cs  Cs12  1  0.33515300  0.33531392  0.00296546  1
  Cs  Cs13  1  0.33486168  0.33245951  0.33370088  1
  Cs  Cs14  1  0.32792478  0.33668032  0.66303720  1
  Cs  Cs15  1  0.33170263  0.66618905  -0.00246731  1
  Cs  Cs16  1  0.33751938  0.66484505  0.33438558  1
  Cs  Cs17  1  0.33305971  0.66881839  0.66897238  1
  Cs  Cs18  1  0.66265423  0.00297362  -0.00429350  1
  Cs  Cs19  1  0.66893560  -0.00165295  0.33588442  1
  Cs  Cs20  1  0.66362361  0.00141727  0.66628563  1
  Cs  Cs21  1  0.66814939  0.33045707  0.00078810  1
  Cs  Cs22  1  0.66314268  0.33315393  0.33093162  1
  Cs  Cs23  1  0.67256786  0.33210522  0.66780555  1
  Cs  Cs24  1  0.66469439  0.66653054  0.00021948  1
  Cs  Cs25  1  0.66663160  0.66691614  0.33551397  1
  Cs  Cs26  1  0.66990874  0.66583805  0.66456301  1
  Sn  Sn27  1  0.83351105  0.16718131  0.16719450  1
  Sn  Sn28  1  0.49971746  0.49966853  0.83294931  1
  Sn  Sn29  1  0.83402198  0.49941714  0.16674013  1
  Sn  Sn30  1  0.49909810  0.83398827  0.49914354  1
  Sn  Sn31  1  0.16748660  0.49990161  0.83405594  1
  Sn  Sn32  1  0.16581151  0.83371013  0.83276124  1
  Sn  Sn33  1  0.16709121  0.83310094  0.50020770  1
  Sn  Sn34  1  0.49978803  0.83348995  0.16741307  1
  Sn  Sn35  1  0.16683351  0.16658701  0.83355865  1
  Sn  Sn36  1  0.50038648  0.16635940  0.50019408  1
  Sn  Sn37  1  0.83290589  0.16655688  0.49937343  1
  Sn  Sn38  1  0.16604197  0.50020909  0.16649150  1
  Sn  Sn39  1  0.83398369  0.83347319  0.83334941  1
  Pb  Pb40  1  0.83528559  0.16466077  0.83340348  1
  Pb  Pb41  1  0.49747353  0.16953112  0.83069955  1
  Pb  Pb42  1  0.50202027  0.16448578  0.16876180  1
  Pb  Pb43  1  0.16647386  0.50292048  0.49974653  1
  Pb  Pb44  1  0.50001739  0.50155145  0.16493895  1
  Pb  Pb45  1  0.49951491  0.83206035  0.83264706  1
  Pb  Pb46  1  0.16474177  0.16904981  0.16443074  1
  Pb  Pb47  1  0.83326783  0.83523665  0.50195723  1
  Pb  Pb48  1  0.16658343  0.16442825  0.50161061  1
  Pb  Pb49  1  0.50001446  0.50001815  0.50261182  1
  Pb  Pb50  1  0.83377960  0.50186728  0.83512394  1
  Pb  Pb51  1  0.83112247  0.83355195  0.16450853  1
  Pb  Pb52  1  0.16862299  0.83136419  0.16659898  1
  Pb  Pb53  1  0.83344881  0.49713464  0.49691342  1
  I  I54  1  0.16583381  -0.00012184  0.16503465  1
  I  I55  1  0.16846997  -0.00349636  0.50635321  1
  I  I56  1  0.16166375  -0.00126137  0.82828792  1
  I  I57  1  0.16628899  0.33710370  0.16108566  1
  I  I58  1  0.16709067  0.33322828  0.50192146  1
  I  I59  1  0.17093042  0.33434913  0.83716154  1
  I  I60  1  0.16059140  0.66355476  0.16004742  1
  I  I61  1  0.17298596  0.67088591  0.50626074  1
  I  I62  1  0.16731920  0.66682233  0.83351737  1
  I  I63  1  0.50073214  -0.00341441  0.16575359  1
  I  I64  1  0.50017479  -0.00097358  0.49744512  1
  I  I65  1  0.49953265  0.00012775  0.83519588  1
  I  I66  1  0.49872510  0.33325639  0.16721880  1
  I  I67  1  0.50419851  0.33033028  0.50208979  1
  I  I68  1  0.49543345  0.33704379  0.83384370  1
  I  I69  1  0.50216290  0.66941618  0.17219934  1
  I  I70  1  0.49566583  0.66995004  0.49788560  1
  I  I71  1  0.49442678  0.66442080  0.83290861  1
  I  I72  1  0.83167292  0.00250789  0.16957166  1
  I  I73  1  0.83256222  0.00298451  0.49423583  1
  I  I74  1  0.83827632  -0.00309613  0.83529150  1
  I  I75  1  0.83678673  0.33345915  0.16898655  1
  I  I76  1  0.82765865  0.32901718  0.50149156  1
  I  I77  1  0.83420042  0.33325525  0.83177859  1
  I  I78  1  0.83631904  0.66438996  0.16288223  1
  I  I79  1  0.83272503  0.66698734  0.50001643  1
  I  I80  1  0.83787754  0.66963849  0.83448738  1
  I  I81  1  0.16490293  0.16088229  -0.00371904  1
  I  I82  1  0.16773779  0.16691909  0.33332670  1
  I  I83  1  0.16449812  0.17106428  0.66975886  1
  I  I84  1  0.16651412  0.50254063  -0.00139531  1
  I  I85  1  0.16250874  0.50163768  0.33018900  1
  I  I86  1  0.17092149  0.49901570  0.67005716  1
  I  I87  1  0.16456596  0.83373051  -0.00313514  1
  I  I88  1  0.16930914  0.83226150  0.33583887  1
  I  I89  1  0.16893134  0.83168054  0.66791424  1
  I  I90  1  0.50121640  0.16481387  -0.00018725  1
  I  I91  1  0.50002983  0.16572663  0.33685594  1
  I  I92  1  0.50712000  0.15823487  0.66312919  1
  I  I93  1  0.49735999  0.50390135  -0.00286942  1
  I  I94  1  0.49947678  0.49976636  0.33336347  1
  I  I95  1  0.49238361  0.50303619  0.67040535  1
  I  I96  1  0.50100909  0.83003989  0.00138289  1
  I  I97  1  0.49539230  0.83541411  0.33468269  1
  I  I98  1  0.49849265  0.83597479  0.66391253  1
  I  I99  1  0.83557456  0.16962185  0.00243145  1
  I  I100  1  0.83004992  0.16963548  0.33339974  1
  I  I101  1  0.83013606  0.16323324  0.66432193  1
  I  I102  1  0.83442608  0.49445308  0.00291316  1
  I  I103  1  0.83884157  0.50157194  0.32882119  1
  I  I104  1  0.83324736  0.49973039  0.66685722  1
  I  I105  1  0.83844788  0.83428314  -0.00313036  1
  I  I106  1  0.83520114  0.83193588  0.33331968  1
  I  I107  1  0.83359898  0.83412377  0.66979012  1
  I  I108  1  -0.00330277  0.16633162  0.17325074  1
  I  I109  1  -0.00246903  0.16540399  0.49748482  1
  I  I110  1  0.00315739  0.17091642  0.83102189  1
  I  I111  1  0.00032740  0.49778338  0.15967242  1
  I  I112  1  0.00003512  0.49988250  0.50521131  1
  I  I113  1  0.00326378  0.49937770  0.83565884  1
  I  I114  1  0.00000795  0.83404003  0.16828314  1
  I  I115  1  0.00247224  0.83399996  0.50383496  1
  I  I116  1  0.00202858  0.83118801  0.82861849  1
  I  I117  1  0.33332433  0.16750590  0.16721909  1
  I  I118  1  0.33571128  0.16367847  0.50308229  1
  I  I119  1  0.32965199  0.16057999  0.83167318  1
  I  I120  1  0.33076190  0.50319300  0.16268344  1
  I  I121  1  0.33322118  0.49552736  0.49600893  1
  I  I122  1  0.33125293  0.50286447  0.83852086  1
  I  I123  1  0.33626292  0.83084052  0.16587893  1
  I  I124  1  0.33379189  0.83839877  0.50274548  1
  I  I125  1  0.33030019  0.83330306  0.83186444  1
  I  I126  1  0.67007285  0.17314421  0.16625774  1
  I  I127  1  0.66650036  0.16028442  0.49734919  1
  I  I128  1  0.66667739  0.16616442  0.83464494  1
  I  I129  1  0.66920113  0.49747147  0.16442540  1
  I  I130  1  0.66666694  0.50548514  0.50164374  1
  I  I131  1  0.66478601  0.50385992  0.83430288  1
  I  I132  1  0.66360103  0.83085045  0.17074611  1
  I  I133  1  0.66391431  0.83525687  0.49847660  1
  I  I134  1  0.66828530  0.83117481  0.83432563  1
