# generated using pymatgen
data_Cs27Sn14Pb13I81
_symmetry_space_group_name_H-M   'P 1'
_cell_length_a   18.98498793
_cell_length_b   18.97371442
_cell_length_c   18.96664878
_cell_angle_alpha   90.00082433
_cell_angle_beta   90.00052231
_cell_angle_gamma   90.00027639
_symmetry_Int_Tables_number   1
_chemical_formula_structural   Cs27Sn14Pb13I81
_chemical_formula_sum   'Cs27 Sn14 Pb13 I81'
_cell_volume   6832.08541004
_cell_formula_units_Z   1
loop_
 _symmetry_equiv_pos_site_id
 _symmetry_equiv_pos_as_xyz
  1  'x, y, z'
loop_
 _atom_site_type_symbol
 _atom_site_label
 _atom_site_symmetry_multiplicity
 _atom_site_fract_x
 _atom_site_fract_y
 _atom_site_fract_z
 _atom_site_occupancy
  Cs  Cs0  1  -0.00003890  -0.00110189  0.00247901  1
  Cs  Cs1  1  -0.00003684  0.00042686  0.33319969  1
  Cs  Cs2  1  -0.00629000  0.00641413  0.66526104  1
  Cs  Cs3  1  0.00282669  0.33751817  -0.00416804  1
  Cs  Cs4  1  -0.00034663  0.33684548  0.33260656  1
  Cs  Cs5  1  0.00156580  0.32538934  0.67334601  1
  Cs  Cs6  1  0.00171452  0.66448850  -0.00157236  1
  Cs  Cs7  1  0.00107329  0.66444740  0.33461205  1
  Cs  Cs8  1  -0.00322198  0.66811413  0.66405097  1
  Cs  Cs9  1  0.33416192  -0.00337388  0.00162668  1
  Cs  Cs10  1  0.33204953  -0.00200398  0.33212256  1
  Cs  Cs11  1  0.33160810  0.00149077  0.66736065  1
  Cs  Cs12  1  0.32959071  0.33554394  -0.00481002  1
  Cs  Cs13  1  0.33415014  0.33472086  0.33520012  1
  Cs  Cs14  1  0.34091358  0.32513078  0.67189441  1
  Cs  Cs15  1  0.33133865  0.66917873  0.00030675  1
  Cs  Cs16  1  0.33193115  0.66733064  0.33408469  1
  Cs  Cs17  1  0.33492060  0.66720882  0.66341662  1
  Cs  Cs18  1  0.66548338  -0.00071799  0.00374165  1
  Cs  Cs19  1  0.66822839  0.00011109  0.33052356  1
  Cs  Cs20  1  0.67639786  0.00494028  0.66679632  1
  Cs  Cs21  1  0.66710333  0.33345211  -0.00104016  1
  Cs  Cs22  1  0.66628007  0.33615095  0.33317535  1
  Cs  Cs23  1  0.65689394  0.32914283  0.67448415  1
  Cs  Cs24  1  0.66750741  0.66724131  0.00038336  1
  Cs  Cs25  1  0.66680724  0.66558674  0.33348087  1
  Cs  Cs26  1  0.66874084  0.66476097  0.66841340  1
  Sn  Sn27  1  0.83366499  0.16724628  0.16715105  1
  Sn  Sn28  1  0.83268429  0.50009514  0.16716692  1
  Sn  Sn29  1  0.83392628  0.49933782  0.49985731  1
  Sn  Sn30  1  0.16704792  0.83303508  0.83264627  1
  Sn  Sn31  1  0.50038419  0.50029260  0.16679475  1
  Sn  Sn32  1  0.49955199  0.83333299  0.83273675  1
  Sn  Sn33  1  0.49990540  0.83357013  0.50024785  1
  Sn  Sn34  1  0.49998658  0.83303753  0.16702240  1
  Sn  Sn35  1  0.16703077  0.83284445  0.50039389  1
  Sn  Sn36  1  0.49951841  0.16705431  0.16701076  1
  Sn  Sn37  1  0.16639035  0.83376926  0.16692795  1
  Sn  Sn38  1  0.16616738  0.49994633  0.50037191  1
  Sn  Sn39  1  0.83365689  0.83274988  0.16700243  1
  Sn  Sn40  1  0.16677510  0.16626132  0.16720173  1
  Pb  Pb41  1  0.16670458  0.16649087  0.49791025  1
  Pb  Pb42  1  0.83318133  0.17058289  0.49767018  1
  Pb  Pb43  1  0.50003222  0.16334020  0.49766027  1
  Pb  Pb44  1  0.83347333  0.83323379  0.83581763  1
  Pb  Pb45  1  0.16677981  0.50011940  0.16781353  1
  Pb  Pb46  1  0.83325062  0.16666782  0.83653279  1
  Pb  Pb47  1  0.83340744  0.83196949  0.49778722  1
  Pb  Pb48  1  0.49999382  0.50169144  0.49844240  1
  Pb  Pb49  1  0.49978487  0.50281113  0.83625887  1
  Pb  Pb50  1  0.16676989  0.16352021  0.83631067  1
  Pb  Pb51  1  0.49993391  0.16318427  0.83631659  1
  Pb  Pb52  1  0.83343338  0.50004908  0.83286878  1
  Pb  Pb53  1  0.16675227  0.50261440  0.82890637  1
  I  I54  1  0.16669144  -0.00198993  0.16795809  1
  I  I55  1  0.17184256  -0.00387309  0.49999288  1
  I  I56  1  0.17175373  -0.00473977  0.83029008  1
  I  I57  1  0.16692983  0.33099511  0.16985628  1
  I  I58  1  0.16108803  0.33629325  0.49360967  1
  I  I59  1  0.16507010  0.33318511  0.83486571  1
  I  I60  1  0.16737578  0.67007310  0.16526557  1
  I  I61  1  0.16680371  0.66847220  0.49569334  1
  I  I62  1  0.17058794  0.67099261  0.84258215  1
  I  I63  1  0.50211703  -0.00156247  0.16622852  1
  I  I64  1  0.49252688  -0.00519245  0.49639751  1
  I  I65  1  0.49478051  -0.00477687  0.83733232  1
  I  I66  1  0.50338419  0.33335273  0.16856368  1
  I  I67  1  0.49952427  0.33341596  0.49663513  1
  I  I68  1  0.50088086  0.33305547  0.83415938  1
  I  I69  1  0.50256364  0.66825094  0.16657716  1
  I  I70  1  0.49810617  0.67025644  0.49518139  1
  I  I71  1  0.49621459  0.67107353  0.83762244  1
  I  I72  1  0.83095981  -0.00059879  0.16526049  1
  I  I73  1  0.83357215  0.00015935  0.49871406  1
  I  I74  1  0.83339200  -0.00034780  0.83420986  1
  I  I75  1  0.82986300  0.33371532  0.17111606  1
  I  I76  1  0.84057278  0.33833389  0.49025877  1
  I  I77  1  0.83439184  0.33337199  0.83626899  1
  I  I78  1  0.82992363  0.66688522  0.16963001  1
  I  I79  1  0.83457074  0.66414593  0.49132525  1
  I  I80  1  0.83273158  0.66689708  0.83855525  1
  I  I81  1  0.16660391  0.16213568  0.00505728  1
  I  I82  1  0.16683584  0.15907020  0.32911478  1
  I  I83  1  0.16575754  0.16644946  0.66677651  1
  I  I84  1  0.16630060  0.50009384  -0.00003202  1
  I  I85  1  0.16578003  0.50704475  0.33542901  1
  I  I86  1  0.15960712  0.50754971  0.66120157  1
  I  I87  1  0.16932127  0.83808199  0.00164442  1
  I  I88  1  0.16962106  0.83341921  0.33233380  1
  I  I89  1  0.17577144  0.82636443  0.66590193  1
  I  I90  1  0.50101686  0.16397811  0.00514586  1
  I  I91  1  0.50024705  0.16340392  0.32853238  1
  I  I92  1  0.50016675  0.16710273  0.66691000  1
  I  I93  1  0.50620423  0.50178052  0.00511143  1
  I  I94  1  0.50158325  0.50326991  0.32961059  1
  I  I95  1  0.50125862  0.50256052  0.66656240  1
  I  I96  1  0.49763741  0.83375303  0.00221319  1
  I  I97  1  0.49718489  0.83329193  0.33144071  1
  I  I98  1  0.49065087  0.83080973  0.66626557  1
  I  I99  1  0.83256273  0.16739468  0.00576544  1
  I  I100  1  0.83295358  0.16248662  0.32859001  1
  I  I101  1  0.83414067  0.16670268  0.66649288  1
  I  I102  1  0.82905598  0.50009407  0.00413951  1
  I  I103  1  0.83342988  0.50100452  0.33122097  1
  I  I104  1  0.83861424  0.50509270  0.66303963  1
  I  I105  1  0.83276641  0.83183109  0.00510517  1
  I  I106  1  0.83261648  0.83532394  0.32889805  1
  I  I107  1  0.83245019  0.83040509  0.66641666  1
  I  I108  1  -0.00004580  0.16172543  0.16740551  1
  I  I109  1  -0.00003111  0.16091711  0.49576808  1
  I  I110  1  0.00020853  0.16393070  0.83597123  1
  I  I111  1  -0.00257290  0.50068337  0.16889919  1
  I  I112  1  0.00012679  0.50858191  0.49024532  1
  I  I113  1  0.00022622  0.50373519  0.84064925  1
  I  I114  1  0.00068671  0.83624155  0.16656335  1
  I  I115  1  0.00303233  0.83088616  0.49831969  1
  I  I116  1  0.00324340  0.83270980  0.83533159  1
  I  I117  1  0.33351949  0.16148081  0.16735898  1
  I  I118  1  0.33332184  0.17156874  0.49551219  1
  I  I119  1  0.33336397  0.16901212  0.83610467  1
  I  I120  1  0.33577623  0.50149787  0.16844767  1
  I  I121  1  0.33084164  0.50499038  0.49559608  1
  I  I122  1  0.33322470  0.49926025  0.83622804  1
  I  I123  1  0.33356667  0.83543086  0.16658183  1
  I  I124  1  0.33260359  0.82742277  0.49390333  1
  I  I125  1  0.33332391  0.83280757  0.84005261  1
  I  I126  1  0.66654285  0.16258606  0.16690190  1
  I  I127  1  0.66666223  0.16482976  0.49604184  1
  I  I128  1  0.66640047  0.16418193  0.83528643  1
  I  I129  1  0.66713906  0.50161892  0.17189989  1
  I  I130  1  0.66912011  0.50311927  0.49397862  1
  I  I131  1  0.66650810  0.50347391  0.83035204  1
  I  I132  1  0.66575146  0.83524243  0.16655179  1
  I  I133  1  0.66401857  0.83170593  0.49751817  1
  I  I134  1  0.66354247  0.83273489  0.83568952  1
