# generated using pymatgen
data_Cs27Sn13Pb14I81
_symmetry_space_group_name_H-M   'P 1'
_cell_length_a   18.97342541
_cell_length_b   18.97418362
_cell_length_c   18.98194254
_cell_angle_alpha   90.00031411
_cell_angle_beta   90.00157418
_cell_angle_gamma   89.99835406
_symmetry_Int_Tables_number   1
_chemical_formula_structural   Cs27Sn13Pb14I81
_chemical_formula_sum   'Cs27 Sn13 Pb14 I81'
_cell_volume   6833.59911054
_cell_formula_units_Z   1
loop_
 _symmetry_equiv_pos_site_id
 _symmetry_equiv_pos_as_xyz
  1  'x, y, z'
loop_
 _atom_site_type_symbol
 _atom_site_label
 _atom_site_symmetry_multiplicity
 _atom_site_fract_x
 _atom_site_fract_y
 _atom_site_fract_z
 _atom_site_occupancy
  Cs  Cs0  1  0.00000164  -0.00248546  -0.00448951  1
  Cs  Cs1  1  0.00191949  0.00056498  0.33489927  1
  Cs  Cs2  1  0.00126623  -0.00073882  0.66674138  1
  Cs  Cs3  1  -0.00074020  0.33460054  0.00401256  1
  Cs  Cs4  1  -0.00124790  0.33266638  0.33230173  1
  Cs  Cs5  1  -0.00014498  0.33287316  0.66549685  1
  Cs  Cs6  1  0.00224882  0.66846598  -0.00559849  1
  Cs  Cs7  1  -0.00239929  0.66904411  0.33407960  1
  Cs  Cs8  1  0.00265074  0.66897050  0.67051905  1
  Cs  Cs9  1  0.33577197  0.00324286  0.00393491  1
  Cs  Cs10  1  0.33073379  0.00018003  0.33403872  1
  Cs  Cs11  1  0.33348776  -0.00023372  0.66545089  1
  Cs  Cs12  1  0.33188107  0.32995265  0.00953366  1
  Cs  Cs13  1  0.33265632  0.33907736  0.32854121  1
  Cs  Cs14  1  0.33289870  0.33390910  0.66414641  1
  Cs  Cs15  1  0.33185269  0.66585775  -0.00221035  1
  Cs  Cs16  1  0.33574979  0.66226004  0.33303879  1
  Cs  Cs17  1  0.33309068  0.66609779  0.66764848  1
  Cs  Cs18  1  0.66406062  0.00045650  -0.00157465  1
  Cs  Cs19  1  0.66681083  -0.00448499  0.33414853  1
  Cs  Cs20  1  0.66583536  0.00161290  0.66730121  1
  Cs  Cs21  1  0.66759866  0.33128089  -0.00346682  1
  Cs  Cs22  1  0.67053987  0.33600265  0.33465916  1
  Cs  Cs23  1  0.66675510  0.33273152  0.66785085  1
  Cs  Cs24  1  0.66589126  0.66748111  0.00266895  1
  Cs  Cs25  1  0.66649355  0.66800581  0.32986795  1
  Cs  Cs26  1  0.66526036  0.66598770  0.66613786  1
  Sn  Sn27  1  0.50029446  0.50029749  0.83321555  1
  Sn  Sn28  1  0.83314418  0.16648475  0.16733757  1
  Sn  Sn29  1  0.49978018  0.16644960  0.49978343  1
  Sn  Sn30  1  0.16702863  0.16640007  0.50064023  1
  Sn  Sn31  1  0.83337411  0.49957242  0.16657891  1
  Sn  Sn32  1  0.49995334  0.83290521  0.83253212  1
  Sn  Sn33  1  0.49905539  0.83390730  0.50074446  1
  Sn  Sn34  1  0.16675654  0.16710831  0.83273384  1
  Sn  Sn35  1  0.16771852  0.83377742  0.49912128  1
  Sn  Sn36  1  0.83323040  0.16718032  0.49937542  1
  Sn  Sn37  1  0.83270755  0.50001328  0.83309160  1
  Sn  Sn38  1  0.83349759  0.49962030  0.50028564  1
  Sn  Sn39  1  0.16673500  0.83326286  0.16774989  1
  Pb  Pb40  1  0.49761478  0.83336281  0.16717756  1
  Pb  Pb41  1  0.16425036  0.50018319  0.49997862  1
  Pb  Pb42  1  0.83545847  0.83379357  0.16660438  1
  Pb  Pb43  1  0.16726582  0.49718860  0.83327884  1
  Pb  Pb44  1  0.50212129  0.50020188  0.50146417  1
  Pb  Pb45  1  0.83320188  0.83376658  0.50023808  1
  Pb  Pb46  1  0.50256709  0.49989368  0.16358914  1
  Pb  Pb47  1  0.16926596  0.83540807  0.83271632  1
  Pb  Pb48  1  0.50302219  0.16658023  0.17022702  1
  Pb  Pb49  1  0.83504156  0.16844954  0.83297638  1
  Pb  Pb50  1  0.16402433  0.50283791  0.16677029  1
  Pb  Pb51  1  0.83045454  0.83084321  0.83323654  1
  Pb  Pb52  1  0.49784128  0.16713768  0.83140476  1
  Pb  Pb53  1  0.16439494  0.16511774  0.16750445  1
  I  I54  1  0.16394848  -0.00256551  0.16865085  1
  I  I55  1  0.16469364  0.00066569  0.50012624  1
  I  I56  1  0.16652667  0.00301966  0.83102120  1
  I  I57  1  0.16728309  0.33319008  0.16620955  1
  I  I58  1  0.16840782  0.32986040  0.50450054  1
  I  I59  1  0.16702491  0.32951701  0.82581576  1
  I  I60  1  0.16520332  0.67063168  0.17246683  1
  I  I61  1  0.16972835  0.67004651  0.49664862  1
  I  I62  1  0.16427012  0.66676968  0.83328200  1
  I  I63  1  0.50384980  -0.00001267  0.16058418  1
  I  I64  1  0.50184199  -0.00010937  0.50589988  1
  I  I65  1  0.49742213  -0.00228907  0.83070347  1
  I  I66  1  0.49608897  0.33317305  0.16614262  1
  I  I67  1  0.49855191  0.33049455  0.50224798  1
  I  I68  1  0.50499063  0.33591537  0.83116719  1
  I  I69  1  0.50270420  0.66668437  0.17123651  1
  I  I70  1  0.49663649  0.66955922  0.50254415  1
  I  I71  1  0.50374618  0.66694361  0.82715620  1
  I  I72  1  0.83489509  0.00314880  0.17379205  1
  I  I73  1  0.83362964  0.00347748  0.49472635  1
  I  I74  1  0.83320449  0.00029053  0.83391684  1
  I  I75  1  0.83444024  0.33354975  0.16823372  1
  I  I76  1  0.83314842  0.33236136  0.49947506  1
  I  I77  1  0.82713950  0.33664622  0.83268479  1
  I  I78  1  0.83428894  0.66346144  0.16774349  1
  I  I79  1  0.83311956  0.66379839  0.49933911  1
  I  I80  1  0.83419706  0.66223694  0.83293632  1
  I  I81  1  0.16493953  0.16545917  -0.00176706  1
  I  I82  1  0.16694391  0.16345436  0.33690738  1
  I  I83  1  0.16361809  0.16141745  0.66429977  1
  I  I84  1  0.16411420  0.50016375  -0.00010606  1
  I  I85  1  0.16541313  0.49627270  0.33349743  1
  I  I86  1  0.16220337  0.50350737  0.66662198  1
  I  I87  1  0.16561077  0.83448803  0.00164158  1
  I  I88  1  0.17016033  0.83952585  0.33550702  1
  I  I89  1  0.16794003  0.83593382  0.66354082  1
  I  I90  1  0.49930737  0.16599670  -0.00008504  1
  I  I91  1  0.49505138  0.16032775  0.33857285  1
  I  I92  1  0.50522122  0.16531660  0.66310998  1
  I  I93  1  0.50506265  0.50632755  -0.00448317  1
  I  I94  1  0.50160130  0.50064071  0.33345410  1
  I  I95  1  0.50715042  0.50112431  0.66928471  1
  I  I96  1  0.49951996  0.82842991  -0.00283662  1
  I  I97  1  0.49906688  0.83809796  0.33698670  1
  I  I98  1  0.49485483  0.83298625  0.66544048  1
  I  I99  1  0.83658311  0.17102280  0.00222145  1
  I  I100  1  0.83508810  0.17492230  0.33498122  1
  I  I101  1  0.83229067  0.17066541  0.66327400  1
  I  I102  1  0.82942005  0.49573272  -0.00001057  1
  I  I103  1  0.83497097  0.49506256  0.33373318  1
  I  I104  1  0.82947581  0.49564369  0.66643145  1
  I  I105  1  0.83510367  0.83420961  -0.00008364  1
  I  I106  1  0.82937259  0.82818508  0.33363063  1
  I  I107  1  0.83826121  0.83309755  0.66653896  1
  I  I108  1  -0.00337527  0.17084744  0.17241008  1
  I  I109  1  -0.00005320  0.16667373  0.50000616  1
  I  I110  1  0.00276221  0.16696849  0.82750300  1
  I  I111  1  -0.00434743  0.49535238  0.16468631  1
  I  I112  1  -0.00427097  0.49596761  0.50216236  1
  I  I113  1  -0.00309982  0.49784662  0.83358275  1
  I  I114  1  0.00320140  0.83346803  0.17388306  1
  I  I115  1  0.00286110  0.83616324  0.49606537  1
  I  I116  1  0.00045406  0.83232976  0.83312409  1
  I  I117  1  0.33310937  0.16523034  0.16574657  1
  I  I118  1  0.33292792  0.16040280  0.50667941  1
  I  I119  1  0.33015619  0.16717781  0.82732315  1
  I  I120  1  0.33331365  0.50031203  0.16512544  1
  I  I121  1  0.33354497  0.49752053  0.50261138  1
  I  I122  1  0.33644213  0.50453099  0.83057939  1
  I  I123  1  0.32983377  0.83568055  0.16841494  1
  I  I124  1  0.33329644  0.84160625  0.50020999  1
  I  I125  1  0.33681043  0.82635994  0.83099639  1
  I  I126  1  0.67118824  0.17046999  0.16991172  1
  I  I127  1  0.66710901  0.16654971  0.49631061  1
  I  I128  1  0.66652879  0.16517703  0.83286838  1
  I  I129  1  0.67096591  0.49759928  0.17017187  1
  I  I130  1  0.67036128  0.49602721  0.49872767  1
  I  I131  1  0.66749060  0.50310419  0.83282328  1
  I  I132  1  0.66664173  0.83261975  0.16704226  1
  I  I133  1  0.66364891  0.83639327  0.50444912  1
  I  I134  1  0.66244809  0.83402058  0.82699554  1
