# generated using pymatgen
data_Cs27Sn14Pb13I81
_symmetry_space_group_name_H-M   'P 1'
_cell_length_a   18.98416670
_cell_length_b   18.96895012
_cell_length_c   18.97532061
_cell_angle_alpha   90.00073216
_cell_angle_beta   89.99920558
_cell_angle_gamma   89.99873860
_symmetry_Int_Tables_number   1
_chemical_formula_structural   Cs27Sn14Pb13I81
_chemical_formula_sum   'Cs27 Sn14 Pb13 I81'
_cell_volume   6833.19722256
_cell_formula_units_Z   1
loop_
 _symmetry_equiv_pos_site_id
 _symmetry_equiv_pos_as_xyz
  1  'x, y, z'
loop_
 _atom_site_type_symbol
 _atom_site_label
 _atom_site_symmetry_multiplicity
 _atom_site_fract_x
 _atom_site_fract_y
 _atom_site_fract_z
 _atom_site_occupancy
  Cs  Cs0  1  -0.00107273  0.00189000  -0.00068985  1
  Cs  Cs1  1  0.00187767  0.00108809  0.33337824  1
  Cs  Cs2  1  0.00045933  0.00024734  0.66704940  1
  Cs  Cs3  1  -0.00247126  0.33125394  0.00166388  1
  Cs  Cs4  1  0.00045149  0.33362040  0.33123050  1
  Cs  Cs5  1  -0.00060394  0.33269872  0.66789017  1
  Cs  Cs6  1  0.00143668  0.66489734  -0.00381209  1
  Cs  Cs7  1  0.00061453  0.66598211  0.33757072  1
  Cs  Cs8  1  -0.00159144  0.66637635  0.66551384  1
  Cs  Cs9  1  0.33315974  0.00006900  0.00000053  1
  Cs  Cs10  1  0.33274064  -0.00059355  0.33532457  1
  Cs  Cs11  1  0.33246657  0.00193636  0.66184329  1
  Cs  Cs12  1  0.33380824  0.33296682  0.00158045  1
  Cs  Cs13  1  0.33442267  0.33308348  0.33234075  1
  Cs  Cs14  1  0.33740402  0.33667500  0.66574200  1
  Cs  Cs15  1  0.33643130  0.66771429  -0.00468545  1
  Cs  Cs16  1  0.33148117  0.67040791  0.33125478  1
  Cs  Cs17  1  0.33415884  0.66010545  0.67471572  1
  Cs  Cs18  1  0.66681666  -0.00520501  0.00229333  1
  Cs  Cs19  1  0.66713400  -0.00363249  0.33162967  1
  Cs  Cs20  1  0.66793387  0.00118676  0.66571334  1
  Cs  Cs21  1  0.66961542  0.33228901  0.00043494  1
  Cs  Cs22  1  0.66424677  0.33370110  0.33339070  1
  Cs  Cs23  1  0.66448615  0.33277278  0.66608953  1
  Cs  Cs24  1  0.66293256  0.67230603  -0.00054376  1
  Cs  Cs25  1  0.67068592  0.67058698  0.33509970  1
  Cs  Cs26  1  0.66960732  0.66679168  0.66591143  1
  Sn  Sn27  1  0.50010458  0.16656369  0.83431250  1
  Sn  Sn28  1  0.50003641  0.49960654  0.16689729  1
  Sn  Sn29  1  0.83327892  0.49906666  0.83428755  1
  Sn  Sn30  1  0.83307567  0.16714966  0.83262257  1
  Sn  Sn31  1  0.49866334  0.83296334  0.50043134  1
  Sn  Sn32  1  0.16683896  0.50017344  0.16665549  1
  Sn  Sn33  1  0.16647820  0.83355876  0.16692402  1
  Sn  Sn34  1  0.83410951  0.16695060  0.50028313  1
  Sn  Sn35  1  0.83317581  0.49997511  0.16576882  1
  Sn  Sn36  1  0.16750272  0.16658162  0.16670082  1
  Sn  Sn37  1  0.16706855  0.16683396  0.83321201  1
  Sn  Sn38  1  0.49932899  0.16711974  0.16593191  1
  Sn  Sn39  1  0.16589695  0.16658497  0.49991164  1
  Sn  Sn40  1  0.16795133  0.83375826  0.49972859  1
  Pb  Pb41  1  0.49986725  0.50326341  0.49734095  1
  Pb  Pb42  1  0.83338548  0.49722282  0.50011514  1
  Pb  Pb43  1  0.83302861  0.16775463  0.16668365  1
  Pb  Pb44  1  0.83339552  0.83355915  0.83342099  1
  Pb  Pb45  1  0.83435118  0.83610485  0.49999670  1
  Pb  Pb46  1  0.50251864  0.49763212  0.83579386  1
  Pb  Pb47  1  0.49977882  0.16569880  0.49945911  1
  Pb  Pb48  1  0.16691245  0.49984842  0.49822290  1
  Pb  Pb49  1  0.49780054  0.83360827  0.16802023  1
  Pb  Pb50  1  0.49977197  0.83621206  0.83032953  1
  Pb  Pb51  1  0.83676817  0.82972572  0.16656829  1
  Pb  Pb52  1  0.16476439  0.49719647  0.83587858  1
  Pb  Pb53  1  0.16671982  0.83553257  0.83278879  1
  I  I54  1  0.17169847  0.00159940  0.16756123  1
  I  I55  1  0.16637392  0.00150955  0.49472464  1
  I  I56  1  0.16335070  0.00452092  0.83855418  1
  I  I57  1  0.16682454  0.33229209  0.16647816  1
  I  I58  1  0.16202173  0.32953561  0.49895735  1
  I  I59  1  0.16818010  0.32859682  0.83238192  1
  I  I60  1  0.16522838  0.66652289  0.17324387  1
  I  I61  1  0.16997647  0.66988331  0.49322439  1
  I  I62  1  0.16403707  0.66627854  0.83334922  1
  I  I63  1  0.49573692  0.00319232  0.16423300  1
  I  I64  1  0.49808845  -0.00190818  0.49759380  1
  I  I65  1  0.50277492  0.00483075  0.84151269  1
  I  I66  1  0.49491874  0.33238297  0.16398213  1
  I  I67  1  0.50034182  0.33314991  0.50119164  1
  I  I68  1  0.49702701  0.32919747  0.83320465  1
  I  I69  1  0.49973370  0.66398738  0.16953184  1
  I  I70  1  0.49319034  0.67107949  0.49724608  1
  I  I71  1  0.50199303  0.66641490  0.83400293  1
  I  I72  1  0.83264054  0.00000195  0.16677301  1
  I  I73  1  0.83503531  0.00417279  0.50601752  1
  I  I74  1  0.83428360  0.00422206  0.82874539  1
  I  I75  1  0.83828356  0.33578078  0.16594877  1
  I  I76  1  0.83963885  0.32919150  0.50121506  1
  I  I77  1  0.83448962  0.33162314  0.83408112  1
  I  I78  1  0.83104722  0.66148870  0.16093450  1
  I  I79  1  0.83334826  0.66667068  0.50011517  1
  I  I80  1  0.83377912  0.66323574  0.83878455  1
  I  I81  1  0.16650395  0.16727606  0.00088614  1
  I  I82  1  0.16622942  0.16629884  0.33255211  1
  I  I83  1  0.16501328  0.16056956  0.66635897  1
  I  I84  1  0.16860059  0.50049680  0.00448278  1
  I  I85  1  0.16363563  0.49458580  0.32920091  1
  I  I86  1  0.16398174  0.50075997  0.66706691  1
  I  I87  1  0.16592915  0.83402136  0.00314156  1
  I  I88  1  0.17009933  0.83860732  0.33307088  1
  I  I89  1  0.16916575  0.84030753  0.66314911  1
  I  I90  1  0.49652177  0.17050314  0.00076459  1
  I  I91  1  0.49690949  0.16937267  0.33033745  1
  I  I92  1  0.49850069  0.16367741  0.66900208  1
  I  I93  1  0.49614623  0.49884403  0.00402857  1
  I  I94  1  0.50177044  0.49076332  0.32876401  1
  I  I95  1  0.50199326  0.49919586  0.66705037  1
  I  I96  1  0.49935530  0.83193574  0.00008509  1
  I  I97  1  0.49752912  0.83680108  0.33574522  1
  I  I98  1  0.49287271  0.83663859  0.66261365  1
  I  I99  1  0.83631774  0.16948940  -0.00257059  1
  I  I100  1  0.83699963  0.16766541  0.33541808  1
  I  I101  1  0.83623960  0.17142980  0.66763695  1
  I  I102  1  0.83514871  0.49157597  0.00063019  1
  I  I103  1  0.83415250  0.49862867  0.33001139  1
  I  I104  1  0.83362581  0.49716986  0.66976302  1
  I  I105  1  0.83428746  0.83948469  0.00025109  1
  I  I106  1  0.83074353  0.83393223  0.33327144  1
  I  I107  1  0.83524952  0.82882362  0.66649417  1
  I  I108  1  0.00304160  0.16717176  0.16532791  1
  I  I109  1  0.00146941  0.16157140  0.50199706  1
  I  I110  1  0.00023419  0.16983650  0.83310890  1
  I  I111  1  0.00057823  0.49861530  0.16338704  1
  I  I112  1  0.00006817  0.50407002  0.49654611  1
  I  I113  1  -0.00306764  0.49365782  0.83939668  1
  I  I114  1  0.00483998  0.83736197  0.17343394  1
  I  I115  1  0.00367261  0.83582745  0.49509512  1
  I  I116  1  0.00021000  0.83590489  0.83219499  1
  I  I117  1  0.33212090  0.17094576  0.16447637  1
  I  I118  1  0.33029967  0.16402663  0.50108969  1
  I  I119  1  0.33287279  0.16451045  0.83466012  1
  I  I120  1  0.33283304  0.49752176  0.16921911  1
  I  I121  1  0.33330705  0.49366759  0.49867639  1
  I  I122  1  0.33346129  0.49926592  0.83384340  1
  I  I123  1  0.32978863  0.83088926  0.16922700  1
  I  I124  1  0.33152770  0.84258170  0.49388735  1
  I  I125  1  0.33320321  0.83413928  0.83595302  1
  I  I126  1  0.66399733  0.17152826  0.16489588  1
  I  I127  1  0.66870701  0.16562476  0.50323804  1
  I  I128  1  0.66704496  0.17114618  0.83223670  1
  I  I129  1  0.66647430  0.49246224  0.16343436  1
  I  I130  1  0.66674674  0.49965305  0.49635639  1
  I  I131  1  0.67025685  0.49259156  0.83903148  1
  I  I132  1  0.66652626  0.83413561  0.16902803  1
  I  I133  1  0.66452785  0.83514893  0.49940208  1
  I  I134  1  0.66648813  0.83637423  0.83184517  1
