# generated using pymatgen
data_Cs27Sn14Pb13I81
_symmetry_space_group_name_H-M   'P 1'
_cell_length_a   18.97216874
_cell_length_b   18.97695087
_cell_length_c   18.97700868
_cell_angle_alpha   90.00064959
_cell_angle_beta   89.99826448
_cell_angle_gamma   90.00150333
_symmetry_Int_Tables_number   1
_chemical_formula_structural   Cs27Sn14Pb13I81
_chemical_formula_sum   'Cs27 Sn14 Pb13 I81'
_cell_volume   6832.36670768
_cell_formula_units_Z   1
loop_
 _symmetry_equiv_pos_site_id
 _symmetry_equiv_pos_as_xyz
  1  'x, y, z'
loop_
 _atom_site_type_symbol
 _atom_site_label
 _atom_site_symmetry_multiplicity
 _atom_site_fract_x
 _atom_site_fract_y
 _atom_site_fract_z
 _atom_site_occupancy
  Cs  Cs0  1  -0.00260379  0.00285231  0.00308294  1
  Cs  Cs1  1  0.00011430  -0.00041698  0.33130284  1
  Cs  Cs2  1  0.00015351  0.00044246  0.66582428  1
  Cs  Cs3  1  0.00072495  0.33328898  0.00012036  1
  Cs  Cs4  1  0.00108593  0.33329149  0.33427122  1
  Cs  Cs5  1  -0.00181571  0.33154962  0.66608132  1
  Cs  Cs6  1  -0.00062726  0.66316667  0.00145850  1
  Cs  Cs7  1  -0.00002271  0.66839895  0.33119128  1
  Cs  Cs8  1  0.00091127  0.67039078  0.66668578  1
  Cs  Cs9  1  0.33777472  0.00094923  0.00033757  1
  Cs  Cs10  1  0.33783087  -0.00056368  0.33363998  1
  Cs  Cs11  1  0.33129067  -0.01035418  0.66645624  1
  Cs  Cs12  1  0.33338730  0.33451644  0.00074103  1
  Cs  Cs13  1  0.33381738  0.33277290  0.33269269  1
  Cs  Cs14  1  0.33374947  0.33319589  0.66752979  1
  Cs  Cs15  1  0.33172410  0.66198923  -0.00467739  1
  Cs  Cs16  1  0.33190146  0.66675523  0.33947473  1
  Cs  Cs17  1  0.33164124  0.67850534  0.66531391  1
  Cs  Cs18  1  0.66697568  -0.00203749  0.00180948  1
  Cs  Cs19  1  0.65797813  0.00073338  0.32940911  1
  Cs  Cs20  1  0.66830363  0.00186288  0.66742653  1
  Cs  Cs21  1  0.66659161  0.33407974  -0.00136191  1
  Cs  Cs22  1  0.66391131  0.33429393  0.34098361  1
  Cs  Cs23  1  0.66783291  0.33480499  0.66415892  1
  Cs  Cs24  1  0.66875614  0.66665015  0.00077006  1
  Cs  Cs25  1  0.66548885  0.66557137  0.33222165  1
  Cs  Cs26  1  0.66634393  0.66298119  0.66587902  1
  Sn  Sn27  1  0.83249038  0.49850069  0.16630465  1
  Sn  Sn28  1  0.16692446  0.16681228  0.83339093  1
  Sn  Sn29  1  0.83304970  0.83372873  0.50009565  1
  Sn  Sn30  1  0.16687578  0.83420859  0.16593522  1
  Sn  Sn31  1  0.83351555  0.16792176  0.16640488  1
  Sn  Sn32  1  0.50051611  0.49916086  0.83395559  1
  Sn  Sn33  1  0.16653104  0.16734665  0.49995725  1
  Sn  Sn34  1  0.83321165  0.16689814  0.83404037  1
  Sn  Sn35  1  0.16639348  0.49942666  0.50056189  1
  Sn  Sn36  1  0.50023456  0.16736562  0.83323241  1
  Sn  Sn37  1  0.83295556  0.49977851  0.83392403  1
  Sn  Sn38  1  0.83354726  0.83334718  0.83248920  1
  Sn  Sn39  1  0.16624000  0.16568295  0.16669694  1
  Sn  Sn40  1  0.50089929  0.49972668  0.16596722  1
  Pb  Pb41  1  0.50030039  0.16872261  0.16469833  1
  Pb  Pb42  1  0.49680506  0.16663173  0.50354293  1
  Pb  Pb43  1  0.16401121  0.83625330  0.83607160  1
  Pb  Pb44  1  0.50363279  0.83336748  0.49994818  1
  Pb  Pb45  1  0.83420030  0.83345629  0.16638673  1
  Pb  Pb46  1  0.16662219  0.49819992  0.83108471  1
  Pb  Pb47  1  0.50283967  0.83291376  0.83354314  1
  Pb  Pb48  1  0.83487909  0.16483579  0.49935976  1
  Pb  Pb49  1  0.49677597  0.82976254  0.16616358  1
  Pb  Pb50  1  0.16653767  0.49926458  0.16808204  1
  Pb  Pb51  1  0.49734299  0.49994167  0.50102605  1
  Pb  Pb52  1  0.16493378  0.83417503  0.49796394  1
  Pb  Pb53  1  0.83520447  0.50156389  0.49996673  1
  I  I54  1  0.15910487  0.00245852  0.16812458  1
  I  I55  1  0.16453443  0.00319571  0.50264292  1
  I  I56  1  0.16730684  0.00468592  0.82734054  1
  I  I57  1  0.16516853  0.33010352  0.16479406  1
  I  I58  1  0.16467542  0.33193611  0.49742762  1
  I  I59  1  0.16217215  0.32975912  0.83846606  1
  I  I60  1  0.16524741  0.66796808  0.17041551  1
  I  I61  1  0.16559345  0.66495554  0.49713564  1
  I  I62  1  0.16689002  0.66679498  0.83272131  1
  I  I63  1  0.50242098  0.00021511  0.16600860  1
  I  I64  1  0.49710474  0.00022914  0.50057158  1
  I  I65  1  0.49958206  0.00315164  0.83266722  1
  I  I66  1  0.49828441  0.33651141  0.16365121  1
  I  I67  1  0.50252500  0.33329911  0.49840114  1
  I  I68  1  0.50398032  0.33340746  0.83725998  1
  I  I69  1  0.50610792  0.66191392  0.16013815  1
  I  I70  1  0.49482969  0.66636235  0.50181692  1
  I  I71  1  0.50438181  0.66307819  0.83720387  1
  I  I72  1  0.83781735  0.00294864  0.16299742  1
  I  I73  1  0.83786240  -0.00269857  0.50519623  1
  I  I74  1  0.83456069  0.00157751  0.83325002  1
  I  I75  1  0.83717832  0.33296256  0.15848237  1
  I  I76  1  0.83390252  0.33316877  0.50194292  1
  I  I77  1  0.83356060  0.33285249  0.83806271  1
  I  I78  1  0.83256998  0.66398746  0.16361573  1
  I  I79  1  0.83790992  0.66923934  0.50411834  1
  I  I80  1  0.82876081  0.66545055  0.83384289  1
  I  I81  1  0.16452979  0.16224284  0.00001273  1
  I  I82  1  0.16007924  0.16713307  0.33229609  1
  I  I83  1  0.16542793  0.17301636  0.66739178  1
  I  I84  1  0.16677058  0.50059839  -0.00019442  1
  I  I85  1  0.16573251  0.49511114  0.33562712  1
  I  I86  1  0.16525836  0.49393558  0.66369737  1
  I  I87  1  0.16354830  0.83672109  0.00346453  1
  I  I88  1  0.16210265  0.83753437  0.33049277  1
  I  I89  1  0.16740085  0.83339006  0.66694530  1
  I  I90  1  0.49568311  0.16875319  -0.00343638  1
  I  I91  1  0.50044863  0.16788810  0.33322739  1
  I  I92  1  0.50374058  0.17433740  0.67179562  1
  I  I93  1  0.50301132  0.49617800  -0.00091544  1
  I  I94  1  0.50382655  0.50053506  0.33066908  1
  I  I95  1  0.50535155  0.49487282  0.67051449  1
  I  I96  1  0.50204372  0.83604338  -0.00013636  1
  I  I97  1  0.50243400  0.83198616  0.33290505  1
  I  I98  1  0.49515107  0.83130142  0.66702782  1
  I  I99  1  0.83850413  0.16549772  -0.00100806  1
  I  I100  1  0.83965148  0.16956151  0.32999937  1
  I  I101  1  0.83429842  0.16880180  0.67002444  1
  I  I102  1  0.83117128  0.50164491  -0.00062165  1
  I  I103  1  0.83135051  0.49748261  0.33016136  1
  I  I104  1  0.83041240  0.49707119  0.67005341  1
  I  I105  1  0.83491363  0.83382955  -0.00273599  1
  I  I106  1  0.83798652  0.83224175  0.33490010  1
  I  I107  1  0.83520689  0.83346241  0.66824641  1
  I  I108  1  -0.00010722  0.16860643  0.16169283  1
  I  I109  1  0.00310992  0.16957175  0.50435275  1
  I  I110  1  -0.00064530  0.16676167  0.83387825  1
  I  I111  1  -0.00279092  0.49957053  0.16286695  1
  I  I112  1  0.00277300  0.49586205  0.49915204  1
  I  I113  1  -0.00332524  0.49928707  0.83718145  1
  I  I114  1  0.00209447  0.83331438  0.16682160  1
  I  I115  1  -0.00248093  0.83292240  0.50466947  1
  I  I116  1  -0.00395995  0.83161200  0.82981373  1
  I  I117  1  0.33041034  0.16460594  0.16586394  1
  I  I118  1  0.32841553  0.17085156  0.49698710  1
  I  I119  1  0.33294939  0.17315592  0.83401501  1
  I  I120  1  0.33545400  0.50032413  0.16282269  1
  I  I121  1  0.32957167  0.49552528  0.49768804  1
  I  I122  1  0.33595758  0.49397613  0.83795735  1
  I  I123  1  0.32899049  0.84081763  0.16850264  1
  I  I124  1  0.33295200  0.83234265  0.49894966  1
  I  I125  1  0.33306798  0.83277314  0.83371694  1
  I  I126  1  0.66987480  0.16715572  0.16154358  1
  I  I127  1  0.66669379  0.16455576  0.49950935  1
  I  I128  1  0.66810099  0.16640030  0.83844697  1
  I  I129  1  0.66821910  0.49581040  0.16278357  1
  I  I130  1  0.66679281  0.50269906  0.49937316  1
  I  I131  1  0.66789944  0.49576919  0.83645115  1
  I  I132  1  0.66670233  0.83587961  0.16759628  1
  I  I133  1  0.67149980  0.83217399  0.50393549  1
  I  I134  1  0.67102120  0.83832410  0.83111107  1
