# generated using pymatgen
data_Cs27Sn14Pb13I81
_symmetry_space_group_name_H-M   'P 1'
_cell_length_a   18.96820770
_cell_length_b   18.98391134
_cell_length_c   18.97635153
_cell_angle_alpha   89.99840536
_cell_angle_beta   90.00144399
_cell_angle_gamma   90.00210463
_symmetry_Int_Tables_number   1
_chemical_formula_structural   Cs27Sn14Pb13I81
_chemical_formula_sum   'Cs27 Sn14 Pb13 I81'
_cell_volume   6833.20908402
_cell_formula_units_Z   1
loop_
 _symmetry_equiv_pos_site_id
 _symmetry_equiv_pos_as_xyz
  1  'x, y, z'
loop_
 _atom_site_type_symbol
 _atom_site_label
 _atom_site_symmetry_multiplicity
 _atom_site_fract_x
 _atom_site_fract_y
 _atom_site_fract_z
 _atom_site_occupancy
  Cs  Cs0  1  0.00106687  0.00002266  -0.00344451  1
  Cs  Cs1  1  0.00117479  -0.00083185  0.33086671  1
  Cs  Cs2  1  -0.00080618  0.00009507  0.66708499  1
  Cs  Cs3  1  -0.00200542  0.33599765  -0.00394393  1
  Cs  Cs4  1  0.00103551  0.33217013  0.33373658  1
  Cs  Cs5  1  -0.00010156  0.33347950  0.66764585  1
  Cs  Cs6  1  0.00115194  0.66387094  -0.00147900  1
  Cs  Cs7  1  -0.00190629  0.66813707  0.33144161  1
  Cs  Cs8  1  0.00114754  0.66657042  0.66770242  1
  Cs  Cs9  1  0.34132780  -0.00055739  0.00833285  1
  Cs  Cs10  1  0.33005042  0.00264425  0.32902673  1
  Cs  Cs11  1  0.33355347  -0.00184324  0.66538772  1
  Cs  Cs12  1  0.34007869  0.33115573  0.00080593  1
  Cs  Cs13  1  0.33319372  0.33077426  0.33375546  1
  Cs  Cs14  1  0.33260590  0.33617461  0.66499367  1
  Cs  Cs15  1  0.33597980  0.67083100  0.00033431  1
  Cs  Cs16  1  0.33373043  0.66582884  0.33574820  1
  Cs  Cs17  1  0.33255023  0.66614719  0.66538957  1
  Cs  Cs18  1  0.65725638  0.00230308  -0.00043432  1
  Cs  Cs19  1  0.66997078  -0.00289689  0.33733254  1
  Cs  Cs20  1  0.66779217  -0.00010245  0.66495458  1
  Cs  Cs21  1  0.66403766  0.33229524  0.00345716  1
  Cs  Cs22  1  0.66644491  0.33629457  0.33385741  1
  Cs  Cs23  1  0.66740822  0.33243736  0.66541080  1
  Cs  Cs24  1  0.65958769  0.66712219  0.00896172  1
  Cs  Cs25  1  0.66931830  0.66565338  0.32706995  1
  Cs  Cs26  1  0.66480918  0.66712651  0.66509811  1
  Sn  Sn27  1  0.49901374  0.83412001  0.50044289  1
  Sn  Sn28  1  0.16533842  0.50082159  0.49996740  1
  Sn  Sn29  1  0.83309094  0.50051380  0.83270740  1
  Sn  Sn30  1  0.50068758  0.16581381  0.50068936  1
  Sn  Sn31  1  0.16711249  0.83279288  0.50070578  1
  Sn  Sn32  1  0.16661135  0.16644862  0.83328276  1
  Sn  Sn33  1  0.83351521  0.83285164  0.83334769  1
  Sn  Sn34  1  0.16601267  0.83364822  0.83263801  1
  Sn  Sn35  1  0.83445445  0.49951855  0.50085491  1
  Sn  Sn36  1  0.16649247  0.49982080  0.16633786  1
  Sn  Sn37  1  0.83394667  0.16665816  0.83357015  1
  Sn  Sn38  1  0.83405508  0.16634826  0.16641558  1
  Sn  Sn39  1  0.16636793  0.49991433  0.83349685  1
  Sn  Sn40  1  0.83295704  0.16735378  0.49993667  1
  Pb  Pb41  1  0.83402250  0.83284616  0.50153371  1
  Pb  Pb42  1  0.50018105  0.16677996  0.83084685  1
  Pb  Pb43  1  0.50297902  0.16678852  0.17033140  1
  Pb  Pb44  1  0.50048140  0.50005399  0.83315755  1
  Pb  Pb45  1  0.49652640  0.49976143  0.16686528  1
  Pb  Pb46  1  0.16603165  0.16652874  0.50166205  1
  Pb  Pb47  1  0.83378167  0.83613629  0.16252010  1
  Pb  Pb48  1  0.16628366  0.83129337  0.16625337  1
  Pb  Pb49  1  0.16446896  0.16895072  0.16316003  1
  Pb  Pb50  1  0.49993873  0.83343606  0.17074314  1
  Pb  Pb51  1  0.49972027  0.83329133  0.83126522  1
  Pb  Pb52  1  0.83505393  0.49827667  0.16638191  1
  Pb  Pb53  1  0.50036928  0.50019110  0.50017156  1
  I  I54  1  0.16642598  0.00031401  0.16742333  1
  I  I55  1  0.16725742  -0.00235261  0.50557355  1
  I  I56  1  0.15835541  -0.00040732  0.82616437  1
  I  I57  1  0.16501839  0.33669161  0.16973059  1
  I  I58  1  0.16629098  0.33612134  0.50135369  1
  I  I59  1  0.16020602  0.33402928  0.83206987  1
  I  I60  1  0.16453612  0.66326509  0.16296334  1
  I  I61  1  0.16762924  0.66591554  0.50459401  1
  I  I62  1  0.16045862  0.66627918  0.83198678  1
  I  I63  1  0.49875734  0.00033615  0.16385383  1
  I  I64  1  0.50120929  0.00024909  0.50208073  1
  I  I65  1  0.50025282  0.00007742  0.83295338  1
  I  I66  1  0.49966251  0.33299907  0.16884205  1
  I  I67  1  0.50168924  0.33081477  0.50008874  1
  I  I68  1  0.49811725  0.33328023  0.83021301  1
  I  I69  1  0.50219694  0.66664896  0.16799089  1
  I  I70  1  0.49760794  0.66931406  0.50170207  1
  I  I71  1  0.50068954  0.66674212  0.82988035  1
  I  I72  1  0.83444573  0.00409433  0.17065213  1
  I  I73  1  0.83204739  0.00257381  0.50143306  1
  I  I74  1  0.84032492  0.00078186  0.83202651  1
  I  I75  1  0.83518842  0.33049193  0.16306206  1
  I  I76  1  0.83311265  0.33305485  0.50447471  1
  I  I77  1  0.83980564  0.33317420  0.83147730  1
  I  I78  1  0.83331625  0.66651294  0.16810368  1
  I  I79  1  0.83421979  0.66381392  0.50492173  1
  I  I80  1  0.84112134  0.66577779  0.82588432  1
  I  I81  1  0.16010772  0.16617998  -0.00512273  1
  I  I82  1  0.16626177  0.16716884  0.33339221  1
  I  I83  1  0.16128666  0.17037707  0.66969611  1
  I  I84  1  0.16110230  0.49963348  -0.00193779  1
  I  I85  1  0.16281645  0.50462280  0.33510641  1
  I  I86  1  0.16310197  0.50082175  0.66683514  1
  I  I87  1  0.16083319  0.83220168  -0.00390826  1
  I  I88  1  0.17119928  0.82928293  0.33672767  1
  I  I89  1  0.16682204  0.82856798  0.66701061  1
  I  I90  1  0.49990309  0.16698959  0.00011333  1
  I  I91  1  0.50326721  0.16305237  0.33817964  1
  I  I92  1  0.50657225  0.16349400  0.66314151  1
  I  I93  1  0.50139162  0.49954443  -0.00000212  1
  I  I94  1  0.50084316  0.50035494  0.33386098  1
  I  I95  1  0.49562651  0.49948985  0.66634885  1
  I  I96  1  0.49983232  0.83308570  0.00005268  1
  I  I97  1  0.49386351  0.83769612  0.33876941  1
  I  I98  1  0.49817723  0.83721154  0.66337040  1
  I  I99  1  0.84020147  0.16731410  -0.00180360  1
  I  I100  1  0.82798106  0.17232051  0.33489884  1
  I  I101  1  0.83282675  0.16767354  0.66698773  1
  I  I102  1  0.83883272  0.49867747  -0.00346928  1
  I  I103  1  0.83694075  0.49539293  0.33638220  1
  I  I104  1  0.84096827  0.49472730  0.66676115  1
  I  I105  1  0.84206170  0.83085779  -0.00569146  1
  I  I106  1  0.83229320  0.83336614  0.33340327  1
  I  I107  1  0.83500157  0.83801714  0.66965314  1
  I  I108  1  -0.00325123  0.16693692  0.17328423  1
  I  I109  1  -0.00325245  0.16793378  0.49967049  1
  I  I110  1  -0.00105011  0.16707571  0.83029367  1
  I  I111  1  0.00292901  0.49922966  0.16647347  1
  I  I112  1  0.00046994  0.49921909  0.50165918  1
  I  I113  1  0.00037850  0.49931146  0.83216196  1
  I  I114  1  -0.00001529  0.83421313  0.17409723  1
  I  I115  1  0.00290774  0.83207836  0.50266960  1
  I  I116  1  0.00079697  0.83375261  0.82677666  1
  I  I117  1  0.33324676  0.16807106  0.16644172  1
  I  I118  1  0.33485454  0.16655802  0.50305866  1
  I  I119  1  0.33014185  0.16813753  0.83056594  1
  I  I120  1  0.32826826  0.49931621  0.16683181  1
  I  I121  1  0.32983626  0.50029413  0.50139618  1
  I  I122  1  0.32898470  0.50002587  0.83155691  1
  I  I123  1  0.33304447  0.83316565  0.16135772  1
  I  I124  1  0.33171382  0.83241321  0.50654648  1
  I  I125  1  0.32954933  0.83157712  0.83075625  1
  I  I126  1  0.67082828  0.16857184  0.15882278  1
  I  I127  1  0.66859860  0.16639373  0.50247146  1
  I  I128  1  0.67065266  0.16672164  0.83489695  1
  I  I129  1  0.66700792  0.49933552  0.16734947  1
  I  I130  1  0.67024667  0.49839531  0.50543167  1
  I  I131  1  0.67112192  0.49840996  0.82660671  1
  I  I132  1  0.66693016  0.83189302  0.16658770  1
  I  I133  1  0.66519625  0.83536085  0.50253290  1
  I  I134  1  0.66985800  0.83503443  0.83106749  1
