# generated using pymatgen
data_Cs27Sn13Pb14I81
_symmetry_space_group_name_H-M   'P 1'
_cell_length_a   18.97631908
_cell_length_b   18.97629584
_cell_length_c   18.97727446
_cell_angle_alpha   89.99856930
_cell_angle_beta   90.00074622
_cell_angle_gamma   90.00160103
_symmetry_Int_Tables_number   1
_chemical_formula_structural   Cs27Sn13Pb14I81
_chemical_formula_sum   'Cs27 Sn13 Pb14 I81'
_cell_volume   6833.72117324
_cell_formula_units_Z   1
loop_
 _symmetry_equiv_pos_site_id
 _symmetry_equiv_pos_as_xyz
  1  'x, y, z'
loop_
 _atom_site_type_symbol
 _atom_site_label
 _atom_site_symmetry_multiplicity
 _atom_site_fract_x
 _atom_site_fract_y
 _atom_site_fract_z
 _atom_site_occupancy
  Cs  Cs0  1  0.00134166  -0.00316691  0.00176906  1
  Cs  Cs1  1  -0.00067993  0.00045754  0.33408209  1
  Cs  Cs2  1  0.00200030  0.00085520  0.66404318  1
  Cs  Cs3  1  -0.00144904  0.33247437  0.00004030  1
  Cs  Cs4  1  -0.00190983  0.33416482  0.33533960  1
  Cs  Cs5  1  -0.00530221  0.33625782  0.66410592  1
  Cs  Cs6  1  -0.00227790  0.67149352  0.00110406  1
  Cs  Cs7  1  0.00235721  0.66641642  0.33335205  1
  Cs  Cs8  1  -0.00040255  0.66380753  0.66573999  1
  Cs  Cs9  1  0.33117087  0.00222629  -0.00336587  1
  Cs  Cs10  1  0.33324256  0.00155924  0.33610718  1
  Cs  Cs11  1  0.33294085  -0.00031030  0.66577040  1
  Cs  Cs12  1  0.33445875  0.33310077  -0.00051109  1
  Cs  Cs13  1  0.33401738  0.33392058  0.33325115  1
  Cs  Cs14  1  0.33282553  0.33411539  0.66691865  1
  Cs  Cs15  1  0.33364817  0.66313611  0.00683831  1
  Cs  Cs16  1  0.33588316  0.66349593  0.32680678  1
  Cs  Cs17  1  0.33292010  0.66601629  0.66540867  1
  Cs  Cs18  1  0.66793548  -0.00531978  -0.00824209  1
  Cs  Cs19  1  0.66629925  -0.00045335  0.33487004  1
  Cs  Cs20  1  0.66574499  -0.00096603  0.67281543  1
  Cs  Cs21  1  0.66693774  0.33303240  0.00014391  1
  Cs  Cs22  1  0.66725638  0.33284995  0.33290863  1
  Cs  Cs23  1  0.67203861  0.33359825  0.66795389  1
  Cs  Cs24  1  0.66962094  0.67328722  0.00174868  1
  Cs  Cs25  1  0.66048436  0.67118297  0.33010165  1
  Cs  Cs26  1  0.66628441  0.66743310  0.66863174  1
  Sn  Sn27  1  0.83301092  0.16705915  0.16667096  1
  Sn  Sn28  1  0.49947524  0.49980266  0.83265088  1
  Sn  Sn29  1  0.49982696  0.49897164  0.50080136  1
  Sn  Sn30  1  0.16722684  0.49997012  0.83324378  1
  Sn  Sn31  1  0.49951651  0.16769613  0.49978615  1
  Sn  Sn32  1  0.16598161  0.83361643  0.50049815  1
  Sn  Sn33  1  0.83343727  0.49966744  0.16686430  1
  Sn  Sn34  1  0.16717068  0.16655727  0.50008565  1
  Sn  Sn35  1  0.16653773  0.16718594  0.83277289  1
  Sn  Sn36  1  0.16664004  0.16699241  0.16708655  1
  Sn  Sn37  1  0.83392300  0.83346469  0.50010130  1
  Sn  Sn38  1  0.50031586  0.16664875  0.16695030  1
  Sn  Sn39  1  0.16705163  0.83294052  0.83243057  1
  Pb  Pb40  1  0.50196078  0.49784151  0.16630035  1
  Pb  Pb41  1  0.83297045  0.16528756  0.49829419  1
  Pb  Pb42  1  0.83321269  0.50006302  0.83546663  1
  Pb  Pb43  1  0.83630764  0.16661493  0.83594084  1
  Pb  Pb44  1  0.49976000  0.83724109  0.16643944  1
  Pb  Pb45  1  0.16826828  0.49995014  0.50149543  1
  Pb  Pb46  1  0.49905138  0.83373241  0.50012631  1
  Pb  Pb47  1  0.16472227  0.49738736  0.16414742  1
  Pb  Pb48  1  0.49677324  0.83010147  0.83326849  1
  Pb  Pb49  1  0.49822303  0.16839519  0.83280976  1
  Pb  Pb50  1  0.16698144  0.83569497  0.16725886  1
  Pb  Pb51  1  0.83018310  0.50252330  0.49770360  1
  Pb  Pb52  1  0.83618716  0.83329897  0.83040459  1
  Pb  Pb53  1  0.83349231  0.83399346  0.16898770  1
  I  I54  1  0.16419350  0.00446930  0.16232457  1
  I  I55  1  0.16822233  0.00139694  0.50368956  1
  I  I56  1  0.16536976  0.00077115  0.83364881  1
  I  I57  1  0.16899904  0.32889428  0.16768456  1
  I  I58  1  0.16929274  0.33007285  0.49987208  1
  I  I59  1  0.17123695  0.33277472  0.83496919  1
  I  I60  1  0.16429363  0.66638023  0.16646939  1
  I  I61  1  0.16390574  0.66927187  0.50561581  1
  I  I62  1  0.17003034  0.66669719  0.82721299  1
  I  I63  1  0.50106907  0.00569807  0.17426298  1
  I  I64  1  0.49808436  0.00342487  0.49422110  1
  I  I65  1  0.49941150  0.00012691  0.83386703  1
  I  I66  1  0.49673259  0.32975287  0.16818488  1
  I  I67  1  0.49367453  0.33208109  0.49895147  1
  I  I68  1  0.49254782  0.33613400  0.83283123  1
  I  I69  1  0.50223010  0.66621780  0.16757133  1
  I  I70  1  0.50066028  0.66394509  0.50441890  1
  I  I71  1  0.49534399  0.66213907  0.82670722  1
  I  I72  1  0.83487823  0.00349687  0.16834950  1
  I  I73  1  0.83470088  -0.00244051  0.49669311  1
  I  I74  1  0.83305678  -0.00000788  0.83637839  1
  I  I75  1  0.83412439  0.33172324  0.16717262  1
  I  I76  1  0.83568836  0.33336230  0.50008563  1
  I  I77  1  0.83698232  0.33331869  0.83107560  1
  I  I78  1  0.83273603  0.66434309  0.16672599  1
  I  I79  1  0.84065425  0.66997871  0.49820578  1
  I  I80  1  0.83524594  0.66663739  0.83697719  1
  I  I81  1  0.16666706  0.16692292  -0.00005965  1
  I  I82  1  0.16748018  0.16148157  0.33388749  1
  I  I83  1  0.17239783  0.16463552  0.66605427  1
  I  I84  1  0.17324239  0.50032166  -0.00408289  1
  I  I85  1  0.16769238  0.50059473  0.33324952  1
  I  I86  1  0.16797362  0.49558714  0.66979625  1
  I  I87  1  0.16763028  0.83458138  -0.00298903  1
  I  I88  1  0.16298386  0.83888007  0.33686711  1
  I  I89  1  0.16306452  0.83912753  0.66634943  1
  I  I90  1  0.49820337  0.16879666  0.00250288  1
  I  I91  1  0.49474634  0.17191919  0.33392845  1
  I  I92  1  0.49428651  0.16781768  0.66354027  1
  I  I93  1  0.49546246  0.49815140  -0.00253495  1
  I  I94  1  0.50143815  0.49833989  0.33567848  1
  I  I95  1  0.49554968  0.49453662  0.66629293  1
  I  I96  1  0.49929078  0.83286620  -0.00027719  1
  I  I97  1  0.49776304  0.82758351  0.33367311  1
  I  I98  1  0.50288476  0.83812157  0.66655579  1
  I  I99  1  0.83232597  0.17040203  0.00445820  1
  I  I100  1  0.83826662  0.16943773  0.33016850  1
  I  I101  1  0.83327392  0.16529155  0.66646904  1
  I  I102  1  0.83254905  0.49465631  0.00323935  1
  I  I103  1  0.83304196  0.49426044  0.33022983  1
  I  I104  1  0.83446156  0.50128200  0.66646040  1
  I  I105  1  0.83403335  0.83312533  -0.00000173  1
  I  I106  1  0.84088521  0.83408154  0.33648671  1
  I  I107  1  0.83470442  0.83394163  0.66280922  1
  I  I108  1  0.00077301  0.17008101  0.16577749  1
  I  I109  1  0.00319369  0.16389026  0.49956864  1
  I  I110  1  0.00521735  0.16927888  0.83199874  1
  I  I111  1  -0.00282914  0.49366936  0.16579689  1
  I  I112  1  -0.00001929  0.49790939  0.50080834  1
  I  I113  1  0.00342064  0.49942966  0.83496791  1
  I  I114  1  0.00027891  0.83554691  0.16450425  1
  I  I115  1  0.00198150  0.83945628  0.50302577  1
  I  I116  1  0.00448912  0.83185825  0.83319159  1
  I  I117  1  0.33278771  0.16566985  0.16739474  1
  I  I118  1  0.33225170  0.16464899  0.49563045  1
  I  I119  1  0.32958903  0.16474999  0.83770842  1
  I  I120  1  0.33346550  0.49962147  0.16768125  1
  I  I121  1  0.33626543  0.49981755  0.50044076  1
  I  I122  1  0.33243621  0.49929669  0.83000968  1
  I  I123  1  0.33303002  0.83199573  0.16926056  1
  I  I124  1  0.32979963  0.83653024  0.50500523  1
  I  I125  1  0.32872092  0.83806557  0.82568480  1
  I  I126  1  0.66626727  0.17190394  0.17364504  1
  I  I127  1  0.66359619  0.16868351  0.49425571  1
  I  I128  1  0.66651817  0.16864743  0.83350755  1
  I  I129  1  0.66939863  0.49297824  0.16608966  1
  I  I130  1  0.66245474  0.49426870  0.50610159  1
  I  I131  1  0.66359312  0.49776187  0.82997126  1
  I  I132  1  0.66684116  0.83423216  0.16958712  1
  I  I133  1  0.66862816  0.83287504  0.49635249  1
  I  I134  1  0.66659062  0.83236517  0.83279664  1
