# generated using pymatgen
data_Cs27Sn14Pb13I81
_symmetry_space_group_name_H-M   'P 1'
_cell_length_a   18.97781881
_cell_length_b   18.96987511
_cell_length_c   18.97905849
_cell_angle_alpha   89.99893291
_cell_angle_beta   89.99916465
_cell_angle_gamma   89.99789933
_symmetry_Int_Tables_number   1
_chemical_formula_structural   Cs27Sn14Pb13I81
_chemical_formula_sum   'Cs27 Sn14 Pb13 I81'
_cell_volume   6832.59110599
_cell_formula_units_Z   1
loop_
 _symmetry_equiv_pos_site_id
 _symmetry_equiv_pos_as_xyz
  1  'x, y, z'
loop_
 _atom_site_type_symbol
 _atom_site_label
 _atom_site_symmetry_multiplicity
 _atom_site_fract_x
 _atom_site_fract_y
 _atom_site_fract_z
 _atom_site_occupancy
  Cs  Cs0  1  0.00063931  0.00053369  0.00114647  1
  Cs  Cs1  1  0.00091234  0.00035748  0.33076165  1
  Cs  Cs2  1  -0.00120831  -0.00127870  0.66793904  1
  Cs  Cs3  1  -0.00101207  0.33349106  0.00686713  1
  Cs  Cs4  1  0.00051899  0.33223707  0.32079349  1
  Cs  Cs5  1  0.00019240  0.33321123  0.66819365  1
  Cs  Cs6  1  -0.00109955  0.66587510  -0.00033311  1
  Cs  Cs7  1  0.00008556  0.66702934  0.33409973  1
  Cs  Cs8  1  -0.00536522  0.66880971  0.66552788  1
  Cs  Cs9  1  0.33716640  -0.00520000  -0.00269246  1
  Cs  Cs10  1  0.33199179  -0.00069209  0.33726569  1
  Cs  Cs11  1  0.33120881  0.00123762  0.66537105  1
  Cs  Cs12  1  0.33387003  0.33481518  -0.00166482  1
  Cs  Cs13  1  0.33196220  0.33338205  0.33555721  1
  Cs  Cs14  1  0.33428556  0.33334699  0.66645892  1
  Cs  Cs15  1  0.33473789  0.66828594  0.00005867  1
  Cs  Cs16  1  0.33330395  0.66686917  0.33395985  1
  Cs  Cs17  1  0.33209537  0.66358671  0.66483377  1
  Cs  Cs18  1  0.66274329  0.00009153  0.00185556  1
  Cs  Cs19  1  0.66660465  -0.00104973  0.33277780  1
  Cs  Cs20  1  0.67059902  0.00277686  0.66615722  1
  Cs  Cs21  1  0.66662431  0.33227304  -0.00117239  1
  Cs  Cs22  1  0.66633819  0.33327004  0.33185702  1
  Cs  Cs23  1  0.66538345  0.33240360  0.66819925  1
  Cs  Cs24  1  0.66346306  0.66902557  -0.00263473  1
  Cs  Cs25  1  0.66655842  0.66832627  0.33676834  1
  Cs  Cs26  1  0.67552939  0.66659562  0.66396922  1
  Sn  Sn27  1  0.49931379  0.49946194  0.83298784  1
  Sn  Sn28  1  0.16741777  0.83257537  0.49946061  1
  Sn  Sn29  1  0.49947110  0.50086671  0.50037663  1
  Sn  Sn30  1  0.83382739  0.16750800  0.49988841  1
  Sn  Sn31  1  0.16599121  0.83309410  0.16726631  1
  Sn  Sn32  1  0.49941062  0.83270623  0.50061132  1
  Sn  Sn33  1  0.49962000  0.16724867  0.83399609  1
  Sn  Sn34  1  0.16689565  0.50030256  0.50060900  1
  Sn  Sn35  1  0.16691964  0.16758435  0.83335902  1
  Sn  Sn36  1  0.49979868  0.49925355  0.16667726  1
  Sn  Sn37  1  0.83411896  0.83301507  0.16656643  1
  Sn  Sn38  1  0.49931700  0.16740098  0.16625086  1
  Sn  Sn39  1  0.16725597  0.49918644  0.83242933  1
  Sn  Sn40  1  0.83344348  0.16703412  0.83277865  1
  Pb  Pb41  1  0.16881389  0.50200860  0.16644200  1
  Pb  Pb42  1  0.83356323  0.49772063  0.83339584  1
  Pb  Pb43  1  0.49996144  0.83277861  0.82974167  1
  Pb  Pb44  1  0.16684364  0.83235594  0.83262077  1
  Pb  Pb45  1  0.16428657  0.16734181  0.50171303  1
  Pb  Pb46  1  0.83110962  0.16519989  0.16618680  1
  Pb  Pb47  1  0.83013475  0.50281127  0.16661007  1
  Pb  Pb48  1  0.83417422  0.49722636  0.49979980  1
  Pb  Pb49  1  0.50113545  0.16719668  0.50040099  1
  Pb  Pb50  1  0.49946449  0.83313616  0.16873463  1
  Pb  Pb51  1  0.16976580  0.16430226  0.16372038  1
  Pb  Pb52  1  0.83322804  0.83602369  0.83603673  1
  Pb  Pb53  1  0.83399796  0.83530411  0.49852541  1
  I  I54  1  0.16529374  -0.00339936  0.17219220  1
  I  I55  1  0.17023010  -0.00256622  0.49765857  1
  I  I56  1  0.16706268  0.00278717  0.83383956  1
  I  I57  1  0.16535582  0.33339270  0.16983020  1
  I  I58  1  0.17231927  0.33651960  0.50341269  1
  I  I59  1  0.16862769  0.33377021  0.82670997  1
  I  I60  1  0.16592123  0.66986921  0.16607583  1
  I  I61  1  0.17122326  0.66638695  0.50173020  1
  I  I62  1  0.17402563  0.66317924  0.83343106  1
  I  I63  1  0.50086948  0.00212065  0.16244943  1
  I  I64  1  0.49747828  -0.00200744  0.49827319  1
  I  I65  1  0.49991325  0.00324187  0.83798485  1
  I  I66  1  0.50086576  0.33369709  0.16791492  1
  I  I67  1  0.49673542  0.33652833  0.49987077  1
  I  I68  1  0.49979354  0.33327266  0.83207130  1
  I  I69  1  0.49984773  0.66393192  0.16369656  1
  I  I70  1  0.49670547  0.66558708  0.49836221  1
  I  I71  1  0.49361476  0.66291202  0.83803908  1
  I  I72  1  0.83433505  -0.00255041  0.16686496  1
  I  I73  1  0.83137124  0.00292368  0.50442432  1
  I  I74  1  0.83297048  0.00444373  0.82869387  1
  I  I75  1  0.83403421  0.33315709  0.16696006  1
  I  I76  1  0.83052621  0.32960627  0.50500419  1
  I  I77  1  0.83171904  0.32946298  0.83005433  1
  I  I78  1  0.83599748  0.67051816  0.16907220  1
  I  I79  1  0.83192138  0.66660335  0.49830949  1
  I  I80  1  0.83275893  0.66653066  0.83427454  1
  I  I81  1  0.16105611  0.17211262  -0.00427293  1
  I  I82  1  0.16562133  0.16824424  0.33313212  1
  I  I83  1  0.17240408  0.16540709  0.66993372  1
  I  I84  1  0.17068926  0.49720921  -0.00289686  1
  I  I85  1  0.17140971  0.50292689  0.33609881  1
  I  I86  1  0.17552308  0.50131365  0.66648938  1
  I  I87  1  0.16256597  0.83468492  0.00226549  1
  I  I88  1  0.16721002  0.82835052  0.33452278  1
  I  I89  1  0.17193092  0.83325558  0.66348631  1
  I  I90  1  0.50247109  0.17281157  -0.00121008  1
  I  I91  1  0.50395639  0.16861846  0.33148197  1
  I  I92  1  0.49911027  0.16909635  0.66970909  1
  I  I93  1  0.49676951  0.49504847  -0.00079138  1
  I  I94  1  0.49681245  0.50005202  0.33403917  1
  I  I95  1  0.49528838  0.49854421  0.66684283  1
  I  I96  1  0.50049609  0.83196509  -0.00003337  1
  I  I97  1  0.49925994  0.83038279  0.33641890  1
  I  I98  1  0.49310528  0.83129785  0.66200035  1
  I  I99  1  0.83403459  0.16497581  -0.00302811  1
  I  I100  1  0.83041509  0.16476329  0.33508803  1
  I  I101  1  0.82955837  0.16552136  0.66795669  1
  I  I102  1  0.83440235  0.49833494  0.00001519  1
  I  I103  1  0.83257210  0.49532571  0.33331523  1
  I  I104  1  0.82859849  0.50227896  0.66657446  1
  I  I105  1  0.83857080  0.83478467  0.00382520  1
  I  I106  1  0.83325805  0.83773373  0.33095815  1
  I  I107  1  0.83307666  0.83342606  0.66654253  1
  I  I108  1  0.00029043  0.16635583  0.16598894  1
  I  I109  1  -0.00311069  0.16481533  0.50662978  1
  I  I110  1  0.00030325  0.16883761  0.82705867  1
  I  I111  1  0.00033281  0.49928271  0.16708873  1
  I  I112  1  0.00380275  0.50485220  0.50651595  1
  I  I113  1  0.00359745  0.49726700  0.82787712  1
  I  I114  1  0.00099080  0.83493893  0.17277146  1
  I  I115  1  0.00322359  0.82984979  0.49830829  1
  I  I116  1  0.00018764  0.83362967  0.82944805  1
  I  I117  1  0.33753688  0.16849961  0.16321085  1
  I  I118  1  0.33314949  0.16485364  0.50010710  1
  I  I119  1  0.33402646  0.17045247  0.83769896  1
  I  I120  1  0.33697586  0.49875522  0.16654018  1
  I  I121  1  0.33409247  0.50370949  0.50085007  1
  I  I122  1  0.33411181  0.49176296  0.83210625  1
  I  I123  1  0.33110446  0.83359709  0.16900168  1
  I  I124  1  0.33275926  0.83111352  0.49344330  1
  I  I125  1  0.33340693  0.84036210  0.83943768  1
  I  I126  1  0.66330382  0.16720606  0.16161366  1
  I  I127  1  0.66872229  0.16536617  0.50516661  1
  I  I128  1  0.66555334  0.16990255  0.83327352  1
  I  I129  1  0.66166187  0.49779424  0.16639997  1
  I  I130  1  0.66326180  0.50381459  0.50089248  1
  I  I131  1  0.66306437  0.49634477  0.83310456  1
  I  I132  1  0.66785181  0.83471523  0.16831315  1
  I  I133  1  0.66432039  0.83000268  0.49818807  1
  I  I134  1  0.66638559  0.83327881  0.83419378  1
