# generated using pymatgen
data_Cs27Sn14Pb13I81
_symmetry_space_group_name_H-M   'P 1'
_cell_length_a   18.97823800
_cell_length_b   18.97332413
_cell_length_c   18.97297042
_cell_angle_alpha   90.00105276
_cell_angle_beta   90.00103054
_cell_angle_gamma   90.00041285
_symmetry_Int_Tables_number   1
_chemical_formula_structural   Cs27Sn14Pb13I81
_chemical_formula_sum   'Cs27 Sn14 Pb13 I81'
_cell_volume   6831.79213577
_cell_formula_units_Z   1
loop_
 _symmetry_equiv_pos_site_id
 _symmetry_equiv_pos_as_xyz
  1  'x, y, z'
loop_
 _atom_site_type_symbol
 _atom_site_label
 _atom_site_symmetry_multiplicity
 _atom_site_fract_x
 _atom_site_fract_y
 _atom_site_fract_z
 _atom_site_occupancy
  Cs  Cs0  1  -0.00164533  -0.00322367  0.00142812  1
  Cs  Cs1  1  -0.00239332  0.00035273  0.32973860  1
  Cs  Cs2  1  -0.00296363  -0.00223281  0.66765866  1
  Cs  Cs3  1  0.00388063  0.33591484  0.00310468  1
  Cs  Cs4  1  0.00000930  0.34200330  0.33089227  1
  Cs  Cs5  1  -0.00320442  0.33058917  0.66523366  1
  Cs  Cs6  1  -0.00136202  0.66794747  -0.00025427  1
  Cs  Cs7  1  -0.00045212  0.66075224  0.33354983  1
  Cs  Cs8  1  0.00626103  0.67241766  0.66765250  1
  Cs  Cs9  1  0.33454111  0.00230978  0.00164884  1
  Cs  Cs10  1  0.33418955  -0.00009674  0.33294520  1
  Cs  Cs11  1  0.33135847  0.00197885  0.66570834  1
  Cs  Cs12  1  0.33377344  0.33223704  -0.00167139  1
  Cs  Cs13  1  0.32928550  0.33127868  0.33311154  1
  Cs  Cs14  1  0.33532932  0.33210596  0.66959240  1
  Cs  Cs15  1  0.33711348  0.66627667  -0.00220011  1
  Cs  Cs16  1  0.33375977  0.67086984  0.34567050  1
  Cs  Cs17  1  0.33038970  0.66789085  0.66100710  1
  Cs  Cs18  1  0.66669096  -0.00100315  0.00178336  1
  Cs  Cs19  1  0.66756660  -0.00198628  0.33104011  1
  Cs  Cs20  1  0.67208794  0.00442712  0.66849587  1
  Cs  Cs21  1  0.66425560  0.33446185  -0.00143553  1
  Cs  Cs22  1  0.66961940  0.33415302  0.33524469  1
  Cs  Cs23  1  0.66753101  0.33152191  0.66543451  1
  Cs  Cs24  1  0.66541965  0.66510669  -0.00003354  1
  Cs  Cs25  1  0.66659953  0.66877198  0.33553036  1
  Cs  Cs26  1  0.66441619  0.66348665  0.66710314  1
  Sn  Sn27  1  0.83414900  0.83354876  0.16747865  1
  Sn  Sn28  1  0.49954798  0.16642243  0.83333313  1
  Sn  Sn29  1  0.16664890  0.16659336  0.50058578  1
  Sn  Sn30  1  0.83355712  0.49984076  0.83327126  1
  Sn  Sn31  1  0.50097650  0.16771351  0.16685720  1
  Sn  Sn32  1  0.49946037  0.49939272  0.16679706  1
  Sn  Sn33  1  0.83325834  0.83337682  0.49942638  1
  Sn  Sn34  1  0.49969696  0.50004894  0.83390370  1
  Sn  Sn35  1  0.83273729  0.16672645  0.16625587  1
  Sn  Sn36  1  0.16685971  0.49923180  0.83351907  1
  Sn  Sn37  1  0.49957432  0.16661569  0.49989314  1
  Sn  Sn38  1  0.16694956  0.16705741  0.83264468  1
  Sn  Sn39  1  0.16650243  0.83294709  0.16655465  1
  Sn  Sn40  1  0.49990605  0.83371538  0.83301436  1
  Pb  Pb41  1  0.50024424  0.83309087  0.16555053  1
  Pb  Pb42  1  0.16452575  0.83612899  0.49750159  1
  Pb  Pb43  1  0.49998049  0.49735167  0.50009025  1
  Pb  Pb44  1  0.83377331  0.16552480  0.49739317  1
  Pb  Pb45  1  0.50204063  0.83637708  0.50307909  1
  Pb  Pb46  1  0.16888754  0.83394934  0.83494114  1
  Pb  Pb47  1  0.83337343  0.50283308  0.50298378  1
  Pb  Pb48  1  0.83378765  0.16847625  0.83583216  1
  Pb  Pb49  1  0.17015288  0.50299163  0.16465792  1
  Pb  Pb50  1  0.16670325  0.49713655  0.50289361  1
  Pb  Pb51  1  0.83117554  0.83122437  0.83393155  1
  Pb  Pb52  1  0.16686508  0.16571431  0.16634686  1
  Pb  Pb53  1  0.83120103  0.50034770  0.16500764  1
  I  I54  1  0.16712794  -0.00203690  0.16392772  1
  I  I55  1  0.17176279  0.00373438  0.50782618  1
  I  I56  1  0.17230783  0.00320230  0.83131384  1
  I  I57  1  0.16364723  0.33347774  0.16857470  1
  I  I58  1  0.17056137  0.32906021  0.49944879  1
  I  I59  1  0.17205992  0.33266902  0.83105033  1
  I  I60  1  0.16020787  0.67028580  0.16328946  1
  I  I61  1  0.16550852  0.66695633  0.50076108  1
  I  I62  1  0.16784334  0.66418493  0.83690274  1
  I  I63  1  0.50079208  0.00292808  0.16444856  1
  I  I64  1  0.49639832  0.00433671  0.49852854  1
  I  I65  1  0.49580191  0.00182464  0.83472609  1
  I  I66  1  0.50513517  0.33172791  0.16067048  1
  I  I67  1  0.49781259  0.32910018  0.50469227  1
  I  I68  1  0.49919103  0.33287866  0.83451019  1
  I  I69  1  0.50050819  0.66436216  0.15808282  1
  I  I70  1  0.50153903  0.66695192  0.50005434  1
  I  I71  1  0.50153055  0.66528347  0.84017218  1
  I  I72  1  0.83067672  -0.00008729  0.16869317  1
  I  I73  1  0.83219067  -0.00236475  0.49938569  1
  I  I74  1  0.83238395  -0.00000110  0.83239533  1
  I  I75  1  0.83056138  0.33095411  0.16462957  1
  I  I76  1  0.83312782  0.33314755  0.49937549  1
  I  I77  1  0.82807147  0.33621855  0.83540996  1
  I  I78  1  0.83544352  0.66949116  0.16834840  1
  I  I79  1  0.83247340  0.67053396  0.49189810  1
  I  I80  1  0.83212637  0.66340467  0.83534730  1
  I  I81  1  0.17069316  0.16939092  -0.00286093  1
  I  I82  1  0.17106923  0.16198537  0.33524989  1
  I  I83  1  0.17530121  0.16992692  0.66795202  1
  I  I84  1  0.16602867  0.49236103  -0.00361987  1
  I  I85  1  0.16713024  0.49926842  0.33315922  1
  I  I86  1  0.17092550  0.50111676  0.67140397  1
  I  I87  1  0.16003592  0.83645245  0.00248390  1
  I  I88  1  0.16768701  0.83611175  0.32976460  1
  I  I89  1  0.16558181  0.83145461  0.66671449  1
  I  I90  1  0.49961289  0.16719759  -0.00071627  1
  I  I91  1  0.49971351  0.17044397  0.33242867  1
  I  I92  1  0.49556566  0.16640487  0.66802837  1
  I  I93  1  0.50049195  0.49540377  -0.00170330  1
  I  I94  1  0.50191779  0.49593554  0.33035022  1
  I  I95  1  0.50011338  0.49974807  0.67059920  1
  I  I96  1  0.50187870  0.83709133  -0.00253102  1
  I  I97  1  0.49832217  0.83296463  0.33351489  1
  I  I98  1  0.50094743  0.83079348  0.67102280  1
  I  I99  1  0.82881948  0.15983877  0.00353494  1
  I  I100  1  0.82866770  0.16434281  0.32952703  1
  I  I101  1  0.83093349  0.16559513  0.66687209  1
  I  I102  1  0.83337958  0.50178638  -0.00302721  1
  I  I103  1  0.83148372  0.49808501  0.33310469  1
  I  I104  1  0.82852743  0.49952496  0.67115239  1
  I  I105  1  0.83544961  0.83651358  0.00287109  1
  I  I106  1  0.83559675  0.83876053  0.33170141  1
  I  I107  1  0.83054912  0.83249454  0.66499150  1
  I  I108  1  -0.00214680  0.16254880  0.16588353  1
  I  I109  1  0.00262609  0.16406887  0.50568869  1
  I  I110  1  0.00293870  0.17096662  0.82990279  1
  I  I111  1  0.00018983  0.49760850  0.16394483  1
  I  I112  1  0.00004675  0.49640410  0.50081231  1
  I  I113  1  0.00075631  0.49542776  0.83315118  1
  I  I114  1  -0.00134296  0.84068376  0.16777062  1
  I  I115  1  -0.00313281  0.83642255  0.50077533  1
  I  I116  1  -0.00004011  0.83246307  0.83222686  1
  I  I117  1  0.33645745  0.16805683  0.16548323  1
  I  I118  1  0.33428796  0.16626639  0.49954349  1
  I  I119  1  0.33475593  0.17051792  0.83495614  1
  I  I120  1  0.33777580  0.49325179  0.15877431  1
  I  I121  1  0.33344360  0.50445758  0.50044217  1
  I  I122  1  0.33448501  0.49797081  0.83823240  1
  I  I123  1  0.33183534  0.83483265  0.16206173  1
  I  I124  1  0.33335123  0.83207711  0.49883925  1
  I  I125  1  0.33675972  0.83021508  0.83688216  1
  I  I126  1  0.66518749  0.16364846  0.16569017  1
  I  I127  1  0.66393023  0.16551304  0.50354196  1
  I  I128  1  0.66350690  0.16733386  0.83118700  1
  I  I129  1  0.66333447  0.49978791  0.15857373  1
  I  I130  1  0.66654933  0.49740157  0.50357910  1
  I  I131  1  0.66488312  0.50066189  0.83736659  1
  I  I132  1  0.66905593  0.83532373  0.16835043  1
  I  I133  1  0.66943062  0.83540129  0.49224433  1
  I  I134  1  0.66326807  0.83478109  0.83593996  1
