# generated using pymatgen
data_Cs27Sn14Pb13I81
_symmetry_space_group_name_H-M   'P 1'
_cell_length_a   18.97504770
_cell_length_b   18.97682985
_cell_length_c   18.97543277
_cell_angle_alpha   90.00218174
_cell_angle_beta   89.99907235
_cell_angle_gamma   90.00012119
_symmetry_Int_Tables_number   1
_chemical_formula_structural   Cs27Sn14Pb13I81
_chemical_formula_sum   'Cs27 Sn14 Pb13 I81'
_cell_volume   6832.79245159
_cell_formula_units_Z   1
loop_
 _symmetry_equiv_pos_site_id
 _symmetry_equiv_pos_as_xyz
  1  'x, y, z'
loop_
 _atom_site_type_symbol
 _atom_site_label
 _atom_site_symmetry_multiplicity
 _atom_site_fract_x
 _atom_site_fract_y
 _atom_site_fract_z
 _atom_site_occupancy
  Cs  Cs0  1  -0.00407381  -0.00150343  0.00026052  1
  Cs  Cs1  1  -0.00034709  -0.00141416  0.34304533  1
  Cs  Cs2  1  0.00053323  0.00086745  0.65630872  1
  Cs  Cs3  1  -0.00014162  0.33477935  -0.00185167  1
  Cs  Cs4  1  0.00437219  0.32980970  0.33301415  1
  Cs  Cs5  1  -0.00823144  0.33080307  0.66939178  1
  Cs  Cs6  1  0.00058589  0.66525591  0.00242540  1
  Cs  Cs7  1  -0.00131287  0.67075580  0.32954230  1
  Cs  Cs8  1  0.00067722  0.66855377  0.66391015  1
  Cs  Cs9  1  0.33472831  0.00158956  -0.00194801  1
  Cs  Cs10  1  0.33392848  0.00550276  0.33362334  1
  Cs  Cs11  1  0.33339928  -0.00375633  0.66840414  1
  Cs  Cs12  1  0.33310012  0.33319957  0.00087362  1
  Cs  Cs13  1  0.33340464  0.33247875  0.33189629  1
  Cs  Cs14  1  0.33514361  0.33461086  0.66874534  1
  Cs  Cs15  1  0.33301070  0.66608460  -0.00127711  1
  Cs  Cs16  1  0.33487932  0.66335559  0.33230207  1
  Cs  Cs17  1  0.33290354  0.66863951  0.66873984  1
  Cs  Cs18  1  0.66681803  -0.00157929  0.00021618  1
  Cs  Cs19  1  0.66625632  -0.00359701  0.33151437  1
  Cs  Cs20  1  0.66471506  0.00341022  0.66915280  1
  Cs  Cs21  1  0.66783795  0.33189445  -0.00068684  1
  Cs  Cs22  1  0.66361275  0.33541974  0.33411081  1
  Cs  Cs23  1  0.67212989  0.33367448  0.66588350  1
  Cs  Cs24  1  0.66691082  0.66886273  0.00140004  1
  Cs  Cs25  1  0.66713180  0.66780289  0.33441358  1
  Cs  Cs26  1  0.66594083  0.66188420  0.66414531  1
  Sn  Sn27  1  0.49853027  0.83259375  0.16731874  1
  Sn  Sn28  1  0.83352381  0.16730400  0.16689296  1
  Sn  Sn29  1  0.50011415  0.50072094  0.16564458  1
  Sn  Sn30  1  0.16653237  0.49979684  0.50025422  1
  Sn  Sn31  1  0.16793036  0.83341458  0.16626677  1
  Sn  Sn32  1  0.16705308  0.16703784  0.83361975  1
  Sn  Sn33  1  0.49973664  0.16614014  0.50104023  1
  Sn  Sn34  1  0.49958129  0.83402679  0.49914738  1
  Sn  Sn35  1  0.16678740  0.50053302  0.16670858  1
  Sn  Sn36  1  0.49925011  0.16777918  0.83258220  1
  Sn  Sn37  1  0.83359949  0.83315807  0.83293936  1
  Sn  Sn38  1  0.49958204  0.49910010  0.83423630  1
  Sn  Sn39  1  0.16724149  0.49916045  0.83302966  1
  Sn  Sn40  1  0.83323711  0.49874861  0.16651909  1
  Pb  Pb41  1  0.16930342  0.83119038  0.49719480  1
  Pb  Pb42  1  0.16907476  0.16914919  0.50300170  1
  Pb  Pb43  1  0.50130595  0.16680826  0.16615031  1
  Pb  Pb44  1  0.16462710  0.83324169  0.83522350  1
  Pb  Pb45  1  0.83041704  0.16686700  0.49699897  1
  Pb  Pb46  1  0.83337252  0.50176164  0.83518827  1
  Pb  Pb47  1  0.83331872  0.83312998  0.16593326  1
  Pb  Pb48  1  0.83038525  0.83317651  0.50312955  1
  Pb  Pb49  1  0.50117464  0.83287802  0.83363294  1
  Pb  Pb50  1  0.83336622  0.16485320  0.83475063  1
  Pb  Pb51  1  0.83670398  0.49997626  0.49664241  1
  Pb  Pb52  1  0.16460894  0.16647162  0.16475197  1
  Pb  Pb53  1  0.49849180  0.49987961  0.50025052  1
  I  I54  1  0.17022008  -0.00257031  0.16309273  1
  I  I55  1  0.16543192  0.00008790  0.49961622  1
  I  I56  1  0.17094710  0.00251234  0.83712922  1
  I  I57  1  0.16950240  0.33683433  0.16803675  1
  I  I58  1  0.17051863  0.33680346  0.49202060  1
  I  I59  1  0.17086502  0.33488538  0.83677364  1
  I  I60  1  0.16512278  0.66478389  0.16438705  1
  I  I61  1  0.17000428  0.66334088  0.50509886  1
  I  I62  1  0.17071280  0.66312474  0.83306892  1
  I  I63  1  0.49853728  -0.00253536  0.16701031  1
  I  I64  1  0.49997381  -0.00005106  0.49953430  1
  I  I65  1  0.49784713  0.00237699  0.83306264  1
  I  I66  1  0.49741630  0.33642971  0.16629711  1
  I  I67  1  0.49817581  0.33125313  0.50015322  1
  I  I68  1  0.49649716  0.33399918  0.83435373  1
  I  I69  1  0.50146027  0.66560862  0.16643117  1
  I  I70  1  0.49871364  0.66861947  0.49863049  1
  I  I71  1  0.49674092  0.66369510  0.83467986  1
  I  I72  1  0.83141306  0.00168561  0.16260319  1
  I  I73  1  0.83655417  0.00002621  0.49652215  1
  I  I74  1  0.83126403  -0.00236577  0.83985354  1
  I  I75  1  0.83256313  0.33484714  0.16440223  1
  I  I76  1  0.82983923  0.33346369  0.50327548  1
  I  I77  1  0.83311845  0.33350830  0.83376491  1
  I  I78  1  0.83389428  0.66391312  0.16434359  1
  I  I79  1  0.82990826  0.66654687  0.49834862  1
  I  I80  1  0.83176694  0.66897555  0.83796337  1
  I  I81  1  0.17373939  0.17239917  -0.00303636  1
  I  I82  1  0.16667283  0.16765933  0.33338117  1
  I  I83  1  0.16711532  0.17107401  0.67101965  1
  I  I84  1  0.16740930  0.50017762  0.00047403  1
  I  I85  1  0.16719522  0.50499436  0.33151847  1
  I  I86  1  0.17382374  0.49632954  0.66819499  1
  I  I87  1  0.17267690  0.82691467  0.00322228  1
  I  I88  1  0.16576288  0.82747397  0.32904826  1
  I  I89  1  0.16624451  0.83181652  0.66659395  1
  I  I90  1  0.49800036  0.16758937  -0.00270994  1
  I  I91  1  0.50303820  0.16581556  0.33493877  1
  I  I92  1  0.49637400  0.16599766  0.66788062  1
  I  I93  1  0.49576965  0.50017859  0.00069589  1
  I  I94  1  0.49918827  0.50054704  0.33030651  1
  I  I95  1  0.49507468  0.50057245  0.66951603  1
  I  I96  1  0.49867328  0.83193755  0.00278306  1
  I  I97  1  0.49755072  0.83276162  0.33181360  1
  I  I98  1  0.50316761  0.83397396  0.66482464  1
  I  I99  1  0.83039661  0.17002963  0.00246179  1
  I  I100  1  0.83314006  0.17007703  0.32912791  1
  I  I101  1  0.83487140  0.16437093  0.66665988  1
  I  I102  1  0.83692857  0.49783728  0.00335837  1
  I  I103  1  0.83002292  0.49833816  0.32820826  1
  I  I104  1  0.83236976  0.50213043  0.66677350  1
  I  I105  1  0.83014305  0.83338444  -0.00140323  1
  I  I106  1  0.83472939  0.83342463  0.33337055  1
  I  I107  1  0.83327670  0.83361857  0.67054200  1
  I  I108  1  -0.00290493  0.17124326  0.16212141  1
  I  I109  1  0.00028993  0.16720012  0.50074219  1
  I  I110  1  0.00262463  0.17156119  0.83760712  1
  I  I111  1  0.00130051  0.50093575  0.16591139  1
  I  I112  1  0.00470234  0.50016518  0.50233156  1
  I  I113  1  0.00329960  0.49700072  0.83513518  1
  I  I114  1  0.00226200  0.82863894  0.16235293  1
  I  I115  1  0.00037109  0.83255471  0.49881410  1
  I  I116  1  -0.00255154  0.83233073  0.83952158  1
  I  I117  1  0.33338517  0.16794113  0.16807980  1
  I  I118  1  0.33693105  0.16307940  0.49883816  1
  I  I119  1  0.33431272  0.17028988  0.83175070  1
  I  I120  1  0.33334739  0.50525919  0.16565945  1
  I  I121  1  0.33082004  0.50007958  0.49494866  1
  I  I122  1  0.33337542  0.49689809  0.83873252  1
  I  I123  1  0.33422236  0.82457837  0.16855467  1
  I  I124  1  0.33711396  0.83666494  0.50025423  1
  I  I125  1  0.33330965  0.83363328  0.83232577  1
  I  I126  1  0.66894398  0.17058196  0.16439116  1
  I  I127  1  0.66240893  0.16463638  0.50742641  1
  I  I128  1  0.66346873  0.16974654  0.83093755  1
  I  I129  1  0.66524863  0.50046818  0.16140686  1
  I  I130  1  0.66645115  0.50043768  0.50003315  1
  I  I131  1  0.66350787  0.49770628  0.83786115  1
  I  I132  1  0.66378867  0.83015186  0.16853565  1
  I  I133  1  0.66240604  0.83499368  0.49172834  1
  I  I134  1  0.66843726  0.83371740  0.83737520  1
