# generated using pymatgen
data_Cs27Sn14Pb13I81
_symmetry_space_group_name_H-M   'P 1'
_cell_length_a   18.97703388
_cell_length_b   18.97516731
_cell_length_c   18.97921562
_cell_angle_alpha   90.00000014
_cell_angle_beta   89.99993283
_cell_angle_gamma   90.00000000
_symmetry_Int_Tables_number   1
_chemical_formula_structural   Cs27Sn14Pb13I81
_chemical_formula_sum   'Cs27 Sn14 Pb13 I81'
_cell_volume   6834.27116499
_cell_formula_units_Z   1
loop_
 _symmetry_equiv_pos_site_id
 _symmetry_equiv_pos_as_xyz
  1  'x, y, z'
loop_
 _atom_site_type_symbol
 _atom_site_label
 _atom_site_symmetry_multiplicity
 _atom_site_fract_x
 _atom_site_fract_y
 _atom_site_fract_z
 _atom_site_occupancy
  Cs  Cs0  1  -0.00132309  -0.00507836  0.00353094  1
  Cs  Cs1  1  -0.00228652  -0.00200674  0.33136929  1
  Cs  Cs2  1  -0.00106882  -0.00387432  0.66674558  1
  Cs  Cs3  1  0.00142617  0.33333332  0.00185707  1
  Cs  Cs4  1  0.00018506  0.33333335  0.33319984  1
  Cs  Cs5  1  0.00177456  0.33333333  0.66597627  1
  Cs  Cs6  1  -0.00132304  0.67174478  0.00353085  1
  Cs  Cs7  1  -0.00228650  0.66867335  0.33136922  1
  Cs  Cs8  1  -0.00106891  0.67054102  0.66674572  1
  Cs  Cs9  1  0.33534701  -0.00115417  -0.00290720  1
  Cs  Cs10  1  0.33456591  0.00024889  0.33387290  1
  Cs  Cs11  1  0.33280756  -0.00201496  0.66649519  1
  Cs  Cs12  1  0.33430743  0.33333331  0.00290097  1
  Cs  Cs13  1  0.33293872  0.33333331  0.33317798  1
  Cs  Cs14  1  0.32797632  0.33333340  0.66270467  1
  Cs  Cs15  1  0.33534711  0.66782081  -0.00290727  1
  Cs  Cs16  1  0.33456593  0.66641769  0.33387285  1
  Cs  Cs17  1  0.33280761  0.66868163  0.66649529  1
  Cs  Cs18  1  0.66513438  0.00152819  -0.01007199  1
  Cs  Cs19  1  0.66692401  -0.00064717  0.33345158  1
  Cs  Cs20  1  0.66760513  0.00048781  0.67233785  1
  Cs  Cs21  1  0.66216073  0.33333324  -0.00553256  1
  Cs  Cs22  1  0.66802833  0.33333339  0.33318680  1
  Cs  Cs23  1  0.67061427  0.33333330  0.66795094  1
  Cs  Cs24  1  0.66513444  0.66513835  -0.01007200  1
  Cs  Cs25  1  0.66692408  0.66731383  0.33345152  1
  Cs  Cs26  1  0.66760512  0.66617891  0.67233791  1
  Sn  Sn27  1  0.50028063  0.49991546  0.49955383  1
  Sn  Sn28  1  0.16612982  0.49959405  0.49963913  1
  Sn  Sn29  1  0.50050916  0.83333333  0.16731844  1
  Sn  Sn30  1  0.50017693  0.83333334  0.49899535  1
  Sn  Sn31  1  0.50028062  0.16675126  0.49955381  1
  Sn  Sn32  1  0.16608572  0.16726874  0.16690778  1
  Sn  Sn33  1  0.83354383  0.49881657  0.16728885  1
  Sn  Sn34  1  0.83354383  0.16785005  0.16728885  1
  Sn  Sn35  1  0.16612980  0.16707262  0.49963911  1
  Sn  Sn36  1  0.16627190  0.16739356  0.83350534  1
  Sn  Sn37  1  0.16608573  0.49939796  0.16690779  1
  Sn  Sn38  1  0.83373591  0.16748932  0.49902682  1
  Sn  Sn39  1  0.16627190  0.49927311  0.83350530  1
  Sn  Sn40  1  0.83373594  0.49917739  0.49902684  1
  Pb  Pb41  1  0.49692783  0.16725980  0.82997357  1
  Pb  Pb42  1  0.83030484  0.83333334  0.16678531  1
  Pb  Pb43  1  0.16651740  0.83333336  0.83341191  1
  Pb  Pb44  1  0.16876945  0.83333336  0.16701206  1
  Pb  Pb45  1  0.16847736  0.83333334  0.49963989  1
  Pb  Pb46  1  0.50041051  0.50148813  0.16843485  1
  Pb  Pb47  1  0.83635532  0.16701469  0.83359095  1
  Pb  Pb48  1  0.83065352  0.83333334  0.49990864  1
  Pb  Pb49  1  0.50041049  0.16517860  0.16843483  1
  Pb  Pb50  1  0.49970661  0.83333332  0.83286511  1
  Pb  Pb51  1  0.49692786  0.49940688  0.82997355  1
  Pb  Pb52  1  0.83372657  0.83333337  0.83343873  1
  Pb  Pb53  1  0.83635530  0.49965196  0.83359090  1
  I  I54  1  0.16331464  0.00378611  0.16735617  1
  I  I55  1  0.16701497  0.00389070  0.50063732  1
  I  I56  1  0.16741078  0.00368947  0.83190482  1
  I  I57  1  0.16439090  0.33333334  0.16761468  1
  I  I58  1  0.17100018  0.33333332  0.50012824  1
  I  I59  1  0.16713954  0.33333335  0.83130392  1
  I  I60  1  0.16331480  0.66288055  0.16735648  1
  I  I61  1  0.16701483  0.66277596  0.50063719  1
  I  I62  1  0.16741074  0.66297719  0.83190462  1
  I  I63  1  0.49844676  -0.00250394  0.17495432  1
  I  I64  1  0.49815936  0.00090171  0.49559843  1
  I  I65  1  0.49724642  0.00028330  0.83121055  1
  I  I66  1  0.49883570  0.33333333  0.16768710  1
  I  I67  1  0.49805723  0.33333332  0.50058917  1
  I  I68  1  0.50288709  0.33333334  0.83528009  1
  I  I69  1  0.49844670  0.66917059  0.17495424  1
  I  I70  1  0.49815936  0.66576493  0.49559834  1
  I  I71  1  0.49724650  0.66638337  0.83121083  1
  I  I72  1  0.83886442  0.00357439  0.17209461  1
  I  I73  1  0.83487343  0.00378172  0.49614508  1
  I  I74  1  0.83553014  0.00068762  0.83265841  1
  I  I75  1  0.83831295  0.33333334  0.17290275  1
  I  I76  1  0.82972815  0.33333335  0.49663593  1
  I  I77  1  0.82955478  0.33333333  0.83190319  1
  I  I78  1  0.83886421  0.66309224  0.17209465  1
  I  I79  1  0.83487356  0.66288493  0.49614502  1
  I  I80  1  0.83553000  0.66597901  0.83265842  1
  I  I81  1  0.16249907  0.17283843  0.00114860  1
  I  I82  1  0.16740273  0.17200609  0.33394747  1
  I  I83  1  0.16845814  0.17255947  0.66508570  1
  I  I84  1  0.16249907  0.49382841  0.00114862  1
  I  I85  1  0.16740253  0.49466046  0.33394746  1
  I  I86  1  0.16845838  0.49410712  0.66508571  1
  I  I87  1  0.17076895  0.83333324  0.00026561  1
  I  I88  1  0.16731878  0.83333357  0.33338227  1
  I  I89  1  0.17010836  0.83333339  0.66639904  1
  I  I90  1  0.50012711  0.16200468  -0.00000698  1
  I  I91  1  0.49442953  0.16888504  0.33711792  1
  I  I92  1  0.50134292  0.16392719  0.66116833  1
  I  I93  1  0.50012704  0.50466183  -0.00000699  1
  I  I94  1  0.49442973  0.49778157  0.33711790  1
  I  I95  1  0.50134255  0.50273949  0.66116831  1
  I  I96  1  0.49916457  0.83333350  0.00263126  1
  I  I97  1  0.49859875  0.83333338  0.33507431  1
  I  I98  1  0.49900712  0.83333319  0.66293975  1
  I  I99  1  0.83759627  0.16982917  0.00369777  1
  I  I100  1  0.83797823  0.17004357  0.33434444  1
  I  I101  1  0.83237504  0.17030156  0.66299509  1
  I  I102  1  0.83759627  0.49683762  0.00369778  1
  I  I103  1  0.83797822  0.49662305  0.33434444  1
  I  I104  1  0.83237502  0.49636513  0.66299508  1
  I  I105  1  0.83034579  0.83333341  0.00067035  1
  I  I106  1  0.83453834  0.83333338  0.33338851  1
  I  I107  1  0.83094288  0.83333330  0.66608646  1
  I  I108  1  0.00089991  0.16976422  0.17148945  1
  I  I109  1  0.00059909  0.17378859  0.50021754  1
  I  I110  1  0.00422592  0.17217454  0.82735965  1
  I  I111  1  0.00089989  0.49690257  0.17148932  1
  I  I112  1  0.00059909  0.49287797  0.50021758  1
  I  I113  1  0.00422594  0.49449224  0.82735962  1
  I  I114  1  -0.00026683  0.83333319  0.16501116  1
  I  I115  1  -0.00025567  0.83333346  0.50160088  1
  I  I116  1  0.00047224  0.83333325  0.83292876  1
  I  I117  1  0.33003948  0.16989479  0.16770009  1
  I  I118  1  0.33248002  0.16887176  0.50038124  1
  I  I119  1  0.32879543  0.17047514  0.83466576  1
  I  I120  1  0.33003945  0.49677187  0.16770028  1
  I  I121  1  0.33248001  0.49779493  0.50038096  1
  I  I122  1  0.32879545  0.49619163  0.83466588  1
  I  I123  1  0.33637013  0.83333338  0.17227110  1
  I  I124  1  0.33673796  0.83333332  0.49691052  1
  I  I125  1  0.33328125  0.83333326  0.83282280  1
  I  I126  1  0.66990431  0.16959887  0.17349859  1
  I  I127  1  0.66722906  0.16911878  0.49410273  1
  I  I128  1  0.66679640  0.16348209  0.83358530  1
  I  I129  1  0.66990426  0.49706781  0.17349855  1
  I  I130  1  0.66722909  0.49754789  0.49410283  1
  I  I131  1  0.66679642  0.50318454  0.83358524  1
  I  I132  1  0.66298760  0.83333335  0.17493360  1
  I  I133  1  0.66249561  0.83333329  0.49495251  1
  I  I134  1  0.66625121  0.83333343  0.83328154  1
