# generated using pymatgen
data_Cs27Sn14Pb13I81
_symmetry_space_group_name_H-M   'P 1'
_cell_length_a   18.98639244
_cell_length_b   18.97308841
_cell_length_c   18.96817435
_cell_angle_alpha   90.00148527
_cell_angle_beta   89.99943965
_cell_angle_gamma   90.00086513
_symmetry_Int_Tables_number   1
_chemical_formula_structural   Cs27Sn14Pb13I81
_chemical_formula_sum   'Cs27 Sn14 Pb13 I81'
_cell_volume   6832.91497141
_cell_formula_units_Z   1
loop_
 _symmetry_equiv_pos_site_id
 _symmetry_equiv_pos_as_xyz
  1  'x, y, z'
loop_
 _atom_site_type_symbol
 _atom_site_label
 _atom_site_symmetry_multiplicity
 _atom_site_fract_x
 _atom_site_fract_y
 _atom_site_fract_z
 _atom_site_occupancy
  Cs  Cs0  1  -0.00095555  0.00236057  -0.00101278  1
  Cs  Cs1  1  0.00255648  0.00032710  0.33808943  1
  Cs  Cs2  1  0.00207767  0.00061969  0.66478742  1
  Cs  Cs3  1  0.00222146  0.33106089  0.00194049  1
  Cs  Cs4  1  -0.00076050  0.33455416  0.33068975  1
  Cs  Cs5  1  -0.00492165  0.33330904  0.66523387  1
  Cs  Cs6  1  -0.00159904  0.66657767  -0.00048968  1
  Cs  Cs7  1  0.00396262  0.66659444  0.33143135  1
  Cs  Cs8  1  -0.00362007  0.66569425  0.66883097  1
  Cs  Cs9  1  0.33440051  0.00104836  -0.00141668  1
  Cs  Cs10  1  0.33467468  0.00080465  0.33628240  1
  Cs  Cs11  1  0.33201160  -0.00196830  0.66747712  1
  Cs  Cs12  1  0.33096760  0.33323285  -0.00050823  1
  Cs  Cs13  1  0.33528842  0.33347301  0.33266518  1
  Cs  Cs14  1  0.33831996  0.33649021  0.66872026  1
  Cs  Cs15  1  0.33211255  0.66466034  -0.00006487  1
  Cs  Cs16  1  0.32968899  0.66709591  0.33162849  1
  Cs  Cs17  1  0.33521409  0.66824541  0.66773001  1
  Cs  Cs18  1  0.66632549  -0.00153243  -0.00002656  1
  Cs  Cs19  1  0.66177396  -0.00168379  0.33257359  1
  Cs  Cs20  1  0.66634599  -0.00119165  0.66834329  1
  Cs  Cs21  1  0.66720470  0.33017911  0.00062898  1
  Cs  Cs22  1  0.66588423  0.33321154  0.33958247  1
  Cs  Cs23  1  0.66658416  0.34095995  0.65700765  1
  Cs  Cs24  1  0.67128839  0.67058690  0.00027959  1
  Cs  Cs25  1  0.66674001  0.66904582  0.33254260  1
  Cs  Cs26  1  0.66784453  0.66286007  0.66580668  1
  Sn  Sn27  1  0.50086910  0.83331024  0.50071044  1
  Sn  Sn28  1  0.83252934  0.83360089  0.49989908  1
  Sn  Sn29  1  0.83326116  0.16682431  0.83360175  1
  Sn  Sn30  1  0.16719339  0.83394125  0.83444736  1
  Sn  Sn31  1  0.50007415  0.16642883  0.83329594  1
  Sn  Sn32  1  0.16666117  0.16601961  0.83384840  1
  Sn  Sn33  1  0.16618389  0.16625073  0.16630344  1
  Sn  Sn34  1  0.16656155  0.49971682  0.16734367  1
  Sn  Sn35  1  0.83380903  0.16716643  0.16631454  1
  Sn  Sn36  1  0.50034948  0.50002703  0.16617537  1
  Sn  Sn37  1  0.16672719  0.49972165  0.49986833  1
  Sn  Sn38  1  0.49942878  0.83381032  0.83281656  1
  Sn  Sn39  1  0.83314348  0.49929677  0.16651067  1
  Sn  Sn40  1  0.16677314  0.83402225  0.16562674  1
  Pb  Pb41  1  0.16656303  0.49977179  0.83363768  1
  Pb  Pb42  1  0.83594633  0.83432511  0.16839221  1
  Pb  Pb43  1  0.83334138  0.16471484  0.49930780  1
  Pb  Pb44  1  0.49755957  0.83163089  0.16590883  1
  Pb  Pb45  1  0.83323699  0.49684039  0.83591574  1
  Pb  Pb46  1  0.16675201  0.16938916  0.50038744  1
  Pb  Pb47  1  0.49997497  0.16845982  0.16489260  1
  Pb  Pb48  1  0.49978909  0.16433013  0.50315524  1
  Pb  Pb49  1  0.83545676  0.50225061  0.49714641  1
  Pb  Pb50  1  0.50027401  0.50047612  0.83558776  1
  Pb  Pb51  1  0.83362329  0.83539611  0.83170901  1
  Pb  Pb52  1  0.16700503  0.83174726  0.50083838  1
  Pb  Pb53  1  0.49783903  0.50264998  0.49749681  1
  I  I54  1  0.16177346  0.00064271  0.16198820  1
  I  I55  1  0.16682067  -0.00013167  0.49659484  1
  I  I56  1  0.16750240  0.00018730  0.84062616  1
  I  I57  1  0.16584916  0.33317918  0.16611439  1
  I  I58  1  0.16570376  0.33703968  0.49413802  1
  I  I59  1  0.16746849  0.32980708  0.83711745  1
  I  I60  1  0.16714834  0.66628426  0.16754208  1
  I  I61  1  0.16666334  0.66422356  0.49301451  1
  I  I62  1  0.17248880  0.66970333  0.83617123  1
  I  I63  1  0.50025572  -0.00012570  0.16911101  1
  I  I64  1  0.50154666  -0.00388559  0.49837718  1
  I  I65  1  0.49827504  -0.00019935  0.83066555  1
  I  I66  1  0.49423877  0.33635369  0.16398025  1
  I  I67  1  0.49925784  0.33373134  0.50135711  1
  I  I68  1  0.49704172  0.33023445  0.83739422  1
  I  I69  1  0.49898461  0.66367533  0.16556088  1
  I  I70  1  0.50310801  0.67030379  0.50769867  1
  I  I71  1  0.49338732  0.67021873  0.83060444  1
  I  I72  1  0.83807584  0.00336467  0.16347722  1
  I  I73  1  0.83165974  -0.00312061  0.49776683  1
  I  I74  1  0.83345787  0.00340082  0.84059268  1
  I  I75  1  0.83938291  0.33302786  0.16225114  1
  I  I76  1  0.83462866  0.33349408  0.50265830  1
  I  I77  1  0.83579495  0.32843508  0.83431499  1
  I  I78  1  0.83508089  0.66440941  0.16979804  1
  I  I79  1  0.83026308  0.66988208  0.49976161  1
  I  I80  1  0.83335772  0.66687990  0.83348771  1
  I  I81  1  0.16612973  0.16813648  0.00041209  1
  I  I82  1  0.16105797  0.16408590  0.32973572  1
  I  I83  1  0.16588962  0.16164814  0.67049679  1
  I  I84  1  0.16665270  0.50015263  0.00364147  1
  I  I85  1  0.16642817  0.50188177  0.33052768  1
  I  I86  1  0.16751145  0.50174534  0.66446929  1
  I  I87  1  0.17173918  0.83148407  -0.00012069  1
  I  I88  1  0.16609811  0.83429466  0.33075781  1
  I  I89  1  0.16758151  0.83688359  0.66976681  1
  I  I90  1  0.49967710  0.15997592  -0.00325769  1
  I  I91  1  0.50007181  0.16616434  0.33317757  1
  I  I92  1  0.49818748  0.16618322  0.67170306  1
  I  I93  1  0.49465573  0.50194965  0.00362120  1
  I  I94  1  0.50076687  0.50076942  0.32950619  1
  I  I95  1  0.49751274  0.49769697  0.66654897  1
  I  I96  1  0.49719753  0.83630679  -0.00308992  1
  I  I97  1  0.50204000  0.82984524  0.33523542  1
  I  I98  1  0.49643678  0.83769143  0.66785519  1
  I  I99  1  0.83519278  0.16984185  0.00038457  1
  I  I100  1  0.83999524  0.17020333  0.32958334  1
  I  I101  1  0.83562831  0.16288166  0.66974377  1
  I  I102  1  0.83818110  0.50164419  0.00433310  1
  I  I103  1  0.83248420  0.49289014  0.32909664  1
  I  I104  1  0.83534602  0.49911808  0.66630070  1
  I  I105  1  0.83096435  0.83069103  0.00017217  1
  I  I106  1  0.82893055  0.83406072  0.33604611  1
  I  I107  1  0.83540047  0.83527716  0.66397349  1
  I  I108  1  0.00099548  0.17154900  0.15853840  1
  I  I109  1  0.00011285  0.16279012  0.50487017  1
  I  I110  1  0.00089214  0.16271040  0.83836280  1
  I  I111  1  0.00103389  0.49911952  0.17075645  1
  I  I112  1  0.00303979  0.50304841  0.49410633  1
  I  I113  1  0.00012386  0.50283074  0.83365269  1
  I  I114  1  0.00402270  0.82827533  0.16302860  1
  I  I115  1  -0.00131669  0.83195474  0.49872810  1
  I  I116  1  0.00306957  0.83627310  0.83557356  1
  I  I117  1  0.33007092  0.16779554  0.16276841  1
  I  I118  1  0.33318651  0.16443731  0.49786527  1
  I  I119  1  0.33245208  0.16223642  0.83779391  1
  I  I120  1  0.33164105  0.50069506  0.17022696  1
  I  I121  1  0.33027163  0.50205699  0.49305956  1
  I  I122  1  0.33320736  0.49571913  0.83604593  1
  I  I123  1  0.32934443  0.83314037  0.16804437  1
  I  I124  1  0.33538642  0.83120014  0.50153793  1
  I  I125  1  0.33287035  0.84074097  0.83140721  1
  I  I126  1  0.66948216  0.17152544  0.16211345  1
  I  I127  1  0.66660750  0.16862467  0.49900319  1
  I  I128  1  0.66668858  0.16141590  0.83946965  1
  I  I129  1  0.66740583  0.49572501  0.16412712  1
  I  I130  1  0.66664917  0.49953440  0.49846283  1
  I  I131  1  0.66672590  0.50077665  0.83601888  1
  I  I132  1  0.66666751  0.83163315  0.16554214  1
  I  I133  1  0.66579727  0.83350582  0.50482705  1
  I  I134  1  0.66404082  0.83743146  0.83139256  1
