# generated using pymatgen
data_Cs27Sn13Pb14I81
_symmetry_space_group_name_H-M   'P 1'
_cell_length_a   18.98194433
_cell_length_b   18.97485358
_cell_length_c   18.97584675
_cell_angle_alpha   89.99840970
_cell_angle_beta   90.00070896
_cell_angle_gamma   90.00099801
_symmetry_Int_Tables_number   1
_chemical_formula_structural   Cs27Sn13Pb14I81
_chemical_formula_sum   'Cs27 Sn13 Pb14 I81'
_cell_volume   6834.71315514
_cell_formula_units_Z   1
loop_
 _symmetry_equiv_pos_site_id
 _symmetry_equiv_pos_as_xyz
  1  'x, y, z'
loop_
 _atom_site_type_symbol
 _atom_site_label
 _atom_site_symmetry_multiplicity
 _atom_site_fract_x
 _atom_site_fract_y
 _atom_site_fract_z
 _atom_site_occupancy
  Cs  Cs0  1  0.00197713  -0.00175594  0.00148894  1
  Cs  Cs1  1  0.00226611  -0.00130158  0.33330473  1
  Cs  Cs2  1  0.00097846  -0.00074192  0.66528142  1
  Cs  Cs3  1  -0.00116285  0.33723141  0.00033823  1
  Cs  Cs4  1  -0.00097345  0.33558583  0.33411139  1
  Cs  Cs5  1  -0.00711177  0.34030694  0.66561676  1
  Cs  Cs6  1  0.00046836  0.66740740  0.00071514  1
  Cs  Cs7  1  0.00176535  0.66855312  0.33268728  1
  Cs  Cs8  1  0.00114158  0.66496401  0.66729791  1
  Cs  Cs9  1  0.33111887  0.00242878  -0.00291244  1
  Cs  Cs10  1  0.33158678  0.00089488  0.33571264  1
  Cs  Cs11  1  0.33253621  0.00005958  0.66705519  1
  Cs  Cs12  1  0.33287037  0.33172211  0.00056856  1
  Cs  Cs13  1  0.33184344  0.33605377  0.33162588  1
  Cs  Cs14  1  0.33259994  0.33124724  0.66753652  1
  Cs  Cs15  1  0.33323643  0.66249557  0.00246820  1
  Cs  Cs16  1  0.34282868  0.65760977  0.32881084  1
  Cs  Cs17  1  0.33220857  0.66718142  0.66558441  1
  Cs  Cs18  1  0.66725004  0.00083359  -0.00087572  1
  Cs  Cs19  1  0.66626894  -0.00077540  0.33291953  1
  Cs  Cs20  1  0.66701160  0.00067347  0.66707403  1
  Cs  Cs21  1  0.66772177  0.33219883  -0.00005365  1
  Cs  Cs22  1  0.66913694  0.33364633  0.33314240  1
  Cs  Cs23  1  0.67410010  0.33248748  0.66615929  1
  Cs  Cs24  1  0.66643834  0.66789050  0.00256861  1
  Cs  Cs25  1  0.65740222  0.66678200  0.33094459  1
  Cs  Cs26  1  0.66579996  0.66777783  0.66481613  1
  Sn  Sn27  1  0.16676296  0.83417429  0.83254115  1
  Sn  Sn28  1  0.16707012  0.16631484  0.50145054  1
  Sn  Sn29  1  0.83303374  0.16707367  0.16652530  1
  Sn  Sn30  1  0.49948362  0.16647906  0.50038897  1
  Sn  Sn31  1  0.83354758  0.83373337  0.83245089  1
  Sn  Sn32  1  0.50078342  0.16620742  0.16667737  1
  Sn  Sn33  1  0.16663895  0.16639377  0.83199717  1
  Sn  Sn34  1  0.49973666  0.16677339  0.83289845  1
  Sn  Sn35  1  0.49961647  0.83323510  0.83331362  1
  Sn  Sn36  1  0.50010377  0.49954660  0.83279997  1
  Sn  Sn37  1  0.83333279  0.49956604  0.16674703  1
  Sn  Sn38  1  0.83372319  0.83359722  0.50056540  1
  Sn  Sn39  1  0.16656385  0.83370874  0.50056937  1
  Pb  Pb40  1  0.83411188  0.16489535  0.83492407  1
  Pb  Pb41  1  0.83096763  0.50320603  0.83490492  1
  Pb  Pb42  1  0.16416730  0.49988128  0.16657235  1
  Pb  Pb43  1  0.49926676  0.83517553  0.50188505  1
  Pb  Pb44  1  0.50176267  0.49695798  0.16433152  1
  Pb  Pb45  1  0.16665043  0.16667044  0.16678901  1
  Pb  Pb46  1  0.16677439  0.50017414  0.50023610  1
  Pb  Pb47  1  0.16863630  0.49988510  0.83319003  1
  Pb  Pb48  1  0.16718461  0.83327146  0.16717605  1
  Pb  Pb49  1  0.83394255  0.16483872  0.49795961  1
  Pb  Pb50  1  0.49958570  0.83609711  0.16392343  1
  Pb  Pb51  1  0.50007084  0.49647359  0.50273900  1
  Pb  Pb52  1  0.83329509  0.83354151  0.16716857  1
  Pb  Pb53  1  0.83311018  0.50378510  0.49745172  1
  I  I54  1  0.16337445  0.00029072  0.16555074  1
  I  I55  1  0.16658027  0.00032497  0.50424521  1
  I  I56  1  0.17159898  -0.00002014  0.83076108  1
  I  I57  1  0.16866024  0.33270824  0.16577968  1
  I  I58  1  0.17154031  0.32940540  0.50351756  1
  I  I59  1  0.17230200  0.32962243  0.83080076  1
  I  I60  1  0.16346486  0.66675285  0.16516202  1
  I  I61  1  0.16055078  0.67068642  0.50601604  1
  I  I62  1  0.16698655  0.67043830  0.82963286  1
  I  I63  1  0.50731050  0.00439168  0.16431492  1
  I  I64  1  0.49967097  0.00354369  0.50188543  1
  I  I65  1  0.49958781  0.00073765  0.83409535  1
  I  I66  1  0.50142209  0.32898345  0.16400292  1
  I  I67  1  0.49425230  0.32805631  0.50106997  1
  I  I68  1  0.49479001  0.33132039  0.83483111  1
  I  I69  1  0.50216089  0.66634919  0.16560561  1
  I  I70  1  0.50038873  0.66681108  0.50092666  1
  I  I71  1  0.50090992  0.66780894  0.83348200  1
  I  I72  1  0.82893777  0.00261668  0.16581235  1
  I  I73  1  0.83412950  -0.00296639  0.50220230  1
  I  I74  1  0.82854282  -0.00321015  0.83294591  1
  I  I75  1  0.82845212  0.33201693  0.16571554  1
  I  I76  1  0.83345878  0.33321690  0.50032370  1
  I  I77  1  0.83304371  0.33330559  0.83357953  1
  I  I78  1  0.83438823  0.66452157  0.16487944  1
  I  I79  1  0.83975802  0.67170394  0.50365399  1
  I  I80  1  0.83430844  0.67137706  0.83271081  1
  I  I81  1  0.17065383  0.16161873  -0.00333081  1
  I  I82  1  0.16966280  0.16155173  0.33663036  1
  I  I83  1  0.17655289  0.16092610  0.66729109  1
  I  I84  1  0.16717601  0.49994549  -0.00044265  1
  I  I85  1  0.16721486  0.49983681  0.33349729  1
  I  I86  1  0.16593724  0.49930208  0.66687542  1
  I  I87  1  0.16548908  0.83838548  -0.00398874  1
  I  I88  1  0.15826703  0.84026423  0.33743652  1
  I  I89  1  0.16575309  0.83833654  0.66777316  1
  I  I90  1  0.50013187  0.16611414  -0.00146082  1
  I  I91  1  0.50012012  0.16547937  0.33357180  1
  I  I92  1  0.49498400  0.16567767  0.66785859  1
  I  I93  1  0.50055502  0.49961422  -0.00348754  1
  I  I94  1  0.50085220  0.50030506  0.33314408  1
  I  I95  1  0.50019483  0.49974163  0.67081299  1
  I  I96  1  0.50142279  0.83544315  -0.00504128  1
  I  I97  1  0.50162811  0.83481033  0.33362219  1
  I  I98  1  0.50109643  0.83611009  0.67057287  1
  I  I99  1  0.82862162  0.16698470  0.00275369  1
  I  I100  1  0.82873635  0.16748408  0.33013815  1
  I  I101  1  0.82992611  0.16673881  0.66664574  1
  I  I102  1  0.83201416  0.49669355  0.00262215  1
  I  I103  1  0.83270398  0.49517483  0.32978279  1
  I  I104  1  0.83262431  0.49869295  0.66674289  1
  I  I105  1  0.83314021  0.83396344  -0.00295627  1
  I  I106  1  0.83964442  0.83487054  0.33633232  1
  I  I107  1  0.83341267  0.83482516  0.66767972  1
  I  I108  1  -0.00269262  0.16978779  0.16602524  1
  I  I109  1  0.00306489  0.16359038  0.50294211  1
  I  I110  1  0.00317339  0.16092067  0.83119042  1
  I  I111  1  -0.00400797  0.49254719  0.16501475  1
  I  I112  1  -0.00018588  0.49482419  0.49960664  1
  I  I113  1  -0.00028614  0.49958624  0.83554628  1
  I  I114  1  -0.00013101  0.83535858  0.16156114  1
  I  I115  1  0.00064191  0.83966663  0.50757753  1
  I  I116  1  0.00061673  0.83867317  0.83072976  1
  I  I117  1  0.33634374  0.16518232  0.16496405  1
  I  I118  1  0.33331117  0.16048939  0.49938235  1
  I  I119  1  0.33450797  0.16261475  0.83528797  1
  I  I120  1  0.33396082  0.50023655  0.16616752  1
  I  I121  1  0.33357996  0.50509936  0.49867107  1
  I  I122  1  0.33676571  0.50309092  0.83477104  1
  I  I123  1  0.33349498  0.83484245  0.16675529  1
  I  I124  1  0.33025010  0.83747638  0.50541296  1
  I  I125  1  0.33317084  0.83541568  0.82999559  1
  I  I126  1  0.66575907  0.16948042  0.16540686  1
  I  I127  1  0.66411449  0.16506324  0.50266516  1
  I  I128  1  0.66364391  0.16520040  0.83205927  1
  I  I129  1  0.66940272  0.49854472  0.16521170  1
  I  I130  1  0.66658231  0.50026355  0.50067394  1
  I  I131  1  0.66312079  0.49743867  0.83443855  1
  I  I132  1  0.66663281  0.83253905  0.16636742  1
  I  I133  1  0.66855795  0.83509705  0.50420277  1
  I  I134  1  0.66628881  0.83417185  0.83062997  1
