# generated using pymatgen
data_Cs27Sn13Pb14I81
_symmetry_space_group_name_H-M   'P 1'
_cell_length_a   18.97891742
_cell_length_b   18.98268409
_cell_length_c   18.96947477
_cell_angle_alpha   90.00182801
_cell_angle_beta   89.99954324
_cell_angle_gamma   89.99857106
_symmetry_Int_Tables_number   1
_chemical_formula_structural   Cs27Sn13Pb14I81
_chemical_formula_sum   'Cs27 Sn13 Pb14 I81'
_cell_volume   6834.14772595
_cell_formula_units_Z   1
loop_
 _symmetry_equiv_pos_site_id
 _symmetry_equiv_pos_as_xyz
  1  'x, y, z'
loop_
 _atom_site_type_symbol
 _atom_site_label
 _atom_site_symmetry_multiplicity
 _atom_site_fract_x
 _atom_site_fract_y
 _atom_site_fract_z
 _atom_site_occupancy
  Cs  Cs0  1  -0.00062761  -0.00238368  0.00054720  1
  Cs  Cs1  1  -0.00118717  -0.00204068  0.33318885  1
  Cs  Cs2  1  0.00127916  -0.00295493  0.66697176  1
  Cs  Cs3  1  0.00605412  0.33447221  -0.00724864  1
  Cs  Cs4  1  -0.00019695  0.33186769  0.33270575  1
  Cs  Cs5  1  -0.00055867  0.33579924  0.67370980  1
  Cs  Cs6  1  0.00099179  0.66815573  -0.00049935  1
  Cs  Cs7  1  -0.00306893  0.67086580  0.33386269  1
  Cs  Cs8  1  -0.00164330  0.66762444  0.66687025  1
  Cs  Cs9  1  0.33906385  0.00362693  -0.00118980  1
  Cs  Cs10  1  0.33265709  0.00219797  0.33521137  1
  Cs  Cs11  1  0.33508716  -0.00035934  0.66540657  1
  Cs  Cs12  1  0.32423248  0.32969092  0.00654877  1
  Cs  Cs13  1  0.33264410  0.33408188  0.33206604  1
  Cs  Cs14  1  0.33291355  0.33555718  0.66483363  1
  Cs  Cs15  1  0.33406438  0.66617759  0.00191601  1
  Cs  Cs16  1  0.33455069  0.66405106  0.33332710  1
  Cs  Cs17  1  0.33480769  0.66595743  0.66560723  1
  Cs  Cs18  1  0.66276225  -0.00154315  -0.00293653  1
  Cs  Cs19  1  0.66903677  0.00176484  0.33322755  1
  Cs  Cs20  1  0.66402707  0.00147227  0.66894911  1
  Cs  Cs21  1  0.66754829  0.33010930  -0.00141856  1
  Cs  Cs22  1  0.66652992  0.33292777  0.33428595  1
  Cs  Cs23  1  0.66789088  0.33555889  0.66721299  1
  Cs  Cs24  1  0.66508315  0.67055729  0.00325007  1
  Cs  Cs25  1  0.66846561  0.66535323  0.33265205  1
  Cs  Cs26  1  0.66609507  0.66322999  0.66529514  1
  Sn  Sn27  1  0.50035077  0.83307204  0.49956553  1
  Sn  Sn28  1  0.50014263  0.16705391  0.49990547  1
  Sn  Sn29  1  0.49959371  0.49951213  0.83374307  1
  Sn  Sn30  1  0.49942854  0.49991753  0.50058549  1
  Sn  Sn31  1  0.16664804  0.83337642  0.83425315  1
  Sn  Sn32  1  0.16655516  0.49949928  0.49992126  1
  Sn  Sn33  1  0.16611548  0.16776986  0.50009571  1
  Sn  Sn34  1  0.83363938  0.16692469  0.16678167  1
  Sn  Sn35  1  0.83397745  0.83361022  0.16577173  1
  Sn  Sn36  1  0.83360526  0.49954669  0.16632942  1
  Sn  Sn37  1  0.16663312  0.83350674  0.16585891  1
  Sn  Sn38  1  0.83370196  0.16680057  0.49995916  1
  Sn  Sn39  1  0.83366394  0.83323881  0.83379142  1
  Pb  Pb40  1  0.83133255  0.50249580  0.83611561  1
  Pb  Pb41  1  0.83107770  0.83536215  0.50003376  1
  Pb  Pb42  1  0.49987214  0.83166185  0.83129723  1
  Pb  Pb43  1  0.83340955  0.16438016  0.83361183  1
  Pb  Pb44  1  0.16427322  0.50216385  0.16902800  1
  Pb  Pb45  1  0.16674318  0.16406371  0.83086883  1
  Pb  Pb46  1  0.16421326  0.16429876  0.16869494  1
  Pb  Pb47  1  0.49999715  0.83344242  0.16901223  1
  Pb  Pb48  1  0.49972997  0.16992473  0.83128180  1
  Pb  Pb49  1  0.50171288  0.49972854  0.16669652  1
  Pb  Pb50  1  0.83348400  0.49762662  0.49867557  1
  Pb  Pb51  1  0.16836276  0.83314448  0.49981443  1
  Pb  Pb52  1  0.50222638  0.16680452  0.16868608  1
  Pb  Pb53  1  0.16878831  0.50240155  0.83128947  1
  I  I54  1  0.16027787  -0.00364931  0.16699709  1
  I  I55  1  0.16790093  0.00232572  0.49963461  1
  I  I56  1  0.16267921  -0.00408298  0.83402336  1
  I  I57  1  0.16538435  0.33325917  0.16699903  1
  I  I58  1  0.17198982  0.33302847  0.49883190  1
  I  I59  1  0.16753024  0.33361183  0.83337872  1
  I  I60  1  0.16053086  0.67010217  0.16667070  1
  I  I61  1  0.17266947  0.66458218  0.49975955  1
  I  I62  1  0.16258242  0.67021345  0.83369709  1
  I  I63  1  0.50227927  -0.00009537  0.16936134  1
  I  I64  1  0.49969362  0.00069104  0.49857849  1
  I  I65  1  0.50075553  -0.00011827  0.83075395  1
  I  I66  1  0.50290190  0.33334963  0.16906720  1
  I  I67  1  0.49991947  0.33346698  0.50353833  1
  I  I68  1  0.50260698  0.33752401  0.82577750  1
  I  I69  1  0.50378312  0.66674169  0.17158987  1
  I  I70  1  0.49523737  0.66565301  0.50318705  1
  I  I71  1  0.50079188  0.66420191  0.82430528  1
  I  I72  1  0.83730997  -0.00054591  0.16901746  1
  I  I73  1  0.83389211  0.00330572  0.49468677  1
  I  I74  1  0.83552714  -0.00372664  0.83719355  1
  I  I75  1  0.82969281  0.33265611  0.17517261  1
  I  I76  1  0.82894462  0.32965102  0.49387138  1
  I  I77  1  0.83137928  0.33352684  0.83378255  1
  I  I78  1  0.83593942  0.66783365  0.16351281  1
  I  I79  1  0.83259963  0.66674918  0.49834120  1
  I  I80  1  0.83646218  0.67043273  0.83703488  1
  I  I81  1  0.16485461  0.16807893  0.00023025  1
  I  I82  1  0.16945624  0.16706482  0.33725349  1
  I  I83  1  0.16458759  0.16752280  0.66195101  1
  I  I84  1  0.16837443  0.49961086  0.00010254  1
  I  I85  1  0.17397328  0.49856921  0.33709856  1
  I  I86  1  0.16769889  0.49858394  0.66291712  1
  I  I87  1  0.16104473  0.83192957  0.00029417  1
  I  I88  1  0.16175962  0.83365869  0.33122399  1
  I  I89  1  0.16309165  0.83362436  0.66860840  1
  I  I90  1  0.50262276  0.16677843  -0.00005131  1
  I  I91  1  0.49825930  0.16884497  0.33789519  1
  I  I92  1  0.50330435  0.16314310  0.66196797  1
  I  I93  1  0.50406013  0.50467229  -0.00261280  1
  I  I94  1  0.49757554  0.49975197  0.33708530  1
  I  I95  1  0.49765492  0.50078693  0.66418499  1
  I  I96  1  0.50053804  0.83037953  -0.00007879  1
  I  I97  1  0.49995847  0.83116512  0.33737275  1
  I  I98  1  0.49969239  0.83556902  0.66312351  1
  I  I99  1  0.83295439  0.16747266  0.00335607  1
  I  I100  1  0.83226132  0.16355532  0.33375492  1
  I  I101  1  0.83193020  0.16484950  0.66343735  1
  I  I102  1  0.83109098  0.49574491  0.00407232  1
  I  I103  1  0.83156212  0.50590378  0.33073346  1
  I  I104  1  0.83435789  0.50063656  0.66671212  1
  I  I105  1  0.83657460  0.83470008  0.00114646  1
  I  I106  1  0.83651483  0.83245394  0.33043600  1
  I  I107  1  0.83683792  0.83497925  0.66891653  1
  I  I108  1  -0.00390270  0.16684796  0.17500191  1
  I  I109  1  -0.00012003  0.16940115  0.49485952  1
  I  I110  1  -0.00007658  0.16905414  0.82873981  1
  I  I111  1  -0.00371576  0.49895324  0.16967532  1
  I  I112  1  0.00246710  0.49686077  0.49721895  1
  I  I113  1  0.00006369  0.49978941  0.83178671  1
  I  I114  1  -0.00132217  0.83333380  0.16471130  1
  I  I115  1  -0.00012649  0.83345537  0.50020566  1
  I  I116  1  -0.00033724  0.83321397  0.83587333  1
  I  I117  1  0.33285457  0.16466349  0.16841313  1
  I  I118  1  0.33362401  0.16621511  0.50166315  1
  I  I119  1  0.33330138  0.16205202  0.83113565  1
  I  I120  1  0.33298408  0.50309715  0.16652622  1
  I  I121  1  0.33431605  0.49666012  0.50285550  1
  I  I122  1  0.33650591  0.50398335  0.82870204  1
  I  I123  1  0.33037189  0.83224462  0.16443404  1
  I  I124  1  0.33616307  0.83693943  0.50053162  1
  I  I125  1  0.33074757  0.83177602  0.83531588  1
  I  I126  1  0.67086989  0.16338518  0.17317563  1
  I  I127  1  0.66652103  0.16571789  0.49534977  1
  I  I128  1  0.66668739  0.16363375  0.83079830  1
  I  I129  1  0.67005686  0.50387805  0.17023518  1
  I  I130  1  0.66386599  0.49983767  0.50190176  1
  I  I131  1  0.66383942  0.50256313  0.82378470  1
  I  I132  1  0.67025473  0.83356747  0.16399666  1
  I  I133  1  0.66331345  0.83222078  0.50000430  1
  I  I134  1  0.66915935  0.83279047  0.83718683  1
