# generated using pymatgen
data_Cs27Sn13Pb14I81
_symmetry_space_group_name_H-M   'P 1'
_cell_length_a   18.98055833
_cell_length_b   18.98053286
_cell_length_c   18.97015930
_cell_angle_alpha   89.99830634
_cell_angle_beta   89.99998432
_cell_angle_gamma   90.00003411
_symmetry_Int_Tables_number   1
_chemical_formula_structural   Cs27Sn13Pb14I81
_chemical_formula_sum   'Cs27 Sn13 Pb14 I81'
_cell_volume   6834.21066715
_cell_formula_units_Z   1
loop_
 _symmetry_equiv_pos_site_id
 _symmetry_equiv_pos_as_xyz
  1  'x, y, z'
loop_
 _atom_site_type_symbol
 _atom_site_label
 _atom_site_symmetry_multiplicity
 _atom_site_fract_x
 _atom_site_fract_y
 _atom_site_fract_z
 _atom_site_occupancy
  Cs  Cs0  1  0.00074601  -0.00091225  0.00143667  1
  Cs  Cs1  1  -0.00897424  -0.00242406  0.33480546  1
  Cs  Cs2  1  0.00149000  0.00140532  0.66351964  1
  Cs  Cs3  1  -0.00057952  0.33379271  0.00208409  1
  Cs  Cs4  1  0.00117619  0.33435614  0.33291712  1
  Cs  Cs5  1  -0.00130866  0.33431648  0.66636643  1
  Cs  Cs6  1  0.00080170  0.66571034  -0.00124371  1
  Cs  Cs7  1  -0.00081902  0.66597282  0.33425065  1
  Cs  Cs8  1  0.00159570  0.66516600  0.66666238  1
  Cs  Cs9  1  0.33261640  0.00108106  -0.00240550  1
  Cs  Cs10  1  0.33558985  0.00016210  0.33362332  1
  Cs  Cs11  1  0.33180042  0.00211244  0.66870427  1
  Cs  Cs12  1  0.33170471  0.33261800  0.00429375  1
  Cs  Cs13  1  0.33372378  0.33446161  0.32801325  1
  Cs  Cs14  1  0.33280648  0.33111702  0.66651327  1
  Cs  Cs15  1  0.33089091  0.66608678  -0.00128702  1
  Cs  Cs16  1  0.34171165  0.66553882  0.33551866  1
  Cs  Cs17  1  0.33282359  0.66703540  0.66629518  1
  Cs  Cs18  1  0.66757899  -0.00097544  0.00602454  1
  Cs  Cs19  1  0.67567974  -0.00669315  0.32477292  1
  Cs  Cs20  1  0.66748115  0.00414735  0.66561984  1
  Cs  Cs21  1  0.66975373  0.33106436  -0.00135507  1
  Cs  Cs22  1  0.66423217  0.33436970  0.33280734  1
  Cs  Cs23  1  0.66786601  0.33269562  0.66713336  1
  Cs  Cs24  1  0.66868309  0.66869893  -0.00132242  1
  Cs  Cs25  1  0.66052533  0.67027430  0.33201858  1
  Cs  Cs26  1  0.66337466  0.66426499  0.66775583  1
  Sn  Sn27  1  0.16751400  0.16761714  0.50050622  1
  Sn  Sn28  1  0.49885214  0.49946570  0.83326388  1
  Sn  Sn29  1  0.16715357  0.16703796  0.83281842  1
  Sn  Sn30  1  0.16657065  0.83345567  0.83394167  1
  Sn  Sn31  1  0.16705499  0.83309027  0.16668528  1
  Sn  Sn32  1  0.49936195  0.16627793  0.50040227  1
  Sn  Sn33  1  0.83362434  0.83375707  0.83251843  1
  Sn  Sn34  1  0.16744391  0.49955055  0.83269272  1
  Sn  Sn35  1  0.83361644  0.50012242  0.49897278  1
  Sn  Sn36  1  0.83340263  0.50001786  0.16786413  1
  Sn  Sn37  1  0.50002492  0.83375441  0.83301036  1
  Sn  Sn38  1  0.49907949  0.16677629  0.83278997  1
  Sn  Sn39  1  0.16638838  0.49921549  0.50064765  1
  Pb  Pb40  1  0.83317405  0.83034178  0.50252815  1
  Pb  Pb41  1  0.83362987  0.16393991  0.83334662  1
  Pb  Pb42  1  0.49984156  0.16659848  0.16664642  1
  Pb  Pb43  1  0.83335575  0.16888434  0.50007589  1
  Pb  Pb44  1  0.83563347  0.83099548  0.16443083  1
  Pb  Pb45  1  0.16680735  0.83349319  0.50012876  1
  Pb  Pb46  1  0.83365251  0.16939377  0.16673149  1
  Pb  Pb47  1  0.16563330  0.50191193  0.16710390  1
  Pb  Pb48  1  0.83365641  0.50144259  0.83291930  1
  Pb  Pb49  1  0.16653338  0.16425354  0.16739023  1
  Pb  Pb50  1  0.50002307  0.83681283  0.50238896  1
  Pb  Pb51  1  0.49725056  0.83327431  0.16408088  1
  Pb  Pb52  1  0.49935774  0.49803147  0.50204224  1
  Pb  Pb53  1  0.50261619  0.49999754  0.16337844  1
  I  I54  1  0.16688322  -0.00335773  0.15903989  1
  I  I55  1  0.17126712  0.00322989  0.50474888  1
  I  I56  1  0.16902135  0.00006395  0.83347901  1
  I  I57  1  0.16450386  0.33350714  0.16329623  1
  I  I58  1  0.16536196  0.33367829  0.50856173  1
  I  I59  1  0.17249275  0.33357984  0.82896400  1
  I  I60  1  0.16460295  0.66941202  0.15882377  1
  I  I61  1  0.16145640  0.66358259  0.50476872  1
  I  I62  1  0.16849050  0.66646667  0.83350580  1
  I  I63  1  0.50038571  -0.00013884  0.16473936  1
  I  I64  1  0.49141577  0.00473064  0.50739951  1
  I  I65  1  0.49619526  0.00019857  0.82948118  1
  I  I66  1  0.50027846  0.33342776  0.16286441  1
  I  I67  1  0.49956478  0.33036445  0.50819267  1
  I  I68  1  0.49446324  0.33300250  0.82977246  1
  I  I69  1  0.49984653  0.66662949  0.16561048  1
  I  I70  1  0.49987563  0.66649479  0.50186749  1
  I  I71  1  0.49764909  0.66670820  0.83443665  1
  I  I72  1  0.83349560  -0.00061711  0.16573081  1
  I  I73  1  0.83445307  0.00003385  0.50104200  1
  I  I74  1  0.83433440  -0.00404388  0.83421914  1
  I  I75  1  0.83538493  0.33751860  0.16727527  1
  I  I76  1  0.83568316  0.33692760  0.49934386  1
  I  I77  1  0.83266445  0.33349717  0.83402744  1
  I  I78  1  0.83496629  0.66353274  0.16936288  1
  I  I79  1  0.84108589  0.66230483  0.49815392  1
  I  I80  1  0.83399578  0.66931017  0.83340641  1
  I  I81  1  0.17086178  0.16884600  -0.00363417  1
  I  I82  1  0.17140140  0.17148496  0.33716973  1
  I  I83  1  0.17013740  0.16532214  0.66807644  1
  I  I84  1  0.16813455  0.49848069  -0.00345959  1
  I  I85  1  0.16331056  0.49671317  0.33657669  1
  I  I86  1  0.16391252  0.50172097  0.66793130  1
  I  I87  1  0.16663637  0.83267986  -0.00331225  1
  I  I88  1  0.16448757  0.83296039  0.33088581  1
  I  I89  1  0.16727202  0.83274401  0.67055243  1
  I  I90  1  0.49549884  0.16624337  -0.00430210  1
  I  I91  1  0.49349513  0.17009754  0.33685811  1
  I  I92  1  0.49559120  0.16625337  0.66845204  1
  I  I93  1  0.49500989  0.49820032  -0.00526800  1
  I  I94  1  0.49781032  0.49805701  0.33355780  1
  I  I95  1  0.50138542  0.50303727  0.67055625  1
  I  I96  1  0.50239449  0.83571905  -0.00501864  1
  I  I97  1  0.49866381  0.83377143  0.33329277  1
  I  I98  1  0.49562065  0.82981685  0.67141647  1
  I  I99  1  0.83305834  0.16982483  -0.00042543  1
  I  I100  1  0.83384201  0.16355360  0.33367980  1
  I  I101  1  0.83316437  0.16882949  0.66685233  1
  I  I102  1  0.83310604  0.50287435  0.00136014  1
  I  I103  1  0.84150033  0.49878290  0.33440556  1
  I  I104  1  0.83543525  0.50141095  0.66450640  1
  I  I105  1  0.83129921  0.82979804  -0.00367000  1
  I  I106  1  0.83588024  0.83483578  0.33314186  1
  I  I107  1  0.83730101  0.83119734  0.67082020  1
  I  I108  1  0.00044770  0.16559698  0.16485279  1
  I  I109  1  0.00349338  0.16833522  0.50574944  1
  I  I110  1  0.00387193  0.16739510  0.82929950  1
  I  I111  1  -0.00223571  0.50182527  0.16452659  1
  I  I112  1  0.00159850  0.49512514  0.50326911  1
  I  I113  1  0.00318197  0.50076810  0.83263935  1
  I  I114  1  0.00311859  0.83321638  0.15844403  1
  I  I115  1  0.00025103  0.83759074  0.50341514  1
  I  I116  1  0.00159566  0.83162776  0.83726127  1
  I  I117  1  0.33305494  0.16765392  0.16575273  1
  I  I118  1  0.33208571  0.17217351  0.50655844  1
  I  I119  1  0.33259109  0.16281860  0.82953009  1
  I  I120  1  0.33333719  0.50114529  0.16801000  1
  I  I121  1  0.33008829  0.49917263  0.50361457  1
  I  I122  1  0.33200045  0.50459217  0.82841278  1
  I  I123  1  0.32956950  0.83198321  0.15991397  1
  I  I124  1  0.33320960  0.82718396  0.50050604  1
  I  I125  1  0.33266928  0.83307722  0.83716615  1
  I  I126  1  0.66659539  0.16616168  0.16516087  1
  I  I127  1  0.66357858  0.16886914  0.50763100  1
  I  I128  1  0.66316998  0.16811641  0.82901694  1
  I  I129  1  0.67039143  0.50084380  0.17167665  1
  I  I130  1  0.66872779  0.49888493  0.49922271  1
  I  I131  1  0.66418159  0.50072986  0.83348400  1
  I  I132  1  0.66679854  0.83296476  0.16464928  1
  I  I133  1  0.66655386  0.83282532  0.50296317  1
  I  I134  1  0.66582136  0.83106970  0.83132874  1
