# generated using pymatgen
data_Cs27Sn14Pb13I81
_symmetry_space_group_name_H-M   'P 1'
_cell_length_a   18.97751767
_cell_length_b   18.97349180
_cell_length_c   18.97816631
_cell_angle_alpha   89.99863553
_cell_angle_beta   90.00020395
_cell_angle_gamma   90.00116136
_symmetry_Int_Tables_number   1
_chemical_formula_structural   Cs27Sn14Pb13I81
_chemical_formula_sum   'Cs27 Sn14 Pb13 I81'
_cell_volume   6833.46408758
_cell_formula_units_Z   1
loop_
 _symmetry_equiv_pos_site_id
 _symmetry_equiv_pos_as_xyz
  1  'x, y, z'
loop_
 _atom_site_type_symbol
 _atom_site_label
 _atom_site_symmetry_multiplicity
 _atom_site_fract_x
 _atom_site_fract_y
 _atom_site_fract_z
 _atom_site_occupancy
  Cs  Cs0  1  0.00199561  -0.00035193  0.00072556  1
  Cs  Cs1  1  0.00677948  -0.00715902  0.32968811  1
  Cs  Cs2  1  -0.00039020  -0.00003557  0.66825424  1
  Cs  Cs3  1  -0.00214291  0.33551650  0.00168092  1
  Cs  Cs4  1  -0.00087497  0.33433610  0.33304947  1
  Cs  Cs5  1  -0.00161816  0.33578601  0.66431575  1
  Cs  Cs6  1  -0.00101189  0.66489444  -0.00274372  1
  Cs  Cs7  1  0.00147350  0.66915607  0.33397716  1
  Cs  Cs8  1  0.00060886  0.66490218  0.66920572  1
  Cs  Cs9  1  0.32704210  0.00319887  -0.00183000  1
  Cs  Cs10  1  0.32763826  -0.00596193  0.33131914  1
  Cs  Cs11  1  0.33251517  0.00230808  0.66854141  1
  Cs  Cs12  1  0.33693149  0.33244427  -0.00081410  1
  Cs  Cs13  1  0.33308780  0.33312556  0.33639076  1
  Cs  Cs14  1  0.33479706  0.32981370  0.66442269  1
  Cs  Cs15  1  0.33658274  0.66454115  0.00069691  1
  Cs  Cs16  1  0.33555652  0.67403595  0.33410628  1
  Cs  Cs17  1  0.33056049  0.66761844  0.66610216  1
  Cs  Cs18  1  0.66842963  0.00162992  0.00041158  1
  Cs  Cs19  1  0.66668719  0.00006980  0.33537126  1
  Cs  Cs20  1  0.66657062  0.00077804  0.66512216  1
  Cs  Cs21  1  0.66603982  0.33356610  0.00186279  1
  Cs  Cs22  1  0.66750956  0.33175176  0.33408076  1
  Cs  Cs23  1  0.66696532  0.33231963  0.66467705  1
  Cs  Cs24  1  0.66403648  0.66445847  0.00113685  1
  Cs  Cs25  1  0.66354436  0.67320323  0.33256406  1
  Cs  Cs26  1  0.66734724  0.66682173  0.66672043  1
  Sn  Sn27  1  0.16667826  0.83224691  0.83347437  1
  Sn  Sn28  1  0.50066425  0.16670627  0.16769779  1
  Sn  Sn29  1  0.16627871  0.50017941  0.83435567  1
  Sn  Sn30  1  0.83217021  0.49965427  0.49958463  1
  Sn  Sn31  1  0.50099577  0.49960391  0.49998758  1
  Sn  Sn32  1  0.16629163  0.49958772  0.16595746  1
  Sn  Sn33  1  0.83344759  0.49979065  0.83343262  1
  Sn  Sn34  1  0.50018119  0.83336534  0.83355678  1
  Sn  Sn35  1  0.83367994  0.49955577  0.16694585  1
  Sn  Sn36  1  0.83332128  0.16710072  0.49929947  1
  Sn  Sn37  1  0.83277333  0.16718664  0.16731940  1
  Sn  Sn38  1  0.83296148  0.83308119  0.83343933  1
  Sn  Sn39  1  0.83320104  0.16713799  0.83339027  1
  Sn  Sn40  1  0.50083571  0.16734325  0.49858082  1
  Pb  Pb41  1  0.50022028  0.83411098  0.50203062  1
  Pb  Pb42  1  0.16370471  0.16791645  0.83330334  1
  Pb  Pb43  1  0.83315466  0.83314222  0.16422589  1
  Pb  Pb44  1  0.16601384  0.16672049  0.49974876  1
  Pb  Pb45  1  0.83346190  0.83339494  0.50211823  1
  Pb  Pb46  1  0.50022872  0.49829311  0.16920742  1
  Pb  Pb47  1  0.50236279  0.16485883  0.83314475  1
  Pb  Pb48  1  0.16658103  0.82983194  0.16374940  1
  Pb  Pb49  1  0.50005270  0.50130486  0.83119286  1
  Pb  Pb50  1  0.16638020  0.49996396  0.49996678  1
  Pb  Pb51  1  0.50019651  0.83697318  0.16393710  1
  Pb  Pb52  1  0.16645725  0.83323105  0.50293231  1
  Pb  Pb53  1  0.16620944  0.16933770  0.16669948  1
  I  I54  1  0.16686950  -0.00004430  0.16577088  1
  I  I55  1  0.16673626  0.00005819  0.50205807  1
  I  I56  1  0.16596197  -0.00257621  0.83168826  1
  I  I57  1  0.16387665  0.33704628  0.15845103  1
  I  I58  1  0.16790502  0.33366375  0.50493488  1
  I  I59  1  0.16164245  0.33712078  0.83640095  1
  I  I60  1  0.15931969  0.66200109  0.16544813  1
  I  I61  1  0.16713535  0.66611423  0.49794357  1
  I  I62  1  0.16082795  0.66593822  0.83627195  1
  I  I63  1  0.50804756  0.00488836  0.17312869  1
  I  I64  1  0.50629607  0.00374421  0.49846173  1
  I  I65  1  0.50004091  -0.00312927  0.83180650  1
  I  I66  1  0.50237869  0.33033411  0.16554158  1
  I  I67  1  0.50440665  0.33275725  0.49870969  1
  I  I68  1  0.49880578  0.33311925  0.83449199  1
  I  I69  1  0.49984699  0.66656724  0.16788924  1
  I  I70  1  0.50427306  0.66393067  0.50220737  1
  I  I71  1  0.50493340  0.66930574  0.83094286  1
  I  I72  1  0.82842664  0.00350140  0.16605113  1
  I  I73  1  0.82793791  0.00365299  0.50160891  1
  I  I74  1  0.83260059  0.00026118  0.83269920  1
  I  I75  1  0.83347163  0.33356332  0.16161467  1
  I  I76  1  0.82987624  0.33371516  0.50534319  1
  I  I77  1  0.83785114  0.33402918  0.83297588  1
  I  I78  1  0.83786129  0.66292877  0.16653416  1
  I  I79  1  0.82999235  0.66297409  0.50061308  1
  I  I80  1  0.83451741  0.66572236  0.83266777  1
  I  I81  1  0.16841362  0.16383924  -0.00013402  1
  I  I82  1  0.16243996  0.16945387  0.33314381  1
  I  I83  1  0.16772381  0.16742346  0.66684279  1
  I  I84  1  0.15772248  0.50387539  -0.00105257  1
  I  I85  1  0.16212455  0.49645371  0.33057524  1
  I  I86  1  0.16237014  0.50531213  0.66986273  1
  I  I87  1  0.16489967  0.83299405  -0.00432291  1
  I  I88  1  0.16751033  0.83302060  0.33281610  1
  I  I89  1  0.16542798  0.82555940  0.67154544  1
  I  I90  1  0.50471175  0.16488575  0.00219869  1
  I  I91  1  0.50973016  0.17193064  0.33397264  1
  I  I92  1  0.50416850  0.16887444  0.66386045  1
  I  I93  1  0.50162571  0.49991849  0.00006072  1
  I  I94  1  0.50377003  0.49827024  0.33700779  1
  I  I95  1  0.50432280  0.49403300  0.66345583  1
  I  I96  1  0.50144469  0.83235133  -0.00420845  1
  I  I97  1  0.49955991  0.83093208  0.33332600  1
  I  I98  1  0.50067161  0.83496778  0.67016447  1
  I  I99  1  0.82959749  0.16893689  0.00011867  1
  I  I100  1  0.82794454  0.17653484  0.33334127  1
  I  I101  1  0.82998855  0.16879922  0.66663254  1
  I  I102  1  0.83824313  0.49790351  -0.00054955  1
  I  I103  1  0.83455569  0.49153955  0.33322108  1
  I  I104  1  0.83385292  0.49811111  0.66735350  1
  I  I105  1  0.83411752  0.83379500  -0.00461566  1
  I  I106  1  0.83269296  0.83298730  0.33321914  1
  I  I107  1  0.83388709  0.83320977  0.67104041  1
  I  I108  1  -0.00385987  0.16855302  0.16592112  1
  I  I109  1  -0.00450118  0.17248496  0.50157084  1
  I  I110  1  -0.00489629  0.16218615  0.83330198  1
  I  I111  1  -0.00201764  0.49417846  0.16659506  1
  I  I112  1  -0.00368804  0.49528269  0.50147584  1
  I  I113  1  -0.00178387  0.50406814  0.83186874  1
  I  I114  1  -0.00014065  0.83945496  0.16515327  1
  I  I115  1  -0.00034876  0.83375732  0.50240320  1
  I  I116  1  -0.00065678  0.83224178  0.83279313  1
  I  I117  1  0.33619579  0.16760624  0.17091936  1
  I  I118  1  0.33695074  0.17156228  0.49714826  1
  I  I119  1  0.33345122  0.16499285  0.83303238  1
  I  I120  1  0.33102048  0.49851189  0.16109620  1
  I  I121  1  0.33617765  0.49523741  0.50163658  1
  I  I122  1  0.33060659  0.50586658  0.83642218  1
  I  I123  1  0.33336485  0.83318698  0.16392143  1
  I  I124  1  0.33360514  0.83244391  0.50356947  1
  I  I125  1  0.33259682  0.82809903  0.83267967  1
  I  I126  1  0.66848800  0.17254255  0.16574938  1
  I  I127  1  0.66786697  0.17116337  0.50074217  1
  I  I128  1  0.67080601  0.16777703  0.83325304  1
  I  I129  1  0.67007438  0.49785790  0.16195381  1
  I  I130  1  0.66840141  0.49561322  0.50218283  1
  I  I131  1  0.67018634  0.50075608  0.83580367  1
  I  I132  1  0.66672376  0.82762925  0.16169609  1
  I  I133  1  0.66683581  0.83186449  0.50519088  1
  I  I134  1  0.66801884  0.83359334  0.83247357  1
