# generated using pymatgen
data_Cs27Sn13Pb14I81
_symmetry_space_group_name_H-M   'P 1'
_cell_length_a   18.98233566
_cell_length_b   19.00237205
_cell_length_c   18.99243836
_cell_angle_alpha   89.99959731
_cell_angle_beta   89.99867132
_cell_angle_gamma   90.00046361
_symmetry_Int_Tables_number   1
_chemical_formula_structural   Cs27Sn13Pb14I81
_chemical_formula_sum   'Cs27 Sn13 Pb14 I81'
_cell_volume   6850.75113043
_cell_formula_units_Z   1
loop_
 _symmetry_equiv_pos_site_id
 _symmetry_equiv_pos_as_xyz
  1  'x, y, z'
loop_
 _atom_site_type_symbol
 _atom_site_label
 _atom_site_symmetry_multiplicity
 _atom_site_fract_x
 _atom_site_fract_y
 _atom_site_fract_z
 _atom_site_occupancy
  Cs  Cs0  1  0.00080373  -0.00204816  0.00206904  1
  Cs  Cs1  1  0.00047064  -0.00153003  0.33198801  1
  Cs  Cs2  1  -0.00174377  -0.00345742  0.66656420  1
  Cs  Cs3  1  -0.00194663  0.33363837  0.00066543  1
  Cs  Cs4  1  -0.00113594  0.33505786  0.33432005  1
  Cs  Cs5  1  -0.00073141  0.33417278  0.66426704  1
  Cs  Cs6  1  0.00304404  0.66830357  0.00324291  1
  Cs  Cs7  1  0.00106587  0.66591123  0.33256062  1
  Cs  Cs8  1  0.00144401  0.66859853  0.66504478  1
  Cs  Cs9  1  0.33342158  0.00237282  0.00191513  1
  Cs  Cs10  1  0.33794020  0.00628866  0.33232492  1
  Cs  Cs11  1  0.33165941  0.00582379  0.66680768  1
  Cs  Cs12  1  0.33062784  0.32805257  -0.00252147  1
  Cs  Cs13  1  0.33873620  0.32548769  0.33544200  1
  Cs  Cs14  1  0.33248747  0.33236146  0.66607690  1
  Cs  Cs15  1  0.33068792  0.66846293  -0.00082737  1
  Cs  Cs16  1  0.33278431  0.66736658  0.33400107  1
  Cs  Cs17  1  0.33121156  0.66387116  0.66692257  1
  Cs  Cs18  1  0.66673279  0.00083255  -0.00204529  1
  Cs  Cs19  1  0.66201841  -0.00375972  0.33477776  1
  Cs  Cs20  1  0.66925268  -0.00287027  0.66771919  1
  Cs  Cs21  1  0.66853433  0.33494788  -0.00170490  1
  Cs  Cs22  1  0.66475597  0.33752232  0.33212714  1
  Cs  Cs23  1  0.66764592  0.33361096  0.66939811  1
  Cs  Cs24  1  0.66558746  0.66361273  0.00094227  1
  Cs  Cs25  1  0.65701634  0.66635380  0.33240899  1
  Cs  Cs26  1  0.66706659  0.66902938  0.66598755  1
  Sn  Sn27  1  0.83329706  0.83360451  0.16683454  1
  Sn  Sn28  1  0.50074080  0.50003365  0.83330197  1
  Sn  Sn29  1  0.49993093  0.83323195  0.83316599  1
  Sn  Sn30  1  0.50116525  0.16685407  0.83329421  1
  Sn  Sn31  1  0.83340056  0.16714426  0.49994959  1
  Sn  Sn32  1  0.16613288  0.83263500  0.16815316  1
  Sn  Sn33  1  0.16599557  0.50055039  0.49854426  1
  Sn  Sn34  1  0.83337227  0.16569601  0.16692024  1
  Sn  Sn35  1  0.83320019  0.16718459  0.83316545  1
  Sn  Sn36  1  0.16684939  0.50005801  0.16786082  1
  Sn  Sn37  1  0.83368273  0.49986343  0.50057205  1
  Sn  Sn38  1  0.16662284  0.83291816  0.49907800  1
  Sn  Sn39  1  0.83309816  0.49990477  0.83249103  1
  Pb  Pb40  1  0.50349154  0.16689574  0.16434737  1
  Pb  Pb41  1  0.49617785  0.49989747  0.16394293  1
  Pb  Pb42  1  0.16443909  0.16665803  0.16687235  1
  Pb  Pb43  1  0.49996936  0.50002972  0.50212395  1
  Pb  Pb44  1  0.16534818  0.16668079  0.83325361  1
  Pb  Pb45  1  0.49938890  0.83321508  0.16479697  1
  Pb  Pb46  1  0.83450583  0.50023881  0.16693758  1
  Pb  Pb47  1  0.49649650  0.83332563  0.50253431  1
  Pb  Pb48  1  0.50366701  0.16675727  0.50260852  1
  Pb  Pb49  1  0.16900393  0.83341199  0.83347334  1
  Pb  Pb50  1  0.83464455  0.83253807  0.49752544  1
  Pb  Pb51  1  0.16580142  0.49994059  0.83303045  1
  Pb  Pb52  1  0.83199769  0.83276165  0.83543726  1
  Pb  Pb53  1  0.16424143  0.16696074  0.49987146  1
  I  I54  1  0.16414476  -0.00320159  0.16959427  1
  I  I55  1  0.16580461  -0.00284924  0.49660892  1
  I  I56  1  0.16708243  -0.00014457  0.83298660  1
  I  I57  1  0.16493847  0.33629870  0.16914015  1
  I  I58  1  0.16409378  0.33675885  0.49710946  1
  I  I59  1  0.17202355  0.33358033  0.83441764  1
  I  I60  1  0.15947484  0.66727342  0.16887457  1
  I  I61  1  0.16020715  0.66564279  0.49721188  1
  I  I62  1  0.16743394  0.66657778  0.83392463  1
  I  I63  1  0.49537796  0.00005223  0.16268708  1
  I  I64  1  0.49971234  0.00003817  0.50345629  1
  I  I65  1  0.50440501  0.00089134  0.83380114  1
  I  I66  1  0.49943869  0.33339347  0.16432964  1
  I  I67  1  0.49349333  0.33339079  0.50202521  1
  I  I68  1  0.50547394  0.33327805  0.83366552  1
  I  I69  1  0.50663709  0.66660160  0.16155419  1
  I  I70  1  0.50597760  0.66663403  0.50458380  1
  I  I71  1  0.50368283  0.66585304  0.83370034  1
  I  I72  1  0.83995477  0.00032321  0.16467259  1
  I  I73  1  0.83484137  0.00250743  0.50419855  1
  I  I74  1  0.82910752  0.00279112  0.83091332  1
  I  I75  1  0.83506711  0.33108991  0.16484647  1
  I  I76  1  0.83974572  0.33388619  0.50028203  1
  I  I77  1  0.82607489  0.33321614  0.83509661  1
  I  I78  1  0.83687196  0.66889233  0.16452981  1
  I  I79  1  0.83633489  0.66348019  0.50558905  1
  I  I80  1  0.82904349  0.66358536  0.82989523  1
  I  I81  1  0.16482908  0.16680316  0.00018307  1
  I  I82  1  0.16452091  0.16702853  0.33336149  1
  I  I83  1  0.16546407  0.16606280  0.66645581  1
  I  I84  1  0.16648120  0.50530953  0.00242423  1
  I  I85  1  0.15765120  0.50549577  0.33411884  1
  I  I86  1  0.16556589  0.50466058  0.66368998  1
  I  I87  1  0.16372123  0.82873245  0.00328992  1
  I  I88  1  0.16066480  0.82753610  0.33264662  1
  I  I89  1  0.16768739  0.82807167  0.66373818  1
  I  I90  1  0.50511841  0.16688782  -0.00406776  1
  I  I91  1  0.49967727  0.16567292  0.33344213  1
  I  I92  1  0.50473929  0.16713164  0.67094151  1
  I  I93  1  0.50720722  0.49967516  -0.00440694  1
  I  I94  1  0.50391292  0.50146702  0.33342224  1
  I  I95  1  0.49904005  0.49913387  0.67058110  1
  I  I96  1  0.49858155  0.83368452  -0.00337699  1
  I  I97  1  0.50271180  0.83276412  0.33328876  1
  I  I98  1  0.50107989  0.83337149  0.67067764  1
  I  I99  1  0.82936696  0.16730924  -0.00077454  1
  I  I100  1  0.83813650  0.16756667  0.33347211  1
  I  I101  1  0.82946477  0.17200005  0.66724630  1
  I  I102  1  0.83070751  0.49655013  -0.00254827  1
  I  I103  1  0.83774171  0.49573681  0.33601678  1
  I  I104  1  0.83525935  0.49212014  0.66685458  1
  I  I105  1  0.83962130  0.83712853  0.00317704  1
  I  I106  1  0.83581800  0.83805243  0.32975988  1
  I  I107  1  0.83439769  0.83615855  0.66657530  1
  I  I108  1  -0.00386283  0.16545773  0.16190574  1
  I  I109  1  -0.00396170  0.16835228  0.50447302  1
  I  I110  1  -0.00472584  0.17266905  0.83357500  1
  I  I111  1  0.00240727  0.50147145  0.16463637  1
  I  I112  1  -0.00058337  0.49926545  0.50342601  1
  I  I113  1  -0.00339113  0.49365467  0.83260858  1
  I  I114  1  0.00043370  0.83394429  0.16772717  1
  I  I115  1  0.00266310  0.83204353  0.50000923  1
  I  I116  1  0.00004573  0.83366521  0.83264857  1
  I  I117  1  0.33344112  0.16608003  0.16365114  1
  I  I118  1  0.33343398  0.16657697  0.50250862  1
  I  I119  1  0.33651889  0.16768795  0.83380850  1
  I  I120  1  0.32817576  0.50840325  0.17097309  1
  I  I121  1  0.32995856  0.50588778  0.49839883  1
  I  I122  1  0.33597507  0.49933616  0.83429072  1
  I  I123  1  0.32972187  0.82741974  0.16819385  1
  I  I124  1  0.32845536  0.82555054  0.49375032  1
  I  I125  1  0.33709551  0.83259789  0.83486695  1
  I  I126  1  0.67180461  0.16079048  0.16857729  1
  I  I127  1  0.67182921  0.17318882  0.49733050  1
  I  I128  1  0.66793644  0.16770266  0.83377526  1
  I  I129  1  0.66676765  0.50052534  0.16864932  1
  I  I130  1  0.67014407  0.49480034  0.50241253  1
  I  I131  1  0.66785851  0.49866752  0.82857429  1
  I  I132  1  0.66942132  0.83831107  0.16447143  1
  I  I133  1  0.66674345  0.83339829  0.49875354  1
  I  I134  1  0.66398230  0.83359431  0.83555893  1
