# generated using pymatgen
data_Cs27Sn13Pb14I81
_symmetry_space_group_name_H-M   'P 1'
_cell_length_a   18.97893056
_cell_length_b   18.97321695
_cell_length_c   18.97796594
_cell_angle_alpha   89.99907117
_cell_angle_beta   90.00039515
_cell_angle_gamma   90.00025240
_symmetry_Int_Tables_number   1
_chemical_formula_structural   Cs27Sn13Pb14I81
_chemical_formula_sum   'Cs27 Sn13 Pb14 I81'
_cell_volume   6833.80169779
_cell_formula_units_Z   1
loop_
 _symmetry_equiv_pos_site_id
 _symmetry_equiv_pos_as_xyz
  1  'x, y, z'
loop_
 _atom_site_type_symbol
 _atom_site_label
 _atom_site_symmetry_multiplicity
 _atom_site_fract_x
 _atom_site_fract_y
 _atom_site_fract_z
 _atom_site_occupancy
  Cs  Cs0  1  0.00030880  0.00073642  0.00251945  1
  Cs  Cs1  1  -0.00005659  0.00023264  0.32910921  1
  Cs  Cs2  1  -0.00682054  -0.00232136  0.66821221  1
  Cs  Cs3  1  -0.00169990  0.33218619  0.00283974  1
  Cs  Cs4  1  0.00117838  0.33627100  0.32983930  1
  Cs  Cs5  1  0.00337423  0.33584007  0.66804634  1
  Cs  Cs6  1  0.00165771  0.66675173  -0.00033283  1
  Cs  Cs7  1  -0.00207173  0.66399836  0.33443861  1
  Cs  Cs8  1  0.00076332  0.66708444  0.66714910  1
  Cs  Cs9  1  0.33262681  -0.00457818  0.00245350  1
  Cs  Cs10  1  0.33188780  -0.00068417  0.33253677  1
  Cs  Cs11  1  0.33413046  0.00380396  0.66527867  1
  Cs  Cs12  1  0.33659991  0.33318460  -0.00406356  1
  Cs  Cs13  1  0.33273830  0.33261154  0.33533538  1
  Cs  Cs14  1  0.33298390  0.33184033  0.66712360  1
  Cs  Cs15  1  0.34041283  0.67396977  -0.00585585  1
  Cs  Cs16  1  0.33449449  0.66802826  0.33370542  1
  Cs  Cs17  1  0.33232428  0.66672190  0.66924934  1
  Cs  Cs18  1  0.66726387  0.00034574  -0.00436163  1
  Cs  Cs19  1  0.66855122  0.00348555  0.33798364  1
  Cs  Cs20  1  0.67476317  0.00055703  0.66614578  1
  Cs  Cs21  1  0.66588099  0.33315183  0.00034312  1
  Cs  Cs22  1  0.66524674  0.33288325  0.33390984  1
  Cs  Cs23  1  0.66615026  0.33055685  0.66519536  1
  Cs  Cs24  1  0.65942099  0.66732038  0.00272619  1
  Cs  Cs25  1  0.66755347  0.66515719  0.33178400  1
  Cs  Cs26  1  0.66786645  0.66951882  0.66691230  1
  Sn  Sn27  1  0.16705116  0.16666285  0.83289504  1
  Sn  Sn28  1  0.83332834  0.83256185  0.16669090  1
  Sn  Sn29  1  0.49927433  0.16658739  0.83417688  1
  Sn  Sn30  1  0.16636901  0.16651722  0.50064675  1
  Sn  Sn31  1  0.83334522  0.49983608  0.50029070  1
  Sn  Sn32  1  0.83389867  0.50105233  0.16629520  1
  Sn  Sn33  1  0.49947229  0.83263701  0.49999518  1
  Sn  Sn34  1  0.49970277  0.16673298  0.16589202  1
  Sn  Sn35  1  0.16714416  0.83313712  0.49996055  1
  Sn  Sn36  1  0.83323881  0.50005611  0.83364757  1
  Sn  Sn37  1  0.49959262  0.50090440  0.49999786  1
  Sn  Sn38  1  0.16703606  0.50024505  0.49936170  1
  Sn  Sn39  1  0.16729772  0.50038645  0.16653156  1
  Pb  Pb40  1  0.83362764  0.83113021  0.49838825  1
  Pb  Pb41  1  0.83109706  0.16720133  0.16667206  1
  Pb  Pb42  1  0.16659977  0.83630559  0.83078488  1
  Pb  Pb43  1  0.83335053  0.83024240  0.83642578  1
  Pb  Pb44  1  0.50002479  0.83632973  0.83023576  1
  Pb  Pb45  1  0.50218960  0.49831555  0.83039734  1
  Pb  Pb46  1  0.83379905  0.16867381  0.83332800  1
  Pb  Pb47  1  0.49836248  0.16642878  0.50035144  1
  Pb  Pb48  1  0.83706785  0.16948947  0.49980563  1
  Pb  Pb49  1  0.16521803  0.83034422  0.16881662  1
  Pb  Pb50  1  0.49955845  0.49885683  0.16843238  1
  Pb  Pb51  1  0.16544000  0.49858786  0.83369718  1
  Pb  Pb52  1  0.16854463  0.16879423  0.16648945  1
  Pb  Pb53  1  0.50219976  0.83587595  0.16920882  1
  I  I54  1  0.16472337  -0.00000795  0.16827892  1
  I  I55  1  0.17362669  0.00004501  0.50399455  1
  I  I56  1  0.17018241  0.00462904  0.82871048  1
  I  I57  1  0.15923737  0.33671075  0.17428738  1
  I  I58  1  0.16660797  0.33442775  0.50022414  1
  I  I59  1  0.16964835  0.33060955  0.82643328  1
  I  I60  1  0.16413650  0.66218194  0.17358553  1
  I  I61  1  0.16663375  0.66537252  0.49484547  1
  I  I62  1  0.16450549  0.66658855  0.83225977  1
  I  I63  1  0.50045058  0.00355083  0.16549990  1
  I  I64  1  0.49474980  -0.00222587  0.49889682  1
  I  I65  1  0.49631997  0.00434057  0.83573934  1
  I  I66  1  0.50187272  0.33096477  0.16664490  1
  I  I67  1  0.50010126  0.33589948  0.49964964  1
  I  I68  1  0.49671068  0.33036738  0.83384902  1
  I  I69  1  0.49921399  0.66669121  0.16705947  1
  I  I70  1  0.49589998  0.66555417  0.49851442  1
  I  I71  1  0.50126996  0.66663914  0.83419365  1
  I  I72  1  0.83191262  -0.00248926  0.16856011  1
  I  I73  1  0.83190006  -0.00020205  0.49813103  1
  I  I74  1  0.83285615  -0.00004639  0.83434225  1
  I  I75  1  0.83645063  0.33717448  0.16770589  1
  I  I76  1  0.83088082  0.33813164  0.49678119  1
  I  I77  1  0.83362488  0.33677930  0.83461890  1
  I  I78  1  0.83677890  0.66432164  0.16863967  1
  I  I79  1  0.83743542  0.66262574  0.50123222  1
  I  I80  1  0.83493796  0.66220846  0.82827766  1
  I  I81  1  0.16841599  0.17064765  -0.00247504  1
  I  I82  1  0.16870620  0.16672703  0.33620766  1
  I  I83  1  0.17328665  0.17015326  0.66557041  1
  I  I84  1  0.15952467  0.49558092  0.00275043  1
  I  I85  1  0.16161596  0.49738597  0.33528597  1
  I  I86  1  0.16525755  0.50047517  0.66314565  1
  I  I87  1  0.16488222  0.83345157  0.00030148  1
  I  I88  1  0.17003728  0.83814082  0.33730172  1
  I  I89  1  0.16914382  0.82679000  0.66198450  1
  I  I90  1  0.49512549  0.16923608  -0.00056133  1
  I  I91  1  0.49974735  0.16767082  0.33202376  1
  I  I92  1  0.49689715  0.16819292  0.66866222  1
  I  I93  1  0.50074929  0.49863861  -0.00011373  1
  I  I94  1  0.50351231  0.49943218  0.33686850  1
  I  I95  1  0.49848754  0.50024100  0.66203382  1
  I  I96  1  0.50140572  0.83269049  0.00010543  1
  I  I97  1  0.49623315  0.83155800  0.33703480  1
  I  I98  1  0.49688157  0.82993422  0.66216601  1
  I  I99  1  0.83701974  0.16975353  0.00005657  1
  I  I100  1  0.83104537  0.16875400  0.33336302  1
  I  I101  1  0.82806000  0.16795425  0.66644447  1
  I  I102  1  0.83927214  0.50199242  0.00123227  1
  I  I103  1  0.83478741  0.50333935  0.33356926  1
  I  I104  1  0.83391603  0.49748163  0.66533572  1
  I  I105  1  0.83338158  0.82813704  0.00415150  1
  I  I106  1  0.83341025  0.82652916  0.33084452  1
  I  I107  1  0.83279102  0.83277229  0.66643784  1
  I  I108  1  0.00018643  0.16594253  0.16692962  1
  I  I109  1  0.00517088  0.16568589  0.50548674  1
  I  I110  1  0.00303662  0.16888692  0.82746440  1
  I  I111  1  -0.00063729  0.50143658  0.17243571  1
  I  I112  1  0.00049430  0.49897743  0.49902718  1
  I  I113  1  -0.00268666  0.49685643  0.82901204  1
  I  I114  1  -0.00280038  0.83194322  0.16984998  1
  I  I115  1  0.00288738  0.83293662  0.49877865  1
  I  I116  1  -0.00008076  0.83610536  0.82998284  1
  I  I117  1  0.33608896  0.16937124  0.16708587  1
  I  I118  1  0.33041804  0.17218390  0.50090497  1
  I  I119  1  0.33305233  0.16956680  0.83159385  1
  I  I120  1  0.33066418  0.49557675  0.17425609  1
  I  I121  1  0.33218128  0.49930111  0.49490141  1
  I  I122  1  0.33353440  0.49888814  0.83288599  1
  I  I123  1  0.33344257  0.83308855  0.16691840  1
  I  I124  1  0.33270998  0.82840772  0.49913564  1
  I  I125  1  0.33334455  0.82968896  0.83596142  1
  I  I126  1  0.66330594  0.16928622  0.16218752  1
  I  I127  1  0.66664938  0.16691094  0.50046655  1
  I  I128  1  0.66398632  0.16872081  0.83704916  1
  I  I129  1  0.66960150  0.50158277  0.16858472  1
  I  I130  1  0.66680086  0.50399463  0.49947649  1
  I  I131  1  0.67018933  0.49709572  0.83413283  1
  I  I132  1  0.66978334  0.82482297  0.16930539  1
  I  I133  1  0.66436441  0.82922180  0.49827174  1
  I  I134  1  0.66668997  0.83647033  0.82959335  1
