# generated using pymatgen
data_Cs27Sn14Pb13I81
_symmetry_space_group_name_H-M   'P 1'
_cell_length_a   18.97850365
_cell_length_b   18.97391558
_cell_length_c   18.97386775
_cell_angle_alpha   90.00154801
_cell_angle_beta   90.00016397
_cell_angle_gamma   90.00058689
_symmetry_Int_Tables_number   1
_chemical_formula_structural   Cs27Sn14Pb13I81
_chemical_formula_sum   'Cs27 Sn14 Pb13 I81'
_cell_volume   6832.42386069
_cell_formula_units_Z   1
loop_
 _symmetry_equiv_pos_site_id
 _symmetry_equiv_pos_as_xyz
  1  'x, y, z'
loop_
 _atom_site_type_symbol
 _atom_site_label
 _atom_site_symmetry_multiplicity
 _atom_site_fract_x
 _atom_site_fract_y
 _atom_site_fract_z
 _atom_site_occupancy
  Cs  Cs0  1  -0.00015746  0.00248196  -0.00115252  1
  Cs  Cs1  1  -0.00294935  -0.00589152  0.33590537  1
  Cs  Cs2  1  0.00271569  -0.00223406  0.66751996  1
  Cs  Cs3  1  -0.00292138  0.33071303  -0.00079446  1
  Cs  Cs4  1  0.00174280  0.33502540  0.33277970  1
  Cs  Cs5  1  -0.00163227  0.33713605  0.66642521  1
  Cs  Cs6  1  0.00431195  0.66929444  0.00034204  1
  Cs  Cs7  1  0.00542739  0.67233445  0.34120848  1
  Cs  Cs8  1  -0.00102467  0.66576790  0.65835120  1
  Cs  Cs9  1  0.33210636  -0.00004018  -0.00244202  1
  Cs  Cs10  1  0.33264722  0.00240015  0.33926149  1
  Cs  Cs11  1  0.33415350  -0.00065189  0.66609919  1
  Cs  Cs12  1  0.33312177  0.33336237  -0.00036032  1
  Cs  Cs13  1  0.32957648  0.33506521  0.33598660  1
  Cs  Cs14  1  0.33516495  0.33287340  0.66584969  1
  Cs  Cs15  1  0.33187686  0.66642135  0.00519782  1
  Cs  Cs16  1  0.32974321  0.66204413  0.32237680  1
  Cs  Cs17  1  0.33655462  0.66829805  0.66904941  1
  Cs  Cs18  1  0.66702150  0.00172439  -0.00070077  1
  Cs  Cs19  1  0.66840496  -0.00079602  0.33259514  1
  Cs  Cs20  1  0.66390192  0.00042556  0.66830228  1
  Cs  Cs21  1  0.66850366  0.33183882  -0.00077574  1
  Cs  Cs22  1  0.66625484  0.33032915  0.33018044  1
  Cs  Cs23  1  0.66598456  0.33551183  0.66755862  1
  Cs  Cs24  1  0.66470078  0.66696618  0.00055349  1
  Cs  Cs25  1  0.66623013  0.67277811  0.33187792  1
  Cs  Cs26  1  0.66652739  0.66507283  0.66706603  1
  Sn  Sn27  1  0.83269540  0.83370320  0.83359981  1
  Sn  Sn28  1  0.83365611  0.16757545  0.16687039  1
  Sn  Sn29  1  0.50094140  0.83330173  0.83292956  1
  Sn  Sn30  1  0.16719017  0.49920625  0.83326021  1
  Sn  Sn31  1  0.83340077  0.16598839  0.83284543  1
  Sn  Sn32  1  0.16651114  0.16661380  0.16598942  1
  Sn  Sn33  1  0.83345996  0.50011294  0.16680873  1
  Sn  Sn34  1  0.49978796  0.16678198  0.83402455  1
  Sn  Sn35  1  0.16678728  0.16780694  0.83386641  1
  Sn  Sn36  1  0.49955631  0.16672628  0.16598741  1
  Sn  Sn37  1  0.49920592  0.49989421  0.83303110  1
  Sn  Sn38  1  0.49994173  0.83175880  0.50049149  1
  Sn  Sn39  1  0.83339789  0.16711622  0.50045641  1
  Sn  Sn40  1  0.50039424  0.50116064  0.50007574  1
  Pb  Pb41  1  0.16661755  0.83666548  0.16652418  1
  Pb  Pb42  1  0.83099980  0.83552517  0.50280952  1
  Pb  Pb43  1  0.50159969  0.49760174  0.16627056  1
  Pb  Pb44  1  0.17040058  0.83319643  0.50024860  1
  Pb  Pb45  1  0.16355617  0.16672822  0.50055953  1
  Pb  Pb46  1  0.83339170  0.83351276  0.16422481  1
  Pb  Pb47  1  0.16379104  0.49774462  0.16424078  1
  Pb  Pb48  1  0.16951000  0.49982967  0.50269001  1
  Pb  Pb49  1  0.83079955  0.49813743  0.49705268  1
  Pb  Pb50  1  0.16690707  0.83321206  0.83322685  1
  Pb  Pb51  1  0.49986073  0.83629934  0.16628182  1
  Pb  Pb52  1  0.83335798  0.50041285  0.83465783  1
  Pb  Pb53  1  0.50156767  0.16688329  0.50021085  1
  I  I54  1  0.16420702  0.00543557  0.15786104  1
  I  I55  1  0.16940443  0.00037321  0.50155927  1
  I  I56  1  0.16816390  0.00353543  0.83746723  1
  I  I57  1  0.16872846  0.32934227  0.16381840  1
  I  I58  1  0.17032361  0.33307917  0.49888526  1
  I  I59  1  0.16988347  0.33168328  0.83689904  1
  I  I60  1  0.16540303  0.66618035  0.16485750  1
  I  I61  1  0.16128568  0.66643650  0.50263076  1
  I  I62  1  0.17007116  0.66373545  0.83304082  1
  I  I63  1  0.50383906  0.00472952  0.16238523  1
  I  I64  1  0.50197059  -0.00185783  0.50357320  1
  I  I65  1  0.50093749  0.00107351  0.83316036  1
  I  I66  1  0.50004457  0.32929751  0.16244024  1
  I  I67  1  0.50180637  0.33539894  0.50433229  1
  I  I68  1  0.50022205  0.33251436  0.83296960  1
  I  I69  1  0.50282456  0.66651691  0.16450719  1
  I  I70  1  0.50156084  0.66660870  0.51104723  1
  I  I71  1  0.50112799  0.66653394  0.82790883  1
  I  I72  1  0.83295744  0.00414910  0.16778904  1
  I  I73  1  0.83044491  0.00356250  0.49457351  1
  I  I74  1  0.82996989  0.00230228  0.83535293  1
  I  I75  1  0.83221699  0.33021951  0.16309665  1
  I  I76  1  0.82976181  0.32998875  0.50608161  1
  I  I77  1  0.83077919  0.33000165  0.83296006  1
  I  I78  1  0.83012580  0.66413016  0.16245285  1
  I  I79  1  0.83415619  0.66681533  0.49994354  1
  I  I80  1  0.82896858  0.66905688  0.83650873  1
  I  I81  1  0.16327772  0.17000416  -0.00137566  1
  I  I82  1  0.16848110  0.16616050  0.33024259  1
  I  I83  1  0.16808829  0.16900810  0.67061929  1
  I  I84  1  0.17446230  0.49810766  -0.00370266  1
  I  I85  1  0.16792482  0.49815533  0.33306995  1
  I  I86  1  0.16608409  0.49190038  0.67099609  1
  I  I87  1  0.16919873  0.83113825  -0.00058292  1
  I  I88  1  0.16729493  0.83541091  0.33341703  1
  I  I89  1  0.16373413  0.83731723  0.66723423  1
  I  I90  1  0.50417901  0.16698244  -0.00174090  1
  I  I91  1  0.50141144  0.16658132  0.33085818  1
  I  I92  1  0.50037725  0.16652314  0.67008073  1
  I  I93  1  0.49767256  0.50171814  -0.00347305  1
  I  I94  1  0.50395843  0.50238256  0.33553790  1
  I  I95  1  0.49746928  0.49740815  0.66870296  1
  I  I96  1  0.50357588  0.83167792  -0.00376981  1
  I  I97  1  0.50027256  0.83093445  0.33607116  1
  I  I98  1  0.50386595  0.83574740  0.66870715  1
  I  I99  1  0.83278786  0.16655240  -0.00061458  1
  I  I100  1  0.83130826  0.17181068  0.33208477  1
  I  I101  1  0.83161575  0.16230248  0.66840826  1
  I  I102  1  0.83069532  0.49194348  0.00213107  1
  I  I103  1  0.83049296  0.49069111  0.32950902  1
  I  I104  1  0.83512488  0.49845809  0.66682278  1
  I  I105  1  0.82610007  0.84022557  -0.00389253  1
  I  I106  1  0.83120491  0.83565711  0.33353461  1
  I  I107  1  0.83135652  0.83901062  0.67081977  1
  I  I108  1  -0.00079481  0.17074588  0.16185698  1
  I  I109  1  -0.00436495  0.16693188  0.50070500  1
  I  I110  1  -0.00061404  0.16632141  0.83639456  1
  I  I111  1  -0.00361144  0.49139241  0.16296655  1
  I  I112  1  -0.00015816  0.49808865  0.50107875  1
  I  I113  1  0.00210665  0.49504559  0.83753897  1
  I  I114  1  -0.00029482  0.83536291  0.16337974  1
  I  I115  1  -0.00033293  0.83497949  0.50085811  1
  I  I116  1  -0.00273087  0.83864580  0.83609766  1
  I  I117  1  0.33365069  0.16528104  0.15846345  1
  I  I118  1  0.33348017  0.16586138  0.49891407  1
  I  I119  1  0.33427352  0.16683637  0.83967591  1
  I  I120  1  0.33327302  0.49847845  0.16887827  1
  I  I121  1  0.33779324  0.50094118  0.50085409  1
  I  I122  1  0.33478766  0.49567392  0.82977942  1
  I  I123  1  0.33360659  0.83359271  0.16440446  1
  I  I124  1  0.33848216  0.83431102  0.50965708  1
  I  I125  1  0.33687871  0.83714491  0.82890984  1
  I  I126  1  0.66719422  0.17008667  0.16351642  1
  I  I127  1  0.66932007  0.16667390  0.50007568  1
  I  I128  1  0.66641611  0.16618495  0.83567557  1
  I  I129  1  0.66911676  0.49111034  0.16343491  1
  I  I130  1  0.66305498  0.50172035  0.50935570  1
  I  I131  1  0.66368749  0.49709972  0.83107852  1
  I  I132  1  0.66657428  0.83661717  0.16776987  1
  I  I133  1  0.66320721  0.83068688  0.50294235  1
  I  I134  1  0.66552519  0.83778553  0.83044451  1
