# generated using pymatgen
data_Cs27Sn14Pb13I81
_symmetry_space_group_name_H-M   'P 1'
_cell_length_a   18.96435716
_cell_length_b   18.95940430
_cell_length_c   18.95627411
_cell_angle_alpha   90.00091520
_cell_angle_beta   90.00051589
_cell_angle_gamma   89.99895505
_symmetry_Int_Tables_number   1
_chemical_formula_structural   Cs27Sn14Pb13I81
_chemical_formula_sum   'Cs27 Sn14 Pb13 I81'
_cell_volume   6815.78360432
_cell_formula_units_Z   1
loop_
 _symmetry_equiv_pos_site_id
 _symmetry_equiv_pos_as_xyz
  1  'x, y, z'
loop_
 _atom_site_type_symbol
 _atom_site_label
 _atom_site_symmetry_multiplicity
 _atom_site_fract_x
 _atom_site_fract_y
 _atom_site_fract_z
 _atom_site_occupancy
  Cs  Cs0  1  0.00084674  0.00070852  0.00061097  1
  Cs  Cs1  1  0.00114284  0.01075961  0.33354439  1
  Cs  Cs2  1  -0.00001798  -0.00205121  0.66666700  1
  Cs  Cs3  1  0.00294575  0.32982969  0.00244070  1
  Cs  Cs4  1  -0.00146835  0.33037764  0.33037367  1
  Cs  Cs5  1  0.00013601  0.33302646  0.66778117  1
  Cs  Cs6  1  -0.00041359  0.66803034  0.00130422  1
  Cs  Cs7  1  0.00138175  0.66481708  0.33400893  1
  Cs  Cs8  1  -0.00193153  0.66759694  0.66597324  1
  Cs  Cs9  1  0.33401451  0.00074028  0.00043943  1
  Cs  Cs10  1  0.33465493  -0.00155644  0.34230612  1
  Cs  Cs11  1  0.33239167  -0.00058536  0.65958115  1
  Cs  Cs12  1  0.33330701  0.33343263  -0.00116793  1
  Cs  Cs13  1  0.33503784  0.33528974  0.33139739  1
  Cs  Cs14  1  0.33217903  0.33569787  0.66976573  1
  Cs  Cs15  1  0.33264998  0.66567387  -0.00005770  1
  Cs  Cs16  1  0.33225265  0.66711956  0.33323979  1
  Cs  Cs17  1  0.33191983  0.66464415  0.66628701  1
  Cs  Cs18  1  0.66543448  -0.00250481  -0.00148287  1
  Cs  Cs19  1  0.66355591  0.00142903  0.33294822  1
  Cs  Cs20  1  0.66716652  0.00100174  0.66856570  1
  Cs  Cs21  1  0.66433832  0.33339551  -0.00009027  1
  Cs  Cs22  1  0.66719344  0.33319190  0.33418904  1
  Cs  Cs23  1  0.66650259  0.33353156  0.66609043  1
  Cs  Cs24  1  0.66753047  0.66912473  0.00032506  1
  Cs  Cs25  1  0.66609764  0.66658249  0.32989561  1
  Cs  Cs26  1  0.67030238  0.66500581  0.66880332  1
  Sn  Sn27  1  0.83343343  0.50090580  0.50059838  1
  Sn  Sn28  1  0.83275488  0.16662559  0.83345210  1
  Sn  Sn29  1  0.16681662  0.83311999  0.83398004  1
  Sn  Sn30  1  0.50024674  0.50029911  0.49929949  1
  Sn  Sn31  1  0.16740879  0.50083645  0.16727496  1
  Sn  Sn32  1  0.83343687  0.83327122  0.83285498  1
  Sn  Sn33  1  0.16651841  0.83298826  0.16643878  1
  Sn  Sn34  1  0.16631252  0.50020647  0.49922607  1
  Sn  Sn35  1  0.49944173  0.49958630  0.16724024  1
  Sn  Sn36  1  0.50052821  0.16577144  0.83395023  1
  Sn  Sn37  1  0.49966534  0.83402225  0.83318816  1
  Sn  Sn38  1  0.49971607  0.16705200  0.16613728  1
  Sn  Sn39  1  0.83351898  0.49978125  0.83319679  1
  Sn  Sn40  1  0.83330434  0.83279243  0.49997624  1
  Pb  Pb41  1  0.50259221  0.83065496  0.50267321  1
  Pb  Pb42  1  0.16395689  0.50190265  0.83384444  1
  Pb  Pb43  1  0.50172708  0.50003244  0.83371844  1
  Pb  Pb44  1  0.16424866  0.83158057  0.49970626  1
  Pb  Pb45  1  0.16722364  0.16363493  0.83320000  1
  Pb  Pb46  1  0.83036944  0.16642327  0.16388014  1
  Pb  Pb47  1  0.49786485  0.83313883  0.16504417  1
  Pb  Pb48  1  0.16665072  0.17028363  0.50005791  1
  Pb  Pb49  1  0.16964041  0.16659924  0.16664927  1
  Pb  Pb50  1  0.83340227  0.50004739  0.16695356  1
  Pb  Pb51  1  0.83598362  0.83354255  0.16719608  1
  Pb  Pb52  1  0.83321590  0.16682243  0.50229300  1
  Pb  Pb53  1  0.50007921  0.16913768  0.50066739  1
  I  I54  1  0.16553612  -0.00288516  0.16005677  1
  I  I55  1  0.16485793  -0.00043624  0.49962948  1
  I  I56  1  0.16189049  -0.00462640  0.83934290  1
  I  I57  1  0.16789072  0.33669263  0.17093737  1
  I  I58  1  0.16384197  0.33892507  0.49492559  1
  I  I59  1  0.16603760  0.33362607  0.83300679  1
  I  I60  1  0.17213435  0.66550971  0.16591634  1
  I  I61  1  0.16813814  0.66322449  0.49920232  1
  I  I62  1  0.16758369  0.67007639  0.83443897  1
  I  I63  1  0.50011431  0.00229049  0.16205246  1
  I  I64  1  0.50168557  -0.00035130  0.49743419  1
  I  I65  1  0.50535671  0.00002419  0.83958542  1
  I  I66  1  0.49513088  0.33457018  0.16392777  1
  I  I67  1  0.50246735  0.33765471  0.50121617  1
  I  I68  1  0.50537679  0.33120032  0.83387605  1
  I  I69  1  0.49806414  0.66372196  0.16881873  1
  I  I70  1  0.49823514  0.66246702  0.49556160  1
  I  I71  1  0.50153516  0.66906577  0.83320117  1
  I  I72  1  0.83414679  -0.00010539  0.16738425  1
  I  I73  1  0.83422091  -0.00297105  0.50501129  1
  I  I74  1  0.83235445  -0.00100257  0.83005859  1
  I  I75  1  0.83760606  0.33350677  0.16581318  1
  I  I76  1  0.83327932  0.33706694  0.50426201  1
  I  I77  1  0.82801788  0.33367035  0.82950827  1
  I  I78  1  0.82880897  0.66660082  0.16112441  1
  I  I79  1  0.83330775  0.66537396  0.50933566  1
  I  I80  1  0.83281076  0.66730791  0.82916374  1
  I  I81  1  0.16425866  0.17163438  -0.00014761  1
  I  I82  1  0.16777292  0.16093836  0.33305378  1
  I  I83  1  0.16903196  0.16710817  0.66702357  1
  I  I84  1  0.17056664  0.50205841  0.00276407  1
  I  I85  1  0.16631629  0.50590600  0.33298590  1
  I  I86  1  0.16914857  0.50134444  0.66421802  1
  I  I87  1  0.16487944  0.82712712  -0.00082484  1
  I  I88  1  0.16612036  0.82967499  0.33084847  1
  I  I89  1  0.16715102  0.83221825  0.66941449  1
  I  I90  1  0.50391753  0.16960410  -0.00085764  1
  I  I91  1  0.49823610  0.16970220  0.33065009  1
  I  I92  1  0.50480633  0.16408609  0.67024196  1
  I  I93  1  0.49664084  0.49893360  0.00244760  1
  I  I94  1  0.50130162  0.49498418  0.33291442  1
  I  I95  1  0.49832030  0.50056410  0.66445644  1
  I  I96  1  0.50506456  0.83174642  -0.00352068  1
  I  I97  1  0.50018166  0.83584184  0.33353886  1
  I  I98  1  0.49594484  0.83791797  0.67108012  1
  I  I99  1  0.83240373  0.16667745  -0.00465799  1
  I  I100  1  0.83315696  0.16671601  0.33333700  1
  I  I101  1  0.82619255  0.16691520  0.67078031  1
  I  I102  1  0.83231776  0.50159757  -0.00303769  1
  I  I103  1  0.83300668  0.50548230  0.33666830  1
  I  I104  1  0.83262988  0.50112798  0.66650571  1
  I  I105  1  0.83166792  0.83200947  -0.00368606  1
  I  I106  1  0.83433522  0.82511529  0.33652657  1
  I  I107  1  0.83498197  0.83171588  0.66857706  1
  I  I108  1  0.00019880  0.16766669  0.16576423  1
  I  I109  1  -0.00031624  0.16812803  0.50171614  1
  I  I110  1  -0.00305890  0.16691662  0.83146279  1
  I  I111  1  0.00296690  0.50463713  0.16854592  1
  I  I112  1  -0.00057815  0.50460175  0.50084077  1
  I  I113  1  -0.00416757  0.50024756  0.82953028  1
  I  I114  1  0.00388312  0.82483441  0.15979519  1
  I  I115  1  -0.00349505  0.82575021  0.50761704  1
  I  I116  1  -0.00095768  0.83215166  0.83323453  1
  I  I117  1  0.33733203  0.16986752  0.15816351  1
  I  I118  1  0.33367794  0.16619538  0.50294788  1
  I  I119  1  0.33691200  0.16422511  0.83740401  1
  I  I120  1  0.33353728  0.50019012  0.17325559  1
  I  I121  1  0.33336130  0.49918253  0.49578076  1
  I  I122  1  0.33326363  0.50035013  0.83036490  1
  I  I123  1  0.32997687  0.83068118  0.16037821  1
  I  I124  1  0.33324941  0.83202026  0.50181387  1
  I  I125  1  0.33346925  0.83654118  0.83857572  1
  I  I126  1  0.66241552  0.17324274  0.16524746  1
  I  I127  1  0.66661216  0.16957977  0.49794183  1
  I  I128  1  0.66668732  0.16244373  0.83686479  1
  I  I129  1  0.66372344  0.49599351  0.16890550  1
  I  I130  1  0.66720724  0.50276764  0.50086431  1
  I  I131  1  0.66980015  0.50380568  0.82991512  1
  I  I132  1  0.66640218  0.83240141  0.16498977  1
  I  I133  1  0.67052579  0.82749420  0.50592085  1
  I  I134  1  0.66738032  0.83377001  0.82963016  1
