# generated using pymatgen
data_Cs27Sn14Pb13I81
_symmetry_space_group_name_H-M   'P 1'
_cell_length_a   18.96817297
_cell_length_b   18.98212563
_cell_length_c   18.97814821
_cell_angle_alpha   89.99965396
_cell_angle_beta   90.00121556
_cell_angle_gamma   89.99947509
_symmetry_Int_Tables_number   1
_chemical_formula_structural   Cs27Sn14Pb13I81
_chemical_formula_sum   'Cs27 Sn14 Pb13 I81'
_cell_volume   6833.20073063
_cell_formula_units_Z   1
loop_
 _symmetry_equiv_pos_site_id
 _symmetry_equiv_pos_as_xyz
  1  'x, y, z'
loop_
 _atom_site_type_symbol
 _atom_site_label
 _atom_site_symmetry_multiplicity
 _atom_site_fract_x
 _atom_site_fract_y
 _atom_site_fract_z
 _atom_site_occupancy
  Cs  Cs0  1  -0.00023397  -0.00133560  -0.00074077  1
  Cs  Cs1  1  0.00300594  -0.00195569  0.33342153  1
  Cs  Cs2  1  -0.00712671  -0.00107277  0.66906288  1
  Cs  Cs3  1  -0.00023323  0.33145333  -0.00177699  1
  Cs  Cs4  1  -0.00428910  0.33337968  0.33208053  1
  Cs  Cs5  1  0.00017920  0.33058350  0.67046028  1
  Cs  Cs6  1  0.00217858  0.66615051  0.00273591  1
  Cs  Cs7  1  0.00041272  0.66735555  0.33104938  1
  Cs  Cs8  1  -0.00108279  0.66820509  0.66725318  1
  Cs  Cs9  1  0.34064558  0.00077629  0.00013306  1
  Cs  Cs10  1  0.33189938  -0.00029161  0.33403483  1
  Cs  Cs11  1  0.33330539  0.00150462  0.66270077  1
  Cs  Cs12  1  0.33209972  0.33430298  -0.00370287  1
  Cs  Cs13  1  0.33284152  0.33391737  0.33660305  1
  Cs  Cs14  1  0.33256015  0.33469577  0.66574993  1
  Cs  Cs15  1  0.33330083  0.66597825  0.00136038  1
  Cs  Cs16  1  0.33277653  0.66690491  0.33421306  1
  Cs  Cs17  1  0.33281274  0.66420342  0.66389108  1
  Cs  Cs18  1  0.65880137  0.00550128  -0.00596565  1
  Cs  Cs19  1  0.66646692  0.00493791  0.33118161  1
  Cs  Cs20  1  0.67628375  -0.00177844  0.67424602  1
  Cs  Cs21  1  0.66866360  0.32914243  0.00291209  1
  Cs  Cs22  1  0.67383685  0.33373600  0.33109478  1
  Cs  Cs23  1  0.66701262  0.33493971  0.66528419  1
  Cs  Cs24  1  0.66510543  0.66721005  -0.00261832  1
  Cs  Cs25  1  0.66727212  0.66390805  0.33410880  1
  Cs  Cs26  1  0.66898740  0.66708222  0.66856030  1
  Sn  Sn27  1  0.83268035  0.50016393  0.83358083  1
  Sn  Sn28  1  0.49961065  0.16660739  0.50010830  1
  Sn  Sn29  1  0.16707864  0.16680774  0.16732427  1
  Sn  Sn30  1  0.16749701  0.49944379  0.16755760  1
  Sn  Sn31  1  0.16630913  0.83366629  0.16638916  1
  Sn  Sn32  1  0.49937812  0.49999154  0.49953054  1
  Sn  Sn33  1  0.16720782  0.83330114  0.50035094  1
  Sn  Sn34  1  0.49981545  0.83354036  0.49996243  1
  Sn  Sn35  1  0.16682041  0.49984924  0.49918353  1
  Sn  Sn36  1  0.49917416  0.50006279  0.16713015  1
  Sn  Sn37  1  0.16698450  0.16677406  0.49904389  1
  Sn  Sn38  1  0.83290515  0.83352037  0.16663158  1
  Sn  Sn39  1  0.16743810  0.83349508  0.83321575  1
  Sn  Sn40  1  0.50087664  0.50015750  0.83325459  1
  Pb  Pb41  1  0.49768483  0.83127344  0.83051270  1
  Pb  Pb42  1  0.83538720  0.83154589  0.83629968  1
  Pb  Pb43  1  0.16709538  0.50149926  0.83321748  1
  Pb  Pb44  1  0.49961176  0.83163786  0.16877206  1
  Pb  Pb45  1  0.83604908  0.16340593  0.16671684  1
  Pb  Pb46  1  0.83329487  0.83318149  0.49775108  1
  Pb  Pb47  1  0.49742413  0.16959181  0.16903794  1
  Pb  Pb48  1  0.83375033  0.16659732  0.49982368  1
  Pb  Pb49  1  0.83388810  0.50017438  0.50177315  1
  Pb  Pb50  1  0.83368719  0.50160852  0.16478887  1
  Pb  Pb51  1  0.83335037  0.16937043  0.83358326  1
  Pb  Pb52  1  0.49960188  0.16936684  0.83014910  1
  Pb  Pb53  1  0.16697544  0.16345619  0.83296839  1
  I  I54  1  0.16075268  -0.00076651  0.17038038  1
  I  I55  1  0.17319271  -0.00055657  0.49651791  1
  I  I56  1  0.16537916  -0.00443209  0.83304350  1
  I  I57  1  0.17161783  0.33439256  0.17315755  1
  I  I58  1  0.17299968  0.33401893  0.49376629  1
  I  I59  1  0.16563859  0.33345712  0.83335775  1
  I  I60  1  0.16610778  0.66659492  0.16900818  1
  I  I61  1  0.17214350  0.66664796  0.49780188  1
  I  I62  1  0.16688160  0.66923112  0.83307915  1
  I  I63  1  0.50013104  0.00015001  0.16816473  1
  I  I64  1  0.49099648  -0.00026658  0.49800141  1
  I  I65  1  0.49910358  -0.00015678  0.83322085  1
  I  I66  1  0.49542688  0.33788270  0.16783219  1
  I  I67  1  0.49274470  0.33455226  0.50147917  1
  I  I68  1  0.50148270  0.33788266  0.83168552  1
  I  I69  1  0.49412908  0.66332105  0.16928937  1
  I  I70  1  0.49336103  0.66564312  0.49992712  1
  I  I71  1  0.50233223  0.66303163  0.83084036  1
  I  I72  1  0.84050290  -0.00427479  0.16848671  1
  I  I73  1  0.83320423  -0.00014344  0.50043720  1
  I  I74  1  0.83524143  -0.00039226  0.83299832  1
  I  I75  1  0.83394377  0.33334736  0.16500263  1
  I  I76  1  0.83411217  0.33351382  0.50053729  1
  I  I77  1  0.83144840  0.33755065  0.83376808  1
  I  I78  1  0.84183567  0.66903639  0.16688810  1
  I  I79  1  0.83380159  0.66661702  0.50029324  1
  I  I80  1  0.82904439  0.66389272  0.83261552  1
  I  I81  1  0.16452695  0.16854623  0.00319581  1
  I  I82  1  0.17044369  0.16292569  0.33412513  1
  I  I83  1  0.17096025  0.16897681  0.66277377  1
  I  I84  1  0.16932885  0.50120963  0.00285221  1
  I  I85  1  0.17349403  0.50433621  0.33345525  1
  I  I86  1  0.16959519  0.50036595  0.66357283  1
  I  I87  1  0.16082054  0.83088541  0.00135408  1
  I  I88  1  0.16623559  0.83276761  0.33355921  1
  I  I89  1  0.17180179  0.83117497  0.66507380  1
  I  I90  1  0.49920456  0.16783491  0.00017131  1
  I  I91  1  0.49683942  0.16794247  0.33717057  1
  I  I92  1  0.49089611  0.16912465  0.66193200  1
  I  I93  1  0.49827467  0.50210485  0.00054320  1
  I  I94  1  0.49402712  0.50109829  0.33435995  1
  I  I95  1  0.49905507  0.49991872  0.66509835  1
  I  I96  1  0.49850513  0.83009123  0.00005876  1
  I  I97  1  0.49362854  0.83020740  0.33693595  1
  I  I98  1  0.49333938  0.83037925  0.66229747  1
  I  I99  1  0.83608709  0.16723983  0.00035477  1
  I  I100  1  0.83104089  0.16897264  0.33312910  1
  I  I101  1  0.83633546  0.16580586  0.66661174  1
  I  I102  1  0.83012720  0.50254435  -0.00283522  1
  I  I103  1  0.83118971  0.50061983  0.33304769  1
  I  I104  1  0.82996941  0.50149106  0.66960008  1
  I  I105  1  0.84193371  0.83035679  0.00367154  1
  I  I106  1  0.84161037  0.83081329  0.33035882  1
  I  I107  1  0.83466514  0.83278488  0.66692884  1
  I  I108  1  0.00476930  0.17272767  0.17367027  1
  I  I109  1  0.00439883  0.16668820  0.49641124  1
  I  I110  1  0.00050866  0.17015524  0.83056251  1
  I  I111  1  0.00379513  0.49936899  0.16961436  1
  I  I112  1  0.00401927  0.50099966  0.49656415  1
  I  I113  1  -0.00145609  0.50278025  0.83354012  1
  I  I114  1  0.00333267  0.83040095  0.16890810  1
  I  I115  1  0.00407937  0.83289695  0.50160319  1
  I  I116  1  0.00348813  0.82996084  0.82772745  1
  I  I117  1  0.32920822  0.16025160  0.16869352  1
  I  I118  1  0.33214603  0.16709011  0.49658842  1
  I  I119  1  0.33317148  0.17007808  0.83568448  1
  I  I120  1  0.33206173  0.50308377  0.16561281  1
  I  I121  1  0.33320289  0.50059493  0.50172113  1
  I  I122  1  0.33593243  0.50145169  0.83236758  1
  I  I123  1  0.32950484  0.83398636  0.16569508  1
  I  I124  1  0.33170464  0.83199667  0.49796214  1
  I  I125  1  0.32974132  0.83010830  0.83913309  1
  I  I126  1  0.66628717  0.16712738  0.16845847  1
  I  I127  1  0.66319513  0.16875327  0.50049275  1
  I  I128  1  0.66629655  0.16335013  0.83163011  1
  I  I129  1  0.66374484  0.50283161  0.17021113  1
  I  I130  1  0.66291951  0.50002953  0.49738013  1
  I  I131  1  0.66515169  0.50160993  0.83197798  1
  I  I132  1  0.66842396  0.82786421  0.17001695  1
  I  I133  1  0.66339652  0.83079187  0.49782191  1
  I  I134  1  0.66642492  0.83320260  0.83298268  1
