# generated using pymatgen
data_Cs27Sn13Pb14I81
_symmetry_space_group_name_H-M   'P 1'
_cell_length_a   18.97479863
_cell_length_b   18.97871820
_cell_length_c   18.97377438
_cell_angle_alpha   89.99961721
_cell_angle_beta   89.99788736
_cell_angle_gamma   90.00259012
_symmetry_Int_Tables_number   1
_chemical_formula_structural   Cs27Sn13Pb14I81
_chemical_formula_sum   'Cs27 Sn13 Pb14 I81'
_cell_volume   6832.78545472
_cell_formula_units_Z   1
loop_
 _symmetry_equiv_pos_site_id
 _symmetry_equiv_pos_as_xyz
  1  'x, y, z'
loop_
 _atom_site_type_symbol
 _atom_site_label
 _atom_site_symmetry_multiplicity
 _atom_site_fract_x
 _atom_site_fract_y
 _atom_site_fract_z
 _atom_site_occupancy
  Cs  Cs0  1  0.00008222  -0.00083882  -0.00158972  1
  Cs  Cs1  1  0.00291639  0.00079345  0.33438210  1
  Cs  Cs2  1  -0.00864820  0.00065023  0.66573608  1
  Cs  Cs3  1  -0.00251616  0.33278206  0.00090936  1
  Cs  Cs4  1  0.00182203  0.33520398  0.34050915  1
  Cs  Cs5  1  -0.00156570  0.33260642  0.65519744  1
  Cs  Cs6  1  0.00712864  0.66699803  -0.00039465  1
  Cs  Cs7  1  0.00320377  0.66321615  0.33414750  1
  Cs  Cs8  1  -0.00003722  0.66638077  0.66485054  1
  Cs  Cs9  1  0.33144586  0.00248078  0.00086553  1
  Cs  Cs10  1  0.33377843  0.00025364  0.33424175  1
  Cs  Cs11  1  0.33457177  -0.00111959  0.66467295  1
  Cs  Cs12  1  0.33438093  0.33218869  -0.00116222  1
  Cs  Cs13  1  0.33494671  0.33213044  0.33373066  1
  Cs  Cs14  1  0.33213752  0.33415361  0.66752455  1
  Cs  Cs15  1  0.32533527  0.66622708  -0.00739287  1
  Cs  Cs16  1  0.33145288  0.66820252  0.33209146  1
  Cs  Cs17  1  0.33458946  0.66941170  0.67770447  1
  Cs  Cs18  1  0.66864056  0.00177759  0.00237970  1
  Cs  Cs19  1  0.66429530  -0.00237217  0.33091091  1
  Cs  Cs20  1  0.67317245  -0.00757970  0.66716157  1
  Cs  Cs21  1  0.66661379  0.33373042  0.00087112  1
  Cs  Cs22  1  0.66426921  0.33483550  0.33061289  1
  Cs  Cs23  1  0.66789379  0.33335735  0.66750949  1
  Cs  Cs24  1  0.66612685  0.66253917  0.00065741  1
  Cs  Cs25  1  0.66684461  0.66639075  0.33357501  1
  Cs  Cs26  1  0.66598815  0.67493294  0.66637854  1
  Sn  Sn27  1  0.83325821  0.49975013  0.83397197  1
  Sn  Sn28  1  0.49995197  0.16674833  0.16661100  1
  Sn  Sn29  1  0.50034168  0.16713354  0.50035920  1
  Sn  Sn30  1  0.83282188  0.50009881  0.16569311  1
  Sn  Sn31  1  0.83365134  0.16688421  0.16686063  1
  Sn  Sn32  1  0.16677450  0.16698112  0.83357819  1
  Sn  Sn33  1  0.16667481  0.16709921  0.16613462  1
  Sn  Sn34  1  0.16705612  0.83348980  0.50003931  1
  Sn  Sn35  1  0.50007350  0.50048768  0.16702512  1
  Sn  Sn36  1  0.49992664  0.49973766  0.49967463  1
  Sn  Sn37  1  0.50002148  0.83271607  0.16626638  1
  Sn  Sn38  1  0.49979057  0.16645843  0.83311336  1
  Sn  Sn39  1  0.83296008  0.83288103  0.16659166  1
  Pb  Pb40  1  0.16635442  0.83656160  0.83051453  1
  Pb  Pb41  1  0.50155480  0.49801607  0.83354864  1
  Pb  Pb42  1  0.83338051  0.83035269  0.83647018  1
  Pb  Pb43  1  0.16888054  0.16540792  0.50037192  1
  Pb  Pb44  1  0.16694509  0.49716768  0.16667353  1
  Pb  Pb45  1  0.49867691  0.83298756  0.49802814  1
  Pb  Pb46  1  0.17046902  0.50261762  0.50017027  1
  Pb  Pb47  1  0.83570742  0.83311167  0.49691261  1
  Pb  Pb48  1  0.16667615  0.83562565  0.16758007  1
  Pb  Pb49  1  0.16348234  0.49673195  0.83322029  1
  Pb  Pb50  1  0.83333226  0.16833142  0.83507562  1
  Pb  Pb51  1  0.83055198  0.50016022  0.49946931  1
  Pb  Pb52  1  0.82989144  0.16656086  0.49691204  1
  Pb  Pb53  1  0.50011274  0.83638210  0.83684159  1
  I  I54  1  0.16788947  0.00385229  0.16455405  1
  I  I55  1  0.17061907  -0.00192065  0.49730709  1
  I  I56  1  0.17075790  0.00441068  0.83946656  1
  I  I57  1  0.16796441  0.32883707  0.16432425  1
  I  I58  1  0.16551824  0.33317856  0.49970149  1
  I  I59  1  0.17251404  0.32898418  0.83836703  1
  I  I60  1  0.16692984  0.66675243  0.16866875  1
  I  I61  1  0.16689588  0.66994835  0.49568681  1
  I  I62  1  0.16648274  0.66661333  0.83255043  1
  I  I63  1  0.50258266  0.00152304  0.16711587  1
  I  I64  1  0.49732166  0.00278113  0.49712648  1
  I  I65  1  0.49687231  0.00482723  0.83319508  1
  I  I66  1  0.50241577  0.33230888  0.16742521  1
  I  I67  1  0.49957760  0.33242908  0.49339558  1
  I  I68  1  0.49741555  0.32978367  0.83851417  1
  I  I69  1  0.50854640  0.66589596  0.17364677  1
  I  I70  1  0.49954999  0.66386215  0.49328272  1
  I  I71  1  0.50108934  0.66656253  0.83246960  1
  I  I72  1  0.82934641  0.00076995  0.16799715  1
  I  I73  1  0.83142979  0.00004359  0.49919665  1
  I  I74  1  0.83353929  0.00019959  0.83440225  1
  I  I75  1  0.82930273  0.33325888  0.16227080  1
  I  I76  1  0.83692231  0.33327201  0.49814295  1
  I  I77  1  0.83195556  0.33589108  0.84173665  1
  I  I78  1  0.82486006  0.66608249  0.16390687  1
  I  I79  1  0.83138872  0.66653026  0.49822329  1
  I  I80  1  0.83118304  0.66266396  0.83899044  1
  I  I81  1  0.17230300  0.16605825  0.00140584  1
  I  I82  1  0.16747708  0.16478006  0.33053450  1
  I  I83  1  0.17263078  0.16560592  0.66938138  1
  I  I84  1  0.17114109  0.50262680  0.00014971  1
  I  I85  1  0.16225931  0.49740128  0.33324131  1
  I  I86  1  0.16586315  0.49753663  0.66666344  1
  I  I87  1  0.16680946  0.83306405  -0.00004069  1
  I  I88  1  0.16742128  0.83733875  0.33504423  1
  I  I89  1  0.16986677  0.83442655  0.66313261  1
  I  I90  1  0.49938753  0.16664594  0.00189759  1
  I  I91  1  0.50002179  0.16721722  0.33139982  1
  I  I92  1  0.49307886  0.17298261  0.66664616  1
  I  I93  1  0.50327413  0.49802898  0.00346976  1
  I  I94  1  0.50530994  0.49439625  0.33128921  1
  I  I95  1  0.50080195  0.49389087  0.66422838  1
  I  I96  1  0.50331404  0.83309456  0.00520763  1
  I  I97  1  0.50287371  0.83851317  0.32958769  1
  I  I98  1  0.49809158  0.83321667  0.66670931  1
  I  I99  1  0.82868578  0.16526291  0.00401096  1
  I  I100  1  0.83465583  0.16963935  0.32811078  1
  I  I101  1  0.83418078  0.16886254  0.66664488  1
  I  I102  1  0.82643009  0.49864488  0.00271874  1
  I  I103  1  0.83094213  0.49943792  0.32937387  1
  I  I104  1  0.83286264  0.49728089  0.66911196  1
  I  I105  1  0.82965123  0.83783530  0.00480790  1
  I  I106  1  0.82825712  0.83205121  0.32856486  1
  I  I107  1  0.83430280  0.83253554  0.66670795  1
  I  I108  1  -0.00025306  0.16542822  0.16097872  1
  I  I109  1  -0.00000304  0.16533240  0.49964196  1
  I  I110  1  0.00242648  0.16726929  0.83995325  1
  I  I111  1  -0.00336065  0.50050810  0.16253524  1
  I  I112  1  0.00000923  0.50058360  0.49930371  1
  I  I113  1  -0.00411812  0.49930116  0.84274559  1
  I  I114  1  -0.00291050  0.83383782  0.16840812  1
  I  I115  1  0.00317314  0.83588033  0.49759083  1
  I  I116  1  -0.00014041  0.83594798  0.83564585  1
  I  I117  1  0.33502278  0.16595907  0.16651739  1
  I  I118  1  0.33692568  0.16893762  0.49388100  1
  I  I119  1  0.33440273  0.16729973  0.83978530  1
  I  I120  1  0.33698633  0.49921872  0.17127173  1
  I  I121  1  0.33819238  0.49408045  0.49189349  1
  I  I122  1  0.33345526  0.50074488  0.83358016  1
  I  I123  1  0.33618034  0.83519864  0.16969510  1
  I  I124  1  0.33133667  0.83542119  0.49482149  1
  I  I125  1  0.33339579  0.83033709  0.83595833  1
  I  I126  1  0.66555359  0.16657163  0.16672610  1
  I  I127  1  0.66173934  0.16977238  0.49983607  1
  I  I128  1  0.66379540  0.16897030  0.83559098  1
  I  I129  1  0.66607587  0.49578977  0.16669909  1
  I  I130  1  0.66269894  0.49546395  0.49624270  1
  I  I131  1  0.66919784  0.49571849  0.83748134  1
  I  I132  1  0.66614048  0.83850993  0.16770020  1
  I  I133  1  0.66649551  0.83377330  0.50057567  1
  I  I134  1  0.66662967  0.83661308  0.82948720  1
