# generated using pymatgen
data_Cs27Sn14Pb13I81
_symmetry_space_group_name_H-M   'P 1'
_cell_length_a   18.96396216
_cell_length_b   18.98242838
_cell_length_c   18.98238366
_cell_angle_alpha   90.00086517
_cell_angle_beta   89.99962384
_cell_angle_gamma   89.99960273
_symmetry_Int_Tables_number   1
_chemical_formula_structural   Cs27Sn14Pb13I81
_chemical_formula_sum   'Cs27 Sn14 Pb13 I81'
_cell_volume   6833.31744777
_cell_formula_units_Z   1
loop_
 _symmetry_equiv_pos_site_id
 _symmetry_equiv_pos_as_xyz
  1  'x, y, z'
loop_
 _atom_site_type_symbol
 _atom_site_label
 _atom_site_symmetry_multiplicity
 _atom_site_fract_x
 _atom_site_fract_y
 _atom_site_fract_z
 _atom_site_occupancy
  Cs  Cs0  1  0.00158307  0.00005757  -0.00135732  1
  Cs  Cs1  1  -0.00036042  0.00221835  0.33230502  1
  Cs  Cs2  1  0.00246027  -0.00336696  0.66969304  1
  Cs  Cs3  1  0.00015779  0.33123808  0.00135395  1
  Cs  Cs4  1  -0.00340993  0.33455461  0.33450012  1
  Cs  Cs5  1  0.00092108  0.33615771  0.66495601  1
  Cs  Cs6  1  -0.00567288  0.66875747  -0.00327855  1
  Cs  Cs7  1  -0.00175972  0.66252957  0.33709969  1
  Cs  Cs8  1  -0.00791104  0.66725265  0.66661008  1
  Cs  Cs9  1  0.33178911  0.00142742  -0.00047761  1
  Cs  Cs10  1  0.33312187  -0.00154310  0.33348603  1
  Cs  Cs11  1  0.33273112  0.00064361  0.66727347  1
  Cs  Cs12  1  0.33421886  0.33315959  0.00026531  1
  Cs  Cs13  1  0.33175829  0.33522430  0.33080696  1
  Cs  Cs14  1  0.33402986  0.33390019  0.66761189  1
  Cs  Cs15  1  0.33398486  0.66509216  0.00080786  1
  Cs  Cs16  1  0.33305150  0.66568306  0.33198558  1
  Cs  Cs17  1  0.33261327  0.66298025  0.66839735  1
  Cs  Cs18  1  0.66557013  0.00029403  0.00324490  1
  Cs  Cs19  1  0.67343450  -0.00752166  0.34182929  1
  Cs  Cs20  1  0.66509207  0.00138308  0.65760653  1
  Cs  Cs21  1  0.66422510  0.33426568  -0.00170797  1
  Cs  Cs22  1  0.67314766  0.32993850  0.33375980  1
  Cs  Cs23  1  0.66458754  0.33159548  0.66771728  1
  Cs  Cs24  1  0.67078028  0.66705876  0.00140326  1
  Cs  Cs25  1  0.67058264  0.67811800  0.33198044  1
  Cs  Cs26  1  0.67318187  0.66747129  0.66734215  1
  Sn  Sn27  1  0.49909790  0.50035442  0.83344197  1
  Sn  Sn28  1  0.16759459  0.83359965  0.49944045  1
  Sn  Sn29  1  0.16676091  0.16770746  0.83323080  1
  Sn  Sn30  1  0.49994258  0.16632812  0.83402084  1
  Sn  Sn31  1  0.49977685  0.49924378  0.16710491  1
  Sn  Sn32  1  0.49961480  0.83336657  0.83341239  1
  Sn  Sn33  1  0.16717699  0.83294293  0.16732344  1
  Sn  Sn34  1  0.16705875  0.50013863  0.16545172  1
  Sn  Sn35  1  0.16743098  0.16606450  0.49985422  1
  Sn  Sn36  1  0.50000528  0.49987355  0.49918872  1
  Sn  Sn37  1  0.49953245  0.16692827  0.16686101  1
  Sn  Sn38  1  0.16770721  0.16693207  0.16692535  1
  Sn  Sn39  1  0.83312317  0.16673452  0.83348808  1
  Sn  Sn40  1  0.16716139  0.49942227  0.83428554  1
  Pb  Pb41  1  0.82955274  0.83676100  0.83349581  1
  Pb  Pb42  1  0.82915464  0.49970038  0.49994483  1
  Pb  Pb43  1  0.83284748  0.49975059  0.16646281  1
  Pb  Pb44  1  0.83674801  0.16685410  0.50288482  1
  Pb  Pb45  1  0.16804438  0.83268368  0.83348648  1
  Pb  Pb46  1  0.16782883  0.49998686  0.50010569  1
  Pb  Pb47  1  0.49744849  0.83073574  0.50240024  1
  Pb  Pb48  1  0.83330850  0.49767395  0.83353395  1
  Pb  Pb49  1  0.83272605  0.16665854  0.16472182  1
  Pb  Pb50  1  0.83699104  0.83351748  0.50021359  1
  Pb  Pb51  1  0.49793167  0.16825086  0.49901908  1
  Pb  Pb52  1  0.83707342  0.83364901  0.16633213  1
  Pb  Pb53  1  0.49816155  0.83370228  0.16504485  1
  I  I54  1  0.17021729  0.00151143  0.16621613  1
  I  I55  1  0.16756394  0.00100725  0.49815119  1
  I  I56  1  0.16778376  0.00304506  0.83509887  1
  I  I57  1  0.17056687  0.33292936  0.16538067  1
  I  I58  1  0.16835398  0.33077948  0.49964887  1
  I  I59  1  0.17065408  0.33235187  0.83503067  1
  I  I60  1  0.17213556  0.66551389  0.16684737  1
  I  I61  1  0.16984374  0.66865547  0.49671531  1
  I  I62  1  0.17312434  0.66364427  0.83589265  1
  I  I63  1  0.49397013  0.00323220  0.15895673  1
  I  I64  1  0.50060251  -0.00000992  0.50134980  1
  I  I65  1  0.49818762  0.00196407  0.83832433  1
  I  I66  1  0.49108094  0.33332715  0.16056264  1
  I  I67  1  0.49526897  0.33601799  0.50572431  1
  I  I68  1  0.49933830  0.33313042  0.83357803  1
  I  I69  1  0.49464411  0.66356906  0.16493720  1
  I  I70  1  0.49519839  0.66293383  0.49963420  1
  I  I71  1  0.49248377  0.66491991  0.83320147  1
  I  I72  1  0.83269317  0.00031197  0.16452636  1
  I  I73  1  0.82880940  0.00027833  0.50091747  1
  I  I74  1  0.83839412  0.00437835  0.83451037  1
  I  I75  1  0.83832916  0.33316369  0.16656235  1
  I  I76  1  0.83767334  0.33307423  0.50003316  1
  I  I77  1  0.83025748  0.33004049  0.83386371  1
  I  I78  1  0.83199132  0.66664767  0.16574640  1
  I  I79  1  0.83642122  0.66669294  0.50171024  1
  I  I80  1  0.83451139  0.66675644  0.83232332  1
  I  I81  1  0.16697419  0.16664824  -0.00030681  1
  I  I82  1  0.17212549  0.16615177  0.33198559  1
  I  I83  1  0.16706783  0.16638222  0.66819492  1
  I  I84  1  0.17416571  0.49682837  -0.00009612  1
  I  I85  1  0.17140565  0.49792601  0.33041759  1
  I  I86  1  0.17194381  0.49610340  0.66955786  1
  I  I87  1  0.16899224  0.83605807  0.00246458  1
  I  I88  1  0.16831590  0.83693090  0.33259715  1
  I  I89  1  0.16937521  0.83771751  0.66489182  1
  I  I90  1  0.49544883  0.17063666  -0.00115369  1
  I  I91  1  0.49290817  0.17274799  0.32989298  1
  I  I92  1  0.49885386  0.16780098  0.66987536  1
  I  I93  1  0.49535192  0.49838350  -0.00052821  1
  I  I94  1  0.49253976  0.49427498  0.33167621  1
  I  I95  1  0.49453271  0.49914713  0.66870289  1
  I  I96  1  0.49579878  0.83059564  -0.00286017  1
  I  I97  1  0.50067058  0.83275426  0.33331657  1
  I  I98  1  0.49624599  0.83567381  0.67028656  1
  I  I99  1  0.83805669  0.16744065  -0.00318364  1
  I  I100  1  0.83309517  0.16653717  0.33344732  1
  I  I101  1  0.83045255  0.16740601  0.67089016  1
  I  I102  1  0.83060972  0.50003743  -0.00014720  1
  I  I103  1  0.83678353  0.49837975  0.33321396  1
  I  I104  1  0.83593728  0.49953227  0.66697690  1
  I  I105  1  0.83658180  0.83275910  -0.00041234  1
  I  I106  1  0.82827678  0.83447849  0.33339120  1
  I  I107  1  0.83628705  0.83304016  0.66701038  1
  I  I108  1  0.00396988  0.16686963  0.16576535  1
  I  I109  1  0.00530863  0.16423587  0.49834359  1
  I  I110  1  0.00232209  0.17101101  0.83340033  1
  I  I111  1  0.00427898  0.49910175  0.16226214  1
  I  I112  1  0.00027308  0.50091102  0.50069597  1
  I  I113  1  0.00364378  0.49592091  0.83744245  1
  I  I114  1  0.00581604  0.83441466  0.16858563  1
  I  I115  1  0.00511041  0.83635679  0.49778846  1
  I  I116  1  0.00010803  0.83311774  0.83274811  1
  I  I117  1  0.33218918  0.16772542  0.16117460  1
  I  I118  1  0.32966015  0.16343683  0.50533419  1
  I  I119  1  0.33315049  0.16764175  0.83390396  1
  I  I120  1  0.33294391  0.49870817  0.16487388  1
  I  I121  1  0.33563208  0.49954121  0.50187153  1
  I  I122  1  0.33388526  0.49519519  0.83391322  1
  I  I123  1  0.32978644  0.83382737  0.16950086  1
  I  I124  1  0.32976397  0.83844966  0.49611652  1
  I  I125  1  0.33578702  0.83736294  0.83328288  1
  I  I126  1  0.66265595  0.17370068  0.15976077  1
  I  I127  1  0.66644374  0.16894631  0.50062488  1
  I  I128  1  0.66456158  0.16781018  0.83873468  1
  I  I129  1  0.66214863  0.49382950  0.16418144  1
  I  I130  1  0.66105399  0.49793064  0.50310377  1
  I  I131  1  0.66264526  0.49924037  0.83371036  1
  I  I132  1  0.66629523  0.83296463  0.16472213  1
  I  I133  1  0.66637975  0.83184989  0.50135833  1
  I  I134  1  0.66158101  0.82952960  0.83436426  1
