# generated using pymatgen
data_Cs27Sn14Pb13I81
_symmetry_space_group_name_H-M   'P 1'
_cell_length_a   18.97137870
_cell_length_b   18.97520621
_cell_length_c   18.98305507
_cell_angle_alpha   89.99930508
_cell_angle_beta   90.00031448
_cell_angle_gamma   89.99883880
_symmetry_Int_Tables_number   1
_chemical_formula_structural   Cs27Sn14Pb13I81
_chemical_formula_sum   'Cs27 Sn14 Pb13 I81'
_cell_volume   6833.63070048
_cell_formula_units_Z   1
loop_
 _symmetry_equiv_pos_site_id
 _symmetry_equiv_pos_as_xyz
  1  'x, y, z'
loop_
 _atom_site_type_symbol
 _atom_site_label
 _atom_site_symmetry_multiplicity
 _atom_site_fract_x
 _atom_site_fract_y
 _atom_site_fract_z
 _atom_site_occupancy
  Cs  Cs0  1  -0.00378880  0.00347256  -0.00040960  1
  Cs  Cs1  1  0.00159021  0.00148326  0.33440935  1
  Cs  Cs2  1  0.00032335  -0.00289255  0.66438664  1
  Cs  Cs3  1  -0.00221938  0.33171838  -0.00014374  1
  Cs  Cs4  1  0.00049172  0.33338948  0.33438195  1
  Cs  Cs5  1  0.00164716  0.33250122  0.66662465  1
  Cs  Cs6  1  0.00763971  0.66735037  0.00017443  1
  Cs  Cs7  1  0.00494373  0.66774565  0.33816059  1
  Cs  Cs8  1  0.00587732  0.67559372  0.65953475  1
  Cs  Cs9  1  0.33610621  -0.00499029  0.00307604  1
  Cs  Cs10  1  0.33343332  -0.00208089  0.33231060  1
  Cs  Cs11  1  0.33351968  0.00107298  0.66474681  1
  Cs  Cs12  1  0.33343237  0.33360382  -0.00193553  1
  Cs  Cs13  1  0.33455639  0.33293303  0.33502743  1
  Cs  Cs14  1  0.33492402  0.33225008  0.66742194  1
  Cs  Cs15  1  0.32435049  0.67297639  0.00063935  1
  Cs  Cs16  1  0.32772934  0.66799043  0.32948500  1
  Cs  Cs17  1  0.33127550  0.66781402  0.67169784  1
  Cs  Cs18  1  0.66674444  -0.00112226  0.00093914  1
  Cs  Cs19  1  0.66520889  0.00151937  0.33083220  1
  Cs  Cs20  1  0.66666346  -0.00043661  0.66794205  1
  Cs  Cs21  1  0.66814395  0.33337054  0.00005177  1
  Cs  Cs22  1  0.66618818  0.33436544  0.33234558  1
  Cs  Cs23  1  0.66546784  0.33342399  0.66795912  1
  Cs  Cs24  1  0.66651305  0.66440961  -0.00120851  1
  Cs  Cs25  1  0.66834463  0.66253299  0.33608713  1
  Cs  Cs26  1  0.66712191  0.66773257  0.66470929  1
  Sn  Sn27  1  0.50086478  0.49937425  0.83394358  1
  Sn  Sn28  1  0.83290972  0.83257237  0.16647986  1
  Sn  Sn29  1  0.83312904  0.16745383  0.83301429  1
  Sn  Sn30  1  0.83387779  0.16694154  0.16675582  1
  Sn  Sn31  1  0.83220862  0.16702082  0.50020414  1
  Sn  Sn32  1  0.50118060  0.16665839  0.50059651  1
  Sn  Sn33  1  0.50034265  0.50000080  0.16592363  1
  Sn  Sn34  1  0.83281005  0.50037994  0.16590719  1
  Sn  Sn35  1  0.50052622  0.83322367  0.49989800  1
  Sn  Sn36  1  0.50009366  0.16718854  0.83301090  1
  Sn  Sn37  1  0.16686465  0.16700113  0.83445466  1
  Sn  Sn38  1  0.50024500  0.50019969  0.50030126  1
  Sn  Sn39  1  0.83318506  0.49973488  0.83347421  1
  Sn  Sn40  1  0.16619126  0.16731922  0.16575134  1
  Pb  Pb41  1  0.16584065  0.49741310  0.16652906  1
  Pb  Pb42  1  0.16698077  0.16687788  0.50012360  1
  Pb  Pb43  1  0.16592658  0.49795231  0.83328974  1
  Pb  Pb44  1  0.50024738  0.16817083  0.16631254  1
  Pb  Pb45  1  0.16645982  0.83703849  0.83345238  1
  Pb  Pb46  1  0.83127643  0.83605602  0.49761633  1
  Pb  Pb47  1  0.16982443  0.83367251  0.49985342  1
  Pb  Pb48  1  0.83317912  0.83246682  0.83528768  1
  Pb  Pb49  1  0.16992182  0.49964054  0.50025239  1
  Pb  Pb50  1  0.50039095  0.83289160  0.83171061  1
  Pb  Pb51  1  0.16349721  0.83662619  0.16664149  1
  Pb  Pb52  1  0.50233961  0.82976906  0.16868668  1
  Pb  Pb53  1  0.83204262  0.49814857  0.50068621  1
  I  I54  1  0.16285867  0.00461617  0.16280514  1
  I  I55  1  0.16894660  0.00067547  0.50006581  1
  I  I56  1  0.16653253  0.00566379  0.83696837  1
  I  I57  1  0.16067818  0.32960648  0.16304252  1
  I  I58  1  0.16894763  0.33266337  0.49881029  1
  I  I59  1  0.16714034  0.32949203  0.83714798  1
  I  I60  1  0.16724809  0.66669467  0.16785679  1
  I  I61  1  0.16578758  0.66679449  0.49923171  1
  I  I62  1  0.16781540  0.66654839  0.83270187  1
  I  I63  1  0.50001934  0.00007081  0.16746860  1
  I  I64  1  0.50370068  0.00181023  0.50484372  1
  I  I65  1  0.50041659  0.00371948  0.82889971  1
  I  I66  1  0.50487813  0.33614058  0.17102456  1
  I  I67  1  0.50358612  0.33278229  0.50086524  1
  I  I68  1  0.50057351  0.33256157  0.82857377  1
  I  I69  1  0.50594183  0.66151711  0.16618653  1
  I  I70  1  0.50042135  0.66553865  0.49930178  1
  I  I71  1  0.50618315  0.66273063  0.83170501  1
  I  I72  1  0.83811532  0.00203044  0.16725624  1
  I  I73  1  0.82780185  0.00458847  0.50105628  1
  I  I74  1  0.83284230  0.00386061  0.83409736  1
  I  I75  1  0.83299986  0.33268508  0.16582458  1
  I  I76  1  0.82766560  0.32960413  0.49558798  1
  I  I77  1  0.83164854  0.33185900  0.83820038  1
  I  I78  1  0.82527815  0.66508937  0.16202704  1
  I  I79  1  0.83096429  0.66658354  0.49948785  1
  I  I80  1  0.82500357  0.66261021  0.83859919  1
  I  I81  1  0.16258988  0.16791462  -0.00037613  1
  I  I82  1  0.16272778  0.16654911  0.33064506  1
  I  I83  1  0.16500590  0.16761163  0.66975034  1
  I  I84  1  0.17313725  0.50087472  -0.00001798  1
  I  I85  1  0.16694886  0.49653901  0.33312418  1
  I  I86  1  0.16596098  0.49607619  0.66691640  1
  I  I87  1  0.16928591  0.83117184  0.00035140  1
  I  I88  1  0.16713301  0.83660968  0.33304591  1
  I  I89  1  0.16544120  0.83499104  0.66655731  1
  I  I90  1  0.50182262  0.17142418  -0.00295410  1
  I  I91  1  0.50278274  0.16799539  0.33584902  1
  I  I92  1  0.50215475  0.17050119  0.66685712  1
  I  I93  1  0.50542279  0.49230359  -0.00072998  1
  I  I94  1  0.50474969  0.49842010  0.33328576  1
  I  I95  1  0.50389054  0.49788087  0.66718082  1
  I  I96  1  0.50005321  0.83505628  0.00030889  1
  I  I97  1  0.50179648  0.83753522  0.33652378  1
  I  I98  1  0.50127564  0.83091720  0.66356625  1
  I  I99  1  0.83413791  0.16670923  -0.00001584  1
  I  I100  1  0.83315789  0.16653582  0.33258055  1
  I  I101  1  0.83253831  0.17140372  0.66764738  1
  I  I102  1  0.82375043  0.49342408  0.00036122  1
  I  I103  1  0.82831643  0.49755490  0.33051038  1
  I  I104  1  0.82778894  0.49268648  0.66990090  1
  I  I105  1  0.83166556  0.84011877  0.00321968  1
  I  I106  1  0.83119070  0.83333521  0.32980363  1
  I  I107  1  0.83288025  0.83394596  0.66632794  1
  I  I108  1  -0.00216703  0.16798967  0.16402168  1
  I  I109  1  -0.00317509  0.16658214  0.50133780  1
  I  I110  1  -0.00150473  0.17045139  0.83466807  1
  I  I111  1  -0.00413845  0.50055209  0.16068803  1
  I  I112  1  -0.00035294  0.49765448  0.49904007  1
  I  I113  1  -0.00391472  0.49366759  0.84148337  1
  I  I114  1  -0.00435599  0.82848756  0.16697737  1
  I  I115  1  -0.00033849  0.83513674  0.49945129  1
  I  I116  1  -0.00024857  0.83266543  0.83302376  1
  I  I117  1  0.33151846  0.16946020  0.16430457  1
  I  I118  1  0.33711698  0.16741883  0.50277590  1
  I  I119  1  0.33459865  0.17114445  0.83206136  1
  I  I120  1  0.33634716  0.49710928  0.16818313  1
  I  I121  1  0.33932800  0.49472791  0.49967790  1
  I  I122  1  0.33678101  0.49498590  0.83181078  1
  I  I123  1  0.33338189  0.83375631  0.16847453  1
  I  I124  1  0.33809932  0.83736511  0.49892626  1
  I  I125  1  0.33355452  0.83296265  0.83304676  1
  I  I126  1  0.66985546  0.16529463  0.16558671  1
  I  I127  1  0.66584853  0.16702953  0.50194265  1
  I  I128  1  0.66692152  0.17008133  0.83243226  1
  I  I129  1  0.66732860  0.49629222  0.16686789  1
  I  I130  1  0.66322950  0.50041829  0.49912884  1
  I  I131  1  0.66612241  0.49131795  0.83460424  1
  I  I132  1  0.66985725  0.84181459  0.16667719  1
  I  I133  1  0.66339440  0.83164661  0.49996692  1
  I  I134  1  0.66672629  0.83984374  0.83358071  1
