# generated using pymatgen
data_Cs27Sn13Pb14I81
_symmetry_space_group_name_H-M   'P 1'
_cell_length_a   18.97301247
_cell_length_b   18.97779928
_cell_length_c   18.97873322
_cell_angle_alpha   90.00159440
_cell_angle_beta   90.00060543
_cell_angle_gamma   89.99840787
_symmetry_Int_Tables_number   1
_chemical_formula_structural   Cs27Sn13Pb14I81
_chemical_formula_sum   'Cs27 Sn13 Pb14 I81'
_cell_volume   6833.59697686
_cell_formula_units_Z   1
loop_
 _symmetry_equiv_pos_site_id
 _symmetry_equiv_pos_as_xyz
  1  'x, y, z'
loop_
 _atom_site_type_symbol
 _atom_site_label
 _atom_site_symmetry_multiplicity
 _atom_site_fract_x
 _atom_site_fract_y
 _atom_site_fract_z
 _atom_site_occupancy
  Cs  Cs0  1  -0.00147695  0.00118085  0.00034376  1
  Cs  Cs1  1  -0.00070308  -0.00407762  0.33657143  1
  Cs  Cs2  1  -0.00009731  0.00012883  0.66367372  1
  Cs  Cs3  1  -0.00246596  0.33277331  0.00029471  1
  Cs  Cs4  1  -0.00073728  0.33123287  0.33299532  1
  Cs  Cs5  1  -0.00183986  0.33237429  0.66660206  1
  Cs  Cs6  1  0.00870009  0.66675018  -0.00076567  1
  Cs  Cs7  1  0.00373192  0.67648643  0.33238080  1
  Cs  Cs8  1  0.00558032  0.66932331  0.66993406  1
  Cs  Cs9  1  0.33540286  0.00033408  -0.00324535  1
  Cs  Cs10  1  0.33696800  0.00209816  0.33429463  1
  Cs  Cs11  1  0.33268308  -0.00181765  0.66931921  1
  Cs  Cs12  1  0.33300654  0.33086774  0.00180150  1
  Cs  Cs13  1  0.33295236  0.33452652  0.33467298  1
  Cs  Cs14  1  0.33544184  0.34044939  0.66179100  1
  Cs  Cs15  1  0.32300696  0.66966347  -0.00451942  1
  Cs  Cs16  1  0.33164624  0.66177684  0.33334581  1
  Cs  Cs17  1  0.32816740  0.65947700  0.67324761  1
  Cs  Cs18  1  0.66580684  0.00112990  0.00015655  1
  Cs  Cs19  1  0.66658614  -0.00095186  0.33310439  1
  Cs  Cs20  1  0.66664998  0.00030088  0.66680322  1
  Cs  Cs21  1  0.66818968  0.33204173  0.00106709  1
  Cs  Cs22  1  0.66668199  0.33283003  0.33253228  1
  Cs  Cs23  1  0.66732615  0.33577281  0.66658882  1
  Cs  Cs24  1  0.66723665  0.66480086  -0.00024231  1
  Cs  Cs25  1  0.66643978  0.66834472  0.33384289  1
  Cs  Cs26  1  0.66559591  0.66105643  0.66778398  1
  Sn  Sn27  1  0.83352014  0.16687013  0.16703829  1
  Sn  Sn28  1  0.16641577  0.16647319  0.16620625  1
  Sn  Sn29  1  0.83355808  0.49978081  0.49850300  1
  Sn  Sn30  1  0.83282479  0.49979907  0.16800134  1
  Sn  Sn31  1  0.50007860  0.83354120  0.49988677  1
  Sn  Sn32  1  0.50002469  0.16667571  0.16748359  1
  Sn  Sn33  1  0.16604944  0.16690616  0.83365110  1
  Sn  Sn34  1  0.50021097  0.83301061  0.16717659  1
  Sn  Sn35  1  0.83265716  0.83390381  0.83360125  1
  Sn  Sn36  1  0.50101754  0.16586510  0.49934958  1
  Sn  Sn37  1  0.50068413  0.50018448  0.16639819  1
  Sn  Sn38  1  0.83388525  0.16558040  0.83331598  1
  Sn  Sn39  1  0.83226333  0.16718069  0.49962908  1
  Pb  Pb40  1  0.17075154  0.83352808  0.49999926  1
  Pb  Pb41  1  0.50006819  0.49996533  0.83700755  1
  Pb  Pb42  1  0.16600207  0.49759741  0.16693604  1
  Pb  Pb43  1  0.83146406  0.83305215  0.50197890  1
  Pb  Pb44  1  0.50012537  0.16697853  0.83275743  1
  Pb  Pb45  1  0.16389707  0.83643864  0.83337124  1
  Pb  Pb46  1  0.16632290  0.49611674  0.83346828  1
  Pb  Pb47  1  0.83342189  0.49966151  0.83385323  1
  Pb  Pb48  1  0.83164868  0.83299414  0.16498392  1
  Pb  Pb49  1  0.17009208  0.83666147  0.16699513  1
  Pb  Pb50  1  0.16688251  0.16664321  0.50003307  1
  Pb  Pb51  1  0.50192081  0.83335519  0.83308674  1
  Pb  Pb52  1  0.16265701  0.49978392  0.49943970  1
  Pb  Pb53  1  0.50180276  0.49998640  0.49794386  1
  I  I54  1  0.16442599  0.00494085  0.16286892  1
  I  I55  1  0.16148047  0.00055115  0.49964892  1
  I  I56  1  0.16533258  0.00418179  0.83824027  1
  I  I57  1  0.17053608  0.32912011  0.16265880  1
  I  I58  1  0.17232296  0.33277780  0.50093804  1
  I  I59  1  0.15891485  0.32833155  0.83837671  1
  I  I60  1  0.16623995  0.66679882  0.16619257  1
  I  I61  1  0.16618188  0.66662649  0.50007426  1
  I  I62  1  0.16551408  0.66679149  0.83316223  1
  I  I63  1  0.50032974  0.00160192  0.17017421  1
  I  I64  1  0.50609369  0.00172485  0.49128535  1
  I  I65  1  0.49923402  0.00041597  0.83793456  1
  I  I66  1  0.50079102  0.33176490  0.16954518  1
  I  I67  1  0.50146368  0.33024688  0.49679699  1
  I  I68  1  0.50195578  0.33294671  0.83242588  1
  I  I69  1  0.50797704  0.66649385  0.17103077  1
  I  I70  1  0.50317670  0.66899195  0.49470898  1
  I  I71  1  0.50451455  0.66675995  0.83178995  1
  I  I72  1  0.83248742  0.00353010  0.16813228  1
  I  I73  1  0.83172954  0.00336537  0.49773653  1
  I  I74  1  0.83605301  0.00267175  0.83394703  1
  I  I75  1  0.82912345  0.33141475  0.16493211  1
  I  I76  1  0.82775632  0.33111559  0.50153324  1
  I  I77  1  0.83694510  0.32964451  0.83379732  1
  I  I78  1  0.82691302  0.66366719  0.16928185  1
  I  I79  1  0.83048276  0.66400381  0.49659822  1
  I  I80  1  0.82958998  0.66905927  0.83310813  1
  I  I81  1  0.16363465  0.16691423  0.00097685  1
  I  I82  1  0.16535815  0.16764886  0.33020653  1
  I  I83  1  0.16181196  0.16552754  0.66940658  1
  I  I84  1  0.16532136  0.50127147  0.00034222  1
  I  I85  1  0.16970806  0.49597294  0.33291448  1
  I  I86  1  0.16664011  0.49803791  0.66657509  1
  I  I87  1  0.16908302  0.83205199  0.00017608  1
  I  I88  1  0.16108972  0.83619850  0.33317273  1
  I  I89  1  0.16776293  0.83633613  0.66692279  1
  I  I90  1  0.50236236  0.16623749  0.00351088  1
  I  I91  1  0.50256849  0.16587417  0.33200138  1
  I  I92  1  0.50345567  0.16132313  0.66318400  1
  I  I93  1  0.50857028  0.49711913  0.00559787  1
  I  I94  1  0.50244916  0.49836536  0.32976647  1
  I  I95  1  0.50166770  0.49939548  0.66614659  1
  I  I96  1  0.50223473  0.83584563  0.00331158  1
  I  I97  1  0.50259843  0.83657524  0.33244449  1
  I  I98  1  0.50295821  0.84156601  0.66340056  1
  I  I99  1  0.83313890  0.16694895  0.00110018  1
  I  I100  1  0.83238100  0.17136383  0.33274546  1
  I  I101  1  0.83341806  0.16680786  0.66623708  1
  I  I102  1  0.82831873  0.49509375  0.00356548  1
  I  I103  1  0.82834389  0.48998625  0.33234930  1
  I  I104  1  0.83219342  0.49543927  0.66397140  1
  I  I105  1  0.82974018  0.83947039  -0.00258587  1
  I  I106  1  0.83387871  0.83547552  0.33333630  1
  I  I107  1  0.83068361  0.83927000  0.66951170  1
  I  I108  1  -0.00154553  0.17218871  0.16524427  1
  I  I109  1  -0.00352784  0.17083007  0.49816524  1
  I  I110  1  -0.00173056  0.16342421  0.83719545  1
  I  I111  1  -0.00380960  0.49378582  0.16878401  1
  I  I112  1  -0.00563698  0.49107403  0.49451860  1
  I  I113  1  -0.00055049  0.50258298  0.83534660  1
  I  I114  1  -0.00001807  0.83275111  0.16450594  1
  I  I115  1  -0.00033694  0.83346402  0.50171410  1
  I  I116  1  -0.00406716  0.83501478  0.83362103  1
  I  I117  1  0.33470552  0.16648139  0.16593280  1
  I  I118  1  0.33681096  0.16241531  0.49642519  1
  I  I119  1  0.33085044  0.16662486  0.83855842  1
  I  I120  1  0.33646610  0.49828597  0.16668186  1
  I  I121  1  0.33371082  0.49891151  0.49934472  1
  I  I122  1  0.33318217  0.49943428  0.83340301  1
  I  I123  1  0.33843201  0.83273603  0.16971695  1
  I  I124  1  0.33897332  0.84265181  0.49517453  1
  I  I125  1  0.33319654  0.83457650  0.83365459  1
  I  I126  1  0.66678969  0.16716862  0.16641890  1
  I  I127  1  0.66731056  0.16644143  0.49714796  1
  I  I128  1  0.67006784  0.16371320  0.83613617  1
  I  I129  1  0.66718232  0.49416598  0.16955653  1
  I  I130  1  0.66984045  0.49706847  0.49855077  1
  I  I131  1  0.66714660  0.49737095  0.83161059  1
  I  I132  1  0.66352368  0.83885389  0.16919460  1
  I  I133  1  0.66367214  0.83670858  0.49550240  1
  I  I134  1  0.66969781  0.84221147  0.83421677  1
