# generated using pymatgen
data_Cs27Sn13Pb14I81
_symmetry_space_group_name_H-M   'P 1'
_cell_length_a   18.98038717
_cell_length_b   18.97506100
_cell_length_c   18.97552038
_cell_angle_alpha   89.99972885
_cell_angle_beta   89.99994302
_cell_angle_gamma   90.00010248
_symmetry_Int_Tables_number   1
_chemical_formula_structural   Cs27Sn13Pb14I81
_chemical_formula_sum   'Cs27 Sn13 Pb14 I81'
_cell_volume   6834.10965062
_cell_formula_units_Z   1
loop_
 _symmetry_equiv_pos_site_id
 _symmetry_equiv_pos_as_xyz
  1  'x, y, z'
loop_
 _atom_site_type_symbol
 _atom_site_label
 _atom_site_symmetry_multiplicity
 _atom_site_fract_x
 _atom_site_fract_y
 _atom_site_fract_z
 _atom_site_occupancy
  Cs  Cs0  1  0.00303122  0.00226959  0.00051390  1
  Cs  Cs1  1  0.00314079  0.00246884  0.33381744  1
  Cs  Cs2  1  -0.00157533  -0.00139845  0.66632294  1
  Cs  Cs3  1  0.00134091  0.33138282  0.00271394  1
  Cs  Cs4  1  -0.00402959  0.33337060  0.33309120  1
  Cs  Cs5  1  -0.00432910  0.33269007  0.66364280  1
  Cs  Cs6  1  -0.00280030  0.66625987  -0.00115883  1
  Cs  Cs7  1  -0.00213385  0.66312730  0.33405212  1
  Cs  Cs8  1  0.00823402  0.66869098  0.66905572  1
  Cs  Cs9  1  0.33263592  0.00138263  0.00215578  1
  Cs  Cs10  1  0.33452361  0.00181870  0.33337202  1
  Cs  Cs11  1  0.33299688  -0.00168940  0.66434687  1
  Cs  Cs12  1  0.33372575  0.33336852  0.00081121  1
  Cs  Cs13  1  0.33380491  0.33055190  0.33084479  1
  Cs  Cs14  1  0.33663827  0.34068650  0.66878163  1
  Cs  Cs15  1  0.33212556  0.66545869  -0.00066115  1
  Cs  Cs16  1  0.33342683  0.66584101  0.33469054  1
  Cs  Cs17  1  0.32657746  0.66118648  0.66720915  1
  Cs  Cs18  1  0.66611955  -0.00282377  -0.00199317  1
  Cs  Cs19  1  0.66373329  -0.00276392  0.33425318  1
  Cs  Cs20  1  0.66789155  0.00125440  0.66730698  1
  Cs  Cs21  1  0.66513547  0.33206643  -0.00380033  1
  Cs  Cs22  1  0.66818318  0.33519912  0.33527653  1
  Cs  Cs23  1  0.66649803  0.33305032  0.66771525  1
  Cs  Cs24  1  0.67109290  0.67060280  0.00266212  1
  Cs  Cs25  1  0.66890231  0.66676437  0.33055536  1
  Cs  Cs26  1  0.66539501  0.66839502  0.66750881  1
  Sn  Sn27  1  0.16661377  0.83199233  0.16684220  1
  Sn  Sn28  1  0.16722835  0.50135670  0.16676136  1
  Sn  Sn29  1  0.49993986  0.83337040  0.83227168  1
  Sn  Sn30  1  0.49928114  0.16625940  0.49965089  1
  Sn  Sn31  1  0.83279792  0.83265810  0.83231116  1
  Sn  Sn32  1  0.49968806  0.49934545  0.16669457  1
  Sn  Sn33  1  0.16775427  0.16678487  0.50165821  1
  Sn  Sn34  1  0.83318445  0.50054283  0.83304243  1
  Sn  Sn35  1  0.50142615  0.16735455  0.16716503  1
  Sn  Sn36  1  0.16706946  0.16678697  0.83150085  1
  Sn  Sn37  1  0.50053334  0.83372571  0.50122040  1
  Sn  Sn38  1  0.83151989  0.16621064  0.16663455  1
  Sn  Sn39  1  0.83281742  0.83338217  0.50060829  1
  Pb  Pb40  1  0.83293643  0.49784320  0.16502640  1
  Pb  Pb41  1  0.83252003  0.16470542  0.49819286  1
  Pb  Pb42  1  0.16740135  0.16718159  0.16723897  1
  Pb  Pb43  1  0.16705331  0.83479506  0.49796409  1
  Pb  Pb44  1  0.83498841  0.16598995  0.83499398  1
  Pb  Pb45  1  0.50186459  0.50298467  0.83589630  1
  Pb  Pb46  1  0.16672371  0.49665043  0.49744213  1
  Pb  Pb47  1  0.16668474  0.83478556  0.83505451  1
  Pb  Pb48  1  0.49819501  0.16484157  0.83291978  1
  Pb  Pb49  1  0.49841411  0.83341835  0.16696013  1
  Pb  Pb50  1  0.16458686  0.49732521  0.83542056  1
  Pb  Pb51  1  0.50014258  0.50027709  0.49795724  1
  Pb  Pb52  1  0.83559927  0.83529668  0.16670703  1
  Pb  Pb53  1  0.83317807  0.50333601  0.50293832  1
  I  I54  1  0.16622867  -0.00120879  0.16617098  1
  I  I55  1  0.16778451  0.00284886  0.49868852  1
  I  I56  1  0.16438397  0.00258638  0.83502462  1
  I  I57  1  0.16755509  0.33529470  0.16600518  1
  I  I58  1  0.17239890  0.32841682  0.50111417  1
  I  I59  1  0.16546676  0.32961710  0.83343144  1
  I  I60  1  0.17210128  0.66626586  0.16559854  1
  I  I61  1  0.16662043  0.66668917  0.49928946  1
  I  I62  1  0.16769570  0.66662056  0.83449013  1
  I  I63  1  0.50071629  0.00255315  0.16774842  1
  I  I64  1  0.49966640  0.00023066  0.49640089  1
  I  I65  1  0.50610967  -0.00308257  0.83547349  1
  I  I66  1  0.49708888  0.33204531  0.17123207  1
  I  I67  1  0.49508980  0.32998775  0.49635421  1
  I  I68  1  0.50096433  0.33339523  0.83221727  1
  I  I69  1  0.49658041  0.66463411  0.16587399  1
  I  I70  1  0.50469233  0.67030249  0.50134040  1
  I  I71  1  0.50042502  0.67100184  0.82928732  1
  I  I72  1  0.83028772  0.00299308  0.16471054  1
  I  I73  1  0.83235061  -0.00309229  0.50594584  1
  I  I74  1  0.83095422  -0.00318247  0.83126906  1
  I  I75  1  0.83588925  0.33000180  0.16503028  1
  I  I76  1  0.83419410  0.33312187  0.49999605  1
  I  I77  1  0.83649519  0.33498772  0.83821719  1
  I  I78  1  0.83228063  0.66685338  0.16778408  1
  I  I79  1  0.82679808  0.67148278  0.49757909  1
  I  I80  1  0.82975091  0.66832072  0.83247206  1
  I  I81  1  0.16523478  0.16575192  -0.00120296  1
  I  I82  1  0.16786653  0.16545771  0.33539293  1
  I  I83  1  0.17024957  0.16340222  0.66596367  1
  I  I84  1  0.17019644  0.50013035  0.00341410  1
  I  I85  1  0.16933884  0.50202138  0.32917762  1
  I  I86  1  0.16552439  0.50075713  0.66683211  1
  I  I87  1  0.16712368  0.83467865  0.00293473  1
  I  I88  1  0.16692343  0.83387547  0.33017024  1
  I  I89  1  0.16619183  0.83453649  0.66654533  1
  I  I90  1  0.50067813  0.16818077  0.00273932  1
  I  I91  1  0.49689401  0.16363411  0.33320340  1
  I  I92  1  0.49754730  0.16292933  0.66363913  1
  I  I93  1  0.49572649  0.49408525  0.00378265  1
  I  I94  1  0.49671052  0.50020035  0.32961743  1
  I  I95  1  0.50173583  0.49692079  0.66695097  1
  I  I96  1  0.50339014  0.83361294  -0.00196494  1
  I  I97  1  0.50283670  0.83529610  0.33598639  1
  I  I98  1  0.50466590  0.84074056  0.66594784  1
  I  I99  1  0.83122112  0.16479061  0.00300225  1
  I  I100  1  0.83601537  0.16555472  0.33026736  1
  I  I101  1  0.83285896  0.16837321  0.66661441  1
  I  I102  1  0.83348768  0.50716325  -0.00253180  1
  I  I103  1  0.83425023  0.50024457  0.33316506  1
  I  I104  1  0.83319604  0.49842575  0.67079486  1
  I  I105  1  0.83000365  0.83144041  -0.00274773  1
  I  I106  1  0.82950242  0.83693095  0.33571178  1
  I  I107  1  0.82961958  0.83148844  0.66722331  1
  I  I108  1  -0.00121089  0.16565565  0.16578298  1
  I  I109  1  0.00205346  0.16476142  0.50009702  1
  I  I110  1  0.00288474  0.16443409  0.83218320  1
  I  I111  1  0.00225734  0.50099759  0.16485775  1
  I  I112  1  -0.00005076  0.49889070  0.49600431  1
  I  I113  1  -0.00301667  0.50717617  0.83655544  1
  I  I114  1  0.00318535  0.83167400  0.16617289  1
  I  I115  1  -0.00235139  0.83552628  0.50295144  1
  I  I116  1  -0.00285921  0.83129920  0.83078202  1
  I  I117  1  0.33594346  0.16696537  0.16781993  1
  I  I118  1  0.33449657  0.15946627  0.49560181  1
  I  I119  1  0.33049471  0.16369894  0.83674341  1
  I  I120  1  0.33352861  0.49706768  0.16611117  1
  I  I121  1  0.33342802  0.50495903  0.50210911  1
  I  I122  1  0.33338156  0.50071220  0.83366605  1
  I  I123  1  0.33079473  0.83574384  0.16614951  1
  I  I124  1  0.33646015  0.83690214  0.50174725  1
  I  I125  1  0.33585513  0.83686964  0.83133362  1
  I  I126  1  0.66500452  0.17108634  0.17107911  1
  I  I127  1  0.66343276  0.16381929  0.49609113  1
  I  I128  1  0.66658515  0.16779771  0.83316986  1
  I  I129  1  0.66395095  0.49732479  0.16563239  1
  I  I130  1  0.66667006  0.49481620  0.49653727  1
  I  I131  1  0.66963544  0.50007515  0.83660166  1
  I  I132  1  0.66665379  0.83208233  0.16623126  1
  I  I133  1  0.66576472  0.84010887  0.50290236  1
  I  I134  1  0.66704121  0.83136814  0.83155057  1
