# generated using pymatgen
data_Cs27Sn13Pb14I81
_symmetry_space_group_name_H-M   'P 1'
_cell_length_a   18.96744504
_cell_length_b   18.98185535
_cell_length_c   18.98185536
_cell_angle_alpha   90.00220627
_cell_angle_beta   89.99836317
_cell_angle_gamma   90.00163661
_symmetry_Int_Tables_number   1
_chemical_formula_structural   Cs27Sn13Pb14I81
_chemical_formula_sum   'Cs27 Sn13 Pb14 I81'
_cell_volume   6834.17590715
_cell_formula_units_Z   1
loop_
 _symmetry_equiv_pos_site_id
 _symmetry_equiv_pos_as_xyz
  1  'x, y, z'
loop_
 _atom_site_type_symbol
 _atom_site_label
 _atom_site_symmetry_multiplicity
 _atom_site_fract_x
 _atom_site_fract_y
 _atom_site_fract_z
 _atom_site_occupancy
  Cs  Cs0  1  0.00107513  -0.00305803  0.00305804  1
  Cs  Cs1  1  0.00468638  -0.00354848  0.33739848  1
  Cs  Cs2  1  0.00395903  0.00386661  0.66199834  1
  Cs  Cs3  1  0.00395906  0.33800167  -0.00386658  1
  Cs  Cs4  1  -0.00067272  0.33234428  0.33608463  1
  Cs  Cs5  1  0.00037164  0.33158778  0.66841236  1
  Cs  Cs6  1  0.00468614  0.66260131  0.00354867  1
  Cs  Cs7  1  0.00030486  0.66897617  0.33102363  1
  Cs  Cs8  1  -0.00067280  0.66391527  0.66765567  1
  Cs  Cs9  1  0.32948471  0.00309010  -0.00309021  1
  Cs  Cs10  1  0.32942028  0.00303051  0.33187558  1
  Cs  Cs11  1  0.32857581  -0.00394033  0.66904690  1
  Cs  Cs12  1  0.32857601  0.33095325  0.00394037  1
  Cs  Cs13  1  0.33579570  0.33445974  0.32773036  1
  Cs  Cs14  1  0.33678081  0.33337975  0.66662035  1
  Cs  Cs15  1  0.32942017  0.66812458  -0.00303035  1
  Cs  Cs16  1  0.33340306  0.66401390  0.33598617  1
  Cs  Cs17  1  0.33579571  0.67226981  0.66553998  1
  Cs  Cs18  1  0.66625753  0.00025673  -0.00025676  1
  Cs  Cs19  1  0.66759032  -0.00009966  0.33213693  1
  Cs  Cs20  1  0.66700857  0.00023678  0.66773251  1
  Cs  Cs21  1  0.66700855  0.33226740  -0.00023686  1
  Cs  Cs22  1  0.66602478  0.33358474  0.33324567  1
  Cs  Cs23  1  0.66706512  0.33318234  0.66681760  1
  Cs  Cs24  1  0.66759034  0.66786323  0.00009969  1
  Cs  Cs25  1  0.66656547  0.66645879  0.33354121  1
  Cs  Cs26  1  0.66602474  0.66675436  0.66641509  1
  Sn  Sn27  1  0.50054116  0.49921871  0.83477185  1
  Sn  Sn28  1  0.50088152  0.16744026  0.83255977  1
  Sn  Sn29  1  0.83256502  0.16561666  0.83438336  1
  Sn  Sn30  1  0.50108045  0.50114174  0.16518044  1
  Sn  Sn31  1  0.83227418  0.83264113  0.50095263  1
  Sn  Sn32  1  0.16545831  0.49985261  0.50014739  1
  Sn  Sn33  1  0.83227413  0.49904736  0.16735888  1
  Sn  Sn34  1  0.50108041  0.83481956  0.49885824  1
  Sn  Sn35  1  0.83298809  0.16749888  0.16580770  1
  Sn  Sn36  1  0.50054117  0.16522815  0.50078135  1
  Sn  Sn37  1  0.83298810  0.83419227  0.83250114  1
  Sn  Sn38  1  0.50032726  0.83272473  0.16727528  1
  Sn  Sn39  1  0.83410175  0.50067316  0.49932687  1
  Pb  Pb40  1  0.17078522  0.83317469  0.16682530  1
  Pb  Pb41  1  0.83202974  0.83316103  0.16683897  1
  Pb  Pb42  1  0.17048888  0.16948442  0.50001964  1
  Pb  Pb43  1  0.17048889  0.49998036  0.83051562  1
  Pb  Pb44  1  0.16631606  0.16672107  0.83327895  1
  Pb  Pb45  1  0.50073429  0.50014045  0.49985952  1
  Pb  Pb46  1  0.16219998  0.16689630  0.16674691  1
  Pb  Pb47  1  0.83185043  0.49993873  0.83342972  1
  Pb  Pb48  1  0.50134803  0.83374493  0.83346675  1
  Pb  Pb49  1  0.50134806  0.16653327  0.16625505  1
  Pb  Pb50  1  0.83185044  0.16657025  0.50006130  1
  Pb  Pb51  1  0.16219992  0.83325307  0.83310367  1
  Pb  Pb52  1  0.16659272  0.50001395  0.16869583  1
  Pb  Pb53  1  0.16659273  0.83130414  0.49998606  1
  I  I54  1  0.16675825  0.00003962  0.16774050  1
  I  I55  1  0.16430209  0.00001992  0.49984475  1
  I  I56  1  0.17284308  0.00004388  0.83242495  1
  I  I57  1  0.17301205  0.33363902  0.16845263  1
  I  I58  1  0.16026287  0.33706718  0.49987521  1
  I  I59  1  0.16221815  0.33349097  0.83202988  1
  I  I60  1  0.16141623  0.66639923  0.16711350  1
  I  I61  1  0.16824753  0.66357933  0.49949005  1
  I  I62  1  0.16781293  0.66641890  0.83288741  1
  I  I63  1  0.50358327  -0.00215857  0.16856451  1
  I  I64  1  0.50724951  -0.00097638  0.49937558  1
  I  I65  1  0.50356085  0.00269427  0.83237734  1
  I  I66  1  0.50245362  0.33593957  0.16757174  1
  I  I67  1  0.50058430  0.33161372  0.50121090  1
  I  I68  1  0.50667325  0.33265804  0.83088236  1
  I  I69  1  0.50694820  0.66556797  0.16780729  1
  I  I70  1  0.50102229  0.66885803  0.49969441  1
  I  I71  1  0.50243528  0.66467130  0.83301560  1
  I  I72  1  0.82966401  0.00203206  0.16517129  1
  I  I73  1  0.82925305  -0.00254791  0.50041571  1
  I  I74  1  0.82553488  0.00083334  0.83397422  1
  I  I75  1  0.82607321  0.33459213  0.16805145  1
  I  I76  1  0.83402469  0.33588665  0.49899491  1
  I  I77  1  0.82983233  0.33089897  0.83363130  1
  I  I78  1  0.83025479  0.66391177  0.16799237  1
  I  I79  1  0.83026849  0.66667892  0.50034553  1
  I  I80  1  0.82965180  0.66862814  0.83125113  1
  I  I81  1  0.17284287  0.16757525  -0.00004392  1
  I  I82  1  0.16781262  0.16711250  0.33358109  1
  I  I83  1  0.16221862  0.16796980  0.66650904  1
  I  I84  1  0.16430209  0.50015477  -0.00001985  1
  I  I85  1  0.16824783  0.50051078  0.33642070  1
  I  I86  1  0.16026235  0.50012434  0.66293284  1
  I  I87  1  0.16675812  0.83225980  -0.00003960  1
  I  I88  1  0.16141619  0.83288559  0.33360079  1
  I  I89  1  0.17301249  0.83154781  0.66636095  1
  I  I90  1  0.50356050  0.16762281  -0.00269425  1
  I  I91  1  0.50243531  0.16698436  0.33532867  1
  I  I92  1  0.50667341  0.16911760  0.66734195  1
  I  I93  1  0.50724944  0.50062417  0.00097639  1
  I  I94  1  0.50102229  0.50030581  0.33114196  1
  I  I95  1  0.50058449  0.49878903  0.66838629  1
  I  I96  1  0.50358318  0.83143553  0.00215856  1
  I  I97  1  0.50694843  0.83219260  0.33443203  1
  I  I98  1  0.50245344  0.83242848  0.66406048  1
  I  I99  1  0.82553527  0.16602585  -0.00083337  1
  I  I100  1  0.82965168  0.16874910  0.33137188  1
  I  I101  1  0.82983187  0.16636833  0.66910103  1
  I  I102  1  0.82925328  0.49958395  0.00254790  1
  I  I103  1  0.83026833  0.49965473  0.33332096  1
  I  I104  1  0.83402488  0.50100518  0.66411341  1
  I  I105  1  0.82966418  0.83482904  -0.00203210  1
  I  I106  1  0.83025461  0.83200718  0.33608825  1
  I  I107  1  0.82607316  0.83194871  0.66540789  1
  I  I108  1  -0.00609408  0.17286468  0.16097829  1
  I  I109  1  -0.00017573  0.16463569  0.49963907  1
  I  I110  1  -0.00404208  0.16299167  0.83700779  1
  I  I111  1  -0.00363789  0.49633532  0.16827860  1
  I  I112  1  -0.00261057  0.50547868  0.49452094  1
  I  I113  1  -0.00017575  0.50036126  0.83536448  1
  I  I114  1  -0.00035501  0.83353620  0.16646395  1
  I  I115  1  -0.00363789  0.83172164  0.50366483  1
  I  I116  1  -0.00609410  0.83902195  0.82713499  1
  I  I117  1  0.33364095  0.16692486  0.16720861  1
  I  I118  1  0.33880899  0.16235188  0.50553417  1
  I  I119  1  0.33705328  0.17073408  0.82926587  1
  I  I120  1  0.33691824  0.50356690  0.16552929  1
  I  I121  1  0.33224617  0.49929578  0.50070465  1
  I  I122  1  0.33880897  0.49446553  0.83764806  1
  I  I123  1  0.33926056  0.82698032  0.17301977  1
  I  I124  1  0.33691820  0.83447055  0.49643281  1
  I  I125  1  0.33364099  0.83279150  0.83307542  1
  I  I126  1  0.66927758  0.16882229  0.16557164  1
  I  I127  1  0.66383820  0.16843755  0.50146035  1
  I  I128  1  0.66655786  0.16713114  0.83286933  1
  I  I129  1  0.66676280  0.49983297  0.17000264  1
  I  I130  1  0.66929168  0.50131404  0.49868603  1
  I  I131  1  0.66383825  0.49853947  0.83156262  1
  I  I132  1  0.66402679  0.83109122  0.16890856  1
  I  I133  1  0.66676281  0.82999723  0.50016720  1
  I  I134  1  0.66927754  0.83442799  0.83117783  1
