# generated using pymatgen
data_Cs27Sn14Pb13I81
_symmetry_space_group_name_H-M   'P 1'
_cell_length_a   18.95752598
_cell_length_b   18.96285723
_cell_length_c   18.96217916
_cell_angle_alpha   90.00232934
_cell_angle_beta   90.00057936
_cell_angle_gamma   90.00103439
_symmetry_Int_Tables_number   1
_chemical_formula_structural   Cs27Sn14Pb13I81
_chemical_formula_sum   'Cs27 Sn14 Pb13 I81'
_cell_volume   6816.69213305
_cell_formula_units_Z   1
loop_
 _symmetry_equiv_pos_site_id
 _symmetry_equiv_pos_as_xyz
  1  'x, y, z'
loop_
 _atom_site_type_symbol
 _atom_site_label
 _atom_site_symmetry_multiplicity
 _atom_site_fract_x
 _atom_site_fract_y
 _atom_site_fract_z
 _atom_site_occupancy
  Cs  Cs0  1  -0.00147338  -0.00107577  0.00124717  1
  Cs  Cs1  1  -0.00445819  -0.00493655  0.33528989  1
  Cs  Cs2  1  0.00319236  -0.00007676  0.66574757  1
  Cs  Cs3  1  -0.00106514  0.33342870  -0.00093244  1
  Cs  Cs4  1  0.00764855  0.33156145  0.33276067  1
  Cs  Cs5  1  -0.00209276  0.33345994  0.66701719  1
  Cs  Cs6  1  0.00566977  0.66653972  -0.00002684  1
  Cs  Cs7  1  0.00597989  0.67348280  0.33742309  1
  Cs  Cs8  1  -0.00597258  0.66948926  0.66275936  1
  Cs  Cs9  1  0.33528950  0.00024949  -0.00261325  1
  Cs  Cs10  1  0.33548935  0.00265382  0.33603435  1
  Cs  Cs11  1  0.33234193  0.00115090  0.66767148  1
  Cs  Cs12  1  0.33381491  0.33276339  -0.00068834  1
  Cs  Cs13  1  0.33108708  0.33457809  0.33445585  1
  Cs  Cs14  1  0.33327505  0.33107019  0.66579800  1
  Cs  Cs15  1  0.33206747  0.66640880  0.00019732  1
  Cs  Cs16  1  0.33171666  0.66052962  0.33095131  1
  Cs  Cs17  1  0.33381688  0.66807441  0.66756578  1
  Cs  Cs18  1  0.66565475  0.00152639  0.00053537  1
  Cs  Cs19  1  0.66806610  -0.00002511  0.33232528  1
  Cs  Cs20  1  0.66502756  0.00120846  0.66784982  1
  Cs  Cs21  1  0.66707460  0.33334284  -0.00041053  1
  Cs  Cs22  1  0.66557913  0.33227914  0.33140188  1
  Cs  Cs23  1  0.66808989  0.33460225  0.66768826  1
  Cs  Cs24  1  0.66531959  0.66417758  -0.00155621  1
  Cs  Cs25  1  0.66557659  0.66772706  0.33656831  1
  Cs  Cs26  1  0.66884326  0.66387555  0.66587938  1
  Sn  Sn27  1  0.50015496  0.83322606  0.16677967  1
  Sn  Sn28  1  0.83241437  0.83415385  0.83399658  1
  Sn  Sn29  1  0.50006733  0.83406583  0.50016763  1
  Sn  Sn30  1  0.16738226  0.49924173  0.83304585  1
  Sn  Sn31  1  0.50124050  0.49988052  0.16568818  1
  Sn  Sn32  1  0.49915106  0.50080067  0.83394132  1
  Sn  Sn33  1  0.16734336  0.16614965  0.16566380  1
  Sn  Sn34  1  0.49926845  0.16677036  0.16755598  1
  Sn  Sn35  1  0.50106195  0.16615243  0.49905930  1
  Sn  Sn36  1  0.16544647  0.16749324  0.83436793  1
  Sn  Sn37  1  0.83433916  0.16582154  0.83274161  1
  Sn  Sn38  1  0.83242277  0.16717533  0.50054805  1
  Sn  Sn39  1  0.50093225  0.83220331  0.83323371  1
  Sn  Sn40  1  0.83324248  0.50035219  0.16721297  1
  Pb  Pb41  1  0.50001561  0.49972549  0.50001631  1
  Pb  Pb42  1  0.83333604  0.16785800  0.16666258  1
  Pb  Pb43  1  0.16669586  0.83344227  0.83328002  1
  Pb  Pb44  1  0.16938612  0.83646532  0.16662761  1
  Pb  Pb45  1  0.16665256  0.16657449  0.50009537  1
  Pb  Pb46  1  0.16697943  0.49822260  0.16499472  1
  Pb  Pb47  1  0.50012377  0.16686151  0.83333625  1
  Pb  Pb48  1  0.83113038  0.83045627  0.16441382  1
  Pb  Pb49  1  0.83338201  0.50007257  0.83466268  1
  Pb  Pb50  1  0.83085205  0.83553914  0.50225616  1
  Pb  Pb51  1  0.16987085  0.83340243  0.49998902  1
  Pb  Pb52  1  0.16652648  0.50001877  0.50364028  1
  Pb  Pb53  1  0.83328828  0.49734992  0.49631193  1
  I  I54  1  0.17125723  0.00471126  0.15944150  1
  I  I55  1  0.16622722  0.00049738  0.50293405  1
  I  I56  1  0.16680076  0.00320880  0.83603120  1
  I  I57  1  0.17245689  0.33010298  0.16443052  1
  I  I58  1  0.17009909  0.33280347  0.49820228  1
  I  I59  1  0.16756381  0.33228015  0.83740667  1
  I  I60  1  0.16733842  0.66652560  0.16452693  1
  I  I61  1  0.16799078  0.66671730  0.50050717  1
  I  I62  1  0.16915845  0.66397612  0.83464402  1
  I  I63  1  0.49550539  0.00039783  0.16612279  1
  I  I64  1  0.50329264  0.00074572  0.49745882  1
  I  I65  1  0.50074892  -0.00208339  0.83555641  1
  I  I66  1  0.50022543  0.33305709  0.16582033  1
  I  I67  1  0.50256879  0.33000196  0.49746296  1
  I  I68  1  0.49970831  0.33552154  0.83664042  1
  I  I69  1  0.50514412  0.66642343  0.16517685  1
  I  I70  1  0.49944253  0.66962039  0.49882488  1
  I  I71  1  0.49997347  0.66695205  0.83610763  1
  I  I72  1  0.83291305  -0.00005061  0.16732095  1
  I  I73  1  0.83087786  0.00373262  0.50013911  1
  I  I74  1  0.83195722  0.00094961  0.83094640  1
  I  I75  1  0.82604261  0.33545480  0.16343714  1
  I  I76  1  0.82570870  0.32905552  0.50823916  1
  I  I77  1  0.83348743  0.33066188  0.83151450  1
  I  I78  1  0.82668770  0.66281727  0.16265924  1
  I  I79  1  0.83177586  0.66697688  0.50222944  1
  I  I80  1  0.83104201  0.66893873  0.83585248  1
  I  I81  1  0.16796520  0.17024140  -0.00086211  1
  I  I82  1  0.16915479  0.16775105  0.33054499  1
  I  I83  1  0.16671768  0.17001985  0.66989025  1
  I  I84  1  0.16914809  0.49715548  -0.00312123  1
  I  I85  1  0.16783918  0.49733209  0.33294223  1
  I  I86  1  0.17357240  0.49244688  0.67203941  1
  I  I87  1  0.16932842  0.83275738  -0.00021667  1
  I  I88  1  0.16643041  0.83506459  0.33308796  1
  I  I89  1  0.17008004  0.83546131  0.66715760  1
  I  I90  1  0.49951357  0.16510034  0.00230591  1
  I  I91  1  0.50003716  0.16404536  0.33250333  1
  I  I92  1  0.50039594  0.16385437  0.66470776  1
  I  I93  1  0.49997771  0.50181258  0.00009746  1
  I  I94  1  0.50381837  0.50158562  0.32994818  1
  I  I95  1  0.49634849  0.50225474  0.66996957  1
  I  I96  1  0.50318162  0.83360683  -0.00026742  1
  I  I97  1  0.49902621  0.83507403  0.33277523  1
  I  I98  1  0.50316186  0.83424054  0.66754314  1
  I  I99  1  0.83343007  0.16504281  -0.00270206  1
  I  I100  1  0.83107020  0.16941189  0.33546335  1
  I  I101  1  0.83225576  0.16394665  0.66785505  1
  I  I102  1  0.82947860  0.49634501  0.00221576  1
  I  I103  1  0.82369790  0.49755402  0.32864829  1
  I  I104  1  0.83325417  0.50088863  0.66684277  1
  I  I105  1  0.82688294  0.84072584  -0.00373807  1
  I  I106  1  0.83203873  0.83457090  0.33334720  1
  I  I107  1  0.82761418  0.83325335  0.67048518  1
  I  I108  1  0.00222825  0.17128479  0.16476705  1
  I  I109  1  -0.00279258  0.16847855  0.50154273  1
  I  I110  1  -0.00010330  0.16749963  0.83364042  1
  I  I111  1  -0.00195661  0.49506177  0.16318751  1
  I  I112  1  -0.00024821  0.49697278  0.49976904  1
  I  I113  1  0.00220142  0.49755583  0.83635780  1
  I  I114  1  -0.00019351  0.83288181  0.16438740  1
  I  I115  1  -0.00055197  0.83460581  0.50203916  1
  I  I116  1  -0.00286574  0.83451677  0.83348885  1
  I  I117  1  0.33518730  0.16827675  0.16593120  1
  I  I118  1  0.33659739  0.16287423  0.49955416  1
  I  I119  1  0.33160171  0.16745708  0.83428334  1
  I  I120  1  0.33690776  0.50172404  0.16448499  1
  I  I121  1  0.33381237  0.49770417  0.49615388  1
  I  I122  1  0.33483958  0.49952233  0.83907338  1
  I  I123  1  0.33844945  0.82838608  0.16282571  1
  I  I124  1  0.33876284  0.84130013  0.50404502  1
  I  I125  1  0.33700147  0.83308535  0.83375703  1
  I  I126  1  0.66346279  0.16541359  0.16683839  1
  I  I127  1  0.66542905  0.16322325  0.50028767  1
  I  I128  1  0.66866712  0.16618344  0.83308494  1
  I  I129  1  0.66385434  0.49657046  0.15974637  1
  I  I130  1  0.66640212  0.50021200  0.50532517  1
  I  I131  1  0.66385197  0.50046350  0.83595340  1
  I  I132  1  0.66228317  0.83959398  0.16750353  1
  I  I133  1  0.66251204  0.83596455  0.49799459  1
  I  I134  1  0.66497970  0.83410625  0.83365134  1
