# generated using pymatgen
data_Cs27Sn13Pb14I81
_symmetry_space_group_name_H-M   'P 1'
_cell_length_a   18.98006959
_cell_length_b   18.97572888
_cell_length_c   18.97449551
_cell_angle_alpha   89.99856203
_cell_angle_beta   90.00017872
_cell_angle_gamma   89.99971285
_symmetry_Int_Tables_number   1
_chemical_formula_structural   Cs27Sn13Pb14I81
_chemical_formula_sum   'Cs27 Sn13 Pb14 I81'
_cell_volume   6833.86672216
_cell_formula_units_Z   1
loop_
 _symmetry_equiv_pos_site_id
 _symmetry_equiv_pos_as_xyz
  1  'x, y, z'
loop_
 _atom_site_type_symbol
 _atom_site_label
 _atom_site_symmetry_multiplicity
 _atom_site_fract_x
 _atom_site_fract_y
 _atom_site_fract_z
 _atom_site_occupancy
  Cs  Cs0  1  -0.00351760  0.00121656  -0.00035099  1
  Cs  Cs1  1  0.00013737  -0.00222070  0.33579765  1
  Cs  Cs2  1  0.00146661  0.00292097  0.66436170  1
  Cs  Cs3  1  0.00089408  0.33511413  0.00202169  1
  Cs  Cs4  1  0.00005897  0.33433808  0.33026316  1
  Cs  Cs5  1  0.00090751  0.33068344  0.66789739  1
  Cs  Cs6  1  -0.00646515  0.66593224  0.00573464  1
  Cs  Cs7  1  0.00516584  0.66662697  0.32416351  1
  Cs  Cs8  1  -0.00085750  0.66697022  0.66796825  1
  Cs  Cs9  1  0.33816162  -0.00042015  -0.00133816  1
  Cs  Cs10  1  0.33366194  -0.00215017  0.33353809  1
  Cs  Cs11  1  0.33212814  0.00078965  0.66655033  1
  Cs  Cs12  1  0.33282366  0.33432620  -0.00221452  1
  Cs  Cs13  1  0.33446424  0.33401148  0.33286224  1
  Cs  Cs14  1  0.33351576  0.33314387  0.66814059  1
  Cs  Cs15  1  0.33415823  0.66566015  0.00075718  1
  Cs  Cs16  1  0.32818745  0.66678013  0.33192140  1
  Cs  Cs17  1  0.33354660  0.66626734  0.66675236  1
  Cs  Cs18  1  0.66560865  -0.00650581  0.00704310  1
  Cs  Cs19  1  0.66630708  0.00269310  0.33048659  1
  Cs  Cs20  1  0.66679922  -0.00031412  0.66623176  1
  Cs  Cs21  1  0.66565343  0.33214438  0.00252278  1
  Cs  Cs22  1  0.66713241  0.33285561  0.33403036  1
  Cs  Cs23  1  0.66586867  0.33502208  0.66476386  1
  Cs  Cs24  1  0.67113916  0.67632674  -0.00361390  1
  Cs  Cs25  1  0.66863344  0.66174617  0.33862073  1
  Cs  Cs26  1  0.66920566  0.66523417  0.66774581  1
  Sn  Sn27  1  0.16712629  0.16636480  0.16767202  1
  Sn  Sn28  1  0.50076483  0.83405184  0.50045278  1
  Sn  Sn29  1  0.50139726  0.16716647  0.83268781  1
  Sn  Sn30  1  0.16666966  0.83203165  0.83335837  1
  Sn  Sn31  1  0.50020450  0.50014436  0.16525477  1
  Sn  Sn32  1  0.16706255  0.50126762  0.83258343  1
  Sn  Sn33  1  0.50000291  0.16596978  0.50073749  1
  Sn  Sn34  1  0.83152342  0.16695677  0.83269263  1
  Sn  Sn35  1  0.16655481  0.49922511  0.50090190  1
  Sn  Sn36  1  0.83307359  0.16612066  0.50088729  1
  Sn  Sn37  1  0.49961659  0.49947831  0.83434615  1
  Sn  Sn38  1  0.16689052  0.16764632  0.49881699  1
  Sn  Sn39  1  0.83262140  0.83394425  0.50031837  1
  Pb  Pb40  1  0.16811330  0.49829663  0.16596639  1
  Pb  Pb41  1  0.83570652  0.83613698  0.83109043  1
  Pb  Pb42  1  0.49872738  0.83335342  0.83131612  1
  Pb  Pb43  1  0.82972396  0.49981557  0.16641311  1
  Pb  Pb44  1  0.16649620  0.83338453  0.50121108  1
  Pb  Pb45  1  0.83319264  0.83358297  0.17031326  1
  Pb  Pb46  1  0.16692716  0.83627923  0.16312136  1
  Pb  Pb47  1  0.49993531  0.83016314  0.17003634  1
  Pb  Pb48  1  0.83549856  0.16668785  0.16703721  1
  Pb  Pb49  1  0.49813841  0.49986169  0.50068539  1
  Pb  Pb50  1  0.49826665  0.16789952  0.16669891  1
  Pb  Pb51  1  0.83677315  0.49980733  0.50000796  1
  Pb  Pb52  1  0.16698784  0.16709522  0.83307144  1
  Pb  Pb53  1  0.83307451  0.49763020  0.83324822  1
  I  I54  1  0.16753571  0.00410451  0.17330263  1
  I  I55  1  0.16677230  0.00311375  0.49932466  1
  I  I56  1  0.16662374  -0.00119660  0.83187308  1
  I  I57  1  0.16739136  0.33048621  0.16725297  1
  I  I58  1  0.16763507  0.33196015  0.50256459  1
  I  I59  1  0.16821488  0.33559175  0.83168082  1
  I  I60  1  0.16784723  0.66647509  0.17059985  1
  I  I61  1  0.16850199  0.66426420  0.50309004  1
  I  I62  1  0.17342220  0.66492827  0.82559096  1
  I  I63  1  0.49865122  -0.00002955  0.16437038  1
  I  I64  1  0.49740996  0.00208887  0.50547015  1
  I  I65  1  0.49975840  0.00312768  0.82990008  1
  I  I66  1  0.49722396  0.33572684  0.16738080  1
  I  I67  1  0.50147260  0.33027751  0.50098515  1
  I  I68  1  0.49662944  0.33271818  0.83050377  1
  I  I69  1  0.49692930  0.66242325  0.16126041  1
  I  I70  1  0.50258345  0.66881890  0.49987005  1
  I  I71  1  0.49554557  0.66381177  0.83485871  1
  I  I72  1  0.83349253  0.00041708  0.16354831  1
  I  I73  1  0.83554594  0.00184298  0.50446716  1
  I  I74  1  0.83080974  0.00418827  0.83035700  1
  I  I75  1  0.83505860  0.33293209  0.16952212  1
  I  I76  1  0.83064560  0.32962125  0.50346066  1
  I  I77  1  0.83519640  0.32942984  0.82541359  1
  I  I78  1  0.83552857  0.66673222  0.16819317  1
  I  I79  1  0.82802295  0.66947232  0.50029400  1
  I  I80  1  0.83188968  0.66693619  0.83179311  1
  I  I81  1  0.16694598  0.16690996  0.00139911  1
  I  I82  1  0.16681313  0.17214667  0.33613687  1
  I  I83  1  0.16659070  0.16746187  0.66389835  1
  I  I84  1  0.16969608  0.50029978  -0.00328478  1
  I  I85  1  0.16851621  0.49747759  0.33580993  1
  I  I86  1  0.17268776  0.49694198  0.66706202  1
  I  I87  1  0.16825294  0.82924749  -0.00465787  1
  I  I88  1  0.16610911  0.83068910  0.33348463  1
  I  I89  1  0.16746705  0.83451165  0.66888452  1
  I  I90  1  0.50066477  0.16962862  -0.00319531  1
  I  I91  1  0.50160867  0.16546954  0.33678911  1
  I  I92  1  0.49770910  0.16901935  0.66601046  1
  I  I93  1  0.49202669  0.49212167  -0.00210279  1
  I  I94  1  0.49751212  0.49978265  0.33209341  1
  I  I95  1  0.49652627  0.49776802  0.66941732  1
  I  I96  1  0.49764580  0.83631196  -0.00023949  1
  I  I97  1  0.50179838  0.83963083  0.33820122  1
  I  I98  1  0.50183953  0.83377033  0.66325234  1
  I  I99  1  0.83208404  0.16844567  -0.00309327  1
  I  I100  1  0.83108870  0.16311499  0.33730421  1
  I  I101  1  0.83576458  0.16376549  0.66534574  1
  I  I102  1  0.84000926  0.49636904  -0.00037712  1
  I  I103  1  0.83292997  0.49816213  0.33366059  1
  I  I104  1  0.82947358  0.50111430  0.66647314  1
  I  I105  1  0.83514317  0.83474057  -0.00033890  1
  I  I106  1  0.83108304  0.84148197  0.33852934  1
  I  I107  1  0.82997012  0.83604374  0.66318876  1
  I  I108  1  0.00356551  0.16835362  0.16944120  1
  I  I109  1  0.00013909  0.16605082  0.50152492  1
  I  I110  1  -0.00162491  0.16555849  0.82947223  1
  I  I111  1  0.00029366  0.49900553  0.16740916  1
  I  I112  1  0.00475153  0.49535983  0.50615898  1
  I  I113  1  0.00327343  0.50095906  0.82792363  1
  I  I114  1  0.00030588  0.83286885  0.16886630  1
  I  I115  1  -0.00212873  0.83831986  0.50315385  1
  I  I116  1  0.00345727  0.83002897  0.82971277  1
  I  I117  1  0.33047250  0.16828118  0.17073456  1
  I  I118  1  0.33355033  0.16657099  0.50106801  1
  I  I119  1  0.33581720  0.16773488  0.82986265  1
  I  I120  1  0.33575668  0.49763022  0.16595549  1
  I  I121  1  0.33033879  0.49573873  0.50161892  1
  I  I122  1  0.33335103  0.49646310  0.83239389  1
  I  I123  1  0.33332562  0.83425278  0.17071990  1
  I  I124  1  0.33543139  0.83698430  0.50198923  1
  I  I125  1  0.33090266  0.83555462  0.82877955  1
  I  I126  1  0.66645702  0.16912614  0.16900903  1
  I  I127  1  0.66614825  0.16246327  0.50482160  1
  I  I128  1  0.66538306  0.17280003  0.82426622  1
  I  I129  1  0.66172215  0.49673669  0.16303176  1
  I  I130  1  0.66654038  0.49848866  0.49929197  1
  I  I131  1  0.66310025  0.49682301  0.83616072  1
  I  I132  1  0.66640890  0.83392623  0.16252355  1
  I  I133  1  0.66632298  0.84098407  0.50070733  1
  I  I134  1  0.66678755  0.83069114  0.83323795  1
