# generated using pymatgen
data_Cs27Sn13Pb14I81
_symmetry_space_group_name_H-M   'P 1'
_cell_length_a   18.98359756
_cell_length_b   18.98864103
_cell_length_c   19.00427233
_cell_angle_alpha   89.99965440
_cell_angle_beta   89.99953431
_cell_angle_gamma   90.00096750
_symmetry_Int_Tables_number   1
_chemical_formula_structural   Cs27Sn13Pb14I81
_chemical_formula_sum   'Cs27 Sn13 Pb14 I81'
_cell_volume   6850.52172355
_cell_formula_units_Z   1
loop_
 _symmetry_equiv_pos_site_id
 _symmetry_equiv_pos_as_xyz
  1  'x, y, z'
loop_
 _atom_site_type_symbol
 _atom_site_label
 _atom_site_symmetry_multiplicity
 _atom_site_fract_x
 _atom_site_fract_y
 _atom_site_fract_z
 _atom_site_occupancy
  Cs  Cs0  1  0.00194779  -0.00184047  -0.00172830  1
  Cs  Cs1  1  0.00086682  -0.00241719  0.33305618  1
  Cs  Cs2  1  0.00500085  0.00291445  0.66836244  1
  Cs  Cs3  1  0.00008721  0.33500869  -0.00002972  1
  Cs  Cs4  1  0.00076118  0.33533367  0.33313840  1
  Cs  Cs5  1  -0.00013021  0.33317999  0.66720300  1
  Cs  Cs6  1  -0.00056095  0.66383945  0.00214097  1
  Cs  Cs7  1  -0.00141237  0.66344186  0.33097705  1
  Cs  Cs8  1  -0.00290365  0.66272203  0.66677550  1
  Cs  Cs9  1  0.33505150  -0.00945301  -0.00070489  1
  Cs  Cs10  1  0.33173079  -0.00627711  0.33519143  1
  Cs  Cs11  1  0.32527012  -0.00470505  0.66715690  1
  Cs  Cs12  1  0.33544614  0.33481285  0.00519950  1
  Cs  Cs13  1  0.33296727  0.33296675  0.32979755  1
  Cs  Cs14  1  0.33277306  0.33288519  0.66593341  1
  Cs  Cs15  1  0.33949980  0.67359719  -0.00490546  1
  Cs  Cs16  1  0.34041756  0.67374436  0.33732733  1
  Cs  Cs17  1  0.34333820  0.67372092  0.66791377  1
  Cs  Cs18  1  0.66592983  0.00233142  0.00376290  1
  Cs  Cs19  1  0.66734599  0.00307353  0.33071668  1
  Cs  Cs20  1  0.66868004  0.00397031  0.66659494  1
  Cs  Cs21  1  0.66457863  0.33093792  0.00101625  1
  Cs  Cs22  1  0.66594604  0.33110620  0.33380077  1
  Cs  Cs23  1  0.66738037  0.33159521  0.66662015  1
  Cs  Cs24  1  0.66330631  0.66954162  -0.00217616  1
  Cs  Cs25  1  0.66529911  0.66948159  0.33548554  1
  Cs  Cs26  1  0.66480048  0.66701498  0.66643298  1
  Sn  Sn27  1  0.49992426  0.16714213  0.50120971  1
  Sn  Sn28  1  0.16649808  0.50005499  0.49992919  1
  Sn  Sn29  1  0.83380408  0.83357776  0.50107273  1
  Sn  Sn30  1  0.16646693  0.49976923  0.83333199  1
  Sn  Sn31  1  0.83377254  0.49985283  0.49992946  1
  Sn  Sn32  1  0.83372322  0.50056018  0.83343042  1
  Sn  Sn33  1  0.83319372  0.49895488  0.16668889  1
  Sn  Sn34  1  0.16634120  0.49976358  0.16671514  1
  Sn  Sn35  1  0.16561973  0.16710443  0.16655628  1
  Sn  Sn36  1  0.49949404  0.16714208  0.83219528  1
  Sn  Sn37  1  0.83328718  0.16665623  0.49929396  1
  Sn  Sn38  1  0.83488501  0.16776207  0.16743173  1
  Sn  Sn39  1  0.83370762  0.83278713  0.83249228  1
  Pb  Pb40  1  0.16623303  0.83203795  0.16672669  1
  Pb  Pb41  1  0.49996996  0.50018553  0.16679237  1
  Pb  Pb42  1  0.16929703  0.16909386  0.83623807  1
  Pb  Pb43  1  0.50026601  0.49804937  0.83321785  1
  Pb  Pb44  1  0.16342405  0.82966409  0.50011547  1
  Pb  Pb45  1  0.50338778  0.83658642  0.83294024  1
  Pb  Pb46  1  0.16626847  0.16862183  0.49809653  1
  Pb  Pb47  1  0.83339752  0.83304066  0.16666722  1
  Pb  Pb48  1  0.50317459  0.83696425  0.50020226  1
  Pb  Pb49  1  0.49950301  0.16673443  0.16724455  1
  Pb  Pb50  1  0.50019621  0.49773299  0.49997605  1
  Pb  Pb51  1  0.83278553  0.16705164  0.83367797  1
  Pb  Pb52  1  0.16360451  0.82998812  0.83316173  1
  Pb  Pb53  1  0.50035215  0.83331191  0.16688676  1
  I  I54  1  0.16219180  0.00299216  0.16742259  1
  I  I55  1  0.16691226  -0.00005078  0.49753363  1
  I  I56  1  0.16692059  -0.00003250  0.83539112  1
  I  I57  1  0.16195740  0.33443497  0.16687462  1
  I  I58  1  0.15980989  0.33673973  0.50192619  1
  I  I59  1  0.15781643  0.33710931  0.83106608  1
  I  I60  1  0.15878160  0.66196156  0.16666535  1
  I  I61  1  0.16028258  0.66135414  0.49612869  1
  I  I62  1  0.16517585  0.66163043  0.83720979  1
  I  I63  1  0.50186670  0.00075493  0.16559923  1
  I  I64  1  0.50592542  0.00474692  0.50245124  1
  I  I65  1  0.50234891  0.00406982  0.83045229  1
  I  I66  1  0.50077119  0.33312682  0.16604973  1
  I  I67  1  0.50831226  0.33009036  0.50293235  1
  I  I68  1  0.50465801  0.33055528  0.82985132  1
  I  I69  1  0.50072684  0.66648177  0.16603500  1
  I  I70  1  0.49947703  0.66695233  0.49918954  1
  I  I71  1  0.49762128  0.66692436  0.83461973  1
  I  I72  1  0.83539187  0.00331470  0.16962169  1
  I  I73  1  0.82673952  0.00087859  0.49939840  1
  I  I74  1  0.82904022  -0.00189752  0.83051563  1
  I  I75  1  0.83648004  0.33371347  0.16932282  1
  I  I76  1  0.83267726  0.33377074  0.49974344  1
  I  I77  1  0.83556512  0.33649145  0.83100005  1
  I  I78  1  0.83859199  0.66299585  0.16903771  1
  I  I79  1  0.83887933  0.66532835  0.49984900  1
  I  I80  1  0.83707289  0.66496218  0.83065509  1
  I  I81  1  0.16004200  0.17355320  0.00386444  1
  I  I82  1  0.16663410  0.17395786  0.33035316  1
  I  I83  1  0.16490230  0.16872635  0.66666925  1
  I  I84  1  0.15803937  0.49458278  0.00038804  1
  I  I85  1  0.15795496  0.49449805  0.33304910  1
  I  I86  1  0.15771933  0.49892903  0.66655938  1
  I  I87  1  0.16455079  0.83317314  -0.00013288  1
  I  I88  1  0.16513304  0.83235036  0.33351801  1
  I  I89  1  0.16773768  0.83450160  0.66661507  1
  I  I90  1  0.50218718  0.16784870  -0.00188745  1
  I  I91  1  0.50412766  0.16771575  0.33613990  1
  I  I92  1  0.50936253  0.16898562  0.66561299  1
  I  I93  1  0.50147007  0.49589214  -0.00010819  1
  I  I94  1  0.50054766  0.49675117  0.33347322  1
  I  I95  1  0.50001942  0.49898814  0.66658241  1
  I  I96  1  0.50228308  0.83598662  -0.00062473  1
  I  I97  1  0.50194789  0.83485463  0.33400043  1
  I  I98  1  0.49935807  0.83112213  0.66658202  1
  I  I99  1  0.83392456  0.16965971  0.00278180  1
  I  I100  1  0.82995078  0.16940757  0.33392050  1
  I  I101  1  0.82982788  0.16929903  0.66399349  1
  I  I102  1  0.83913723  0.49959170  0.00011061  1
  I  I103  1  0.83877460  0.49907007  0.33370781  1
  I  I104  1  0.83868832  0.49975244  0.66621886  1
  I  I105  1  0.83309388  0.82988219  -0.00275369  1
  I  I106  1  0.83288380  0.83115791  0.33635816  1
  I  I107  1  0.83245995  0.82905822  0.66608979  1
  I  I108  1  -0.00151316  0.17156798  0.17222454  1
  I  I109  1  -0.00367444  0.16541112  0.49810772  1
  I  I110  1  0.00014904  0.16418372  0.83107025  1
  I  I111  1  -0.00119765  0.49559555  0.16676590  1
  I  I112  1  -0.00185565  0.49782062  0.49999143  1
  I  I113  1  -0.00142817  0.50271081  0.83342036  1
  I  I114  1  -0.00045382  0.83527073  0.16670434  1
  I  I115  1  -0.00461244  0.83994933  0.50349895  1
  I  I116  1  -0.00420360  0.83445937  0.82940615  1
  I  I117  1  0.33016842  0.17380415  0.16626546  1
  I  I118  1  0.33550766  0.17101578  0.50190162  1
  I  I119  1  0.33681124  0.17023187  0.82716445  1
  I  I120  1  0.32929517  0.49300324  0.16665741  1
  I  I121  1  0.33017943  0.49595421  0.49891944  1
  I  I122  1  0.33019590  0.49556718  0.83463688  1
  I  I123  1  0.33298699  0.83461763  0.16632077  1
  I  I124  1  0.33331792  0.83298019  0.49871711  1
  I  I125  1  0.33345030  0.83226331  0.83484233  1
  I  I126  1  0.66981175  0.17059035  0.16758695  1
  I  I127  1  0.66908134  0.16884995  0.49788957  1
  I  I128  1  0.66509530  0.16849586  0.83397920  1
  I  I129  1  0.67102787  0.49484694  0.16681753  1
  I  I130  1  0.67078621  0.50193346  0.50010393  1
  I  I131  1  0.67051624  0.50296639  0.83287693  1
  I  I132  1  0.66761533  0.83433728  0.16612347  1
  I  I133  1  0.67126724  0.82587172  0.50316515  1
  I  I134  1  0.67092779  0.82428779  0.82993842  1
