# generated using pymatgen
data_Cs27Sn14Pb13I81
_symmetry_space_group_name_H-M   'P 1'
_cell_length_a   18.96998192
_cell_length_b   18.98344696
_cell_length_c   18.97400494
_cell_angle_alpha   89.99986141
_cell_angle_beta   89.99873605
_cell_angle_gamma   90.00002504
_symmetry_Int_Tables_number   1
_chemical_formula_structural   Cs27Sn14Pb13I81
_chemical_formula_sum   'Cs27 Sn14 Pb13 I81'
_cell_volume   6832.83603959
_cell_formula_units_Z   1
loop_
 _symmetry_equiv_pos_site_id
 _symmetry_equiv_pos_as_xyz
  1  'x, y, z'
loop_
 _atom_site_type_symbol
 _atom_site_label
 _atom_site_symmetry_multiplicity
 _atom_site_fract_x
 _atom_site_fract_y
 _atom_site_fract_z
 _atom_site_occupancy
  Cs  Cs0  1  0.00180579  0.00183128  -0.00528807  1
  Cs  Cs1  1  0.00230171  -0.00041329  0.33132165  1
  Cs  Cs2  1  -0.00085251  -0.00141994  0.66807056  1
  Cs  Cs3  1  -0.00148295  0.33414785  0.00113925  1
  Cs  Cs4  1  0.00701114  0.33290640  0.33143432  1
  Cs  Cs5  1  -0.00050686  0.33257118  0.66673391  1
  Cs  Cs6  1  0.00046764  0.66397970  0.00570834  1
  Cs  Cs7  1  -0.00274516  0.66686348  0.32273772  1
  Cs  Cs8  1  0.00015416  0.66978997  0.66707188  1
  Cs  Cs9  1  0.33411948  -0.00441877  0.00034577  1
  Cs  Cs10  1  0.33143716  0.00154257  0.33201086  1
  Cs  Cs11  1  0.33220753  -0.00159267  0.66667307  1
  Cs  Cs12  1  0.33452281  0.33747219  -0.00273854  1
  Cs  Cs13  1  0.33248103  0.33155490  0.33578065  1
  Cs  Cs14  1  0.33252610  0.33846252  0.66600683  1
  Cs  Cs15  1  0.33467477  0.66889859  -0.00146324  1
  Cs  Cs16  1  0.33467623  0.66687545  0.33376724  1
  Cs  Cs17  1  0.33172087  0.66531086  0.66781585  1
  Cs  Cs18  1  0.66291133  0.00284270  -0.00035903  1
  Cs  Cs19  1  0.66707993  0.00062645  0.33575794  1
  Cs  Cs20  1  0.66827212  0.00150765  0.66578103  1
  Cs  Cs21  1  0.66759924  0.33143342  0.00114672  1
  Cs  Cs22  1  0.66532099  0.33365012  0.33396689  1
  Cs  Cs23  1  0.66689535  0.33240482  0.66555782  1
  Cs  Cs24  1  0.66422712  0.66821288  0.00439600  1
  Cs  Cs25  1  0.66761238  0.66556018  0.33401990  1
  Cs  Cs26  1  0.66803014  0.66528703  0.66391733  1
  Sn  Sn27  1  0.16561543  0.83409448  0.83225620  1
  Sn  Sn28  1  0.49920934  0.83353743  0.50041333  1
  Sn  Sn29  1  0.83300062  0.50004546  0.83271433  1
  Sn  Sn30  1  0.83331421  0.49903209  0.50047552  1
  Sn  Sn31  1  0.83394053  0.16668352  0.83320988  1
  Sn  Sn32  1  0.83357747  0.83321055  0.83334866  1
  Sn  Sn33  1  0.16634453  0.16636785  0.83285236  1
  Sn  Sn34  1  0.50018341  0.49891151  0.16759570  1
  Sn  Sn35  1  0.50068166  0.16762635  0.16756384  1
  Sn  Sn36  1  0.83286006  0.16655129  0.16714900  1
  Sn  Sn37  1  0.83316353  0.16762425  0.49951062  1
  Sn  Sn38  1  0.50040573  0.16671279  0.49958017  1
  Sn  Sn39  1  0.16691387  0.83314321  0.50028627  1
  Sn  Sn40  1  0.50073475  0.49967232  0.49940202  1
  Pb  Pb41  1  0.83358379  0.83326818  0.50118647  1
  Pb  Pb42  1  0.83155535  0.49761228  0.16725316  1
  Pb  Pb43  1  0.49979435  0.16672643  0.83306611  1
  Pb  Pb44  1  0.16367587  0.50039759  0.83314686  1
  Pb  Pb45  1  0.50007754  0.83328420  0.83081075  1
  Pb  Pb46  1  0.16749355  0.16671393  0.16370600  1
  Pb  Pb47  1  0.83317363  0.83668572  0.16317318  1
  Pb  Pb48  1  0.17050934  0.49967594  0.16682289  1
  Pb  Pb49  1  0.50273853  0.50003222  0.83307619  1
  Pb  Pb50  1  0.16653568  0.16499064  0.50205114  1
  Pb  Pb51  1  0.16582506  0.50281848  0.49992323  1
  Pb  Pb52  1  0.16666349  0.83349159  0.16616756  1
  Pb  Pb53  1  0.50018479  0.83390366  0.16968604  1
  I  I54  1  0.16901794  0.00028015  0.16837681  1
  I  I55  1  0.17063446  -0.00290249  0.50295675  1
  I  I56  1  0.15766966  -0.00025074  0.82952315  1
  I  I57  1  0.16387382  0.33287637  0.16450092  1
  I  I58  1  0.16936445  0.33324454  0.50194662  1
  I  I59  1  0.16296689  0.33054629  0.83420913  1
  I  I60  1  0.16698542  0.66669678  0.16444162  1
  I  I61  1  0.17160192  0.67068214  0.50844439  1
  I  I62  1  0.16345994  0.67010570  0.82890035  1
  I  I63  1  0.50380891  0.00354094  0.16955567  1
  I  I64  1  0.50121724  0.00110120  0.49730710  1
  I  I65  1  0.50466583  0.00015339  0.83346351  1
  I  I66  1  0.50451021  0.33233177  0.17460795  1
  I  I67  1  0.50547257  0.33300577  0.49599902  1
  I  I68  1  0.49815088  0.33322125  0.82959931  1
  I  I69  1  0.50009241  0.66390552  0.16995821  1
  I  I70  1  0.50086125  0.66588326  0.49724058  1
  I  I71  1  0.50036623  0.66663070  0.83401087  1
  I  I72  1  0.82637492  0.00493042  0.16929757  1
  I  I73  1  0.82960051  0.00302511  0.50127486  1
  I  I74  1  0.83759219  0.00098012  0.83282924  1
  I  I75  1  0.83096837  0.32970277  0.16078513  1
  I  I76  1  0.82463920  0.33248255  0.50627246  1
  I  I77  1  0.83639548  0.33222939  0.83252974  1
  I  I78  1  0.83218369  0.66644391  0.16650161  1
  I  I79  1  0.82916083  0.66411066  0.50632623  1
  I  I80  1  0.83588424  0.66657704  0.82616270  1
  I  I81  1  0.16169013  0.15957772  -0.00426331  1
  I  I82  1  0.16371462  0.16449834  0.33349434  1
  I  I83  1  0.16178063  0.16397374  0.66993145  1
  I  I84  1  0.16665772  0.50184833  -0.00027838  1
  I  I85  1  0.16040138  0.50223945  0.33366094  1
  I  I86  1  0.17289234  0.49815912  0.66659834  1
  I  I87  1  0.16207268  0.83787394  -0.00395977  1
  I  I88  1  0.17200952  0.83329666  0.33648107  1
  I  I89  1  0.16714451  0.83752690  0.66744702  1
  I  I90  1  0.50372724  0.17143777  0.00279399  1
  I  I91  1  0.50765300  0.16641346  0.33449777  1
  I  I92  1  0.50381395  0.16706889  0.66316054  1
  I  I93  1  0.50109993  0.49416762  0.00281941  1
  I  I94  1  0.50627847  0.50025899  0.33509619  1
  I  I95  1  0.50165690  0.49863192  0.66297255  1
  I  I96  1  0.49924550  0.83297528  0.00006246  1
  I  I97  1  0.49491958  0.83357327  0.33797801  1
  I  I98  1  0.49937605  0.83409498  0.66253359  1
  I  I99  1  0.83284865  0.16604082  -0.00085314  1
  I  I100  1  0.82752757  0.17090863  0.33448101  1
  I  I101  1  0.83247102  0.16676827  0.66660758  1
  I  I102  1  0.83289628  0.49929570  -0.00248037  1
  I  I103  1  0.83076574  0.49711452  0.33664619  1
  I  I104  1  0.82736674  0.49533566  0.66609104  1
  I  I105  1  0.84017455  0.83136375  -0.00519225  1
  I  I106  1  0.83373065  0.83273500  0.33337827  1
  I  I107  1  0.83379714  0.83813381  0.66937037  1
  I  I108  1  -0.00309480  0.16593297  0.16908602  1
  I  I109  1  -0.00347811  0.16987676  0.49843659  1
  I  I110  1  -0.00215600  0.16543580  0.83301282  1
  I  I111  1  -0.00045467  0.49974844  0.16679959  1
  I  I112  1  -0.00380474  0.49533284  0.50601577  1
  I  I113  1  -0.00458352  0.49871897  0.82657480  1
  I  I114  1  -0.00026055  0.83381580  0.17352097  1
  I  I115  1  0.00220230  0.83459575  0.50445052  1
  I  I116  1  -0.00028638  0.83563099  0.82574506  1
  I  I117  1  0.33704169  0.17012930  0.17152490  1
  I  I118  1  0.33646661  0.16856114  0.49680534  1
  I  I119  1  0.33059866  0.15982716  0.83347591  1
  I  I120  1  0.33876755  0.49293992  0.17313930  1
  I  I121  1  0.33666453  0.49697181  0.49568118  1
  I  I122  1  0.33338229  0.50006307  0.83417144  1
  I  I123  1  0.33367304  0.83476792  0.16133378  1
  I  I124  1  0.33412168  0.83377007  0.50602337  1
  I  I125  1  0.33020513  0.83931899  0.83185210  1
  I  I126  1  0.66667782  0.16983349  0.16436740  1
  I  I127  1  0.66692292  0.16466552  0.50205939  1
  I  I128  1  0.67013840  0.16574079  0.83324808  1
  I  I129  1  0.66362262  0.49792222  0.16812190  1
  I  I130  1  0.66632861  0.50174304  0.50088571  1
  I  I131  1  0.67094068  0.49825152  0.83106069  1
  I  I132  1  0.66666081  0.83173601  0.16525955  1
  I  I133  1  0.66425731  0.83361991  0.50138132  1
  I  I134  1  0.66999048  0.83550128  0.83212993  1
