# generated using pymatgen
data_Cs27Sn14Pb13I81
_symmetry_space_group_name_H-M   'P 1'
_cell_length_a   18.95515447
_cell_length_b   18.96568525
_cell_length_c   18.96074307
_cell_angle_alpha   90.00100400
_cell_angle_beta   90.00127809
_cell_angle_gamma   89.99961883
_symmetry_Int_Tables_number   1
_chemical_formula_structural   Cs27Sn14Pb13I81
_chemical_formula_sum   'Cs27 Sn14 Pb13 I81'
_cell_volume   6816.33960676
_cell_formula_units_Z   1
loop_
 _symmetry_equiv_pos_site_id
 _symmetry_equiv_pos_as_xyz
  1  'x, y, z'
loop_
 _atom_site_type_symbol
 _atom_site_label
 _atom_site_symmetry_multiplicity
 _atom_site_fract_x
 _atom_site_fract_y
 _atom_site_fract_z
 _atom_site_occupancy
  Cs  Cs0  1  0.00053682  0.00160005  0.00096558  1
  Cs  Cs1  1  -0.00930621  0.00041615  0.33067768  1
  Cs  Cs2  1  0.00154691  -0.00054890  0.66621536  1
  Cs  Cs3  1  0.00064233  0.33341372  0.00065950  1
  Cs  Cs4  1  -0.00177223  0.33444716  0.33669732  1
  Cs  Cs5  1  0.00214271  0.33606623  0.65962985  1
  Cs  Cs6  1  0.00127233  0.66457150  -0.00187345  1
  Cs  Cs7  1  0.00204711  0.66409769  0.33721427  1
  Cs  Cs8  1  -0.00673415  0.66468649  0.66565452  1
  Cs  Cs9  1  0.33191765  0.00000033  -0.00205127  1
  Cs  Cs10  1  0.33378738  -0.00218943  0.33495309  1
  Cs  Cs11  1  0.33382773  0.00017261  0.66800904  1
  Cs  Cs12  1  0.33314901  0.33369767  -0.00057588  1
  Cs  Cs13  1  0.33365830  0.33415817  0.33535801  1
  Cs  Cs14  1  0.33349344  0.33144795  0.66583923  1
  Cs  Cs15  1  0.33397485  0.66619694  0.00092982  1
  Cs  Cs16  1  0.33340672  0.66693256  0.33256799  1
  Cs  Cs17  1  0.33377881  0.66804115  0.66701341  1
  Cs  Cs18  1  0.66894141  0.00121094  0.00102891  1
  Cs  Cs19  1  0.67612642  0.00281156  0.33214904  1
  Cs  Cs20  1  0.66448831  -0.00078604  0.66581618  1
  Cs  Cs21  1  0.66597981  0.33327646  -0.00073442  1
  Cs  Cs22  1  0.66712146  0.32784422  0.33315923  1
  Cs  Cs23  1  0.66544978  0.33482492  0.66738536  1
  Cs  Cs24  1  0.66619252  0.66706913  0.00005430  1
  Cs  Cs25  1  0.66338349  0.67008379  0.33030162  1
  Cs  Cs26  1  0.67008769  0.66592827  0.66872197  1
  Sn  Sn27  1  0.49966832  0.50092481  0.50083667  1
  Sn  Sn28  1  0.50091169  0.16654765  0.83427759  1
  Sn  Sn29  1  0.83297673  0.16694874  0.83307544  1
  Sn  Sn30  1  0.83392700  0.50034593  0.16638245  1
  Sn  Sn31  1  0.49935398  0.83248024  0.50065087  1
  Sn  Sn32  1  0.49892029  0.16634544  0.16600076  1
  Sn  Sn33  1  0.49934970  0.83310048  0.83291614  1
  Sn  Sn34  1  0.16768371  0.16681406  0.16672287  1
  Sn  Sn35  1  0.16736291  0.83224288  0.83307853  1
  Sn  Sn36  1  0.49914895  0.50030012  0.83266988  1
  Sn  Sn37  1  0.16584309  0.49976389  0.16609470  1
  Sn  Sn38  1  0.16749102  0.50069538  0.83369759  1
  Sn  Sn39  1  0.16705249  0.83332029  0.16674736  1
  Sn  Sn40  1  0.16730239  0.83338054  0.50027123  1
  Pb  Pb41  1  0.83657849  0.83038026  0.16624028  1
  Pb  Pb42  1  0.83351088  0.49812217  0.83464117  1
  Pb  Pb43  1  0.16671076  0.16346323  0.49650069  1
  Pb  Pb44  1  0.83335621  0.16688227  0.50363100  1
  Pb  Pb45  1  0.83362597  0.16865543  0.16496615  1
  Pb  Pb46  1  0.82962303  0.50020047  0.49710050  1
  Pb  Pb47  1  0.83343988  0.83540390  0.83346022  1
  Pb  Pb48  1  0.16863609  0.50193824  0.50029213  1
  Pb  Pb49  1  0.49839706  0.83592072  0.16664308  1
  Pb  Pb50  1  0.83270690  0.83311017  0.50021765  1
  Pb  Pb51  1  0.49990545  0.16593831  0.50026845  1
  Pb  Pb52  1  0.49936456  0.49822288  0.16657695  1
  Pb  Pb53  1  0.16700100  0.16695350  0.83452309  1
  I  I54  1  0.17283790  -0.00029410  0.16547228  1
  I  I55  1  0.17451279  -0.00485778  0.50356400  1
  I  I56  1  0.16945303  -0.00283482  0.83424039  1
  I  I57  1  0.16701616  0.33411754  0.16023755  1
  I  I58  1  0.16784172  0.33356083  0.50032564  1
  I  I59  1  0.16992294  0.33611790  0.83933664  1
  I  I60  1  0.16252211  0.66653395  0.16552930  1
  I  I61  1  0.16987754  0.67004803  0.49506852  1
  I  I62  1  0.17389387  0.66680849  0.83897739  1
  I  I63  1  0.49453287  0.00371623  0.16231760  1
  I  I64  1  0.49475013  -0.00344274  0.50380444  1
  I  I65  1  0.49907570  -0.00050847  0.83304818  1
  I  I66  1  0.49536300  0.33041924  0.16255709  1
  I  I67  1  0.50024951  0.33578740  0.50267091  1
  I  I68  1  0.49973051  0.33378105  0.83378055  1
  I  I69  1  0.50030276  0.66670760  0.16516582  1
  I  I70  1  0.49608712  0.66725449  0.50612803  1
  I  I71  1  0.49515768  0.66661071  0.82942425  1
  I  I72  1  0.83380127  0.00021144  0.16662699  1
  I  I73  1  0.83178412  -0.00007880  0.49765804  1
  I  I74  1  0.82937425  0.00330520  0.83559017  1
  I  I75  1  0.83866483  0.33611805  0.16486332  1
  I  I76  1  0.83236253  0.33369366  0.49899080  1
  I  I77  1  0.82836374  0.33046498  0.83648975  1
  I  I78  1  0.83601035  0.66262285  0.16494040  1
  I  I79  1  0.83521446  0.66655718  0.50063911  1
  I  I80  1  0.83148856  0.66639139  0.83461103  1
  I  I81  1  0.16816249  0.16307976  0.00280534  1
  I  I82  1  0.17313139  0.16920985  0.32805162  1
  I  I83  1  0.16636579  0.16694142  0.66671348  1
  I  I84  1  0.16883969  0.50418005  -0.00006730  1
  I  I85  1  0.16492906  0.50060568  0.33050697  1
  I  I86  1  0.16895117  0.50289069  0.66988972  1
  I  I87  1  0.17054814  0.83274543  -0.00043127  1
  I  I88  1  0.17166387  0.83316861  0.33293151  1
  I  I89  1  0.17128056  0.82982398  0.66781907  1
  I  I90  1  0.49967362  0.16729794  -0.00126935  1
  I  I91  1  0.49527298  0.16834783  0.33052828  1
  I  I92  1  0.50370434  0.16677565  0.67025583  1
  I  I93  1  0.49883780  0.50184346  -0.00299740  1
  I  I94  1  0.49962854  0.50320096  0.33536754  1
  I  I95  1  0.49496479  0.49789519  0.66860539  1
  I  I96  1  0.49587345  0.83092179  -0.00320808  1
  I  I97  1  0.49478892  0.82891215  0.33584416  1
  I  I98  1  0.49236345  0.83513342  0.66792491  1
  I  I99  1  0.83049019  0.16714036  -0.00259554  1
  I  I100  1  0.83238402  0.16706731  0.33299465  1
  I  I101  1  0.82624631  0.16707877  0.67150491  1
  I  I102  1  0.83398296  0.49861246  0.00253100  1
  I  I103  1  0.84066269  0.49858208  0.32932827  1
  I  I104  1  0.83570768  0.49802328  0.66673147  1
  I  I105  1  0.83210185  0.83392453  -0.00013141  1
  I  I106  1  0.83191334  0.83459035  0.33311735  1
  I  I107  1  0.83820018  0.83425132  0.66695392  1
  I  I108  1  0.00312014  0.16403943  0.16431878  1
  I  I109  1  0.00028970  0.16535775  0.50042485  1
  I  I110  1  -0.00151892  0.16598152  0.83680068  1
  I  I111  1  0.00266828  0.49860406  0.16064179  1
  I  I112  1  0.00021225  0.50119395  0.50223834  1
  I  I113  1  0.00331795  0.50301349  0.83668019  1
  I  I114  1  0.00535054  0.83996546  0.16590317  1
  I  I115  1  0.00355896  0.83405782  0.50009920  1
  I  I116  1  0.00398117  0.83067716  0.83354936  1
  I  I117  1  0.33294828  0.16885472  0.16012300  1
  I  I118  1  0.33342574  0.16873065  0.50330151  1
  I  I119  1  0.33633418  0.16648776  0.83587061  1
  I  I120  1  0.33021302  0.50159718  0.16512965  1
  I  I121  1  0.33666397  0.50158199  0.49910390  1
  I  I122  1  0.33367250  0.49890822  0.83629708  1
  I  I123  1  0.32982136  0.82838605  0.16604647  1
  I  I124  1  0.33363787  0.82985297  0.50066483  1
  I  I125  1  0.33339174  0.83492398  0.83326759  1
  I  I126  1  0.66408802  0.16905166  0.16481337  1
  I  I127  1  0.66614732  0.16464129  0.49366128  1
  I  I128  1  0.66394379  0.16695463  0.83939863  1
  I  I129  1  0.66801661  0.49617556  0.16667525  1
  I  I130  1  0.66163797  0.50547471  0.50549990  1
  I  I131  1  0.66330596  0.50174164  0.83202502  1
  I  I132  1  0.66651727  0.83370411  0.16727318  1
  I  I133  1  0.66253899  0.83006809  0.50559051  1
  I  I134  1  0.66286567  0.83104506  0.82858900  1
