# generated using pymatgen
data_Cs27Sn14Pb13I81
_symmetry_space_group_name_H-M   'P 1'
_cell_length_a   18.97094446
_cell_length_b   18.97786134
_cell_length_c   18.97771702
_cell_angle_alpha   89.99985764
_cell_angle_beta   89.99929551
_cell_angle_gamma   90.00055125
_symmetry_Int_Tables_number   1
_chemical_formula_structural   Cs27Sn14Pb13I81
_chemical_formula_sum   'Cs27 Sn14 Pb13 I81'
_cell_volume   6832.50862086
_cell_formula_units_Z   1
loop_
 _symmetry_equiv_pos_site_id
 _symmetry_equiv_pos_as_xyz
  1  'x, y, z'
loop_
 _atom_site_type_symbol
 _atom_site_label
 _atom_site_symmetry_multiplicity
 _atom_site_fract_x
 _atom_site_fract_y
 _atom_site_fract_z
 _atom_site_occupancy
  Cs  Cs0  1  -0.00389348  0.00605484  -0.00475569  1
  Cs  Cs1  1  0.00232350  0.00184616  0.33243347  1
  Cs  Cs2  1  0.00418196  -0.00040912  0.67223029  1
  Cs  Cs3  1  0.00115811  0.32201548  -0.00139345  1
  Cs  Cs4  1  -0.00315612  0.33219090  0.33234695  1
  Cs  Cs5  1  0.00360815  0.33508453  0.66759595  1
  Cs  Cs6  1  0.00525930  0.66989503  -0.00364179  1
  Cs  Cs7  1  -0.00312494  0.66480965  0.33304000  1
  Cs  Cs8  1  0.00083737  0.66586091  0.67183687  1
  Cs  Cs9  1  0.33771111  0.00071298  0.00367873  1
  Cs  Cs10  1  0.33146455  -0.00119311  0.33526670  1
  Cs  Cs11  1  0.33142938  -0.00156360  0.65979146  1
  Cs  Cs12  1  0.33494464  0.33511836  -0.00172375  1
  Cs  Cs13  1  0.33301643  0.33366436  0.33371011  1
  Cs  Cs14  1  0.33430329  0.33486569  0.66723388  1
  Cs  Cs15  1  0.33294706  0.66539797  0.00213154  1
  Cs  Cs16  1  0.33303469  0.66771339  0.33177400  1
  Cs  Cs17  1  0.33151926  0.66669340  0.66552990  1
  Cs  Cs18  1  0.66668759  -0.00059939  -0.00162583  1
  Cs  Cs19  1  0.66552922  -0.00188193  0.33498827  1
  Cs  Cs20  1  0.66563739  0.00040535  0.66654134  1
  Cs  Cs21  1  0.66571212  0.33356595  0.00184672  1
  Cs  Cs22  1  0.66897652  0.33647058  0.33481902  1
  Cs  Cs23  1  0.66549782  0.33425522  0.66466302  1
  Cs  Cs24  1  0.66540774  0.66729865  0.00094659  1
  Cs  Cs25  1  0.66968946  0.66573354  0.33318557  1
  Cs  Cs26  1  0.66686620  0.66527761  0.66581103  1
  Sn  Sn27  1  0.49931781  0.49962079  0.50034228  1
  Sn  Sn28  1  0.83356641  0.83327699  0.16708740  1
  Sn  Sn29  1  0.50072773  0.16748696  0.49972197  1
  Sn  Sn30  1  0.50119538  0.50034780  0.83253998  1
  Sn  Sn31  1  0.50021340  0.83383481  0.16627399  1
  Sn  Sn32  1  0.16751299  0.50019512  0.49866440  1
  Sn  Sn33  1  0.50027358  0.16614680  0.16735041  1
  Sn  Sn34  1  0.83341036  0.83445859  0.49986509  1
  Sn  Sn35  1  0.83247190  0.49992095  0.83401233  1
  Sn  Sn36  1  0.50030091  0.16657086  0.83286001  1
  Sn  Sn37  1  0.49998476  0.83307290  0.83364282  1
  Sn  Sn38  1  0.16636746  0.50024069  0.16739065  1
  Sn  Sn39  1  0.83272363  0.16537585  0.50021474  1
  Sn  Sn40  1  0.16630706  0.83288303  0.16668744  1
  Pb  Pb41  1  0.16904164  0.16643777  0.16680806  1
  Pb  Pb42  1  0.83119752  0.83192223  0.83335159  1
  Pb  Pb43  1  0.83646900  0.50207268  0.16359068  1
  Pb  Pb44  1  0.16991079  0.83358413  0.83613515  1
  Pb  Pb45  1  0.83082036  0.16892211  0.83057333  1
  Pb  Pb46  1  0.83336861  0.50002720  0.50136261  1
  Pb  Pb47  1  0.16717036  0.49992435  0.83379303  1
  Pb  Pb48  1  0.50122072  0.83297948  0.49968618  1
  Pb  Pb49  1  0.16337884  0.83091314  0.49781894  1
  Pb  Pb50  1  0.16669319  0.16893775  0.49989265  1
  Pb  Pb51  1  0.16998404  0.16638989  0.83313127  1
  Pb  Pb52  1  0.83053074  0.16425523  0.16879512  1
  Pb  Pb53  1  0.49895003  0.50019255  0.16687037  1
  I  I54  1  0.16676767  -0.00329969  0.16627562  1
  I  I55  1  0.16992835  -0.00018821  0.49848736  1
  I  I56  1  0.16575226  -0.00025045  0.83458197  1
  I  I57  1  0.16975096  0.33614003  0.16987523  1
  I  I58  1  0.16681496  0.33708749  0.49413048  1
  I  I59  1  0.16764269  0.33366585  0.83602810  1
  I  I60  1  0.17065240  0.66724119  0.17040090  1
  I  I61  1  0.17331295  0.66310638  0.49874987  1
  I  I62  1  0.16921141  0.66659877  0.83141385  1
  I  I63  1  0.49824805  -0.00091421  0.16345372  1
  I  I64  1  0.50292582  0.00245424  0.50238723  1
  I  I65  1  0.49936278  0.00009323  0.83517331  1
  I  I66  1  0.49721213  0.33102844  0.16444606  1
  I  I67  1  0.50186397  0.33319424  0.50258026  1
  I  I68  1  0.50329409  0.33364232  0.83271599  1
  I  I69  1  0.50076598  0.66958539  0.16363627  1
  I  I70  1  0.49829429  0.66399146  0.50317473  1
  I  I71  1  0.50367273  0.66617087  0.83395912  1
  I  I72  1  0.83758718  -0.00403586  0.16697143  1
  I  I73  1  0.82494423  0.00007944  0.49566611  1
  I  I74  1  0.83221549  0.00013038  0.83490717  1
  I  I75  1  0.83333234  0.33325785  0.16759178  1
  I  I76  1  0.83086962  0.33127634  0.50245049  1
  I  I77  1  0.82761075  0.33669670  0.83126213  1
  I  I78  1  0.82586696  0.67023507  0.17399777  1
  I  I79  1  0.83221137  0.66875795  0.49680293  1
  I  I80  1  0.82616351  0.66414230  0.83029014  1
  I  I81  1  0.16773526  0.17008732  0.00026448  1
  I  I82  1  0.17081745  0.16575970  0.33333619  1
  I  I83  1  0.16827935  0.16933289  0.66628230  1
  I  I84  1  0.16830489  0.50583488  0.00285208  1
  I  I85  1  0.17359536  0.50390557  0.33366409  1
  I  I86  1  0.16818649  0.49829436  0.66420239  1
  I  I87  1  0.16292049  0.82457901  0.00446892  1
  I  I88  1  0.17411743  0.83156997  0.32979417  1
  I  I89  1  0.16662462  0.83169035  0.66650157  1
  I  I90  1  0.49776011  0.16617658  -0.00012916  1
  I  I91  1  0.50291438  0.16655612  0.33391592  1
  I  I92  1  0.50424169  0.16817611  0.66629335  1
  I  I93  1  0.50154274  0.49790211  -0.00249225  1
  I  I94  1  0.49769354  0.49692120  0.33594697  1
  I  I95  1  0.49817054  0.49737135  0.66652594  1
  I  I96  1  0.50149152  0.83573766  0.00089019  1
  I  I97  1  0.49834776  0.83612679  0.33030915  1
  I  I98  1  0.50349438  0.83460796  0.66890168  1
  I  I99  1  0.83301914  0.16667037  -0.00015447  1
  I  I100  1  0.82637259  0.16769314  0.33661808  1
  I  I101  1  0.82630721  0.16072467  0.66282940  1
  I  I102  1  0.82458744  0.50222173  -0.00366605  1
  I  I103  1  0.83120580  0.49914455  0.33322450  1
  I  I104  1  0.83220964  0.50232842  0.66899672  1
  I  I105  1  0.83396401  0.82976271  0.00286041  1
  I  I106  1  0.82949547  0.83533871  0.33277449  1
  I  I107  1  0.82947432  0.83475808  0.66418060  1
  I  I108  1  -0.00028868  0.16691164  0.16852765  1
  I  I109  1  -0.00303461  0.16446431  0.49856944  1
  I  I110  1  -0.00057965  0.16940514  0.83241386  1
  I  I111  1  0.00414233  0.50608313  0.17335749  1
  I  I112  1  0.00220535  0.50090816  0.49787938  1
  I  I113  1  -0.00224837  0.50260400  0.83148718  1
  I  I114  1  -0.00012731  0.82576555  0.17355232  1
  I  I115  1  -0.00451868  0.83747705  0.49473073  1
  I  I116  1  -0.00015599  0.82931681  0.83330090  1
  I  I117  1  0.33769760  0.16112074  0.16856769  1
  I  I118  1  0.33713652  0.16875073  0.50095553  1
  I  I119  1  0.33902672  0.17108484  0.83122728  1
  I  I120  1  0.33114573  0.50545065  0.16639942  1
  I  I121  1  0.33505009  0.49480077  0.50250322  1
  I  I122  1  0.33704646  0.49904560  0.83234144  1
  I  I123  1  0.33428211  0.83290036  0.16108350  1
  I  I124  1  0.33331675  0.83519730  0.50003944  1
  I  I125  1  0.33849476  0.83001717  0.83756019  1
  I  I126  1  0.66221266  0.16221448  0.16391207  1
  I  I127  1  0.66475117  0.16926545  0.49989214  1
  I  I128  1  0.66235997  0.16452492  0.83564030  1
  I  I129  1  0.66673772  0.50096793  0.16896474  1
  I  I130  1  0.66391147  0.49861813  0.50293653  1
  I  I131  1  0.66402427  0.50043102  0.82680213  1
  I  I132  1  0.66579687  0.83801261  0.16629436  1
  I  I133  1  0.66894474  0.83148028  0.49442141  1
  I  I134  1  0.66284390  0.83474730  0.83931456  1
