# generated using pymatgen
data_Cs27Sn14Pb13I81
_symmetry_space_group_name_H-M   'P 1'
_cell_length_a   18.97697371
_cell_length_b   18.97182200
_cell_length_c   18.97632405
_cell_angle_alpha   90.00036310
_cell_angle_beta   90.00007595
_cell_angle_gamma   89.99822827
_symmetry_Int_Tables_number   1
_chemical_formula_structural   Cs27Sn14Pb13I81
_chemical_formula_sum   'Cs27 Sn14 Pb13 I81'
_cell_volume   6832.00357916
_cell_formula_units_Z   1
loop_
 _symmetry_equiv_pos_site_id
 _symmetry_equiv_pos_as_xyz
  1  'x, y, z'
loop_
 _atom_site_type_symbol
 _atom_site_label
 _atom_site_symmetry_multiplicity
 _atom_site_fract_x
 _atom_site_fract_y
 _atom_site_fract_z
 _atom_site_occupancy
  Cs  Cs0  1  0.00181504  -0.00552145  0.00289184  1
  Cs  Cs1  1  0.00325850  0.00072485  0.33440989  1
  Cs  Cs2  1  -0.00164200  -0.00151710  0.66635275  1
  Cs  Cs3  1  -0.00037921  0.33662950  -0.00072034  1
  Cs  Cs4  1  -0.00259882  0.33271940  0.33646620  1
  Cs  Cs5  1  -0.00063962  0.33237498  0.66526092  1
  Cs  Cs6  1  0.00016438  0.66682992  0.00035848  1
  Cs  Cs7  1  -0.00016497  0.66692300  0.32903740  1
  Cs  Cs8  1  0.00137174  0.66874511  0.66861807  1
  Cs  Cs9  1  0.33422459  0.00763739  0.00724097  1
  Cs  Cs10  1  0.33484878  -0.00141331  0.32200922  1
  Cs  Cs11  1  0.33163836  -0.00011560  0.66931960  1
  Cs  Cs12  1  0.33557571  0.33148026  -0.00153088  1
  Cs  Cs13  1  0.32864936  0.33514850  0.33580665  1
  Cs  Cs14  1  0.32880517  0.33351365  0.66689719  1
  Cs  Cs15  1  0.33165221  0.66386751  -0.00326103  1
  Cs  Cs16  1  0.33774238  0.66774546  0.33570887  1
  Cs  Cs17  1  0.33386588  0.66600692  0.66626400  1
  Cs  Cs18  1  0.66488672  -0.00103019  0.00160809  1
  Cs  Cs19  1  0.66284126  0.00134604  0.33622814  1
  Cs  Cs20  1  0.66967704  0.00131750  0.66540525  1
  Cs  Cs21  1  0.66489376  0.33433172  0.00019227  1
  Cs  Cs22  1  0.67087567  0.33263586  0.33496466  1
  Cs  Cs23  1  0.66879184  0.33219887  0.66652736  1
  Cs  Cs24  1  0.66931137  0.66501218  -0.00101959  1
  Cs  Cs25  1  0.66283022  0.66833464  0.33165895  1
  Cs  Cs26  1  0.66406612  0.66756091  0.66735982  1
  Sn  Sn27  1  0.16776354  0.50003011  0.16604898  1
  Sn  Sn28  1  0.83270569  0.16645946  0.50018633  1
  Sn  Sn29  1  0.16809707  0.83285429  0.83264888  1
  Sn  Sn30  1  0.49992702  0.50042676  0.83365578  1
  Sn  Sn31  1  0.49881022  0.83322039  0.83329465  1
  Sn  Sn32  1  0.83322452  0.50084189  0.50082951  1
  Sn  Sn33  1  0.49971586  0.16683176  0.50046624  1
  Sn  Sn34  1  0.16670506  0.50050755  0.83377857  1
  Sn  Sn35  1  0.83393537  0.83298450  0.50013275  1
  Sn  Sn36  1  0.83334588  0.49932658  0.83225808  1
  Sn  Sn37  1  0.83354754  0.16704924  0.83388048  1
  Sn  Sn38  1  0.16636312  0.83334159  0.50050689  1
  Sn  Sn39  1  0.83349424  0.16643779  0.16635806  1
  Sn  Sn40  1  0.49908127  0.49980525  0.16621904  1
  Pb  Pb41  1  0.16425640  0.50214335  0.50035389  1
  Pb  Pb42  1  0.16672270  0.16363206  0.50001882  1
  Pb  Pb43  1  0.83316548  0.83629477  0.17008116  1
  Pb  Pb44  1  0.16680494  0.83078529  0.16613709  1
  Pb  Pb45  1  0.50200932  0.16962593  0.16904123  1
  Pb  Pb46  1  0.50216667  0.49820880  0.50062459  1
  Pb  Pb47  1  0.16399554  0.16647496  0.83336618  1
  Pb  Pb48  1  0.83340784  0.83308996  0.83200955  1
  Pb  Pb49  1  0.49998405  0.83067284  0.16316463  1
  Pb  Pb50  1  0.50206291  0.16696364  0.83177025  1
  Pb  Pb51  1  0.83321558  0.49875804  0.16639904  1
  Pb  Pb52  1  0.16419112  0.16993578  0.16652678  1
  Pb  Pb53  1  0.49952166  0.83550291  0.50205266  1
  I  I54  1  0.16483900  -0.00006240  0.16666575  1
  I  I55  1  0.15920722  -0.00406807  0.50788028  1
  I  I56  1  0.16853106  -0.00336464  0.82768986  1
  I  I57  1  0.17015886  0.33785047  0.16007353  1
  I  I58  1  0.16514767  0.33356745  0.49999016  1
  I  I59  1  0.16882474  0.33690997  0.83715605  1
  I  I60  1  0.16742956  0.66281383  0.16483804  1
  I  I61  1  0.16076637  0.66983558  0.50210616  1
  I  I62  1  0.16438184  0.66554971  0.83309840  1
  I  I63  1  0.50146157  0.00030804  0.16629676  1
  I  I64  1  0.50845425  0.00298819  0.50289147  1
  I  I65  1  0.49787288  -0.00236413  0.82898631  1
  I  I66  1  0.49723801  0.33721926  0.15823547  1
  I  I67  1  0.50847313  0.33058453  0.50138490  1
  I  I68  1  0.49854377  0.33676015  0.83612291  1
  I  I69  1  0.49840925  0.66250560  0.16810600  1
  I  I70  1  0.50245048  0.66659437  0.49776891  1
  I  I71  1  0.50240134  0.66518596  0.83553689  1
  I  I72  1  0.83306308  0.00441204  0.16377628  1
  I  I73  1  0.83339528  0.00068296  0.50101941  1
  I  I74  1  0.83286153  0.00233364  0.83105522  1
  I  I75  1  0.83363660  0.33097467  0.17197932  1
  I  I76  1  0.82904279  0.33299301  0.50048332  1
  I  I77  1  0.83319649  0.33459265  0.82836591  1
  I  I78  1  0.83351261  0.66647218  0.16730825  1
  I  I79  1  0.83770895  0.66625091  0.50619097  1
  I  I80  1  0.83302642  0.66349444  0.82893882  1
  I  I81  1  0.16422279  0.16147747  -0.00016853  1
  I  I82  1  0.16363428  0.16742858  0.33344513  1
  I  I83  1  0.16408745  0.17190840  0.66667087  1
  I  I84  1  0.16337426  0.50559964  -0.00195148  1
  I  I85  1  0.16903994  0.50045778  0.33116977  1
  I  I86  1  0.16871478  0.50182927  0.66992054  1
  I  I87  1  0.16895857  0.83079972  -0.00362336  1
  I  I88  1  0.15994797  0.83317370  0.33600009  1
  I  I89  1  0.16548431  0.82744514  0.66772413  1
  I  I90  1  0.50285470  0.16445251  -0.00005388  1
  I  I91  1  0.50787597  0.16690373  0.33675131  1
  I  I92  1  0.50875141  0.16840744  0.66411732  1
  I  I93  1  0.50248006  0.50327362  -0.00172781  1
  I  I94  1  0.49747730  0.49698029  0.33126017  1
  I  I95  1  0.49843594  0.50277773  0.67005844  1
  I  I96  1  0.49502058  0.83357051  -0.00496721  1
  I  I97  1  0.50069315  0.83300675  0.33342595  1
  I  I98  1  0.49953580  0.82561015  0.66981790  1
  I  I99  1  0.83422214  0.17429537  -0.00097105  1
  I  I100  1  0.82981164  0.16796419  0.33485665  1
  I  I101  1  0.82965070  0.16803178  0.66599702  1
  I  I102  1  0.83319960  0.49537874  -0.00323642  1
  I  I103  1  0.83380654  0.49809831  0.33585662  1
  I  I104  1  0.83331400  0.49479586  0.66760308  1
  I  I105  1  0.83400102  0.83387064  -0.00015467  1
  I  I106  1  0.83930536  0.83091111  0.33860413  1
  I  I107  1  0.83438890  0.83769541  0.66391433  1
  I  I108  1  -0.00396607  0.16925971  0.17058034  1
  I  I109  1  -0.00373951  0.16880688  0.50013221  1
  I  I110  1  -0.00451304  0.17125975  0.82873336  1
  I  I111  1  0.00200926  0.49879658  0.16337752  1
  I  I112  1  -0.00393565  0.49423642  0.50312486  1
  I  I113  1  -0.00017502  0.49992724  0.83381116  1
  I  I114  1  -0.00007401  0.83042579  0.16202814  1
  I  I115  1  -0.00094899  0.83513583  0.50671132  1
  I  I116  1  0.00239157  0.83030271  0.83074251  1
  I  I117  1  0.33352574  0.16517145  0.16916348  1
  I  I118  1  0.33592701  0.16734736  0.50162174  1
  I  I119  1  0.33344213  0.16891762  0.83020622  1
  I  I120  1  0.33331965  0.49994393  0.15843580  1
  I  I121  1  0.33328681  0.49881042  0.50123289  1
  I  I122  1  0.33327778  0.50517986  0.83812971  1
  I  I123  1  0.33335122  0.83656424  0.17384798  1
  I  I124  1  0.33066372  0.83351422  0.50342489  1
  I  I125  1  0.33251140  0.82349822  0.82560205  1
  I  I126  1  0.67001754  0.17048535  0.16546189  1
  I  I127  1  0.66943135  0.16489645  0.50021331  1
  I  I128  1  0.67047382  0.17076603  0.83328702  1
  I  I129  1  0.66456927  0.49817111  0.16319380  1
  I  I130  1  0.67055866  0.50304265  0.50343191  1
  I  I131  1  0.66687827  0.50030056  0.83371839  1
  I  I132  1  0.66662472  0.82964720  0.16593393  1
  I  I133  1  0.66946027  0.83296217  0.50197911  1
  I  I134  1  0.66472612  0.82977402  0.83172521  1
