# generated using pymatgen
data_Cs27Sn13Pb14I81
_symmetry_space_group_name_H-M   'P 1'
_cell_length_a   18.97336812
_cell_length_b   18.98085746
_cell_length_c   18.97777012
_cell_angle_alpha   90.00023299
_cell_angle_beta   90.00214276
_cell_angle_gamma   89.99953604
_symmetry_Int_Tables_number   1
_chemical_formula_structural   Cs27Sn13Pb14I81
_chemical_formula_sum   'Cs27 Sn13 Pb14 I81'
_cell_volume   6834.47945251
_cell_formula_units_Z   1
loop_
 _symmetry_equiv_pos_site_id
 _symmetry_equiv_pos_as_xyz
  1  'x, y, z'
loop_
 _atom_site_type_symbol
 _atom_site_label
 _atom_site_symmetry_multiplicity
 _atom_site_fract_x
 _atom_site_fract_y
 _atom_site_fract_z
 _atom_site_occupancy
  Cs  Cs0  1  0.00118778  0.00077442  -0.00228647  1
  Cs  Cs1  1  -0.00046437  -0.00025202  0.33493427  1
  Cs  Cs2  1  -0.00261908  -0.00352404  0.66757062  1
  Cs  Cs3  1  0.00761512  0.33821648  0.00318704  1
  Cs  Cs4  1  -0.00035461  0.33644614  0.33096463  1
  Cs  Cs5  1  -0.00070129  0.33293395  0.66493766  1
  Cs  Cs6  1  -0.00156725  0.66069085  -0.00598923  1
  Cs  Cs7  1  0.00011168  0.66601660  0.33243892  1
  Cs  Cs8  1  -0.00647937  0.67160710  0.67524264  1
  Cs  Cs9  1  0.33477263  0.00105165  -0.00078125  1
  Cs  Cs10  1  0.33371806  -0.00194876  0.33355775  1
  Cs  Cs11  1  0.33327760  0.00017800  0.66561299  1
  Cs  Cs12  1  0.32738623  0.33342284  -0.00041143  1
  Cs  Cs13  1  0.33210770  0.33333388  0.33452080  1
  Cs  Cs14  1  0.33532155  0.33509084  0.66593260  1
  Cs  Cs15  1  0.33365691  0.66675971  -0.00222222  1
  Cs  Cs16  1  0.33357602  0.67149806  0.33531085  1
  Cs  Cs17  1  0.33383524  0.66425351  0.66505531  1
  Cs  Cs18  1  0.66448095  0.00132207  0.00199257  1
  Cs  Cs19  1  0.66628940  0.00039074  0.33099735  1
  Cs  Cs20  1  0.66788457  0.00181145  0.66785318  1
  Cs  Cs21  1  0.66618803  0.33097874  0.00050323  1
  Cs  Cs22  1  0.66815746  0.33345724  0.33365566  1
  Cs  Cs23  1  0.66520794  0.33621012  0.66582055  1
  Cs  Cs24  1  0.66792620  0.66410728  0.00064173  1
  Cs  Cs25  1  0.66781670  0.66396803  0.33195538  1
  Cs  Cs26  1  0.67181178  0.65915498  0.66858843  1
  Sn  Sn27  1  0.50057866  0.16584427  0.83324117  1
  Sn  Sn28  1  0.83309086  0.16571568  0.16554225  1
  Sn  Sn29  1  0.83477296  0.83422320  0.16676478  1
  Sn  Sn30  1  0.50008827  0.83394143  0.83174702  1
  Sn  Sn31  1  0.50020879  0.16783839  0.16677412  1
  Sn  Sn32  1  0.83278413  0.16652997  0.83463245  1
  Sn  Sn33  1  0.16730954  0.16637445  0.49974105  1
  Sn  Sn34  1  0.49961099  0.49863707  0.16683492  1
  Sn  Sn35  1  0.49937052  0.16575310  0.49994544  1
  Sn  Sn36  1  0.16714728  0.83324443  0.49937289  1
  Sn  Sn37  1  0.16648850  0.50074555  0.50011624  1
  Sn  Sn38  1  0.50008043  0.83395797  0.50133262  1
  Sn  Sn39  1  0.16530673  0.83373599  0.16678224  1
  Pb  Pb40  1  0.16896602  0.83352979  0.83300431  1
  Pb  Pb41  1  0.16665106  0.16484182  0.16870152  1
  Pb  Pb42  1  0.83284860  0.16659911  0.49970295  1
  Pb  Pb43  1  0.83030331  0.83550176  0.83622404  1
  Pb  Pb44  1  0.16692238  0.50005811  0.83018341  1
  Pb  Pb45  1  0.49881779  0.50015571  0.49815535  1
  Pb  Pb46  1  0.49988296  0.49941899  0.83572816  1
  Pb  Pb47  1  0.83667732  0.50016098  0.49986942  1
  Pb  Pb48  1  0.83149424  0.49943841  0.16666548  1
  Pb  Pb49  1  0.49999797  0.83387961  0.16687157  1
  Pb  Pb50  1  0.83265852  0.83341930  0.49805659  1
  Pb  Pb51  1  0.16912802  0.50305885  0.16846699  1
  Pb  Pb52  1  0.16680538  0.16658743  0.83052000  1
  Pb  Pb53  1  0.83312690  0.49601890  0.83364474  1
  I  I54  1  0.16870462  -0.00296757  0.17351948  1
  I  I55  1  0.17196134  -0.00045105  0.49586706  1
  I  I56  1  0.16560588  0.00011512  0.83125119  1
  I  I57  1  0.16465602  0.33325209  0.16896795  1
  I  I58  1  0.17147665  0.33236358  0.50093177  1
  I  I59  1  0.16835634  0.33297737  0.83256030  1
  I  I60  1  0.16442608  0.67091142  0.17340530  1
  I  I61  1  0.17289325  0.66821896  0.49410639  1
  I  I62  1  0.16935606  0.66705398  0.83263820  1
  I  I63  1  0.50113637  0.00289686  0.16715109  1
  I  I64  1  0.49226351  0.00080450  0.49805908  1
  I  I65  1  0.50252875  0.00126022  0.83478196  1
  I  I66  1  0.50556818  0.33065576  0.16773157  1
  I  I67  1  0.49625410  0.32996869  0.50191167  1
  I  I68  1  0.50433308  0.32931250  0.82986088  1
  I  I69  1  0.49921735  0.66546880  0.16769706  1
  I  I70  1  0.49500987  0.66985049  0.50099827  1
  I  I71  1  0.49757191  0.66961838  0.83087630  1
  I  I72  1  0.82970859  0.00106816  0.16475438  1
  I  I73  1  0.83816538  0.00020631  0.50062960  1
  I  I74  1  0.83088258  0.00336610  0.83448263  1
  I  I75  1  0.83014647  0.32953371  0.16364617  1
  I  I76  1  0.83319947  0.33288865  0.49836035  1
  I  I77  1  0.82508654  0.32798520  0.83862565  1
  I  I78  1  0.83436858  0.66956316  0.16941180  1
  I  I79  1  0.83101025  0.66700195  0.49684340  1
  I  I80  1  0.83254294  0.66693555  0.83391102  1
  I  I81  1  0.16954972  0.16482234  0.00017610  1
  I  I82  1  0.17125336  0.16717705  0.33687695  1
  I  I83  1  0.17066886  0.16410895  0.66210883  1
  I  I84  1  0.16714328  0.50099468  0.00035041  1
  I  I85  1  0.16854182  0.49733739  0.33634646  1
  I  I86  1  0.17039666  0.50096315  0.66182120  1
  I  I87  1  0.16584378  0.83454251  0.00283617  1
  I  I88  1  0.17005979  0.83403124  0.33454149  1
  I  I89  1  0.16978882  0.83385868  0.66287287  1
  I  I90  1  0.50517901  0.16532017  0.00025022  1
  I  I91  1  0.50001208  0.16584293  0.33341468  1
  I  I92  1  0.49974326  0.16165923  0.66625793  1
  I  I93  1  0.50028513  0.49798171  0.00369531  1
  I  I94  1  0.49953680  0.49648513  0.33039908  1
  I  I95  1  0.49804771  0.49805789  0.66648033  1
  I  I96  1  0.50006119  0.83668158  -0.00170966  1
  I  I97  1  0.49795659  0.83661945  0.33576143  1
  I  I98  1  0.49298737  0.84203876  0.66546831  1
  I  I99  1  0.82293700  0.16146844  0.00102083  1
  I  I100  1  0.82937050  0.16331906  0.33011177  1
  I  I101  1  0.83020933  0.16724874  0.66921072  1
  I  I102  1  0.83299123  0.50368076  0.00033903  1
  I  I103  1  0.83157718  0.49707551  0.33295370  1
  I  I104  1  0.83263180  0.49907506  0.66683427  1
  I  I105  1  0.83704524  0.83582791  0.00409197  1
  I  I106  1  0.83152247  0.84052294  0.32996447  1
  I  I107  1  0.83638041  0.83471083  0.66711132  1
  I  I108  1  -0.00269514  0.16354763  0.16403921  1
  I  I109  1  0.00301755  0.16615991  0.49968315  1
  I  I110  1  -0.00293247  0.16724177  0.83696240  1
  I  I111  1  0.00033472  0.49762026  0.16865012  1
  I  I112  1  0.00503756  0.49773700  0.49721227  1
  I  I113  1  -0.00008262  0.49931334  0.83329034  1
  I  I114  1  0.00023285  0.83956326  0.17414623  1
  I  I115  1  0.00335553  0.83473580  0.49657664  1
  I  I116  1  -0.00039964  0.83459255  0.83071896  1
  I  I117  1  0.33652406  0.16821071  0.16473360  1
  I  I118  1  0.33460434  0.16572274  0.49930214  1
  I  I119  1  0.33705777  0.16317725  0.83623773  1
  I  I120  1  0.33678157  0.49406775  0.16695733  1
  I  I121  1  0.33081817  0.49985522  0.49767233  1
  I  I122  1  0.33376306  0.49770410  0.83532742  1
  I  I123  1  0.33153732  0.83308907  0.16918855  1
  I  I124  1  0.33336291  0.83468663  0.49662784  1
  I  I125  1  0.33708241  0.84062397  0.83553541  1
  I  I126  1  0.66551493  0.16405550  0.16841378  1
  I  I127  1  0.66294309  0.16134676  0.49921829  1
  I  I128  1  0.66496215  0.16194804  0.83270200  1
  I  I129  1  0.66338579  0.50147330  0.16824246  1
  I  I130  1  0.66641819  0.49988974  0.49903257  1
  I  I131  1  0.66625508  0.50361086  0.83240687  1
  I  I132  1  0.66839904  0.83496025  0.16660037  1
  I  I133  1  0.66290201  0.84039093  0.50091267  1
  I  I134  1  0.66240753  0.83620450  0.82883726  1
