# generated using pymatgen
data_Cs27Sn14Pb13I81
_symmetry_space_group_name_H-M   'P 1'
_cell_length_a   18.96059865
_cell_length_b   18.96067607
_cell_length_c   18.96036061
_cell_angle_alpha   89.99973899
_cell_angle_beta   90.00155690
_cell_angle_gamma   90.00124508
_symmetry_Int_Tables_number   1
_chemical_formula_structural   Cs27Sn14Pb13I81
_chemical_formula_sum   'Cs27 Sn14 Pb13 I81'
_cell_volume   6816.35901715
_cell_formula_units_Z   1
loop_
 _symmetry_equiv_pos_site_id
 _symmetry_equiv_pos_as_xyz
  1  'x, y, z'
loop_
 _atom_site_type_symbol
 _atom_site_label
 _atom_site_symmetry_multiplicity
 _atom_site_fract_x
 _atom_site_fract_y
 _atom_site_fract_z
 _atom_site_occupancy
  Cs  Cs0  1  -0.00395486  -0.00126134  0.00286440  1
  Cs  Cs1  1  -0.00099855  -0.00259908  0.33281233  1
  Cs  Cs2  1  -0.00060397  0.00045479  0.66527787  1
  Cs  Cs3  1  -0.00031742  0.33322858  -0.00238779  1
  Cs  Cs4  1  0.00571592  0.33625039  0.33738460  1
  Cs  Cs5  1  0.00038463  0.33297483  0.66742230  1
  Cs  Cs6  1  0.00174671  0.66699906  0.00148378  1
  Cs  Cs7  1  0.00655680  0.66474087  0.33001820  1
  Cs  Cs8  1  -0.00414189  0.66686435  0.66732841  1
  Cs  Cs9  1  0.33513273  0.00076437  -0.00148499  1
  Cs  Cs10  1  0.33271834  0.00369715  0.33594115  1
  Cs  Cs11  1  0.33164772  -0.00451954  0.66591732  1
  Cs  Cs12  1  0.33492320  0.33385318  0.00016083  1
  Cs  Cs13  1  0.33188783  0.33166379  0.33238905  1
  Cs  Cs14  1  0.33283813  0.33195803  0.66872655  1
  Cs  Cs15  1  0.33134925  0.66657979  -0.00083076  1
  Cs  Cs16  1  0.32757783  0.66710642  0.33736469  1
  Cs  Cs17  1  0.33598990  0.67813337  0.66420864  1
  Cs  Cs18  1  0.66803156  0.00198898  0.00264912  1
  Cs  Cs19  1  0.66758663  0.00040359  0.33091374  1
  Cs  Cs20  1  0.66764772  -0.00074522  0.66645603  1
  Cs  Cs21  1  0.66556907  0.33280985  -0.00089520  1
  Cs  Cs22  1  0.66541771  0.33405729  0.33312177  1
  Cs  Cs23  1  0.66747796  0.33429831  0.66764496  1
  Cs  Cs24  1  0.66648535  0.66449630  -0.00068760  1
  Cs  Cs25  1  0.66627898  0.66483743  0.33572815  1
  Cs  Cs26  1  0.66774087  0.66741591  0.66406855  1
  Sn  Sn27  1  0.83313937  0.50087631  0.83424725  1
  Sn  Sn28  1  0.16736723  0.49969111  0.83320145  1
  Sn  Sn29  1  0.83287387  0.83266868  0.83321325  1
  Sn  Sn30  1  0.83305727  0.83400340  0.50020863  1
  Sn  Sn31  1  0.49950049  0.49971227  0.83366247  1
  Sn  Sn32  1  0.83258975  0.16625875  0.49992004  1
  Sn  Sn33  1  0.16745653  0.16717963  0.83449849  1
  Sn  Sn34  1  0.16711659  0.16671732  0.16534141  1
  Sn  Sn35  1  0.49939723  0.16712883  0.83304917  1
  Sn  Sn36  1  0.83279416  0.49948803  0.16601392  1
  Sn  Sn37  1  0.50107179  0.16701476  0.50040997  1
  Sn  Sn38  1  0.49947527  0.16680748  0.16651272  1
  Sn  Sn39  1  0.50053916  0.50041930  0.16616542  1
  Sn  Sn40  1  0.49985060  0.83282099  0.16660013  1
  Pb  Pb41  1  0.16399826  0.83385873  0.83355024  1
  Pb  Pb42  1  0.49966517  0.49799088  0.50029090  1
  Pb  Pb43  1  0.16687144  0.16663483  0.50056299  1
  Pb  Pb44  1  0.50206817  0.83593761  0.49732337  1
  Pb  Pb45  1  0.83155867  0.83067339  0.16690586  1
  Pb  Pb46  1  0.16346736  0.83343871  0.49997312  1
  Pb  Pb47  1  0.83352954  0.16923824  0.16914841  1
  Pb  Pb48  1  0.16740552  0.49798439  0.16467589  1
  Pb  Pb49  1  0.16718438  0.50005446  0.50398290  1
  Pb  Pb50  1  0.83325398  0.16702711  0.83189811  1
  Pb  Pb51  1  0.83329885  0.50002350  0.49988513  1
  Pb  Pb52  1  0.50218292  0.83342920  0.83499947  1
  Pb  Pb53  1  0.16973089  0.83640324  0.16632116  1
  I  I54  1  0.17045649  0.00472649  0.16074526  1
  I  I55  1  0.16820789  0.00054776  0.50216574  1
  I  I56  1  0.17094866  0.00368157  0.83570554  1
  I  I57  1  0.17171744  0.32996141  0.16526391  1
  I  I58  1  0.16254928  0.33286799  0.49783293  1
  I  I59  1  0.16513150  0.33284442  0.83694003  1
  I  I60  1  0.16659241  0.66632682  0.16607707  1
  I  I61  1  0.16527957  0.66667968  0.49972163  1
  I  I62  1  0.16864582  0.66344698  0.83345220  1
  I  I63  1  0.49658725  0.00173507  0.16656033  1
  I  I64  1  0.50174350  0.00434999  0.50094545  1
  I  I65  1  0.49736882  0.00331706  0.83426462  1
  I  I66  1  0.50059141  0.33284645  0.16591805  1
  I  I67  1  0.50661905  0.32928938  0.49662165  1
  I  I68  1  0.50198634  0.33307527  0.83702760  1
  I  I69  1  0.50667440  0.66521738  0.16071129  1
  I  I70  1  0.50182916  0.66698279  0.50009794  1
  I  I71  1  0.49835812  0.66350582  0.83844705  1
  I  I72  1  0.83244707  0.00020363  0.16483046  1
  I  I73  1  0.82943217  0.00034324  0.50563487  1
  I  I74  1  0.83296895  -0.00180076  0.83031074  1
  I  I75  1  0.82752989  0.33692550  0.16064262  1
  I  I76  1  0.82967513  0.33068487  0.50042248  1
  I  I77  1  0.83297832  0.33616107  0.83523542  1
  I  I78  1  0.82782873  0.66273751  0.16635913  1
  I  I79  1  0.83306162  0.66913749  0.50264543  1
  I  I80  1  0.83298934  0.66531818  0.83090338  1
  I  I81  1  0.17425140  0.17030657  -0.00079628  1
  I  I82  1  0.17032565  0.16655879  0.33068781  1
  I  I83  1  0.16907352  0.17120133  0.67018702  1
  I  I84  1  0.16565791  0.49720477  -0.00354684  1
  I  I85  1  0.16484375  0.49838862  0.33293071  1
  I  I86  1  0.16457319  0.49108767  0.67242002  1
  I  I87  1  0.16274430  0.83263034  -0.00011429  1
  I  I88  1  0.16446071  0.83497239  0.33297942  1
  I  I89  1  0.16970237  0.83511505  0.66705680  1
  I  I90  1  0.49579516  0.16766200  0.00005368  1
  I  I91  1  0.50034366  0.16642691  0.33216029  1
  I  I92  1  0.50057926  0.17188376  0.66790512  1
  I  I93  1  0.50189704  0.49492779  -0.00028923  1
  I  I94  1  0.50662589  0.49845652  0.32971455  1
  I  I95  1  0.50182165  0.49466160  0.67063613  1
  I  I96  1  0.50350328  0.83832864  0.00281150  1
  I  I97  1  0.50333972  0.83294593  0.32943414  1
  I  I98  1  0.49993984  0.83336227  0.66661505  1
  I  I99  1  0.83177839  0.16413302  0.00006095  1
  I  I100  1  0.82886986  0.16217307  0.33676485  1
  I  I101  1  0.82947837  0.16733096  0.66405604  1
  I  I102  1  0.83198383  0.50439910  -0.00141831  1
  I  I103  1  0.82720133  0.49861525  0.33042311  1
  I  I104  1  0.83274206  0.50049860  0.67011879  1
  I  I105  1  0.83241051  0.83125869  -0.00240183  1
  I  I106  1  0.83066130  0.83773561  0.33570913  1
  I  I107  1  0.83239958  0.83135240  0.66721742  1
  I  I108  1  0.00236588  0.16886263  0.16293934  1
  I  I109  1  -0.00274214  0.16320537  0.50063681  1
  I  I110  1  0.00235572  0.16968700  0.83551238  1
  I  I111  1  -0.00215007  0.49864344  0.16328387  1
  I  I112  1  -0.00027953  0.49724563  0.49868620  1
  I  I113  1  -0.00066548  0.49907504  0.83647121  1
  I  I114  1  -0.00020722  0.83354737  0.16745639  1
  I  I115  1  -0.00482941  0.84077129  0.50376144  1
  I  I116  1  -0.00417367  0.83014319  0.82996045  1
  I  I117  1  0.33536228  0.16851279  0.16838280  1
  I  I118  1  0.33660636  0.16834042  0.49880007  1
  I  I119  1  0.33457894  0.17384703  0.83297721  1
  I  I120  1  0.33690444  0.50020941  0.16271769  1
  I  I121  1  0.33367359  0.49670187  0.49718842  1
  I  I122  1  0.33449227  0.49295651  0.83823513  1
  I  I123  1  0.33787357  0.82847574  0.16507532  1
  I  I124  1  0.33378343  0.83434374  0.49964495  1
  I  I125  1  0.33369612  0.83104903  0.83443363  1
  I  I126  1  0.66339525  0.16564620  0.16412605  1
  I  I127  1  0.66587473  0.16373972  0.50025896  1
  I  I128  1  0.66367487  0.16928555  0.83573168  1
  I  I129  1  0.66538874  0.49748193  0.15928138  1
  I  I130  1  0.66667007  0.50007633  0.50360335  1
  I  I131  1  0.66628534  0.49868560  0.83729537  1
  I  I132  1  0.66371661  0.83943792  0.16588801  1
  I  I133  1  0.66990995  0.83539539  0.50434220  1
  I  I134  1  0.67010487  0.82997056  0.83029315  1
