# generated using pymatgen
data_Cs27Sn14Pb13I81
_symmetry_space_group_name_H-M   'P 1'
_cell_length_a   18.99844305
_cell_length_b   19.00325153
_cell_length_c   19.01420520
_cell_angle_alpha   89.99959060
_cell_angle_beta   90.00017794
_cell_angle_gamma   89.99850391
_symmetry_Int_Tables_number   1
_chemical_formula_structural   Cs27Sn14Pb13I81
_chemical_formula_sum   'Cs27 Sn14 Pb13 I81'
_cell_volume   6864.74018094
_cell_formula_units_Z   1
loop_
 _symmetry_equiv_pos_site_id
 _symmetry_equiv_pos_as_xyz
  1  'x, y, z'
loop_
 _atom_site_type_symbol
 _atom_site_label
 _atom_site_symmetry_multiplicity
 _atom_site_fract_x
 _atom_site_fract_y
 _atom_site_fract_z
 _atom_site_occupancy
  Cs  Cs0  1  0.00007557  -0.00315303  -0.00214708  1
  Cs  Cs1  1  0.00304881  -0.00345482  0.33615394  1
  Cs  Cs2  1  -0.00122430  0.00287529  0.66625589  1
  Cs  Cs3  1  -0.00082722  0.33240269  -0.00334762  1
  Cs  Cs4  1  -0.00049518  0.33374746  0.33293773  1
  Cs  Cs5  1  0.00033784  0.32554867  0.67014090  1
  Cs  Cs6  1  0.00011352  0.66746976  -0.00044317  1
  Cs  Cs7  1  0.00093471  0.66833878  0.33341500  1
  Cs  Cs8  1  -0.00265976  0.66774020  0.66622162  1
  Cs  Cs9  1  0.33801293  -0.00256345  0.00445715  1
  Cs  Cs10  1  0.33209206  0.00018945  0.33303246  1
  Cs  Cs11  1  0.33627271  0.00218910  0.66538027  1
  Cs  Cs12  1  0.33125840  0.33565431  -0.00580659  1
  Cs  Cs13  1  0.33373277  0.33580483  0.33365625  1
  Cs  Cs14  1  0.33436631  0.33406854  0.67155303  1
  Cs  Cs15  1  0.33785615  0.66684926  -0.00581982  1
  Cs  Cs16  1  0.32911660  0.66667417  0.33553878  1
  Cs  Cs17  1  0.33538996  0.66316793  0.66704321  1
  Cs  Cs18  1  0.65972845  0.00257956  0.00089718  1
  Cs  Cs19  1  0.66412686  0.00260152  0.33383077  1
  Cs  Cs20  1  0.66562332  0.00120119  0.66674600  1
  Cs  Cs21  1  0.66986905  0.33001601  0.01672246  1
  Cs  Cs22  1  0.66627382  0.33561402  0.32134901  1
  Cs  Cs23  1  0.66508169  0.33193470  0.66566147  1
  Cs  Cs24  1  0.66276901  0.66592666  -0.00147593  1
  Cs  Cs25  1  0.66895950  0.66199189  0.33639863  1
  Cs  Cs26  1  0.66929642  0.66674967  0.66580715  1
  Sn  Sn27  1  0.83304589  0.50054933  0.83233422  1
  Sn  Sn28  1  0.83381478  0.83273834  0.83334397  1
  Sn  Sn29  1  0.83372106  0.83339813  0.16666412  1
  Sn  Sn30  1  0.16632008  0.16665944  0.16678942  1
  Sn  Sn31  1  0.50002293  0.16645517  0.50046930  1
  Sn  Sn32  1  0.16509754  0.50057893  0.50001748  1
  Sn  Sn33  1  0.16674492  0.83281343  0.50090800  1
  Sn  Sn34  1  0.83482278  0.50022881  0.50117528  1
  Sn  Sn35  1  0.16632513  0.50062805  0.16707347  1
  Sn  Sn36  1  0.83333461  0.83313137  0.50001374  1
  Sn  Sn37  1  0.50040885  0.16688600  0.83271273  1
  Sn  Sn38  1  0.16633199  0.83342100  0.83272000  1
  Sn  Sn39  1  0.16585559  0.83279827  0.16633323  1
  Sn  Sn40  1  0.50000605  0.83388164  0.49998614  1
  Pb  Pb41  1  0.16455711  0.50237217  0.83250642  1
  Pb  Pb42  1  0.83115976  0.16727365  0.49977972  1
  Pb  Pb43  1  0.83666229  0.16310924  0.16688999  1
  Pb  Pb44  1  0.49712610  0.16655929  0.16729329  1
  Pb  Pb45  1  0.49639360  0.50064155  0.16675447  1
  Pb  Pb46  1  0.50018592  0.49998529  0.50003812  1
  Pb  Pb47  1  0.83117440  0.16633133  0.83337237  1
  Pb  Pb48  1  0.83585977  0.50275914  0.16685470  1
  Pb  Pb49  1  0.50047831  0.83433693  0.83071840  1
  Pb  Pb50  1  0.50404521  0.49724097  0.83319113  1
  Pb  Pb51  1  0.16843013  0.16717439  0.49862027  1
  Pb  Pb52  1  0.16852172  0.16340513  0.83561313  1
  Pb  Pb53  1  0.49991239  0.83290767  0.16977141  1
  I  I54  1  0.16362713  -0.00204626  0.16712734  1
  I  I55  1  0.16381111  -0.00360395  0.49856312  1
  I  I56  1  0.15884798  -0.00465350  0.83143129  1
  I  I57  1  0.16971365  0.33405119  0.17397508  1
  I  I58  1  0.16361324  0.33661724  0.49368796  1
  I  I59  1  0.16637500  0.33336461  0.83447247  1
  I  I60  1  0.16177443  0.66798348  0.16960028  1
  I  I61  1  0.16866137  0.66839559  0.49438802  1
  I  I62  1  0.16673375  0.67040754  0.83850693  1
  I  I63  1  0.49784249  -0.00030562  0.16484288  1
  I  I64  1  0.49951286  -0.00143053  0.50360677  1
  I  I65  1  0.50127046  0.00202801  0.83104617  1
  I  I66  1  0.50068650  0.33317319  0.16957952  1
  I  I67  1  0.49815490  0.33072915  0.50457586  1
  I  I68  1  0.49745305  0.32969012  0.82352976  1
  I  I69  1  0.49812737  0.66708709  0.16720271  1
  I  I70  1  0.49940138  0.66960545  0.49880289  1
  I  I71  1  0.49711006  0.66663255  0.83322365  1
  I  I72  1  0.83945795  -0.00503247  0.16707144  1
  I  I73  1  0.83716949  -0.00376630  0.50076877  1
  I  I74  1  0.83724269  -0.00382833  0.83220137  1
  I  I75  1  0.83305858  0.33358227  0.16641581  1
  I  I76  1  0.83839271  0.33703010  0.50638074  1
  I  I77  1  0.83293309  0.33638783  0.82621873  1
  I  I78  1  0.84067567  0.67041328  0.16785600  1
  I  I79  1  0.83138452  0.66851142  0.50000098  1
  I  I80  1  0.83767758  0.66848855  0.83185009  1
  I  I81  1  0.16942645  0.16775089  0.00343314  1
  I  I82  1  0.16966617  0.16034753  0.33084894  1
  I  I83  1  0.16637003  0.16670281  0.66682815  1
  I  I84  1  0.16601055  0.50031863  0.00233622  1
  I  I85  1  0.16174001  0.50539868  0.33429757  1
  I  I86  1  0.16639132  0.50602839  0.66345155  1
  I  I87  1  0.15888762  0.83438812  0.00061625  1
  I  I88  1  0.16484509  0.83361980  0.33353594  1
  I  I89  1  0.16444243  0.82850715  0.66552001  1
  I  I90  1  0.49952117  0.16567015  -0.00213746  1
  I  I91  1  0.49912631  0.16105892  0.33620962  1
  I  I92  1  0.49919487  0.16059255  0.66563573  1
  I  I93  1  0.49990716  0.49748183  -0.00030930  1
  I  I94  1  0.50657602  0.49620540  0.33377349  1
  I  I95  1  0.49296190  0.50116409  0.66652807  1
  I  I96  1  0.49946984  0.83644214  -0.00009851  1
  I  I97  1  0.49928081  0.84106885  0.33771360  1
  I  I98  1  0.49896555  0.83556394  0.66299883  1
  I  I99  1  0.82866612  0.16845372  0.00011570  1
  I  I100  1  0.82823062  0.16755375  0.33329653  1
  I  I101  1  0.83638024  0.16188227  0.66655192  1
  I  I102  1  0.83370159  0.50425107  -0.00221480  1
  I  I103  1  0.83390458  0.50444475  0.33626638  1
  I  I104  1  0.83889980  0.51063028  0.66538361  1
  I  I105  1  0.84318554  0.82996044  -0.00042792  1
  I  I106  1  0.83647859  0.83027773  0.33435512  1
  I  I107  1  0.83580463  0.82934015  0.66613281  1
  I  I108  1  0.00425290  0.16904222  0.16726291  1
  I  I109  1  0.00010125  0.16392460  0.49804558  1
  I  I110  1  -0.00005665  0.16826960  0.83558671  1
  I  I111  1  0.00362309  0.49825703  0.16887896  1
  I  I112  1  0.00023783  0.51024234  0.49842546  1
  I  I113  1  -0.00310275  0.50195845  0.83245435  1
  I  I114  1  0.00140139  0.83392091  0.17134409  1
  I  I115  1  0.00020455  0.82858907  0.49864174  1
  I  I116  1  -0.00022113  0.83057615  0.83012103  1
  I  I117  1  0.32969043  0.16131512  0.16756836  1
  I  I118  1  0.33607346  0.16040355  0.50233478  1
  I  I119  1  0.33601700  0.16486878  0.82810520  1
  I  I120  1  0.32778675  0.50357582  0.17507513  1
  I  I121  1  0.33028577  0.50412264  0.49361009  1
  I  I122  1  0.33337007  0.50042402  0.83446451  1
  I  I123  1  0.32942775  0.83429177  0.16614314  1
  I  I124  1  0.33184759  0.83356023  0.49886897  1
  I  I125  1  0.33059583  0.83564199  0.83527784  1
  I  I126  1  0.66654527  0.16615927  0.16593997  1
  I  I127  1  0.66331107  0.15991152  0.50448141  1
  I  I128  1  0.66356752  0.16282146  0.82749666  1
  I  I129  1  0.66737508  0.49953816  0.16726587  1
  I  I130  1  0.66990927  0.50501007  0.50533199  1
  I  I131  1  0.67164431  0.51085752  0.82416376  1
  I  I132  1  0.66989779  0.83352261  0.16526706  1
  I  I133  1  0.66789635  0.83338057  0.50046004  1
  I  I134  1  0.67008524  0.83076977  0.83371337  1
