# generated using pymatgen
data_Cs27Sn14Pb13I81
_symmetry_space_group_name_H-M   'P 1'
_cell_length_a   18.97626705
_cell_length_b   18.97981306
_cell_length_c   18.97000855
_cell_angle_alpha   90.00053480
_cell_angle_beta   89.99908242
_cell_angle_gamma   90.00160031
_symmetry_Int_Tables_number   1
_chemical_formula_structural   Cs27Sn14Pb13I81
_chemical_formula_sum   'Cs27 Sn14 Pb13 I81'
_cell_volume   6832.35211587
_cell_formula_units_Z   1
loop_
 _symmetry_equiv_pos_site_id
 _symmetry_equiv_pos_as_xyz
  1  'x, y, z'
loop_
 _atom_site_type_symbol
 _atom_site_label
 _atom_site_symmetry_multiplicity
 _atom_site_fract_x
 _atom_site_fract_y
 _atom_site_fract_z
 _atom_site_occupancy
  Cs  Cs0  1  0.00132640  -0.00583831  -0.00396089  1
  Cs  Cs1  1  -0.00133166  0.00044560  0.33164101  1
  Cs  Cs2  1  0.00066204  0.00142288  0.66777131  1
  Cs  Cs3  1  -0.00245638  0.33490394  -0.00116727  1
  Cs  Cs4  1  0.00132584  0.33384801  0.33266634  1
  Cs  Cs5  1  0.00014916  0.33255570  0.66740854  1
  Cs  Cs6  1  0.00272557  0.66740059  -0.00042087  1
  Cs  Cs7  1  -0.00310776  0.66644300  0.33125630  1
  Cs  Cs8  1  -0.00021689  0.66641219  0.66681838  1
  Cs  Cs9  1  0.34049331  -0.00925732  0.00689587  1
  Cs  Cs10  1  0.33394842  0.00693809  0.33026459  1
  Cs  Cs11  1  0.32971860  -0.00439134  0.66551741  1
  Cs  Cs12  1  0.33519160  0.33140456  0.00390381  1
  Cs  Cs13  1  0.33105875  0.33152428  0.33306113  1
  Cs  Cs14  1  0.33178062  0.33493798  0.66478108  1
  Cs  Cs15  1  0.33082374  0.67597732  -0.00282697  1
  Cs  Cs16  1  0.33385746  0.66347097  0.33592434  1
  Cs  Cs17  1  0.33317596  0.66713150  0.66729340  1
  Cs  Cs18  1  0.65799324  0.00478697  0.00188846  1
  Cs  Cs19  1  0.66775503  -0.00347704  0.33256825  1
  Cs  Cs20  1  0.66894920  0.00472712  0.66615329  1
  Cs  Cs21  1  0.66772229  0.33131460  -0.00206799  1
  Cs  Cs22  1  0.66749290  0.33566985  0.33427148  1
  Cs  Cs23  1  0.66764104  0.33409613  0.66800527  1
  Cs  Cs24  1  0.66507104  0.66621606  0.00054548  1
  Cs  Cs25  1  0.66898758  0.66633774  0.33525761  1
  Cs  Cs26  1  0.66666161  0.66459380  0.66434522  1
  Sn  Sn27  1  0.83245891  0.83249896  0.83318974  1
  Sn  Sn28  1  0.83253357  0.49928028  0.16665190  1
  Sn  Sn29  1  0.50000315  0.49973232  0.49938252  1
  Sn  Sn30  1  0.83365421  0.49916265  0.50005732  1
  Sn  Sn31  1  0.16746948  0.16734848  0.83398347  1
  Sn  Sn32  1  0.50052582  0.50016157  0.16723984  1
  Sn  Sn33  1  0.16635782  0.50086192  0.50071364  1
  Sn  Sn34  1  0.83282315  0.16765212  0.49903015  1
  Sn  Sn35  1  0.16698867  0.83244677  0.49969111  1
  Sn  Sn36  1  0.16626417  0.49863759  0.83277161  1
  Sn  Sn37  1  0.49919885  0.83347191  0.50019470  1
  Sn  Sn38  1  0.83401029  0.50117123  0.83325085  1
  Sn  Sn39  1  0.83389141  0.16737840  0.16732712  1
  Sn  Sn40  1  0.50082508  0.16694709  0.50049519  1
  Pb  Pb41  1  0.83312733  0.83324678  0.16370223  1
  Pb  Pb42  1  0.50025832  0.83015145  0.16985923  1
  Pb  Pb43  1  0.16629250  0.16696955  0.50096303  1
  Pb  Pb44  1  0.16385808  0.16683642  0.16307683  1
  Pb  Pb45  1  0.50232966  0.16922344  0.16925589  1
  Pb  Pb46  1  0.83337453  0.83354131  0.50134581  1
  Pb  Pb47  1  0.16674995  0.50006578  0.16635547  1
  Pb  Pb48  1  0.16655748  0.83324852  0.17040336  1
  Pb  Pb49  1  0.49643460  0.16682647  0.83086833  1
  Pb  Pb50  1  0.50301407  0.83327279  0.83055227  1
  Pb  Pb51  1  0.83438375  0.16707188  0.83351240  1
  Pb  Pb52  1  0.16525761  0.83280422  0.83142439  1
  Pb  Pb53  1  0.49954070  0.49987004  0.83350774  1
  I  I54  1  0.16384380  0.00022833  0.16647252  1
  I  I55  1  0.16905739  -0.00194474  0.50311666  1
  I  I56  1  0.16189821  0.00171155  0.82910570  1
  I  I57  1  0.16859985  0.33359029  0.17215786  1
  I  I58  1  0.16826550  0.33657072  0.50228485  1
  I  I59  1  0.15912024  0.33544011  0.82521478  1
  I  I60  1  0.16412074  0.66619696  0.16177717  1
  I  I61  1  0.16942511  0.66461102  0.50598400  1
  I  I62  1  0.16381740  0.66341368  0.83071172  1
  I  I63  1  0.50142323  0.00012338  0.16730476  1
  I  I64  1  0.50048928  0.00023170  0.50309013  1
  I  I65  1  0.50137450  0.00003263  0.83087938  1
  I  I66  1  0.50166036  0.33704646  0.17311369  1
  I  I67  1  0.50057453  0.33458630  0.49674424  1
  I  I68  1  0.50501540  0.33355812  0.82999455  1
  I  I69  1  0.50731396  0.66223664  0.17249907  1
  I  I70  1  0.50003721  0.66522051  0.49661459  1
  I  I71  1  0.49638020  0.66637403  0.83138906  1
  I  I72  1  0.83505458  0.00305854  0.17198636  1
  I  I73  1  0.83080073  0.00279293  0.49839027  1
  I  I74  1  0.83674296  -0.00149971  0.83033309  1
  I  I75  1  0.82981268  0.33507323  0.16597337  1
  I  I76  1  0.83095337  0.33481430  0.50205198  1
  I  I77  1  0.83562022  0.33659888  0.83243328  1
  I  I78  1  0.83023652  0.66283715  0.17087792  1
  I  I79  1  0.83143387  0.66340065  0.49833373  1
  I  I80  1  0.83917292  0.66389001  0.83157130  1
  I  I81  1  0.16240296  0.17595775  -0.00465029  1
  I  I82  1  0.16808133  0.16602154  0.33337067  1
  I  I83  1  0.16301185  0.16892943  0.66856301  1
  I  I84  1  0.16199863  0.49540617  -0.00326873  1
  I  I85  1  0.16443953  0.50413270  0.33683679  1
  I  I86  1  0.16333695  0.50003149  0.66542640  1
  I  I87  1  0.16462862  0.83285528  -0.00040746  1
  I  I88  1  0.16828242  0.82617741  0.33875198  1
  I  I89  1  0.17015596  0.83114523  0.66344290  1
  I  I90  1  0.50154966  0.16846109  0.00041723  1
  I  I91  1  0.49952839  0.16464609  0.33767594  1
  I  I92  1  0.50859407  0.17085463  0.66211155  1
  I  I93  1  0.50489565  0.49832830  0.00283997  1
  I  I94  1  0.50355466  0.50073229  0.33558843  1
  I  I95  1  0.50262909  0.50036345  0.66288379  1
  I  I96  1  0.50022806  0.83248982  0.00019661  1
  I  I97  1  0.49814129  0.83504396  0.33808342  1
  I  I98  1  0.49594925  0.82841841  0.66222111  1
  I  I99  1  0.83657211  0.17109053  0.00232205  1
  I  I100  1  0.83061011  0.17426784  0.33478518  1
  I  I101  1  0.83070375  0.16967682  0.66384650  1
  I  I102  1  0.83344520  0.49944664  -0.00009571  1
  I  I103  1  0.83296943  0.49592043  0.33455289  1
  I  I104  1  0.83346631  0.49987777  0.66564075  1
  I  I105  1  0.83701895  0.82846628  -0.00406060  1
  I  I106  1  0.83359380  0.83147698  0.33352428  1
  I  I107  1  0.83375436  0.82851104  0.66892279  1
  I  I108  1  -0.00430867  0.17505776  0.17589314  1
  I  I109  1  -0.00296813  0.16985394  0.49854903  1
  I  I110  1  0.00200000  0.16879801  0.82916703  1
  I  I111  1  -0.00342204  0.49646676  0.16958506  1
  I  I112  1  -0.00074845  0.49997859  0.50078612  1
  I  I113  1  -0.00092591  0.49993161  0.82929905  1
  I  I114  1  -0.00048500  0.83117364  0.16942179  1
  I  I115  1  0.00217436  0.82985355  0.50303031  1
  I  I116  1  -0.00257675  0.83160644  0.82956625  1
  I  I117  1  0.33363197  0.16824732  0.16777961  1
  I  I118  1  0.33567509  0.16924073  0.50310508  1
  I  I119  1  0.32877252  0.17539459  0.82898505  1
  I  I120  1  0.33608592  0.49998213  0.17232169  1
  I  I121  1  0.33356784  0.50057401  0.50005662  1
  I  I122  1  0.33007412  0.49599992  0.82821771  1
  I  I123  1  0.33361719  0.83161429  0.16188931  1
  I  I124  1  0.33350145  0.82893860  0.50195422  1
  I  I125  1  0.33330831  0.83271882  0.83360323  1
  I  I126  1  0.67038326  0.16909449  0.16628872  1
  I  I127  1  0.66754690  0.16944306  0.49786254  1
  I  I128  1  0.66671578  0.16621860  0.83416089  1
  I  I129  1  0.66805121  0.49718478  0.17076331  1
  I  I130  1  0.66714891  0.50014546  0.49993689  1
  I  I131  1  0.66995170  0.50345223  0.83002408  1
  I  I132  1  0.66677365  0.83426954  0.16890609  1
  I  I133  1  0.66427907  0.83038074  0.50173601  1
  I  I134  1  0.67080668  0.82598251  0.83058301  1
