# generated using pymatgen
data_Cs27Sn14Pb13I81
_symmetry_space_group_name_H-M   'P 1'
_cell_length_a   18.97390631
_cell_length_b   18.97275142
_cell_length_c   18.98057285
_cell_angle_alpha   90.00008619
_cell_angle_beta   90.00082480
_cell_angle_gamma   90.00197420
_symmetry_Int_Tables_number   1
_chemical_formula_structural   Cs27Sn14Pb13I81
_chemical_formula_sum   'Cs27 Sn14 Pb13 I81'
_cell_volume   6832.76341670
_cell_formula_units_Z   1
loop_
 _symmetry_equiv_pos_site_id
 _symmetry_equiv_pos_as_xyz
  1  'x, y, z'
loop_
 _atom_site_type_symbol
 _atom_site_label
 _atom_site_symmetry_multiplicity
 _atom_site_fract_x
 _atom_site_fract_y
 _atom_site_fract_z
 _atom_site_occupancy
  Cs  Cs0  1  -0.00060847  0.00093079  0.00339419  1
  Cs  Cs1  1  0.00028596  0.00066675  0.33317979  1
  Cs  Cs2  1  -0.00359825  0.00074885  0.66470806  1
  Cs  Cs3  1  0.00128957  0.33321422  0.00013788  1
  Cs  Cs4  1  -0.00017669  0.33386703  0.33354041  1
  Cs  Cs5  1  -0.00018658  0.33398499  0.66616277  1
  Cs  Cs6  1  0.00174858  0.66392404  -0.00557601  1
  Cs  Cs7  1  -0.00212658  0.66352702  0.33578713  1
  Cs  Cs8  1  0.00171122  0.66539586  0.66713683  1
  Cs  Cs9  1  0.33356894  -0.00220815  0.00629882  1
  Cs  Cs10  1  0.33186307  -0.00883274  0.33164422  1
  Cs  Cs11  1  0.33621427  -0.00430627  0.66221032  1
  Cs  Cs12  1  0.33104627  0.33137742  -0.00355438  1
  Cs  Cs13  1  0.33293460  0.33377194  0.33535050  1
  Cs  Cs14  1  0.33357079  0.33370155  0.66830655  1
  Cs  Cs15  1  0.33208971  0.67537221  -0.00118358  1
  Cs  Cs16  1  0.34098528  0.67281547  0.33218927  1
  Cs  Cs17  1  0.33000332  0.67476117  0.66684247  1
  Cs  Cs18  1  0.66780980  0.00140475  -0.00246337  1
  Cs  Cs19  1  0.66968473  0.00218599  0.33458342  1
  Cs  Cs20  1  0.66784432  0.00137654  0.66846949  1
  Cs  Cs21  1  0.66698571  0.33279751  -0.00059989  1
  Cs  Cs22  1  0.66514705  0.33594903  0.33321665  1
  Cs  Cs23  1  0.66627262  0.33161020  0.66670585  1
  Cs  Cs24  1  0.66409650  0.66769775  0.00332500  1
  Cs  Cs25  1  0.66299523  0.66182538  0.32864479  1
  Cs  Cs26  1  0.66722638  0.66809827  0.66839384  1
  Sn  Sn27  1  0.83362059  0.16768580  0.83337625  1
  Sn  Sn28  1  0.50054107  0.16744976  0.16645298  1
  Sn  Sn29  1  0.83348628  0.83293031  0.49896523  1
  Sn  Sn30  1  0.16664458  0.16673222  0.83231328  1
  Sn  Sn31  1  0.50053801  0.49937572  0.83307945  1
  Sn  Sn32  1  0.83384186  0.83367455  0.16733275  1
  Sn  Sn33  1  0.49981227  0.16739994  0.83418766  1
  Sn  Sn34  1  0.83365879  0.49985420  0.50086027  1
  Sn  Sn35  1  0.16705881  0.49995250  0.16778799  1
  Sn  Sn36  1  0.83255497  0.16632613  0.16682387  1
  Sn  Sn37  1  0.83399559  0.16719434  0.49983096  1
  Sn  Sn38  1  0.83224158  0.49896865  0.83261413  1
  Sn  Sn39  1  0.16611998  0.16756075  0.50067919  1
  Sn  Sn40  1  0.16640883  0.49916117  0.49887723  1
  Pb  Pb41  1  0.16667384  0.16777578  0.16741893  1
  Pb  Pb42  1  0.50379389  0.83320996  0.49997029  1
  Pb  Pb43  1  0.83344410  0.83316728  0.83348189  1
  Pb  Pb44  1  0.49688374  0.49755025  0.16385738  1
  Pb  Pb45  1  0.83434682  0.49960762  0.16629858  1
  Pb  Pb46  1  0.50316903  0.83637974  0.16657487  1
  Pb  Pb47  1  0.16685471  0.49858857  0.83251040  1
  Pb  Pb48  1  0.16335750  0.82986207  0.16694883  1
  Pb  Pb49  1  0.49957730  0.16672670  0.49993049  1
  Pb  Pb50  1  0.16417564  0.83327127  0.49990217  1
  Pb  Pb51  1  0.16621553  0.83775901  0.83325355  1
  Pb  Pb52  1  0.50028885  0.83393341  0.83339452  1
  Pb  Pb53  1  0.49958667  0.49989403  0.50260840  1
  I  I54  1  0.16904237  0.00010892  0.16571601  1
  I  I55  1  0.16267808  0.00346635  0.50502440  1
  I  I56  1  0.16474825  0.00618100  0.82798136  1
  I  I57  1  0.16247634  0.33533906  0.16768388  1
  I  I58  1  0.15758092  0.33283451  0.50005359  1
  I  I59  1  0.16570728  0.33018644  0.83265054  1
  I  I60  1  0.16457259  0.66202373  0.17167276  1
  I  I61  1  0.16150327  0.66323864  0.49725753  1
  I  I62  1  0.16644953  0.66642903  0.83382827  1
  I  I63  1  0.49939932  0.00450568  0.15921727  1
  I  I64  1  0.49913263  0.00041896  0.50275144  1
  I  I65  1  0.50199901  0.00431278  0.83650150  1
  I  I66  1  0.50902171  0.32972762  0.16485205  1
  I  I67  1  0.50497415  0.33314092  0.49776186  1
  I  I68  1  0.50209446  0.33179033  0.83672651  1
  I  I69  1  0.50019772  0.66655777  0.16530306  1
  I  I70  1  0.49939608  0.66635291  0.50235138  1
  I  I71  1  0.50614283  0.66346089  0.83203224  1
  I  I72  1  0.83029775  0.00209093  0.16912177  1
  I  I73  1  0.83654500  0.00172495  0.49995761  1
  I  I74  1  0.83255181  0.00370223  0.83083760  1
  I  I75  1  0.83140126  0.33008465  0.16800843  1
  I  I76  1  0.83746482  0.33267334  0.50095130  1
  I  I77  1  0.83283142  0.33204092  0.83092166  1
  I  I78  1  0.83693136  0.66856489  0.17004689  1
  I  I79  1  0.83762344  0.66549259  0.50074155  1
  I  I80  1  0.82969845  0.66315496  0.83080392  1
  I  I81  1  0.16362634  0.16973456  -0.00222838  1
  I  I82  1  0.16187872  0.16950293  0.33631053  1
  I  I83  1  0.16253685  0.17300542  0.66628513  1
  I  I84  1  0.16457610  0.49698934  0.00115683  1
  I  I85  1  0.15802065  0.49216385  0.33508939  1
  I  I86  1  0.16400606  0.49700867  0.66378195  1
  I  I87  1  0.16379140  0.83163232  0.00021782  1
  I  I88  1  0.16738124  0.83976172  0.33340883  1
  I  I89  1  0.16427651  0.82783756  0.66647257  1
  I  I90  1  0.50390663  0.17042458  -0.00107016  1
  I  I91  1  0.50496880  0.16604746  0.33067078  1
  I  I92  1  0.50284091  0.17042167  0.66991905  1
  I  I93  1  0.50697026  0.49643999  -0.00388394  1
  I  I94  1  0.50251530  0.49905183  0.33318071  1
  I  I95  1  0.50107315  0.49060598  0.67049732  1
  I  I96  1  0.50294679  0.83120722  0.00007172  1
  I  I97  1  0.49771002  0.83507989  0.33305155  1
  I  I98  1  0.50134516  0.83597109  0.66681332  1
  I  I99  1  0.83328888  0.16637865  -0.00062458  1
  I  I100  1  0.83372244  0.16583295  0.33387856  1
  I  I101  1  0.83364874  0.16656309  0.66666272  1
  I  I102  1  0.83260521  0.49653975  -0.00274298  1
  I  I103  1  0.83674737  0.49760259  0.33608764  1
  I  I104  1  0.83562221  0.49715286  0.66623477  1
  I  I105  1  0.83274064  0.83797470  0.00270223  1
  I  I106  1  0.83435843  0.83844981  0.33394942  1
  I  I107  1  0.83406369  0.83622947  0.66371117  1
  I  I108  1  -0.00314301  0.16418205  0.16404096  1
  I  I109  1  -0.00155848  0.16696931  0.50293449  1
  I  I110  1  -0.00137897  0.17075813  0.83327895  1
  I  I111  1  0.00196705  0.49695274  0.16558831  1
  I  I112  1  -0.00148307  0.49895677  0.50225252  1
  I  I113  1  -0.00275838  0.49625144  0.83296075  1
  I  I114  1  -0.00423313  0.84331080  0.17008874  1
  I  I115  1  -0.00404510  0.83469985  0.49657846  1
  I  I116  1  -0.00057915  0.83105002  0.83409948  1
  I  I117  1  0.33546524  0.17101699  0.16167944  1
  I  I118  1  0.32992974  0.17297900  0.50376072  1
  I  I119  1  0.33361694  0.17248465  0.83382673  1
  I  I120  1  0.32942400  0.49537189  0.17225326  1
  I  I121  1  0.32981119  0.49246273  0.49777257  1
  I  I122  1  0.33553491  0.49305815  0.83439664  1
  I  I123  1  0.33337791  0.83437489  0.16590005  1
  I  I124  1  0.33310093  0.83391652  0.50084127  1
  I  I125  1  0.33334592  0.83047365  0.83314953  1
  I  I126  1  0.66845099  0.16323002  0.16321738  1
  I  I127  1  0.67031585  0.16658605  0.50208844  1
  I  I128  1  0.66795257  0.16981147  0.83380953  1
  I  I129  1  0.66662604  0.50225489  0.16874771  1
  I  I130  1  0.67035973  0.49855876  0.50172252  1
  I  I131  1  0.66833312  0.49157593  0.82823716  1
  I  I132  1  0.67098511  0.83294134  0.17109169  1
  I  I133  1  0.67226136  0.83542943  0.49729551  1
  I  I134  1  0.66712223  0.83747829  0.83184425  1
