# generated using pymatgen
data_Cs27Sn14Pb13I81
_symmetry_space_group_name_H-M   'P 1'
_cell_length_a   18.97777387
_cell_length_b   18.97771722
_cell_length_c   18.97071642
_cell_angle_alpha   89.99912108
_cell_angle_beta   89.99962792
_cell_angle_gamma   89.99955493
_symmetry_Int_Tables_number   1
_chemical_formula_structural   Cs27Sn14Pb13I81
_chemical_formula_sum   'Cs27 Sn14 Pb13 I81'
_cell_volume   6832.39506991
_cell_formula_units_Z   1
loop_
 _symmetry_equiv_pos_site_id
 _symmetry_equiv_pos_as_xyz
  1  'x, y, z'
loop_
 _atom_site_type_symbol
 _atom_site_label
 _atom_site_symmetry_multiplicity
 _atom_site_fract_x
 _atom_site_fract_y
 _atom_site_fract_z
 _atom_site_occupancy
  Cs  Cs0  1  0.00052585  -0.00151680  0.00026671  1
  Cs  Cs1  1  0.00082582  0.00084196  0.32911003  1
  Cs  Cs2  1  -0.00160995  0.00212054  0.67011936  1
  Cs  Cs3  1  -0.00101946  0.33126082  -0.00314320  1
  Cs  Cs4  1  0.00244597  0.33298108  0.33731319  1
  Cs  Cs5  1  -0.00016265  0.33390512  0.66778440  1
  Cs  Cs6  1  0.00089785  0.67145815  0.00074142  1
  Cs  Cs7  1  -0.00687550  0.66704063  0.33210376  1
  Cs  Cs8  1  0.00437333  0.66431062  0.66767663  1
  Cs  Cs9  1  0.33412388  -0.00108857  0.00106195  1
  Cs  Cs10  1  0.33473419  0.00366022  0.33314836  1
  Cs  Cs11  1  0.33667195  -0.00212021  0.66500749  1
  Cs  Cs12  1  0.33641503  0.33418565  0.00038442  1
  Cs  Cs13  1  0.32926975  0.33354321  0.33514158  1
  Cs  Cs14  1  0.33191434  0.33616432  0.66617664  1
  Cs  Cs15  1  0.33502772  0.66730110  0.00018125  1
  Cs  Cs16  1  0.33349450  0.66410252  0.33918781  1
  Cs  Cs17  1  0.33122882  0.66479179  0.66498501  1
  Cs  Cs18  1  0.66544191  0.00269936  -0.00140163  1
  Cs  Cs19  1  0.66381657  -0.00351797  0.33930901  1
  Cs  Cs20  1  0.66458238  -0.00090974  0.66407092  1
  Cs  Cs21  1  0.66433780  0.33145793  -0.00072333  1
  Cs  Cs22  1  0.67134360  0.33526515  0.33141263  1
  Cs  Cs23  1  0.66977144  0.33119385  0.66934490  1
  Cs  Cs24  1  0.66383255  0.66520102  0.00243707  1
  Cs  Cs25  1  0.67661716  0.66839780  0.33192557  1
  Cs  Cs26  1  0.66582283  0.66970787  0.66601333  1
  Sn  Sn27  1  0.83251238  0.16666832  0.16591250  1
  Sn  Sn28  1  0.16728184  0.50114265  0.49975099  1
  Sn  Sn29  1  0.16613819  0.49943721  0.83409910  1
  Sn  Sn30  1  0.16638694  0.83321349  0.49985207  1
  Sn  Sn31  1  0.50091407  0.16605323  0.16614521  1
  Sn  Sn32  1  0.16666321  0.50021910  0.16619346  1
  Sn  Sn33  1  0.49969901  0.83359596  0.16635701  1
  Sn  Sn34  1  0.83233108  0.83325853  0.83345498  1
  Sn  Sn35  1  0.16722954  0.16716435  0.83339966  1
  Sn  Sn36  1  0.83313225  0.16645490  0.83403107  1
  Sn  Sn37  1  0.50056363  0.83385103  0.83401266  1
  Sn  Sn38  1  0.83387452  0.50044048  0.83360335  1
  Sn  Sn39  1  0.50038549  0.49972932  0.49993863  1
  Sn  Sn40  1  0.49968269  0.16590768  0.83372417  1
  Pb  Pb41  1  0.83389800  0.49997206  0.50243891  1
  Pb  Pb42  1  0.16668354  0.16677057  0.50268642  1
  Pb  Pb43  1  0.83644097  0.83347629  0.50266273  1
  Pb  Pb44  1  0.49860526  0.83125930  0.49989505  1
  Pb  Pb45  1  0.49857383  0.49971540  0.16917530  1
  Pb  Pb46  1  0.16719820  0.83335092  0.83226655  1
  Pb  Pb47  1  0.83587356  0.49757807  0.16373815  1
  Pb  Pb48  1  0.83095020  0.83589280  0.16421049  1
  Pb  Pb49  1  0.83324346  0.16645237  0.49979069  1
  Pb  Pb50  1  0.16916074  0.83108750  0.16926385  1
  Pb  Pb51  1  0.16698252  0.16834744  0.16425091  1
  Pb  Pb52  1  0.50009370  0.16931707  0.49974357  1
  Pb  Pb53  1  0.49999942  0.50005648  0.83201439  1
  I  I54  1  0.16488220  0.00011555  0.16738154  1
  I  I55  1  0.16715691  -0.00250161  0.50348972  1
  I  I56  1  0.16406801  0.00257097  0.83120572  1
  I  I57  1  0.16903293  0.33633385  0.17112756  1
  I  I58  1  0.17027047  0.33678761  0.49907765  1
  I  I59  1  0.16389380  0.33404669  0.83098392  1
  I  I60  1  0.16900357  0.66306120  0.15996550  1
  I  I61  1  0.17179298  0.66462982  0.50432813  1
  I  I62  1  0.16370233  0.66372441  0.83325293  1
  I  I63  1  0.50221478  0.00081448  0.16193578  1
  I  I64  1  0.49764198  -0.00008138  0.50063878  1
  I  I65  1  0.50189004  0.00057298  0.83571381  1
  I  I66  1  0.50236288  0.33023215  0.16132728  1
  I  I67  1  0.49122706  0.33681277  0.50159785  1
  I  I68  1  0.50173535  0.33055214  0.83628288  1
  I  I69  1  0.49637617  0.66908273  0.16162919  1
  I  I70  1  0.49508355  0.66365817  0.50245012  1
  I  I71  1  0.50259559  0.66922785  0.83571048  1
  I  I72  1  0.83488085  0.00376428  0.15931699  1
  I  I73  1  0.83502830  -0.00019335  0.50379076  1
  I  I74  1  0.83444293  0.00091437  0.83632281  1
  I  I75  1  0.82590371  0.32987168  0.15981379  1
  I  I76  1  0.83536904  0.33348331  0.50312680  1
  I  I77  1  0.83420163  0.33259186  0.83566756  1
  I  I78  1  0.83252178  0.66670663  0.16540198  1
  I  I79  1  0.83085236  0.66661529  0.50170784  1
  I  I80  1  0.83435113  0.66661142  0.83091876  1
  I  I81  1  0.16636714  0.17215885  -0.00410783  1
  I  I82  1  0.16652072  0.16831168  0.33309248  1
  I  I83  1  0.16578520  0.17250748  0.67130737  1
  I  I84  1  0.16275183  0.49446620  -0.00147512  1
  I  I85  1  0.17342369  0.50321015  0.33415202  1
  I  I86  1  0.16660679  0.49988983  0.66734795  1
  I  I87  1  0.16535425  0.83171412  -0.00001903  1
  I  I88  1  0.16939418  0.82752377  0.33698011  1
  I  I89  1  0.16857739  0.82670659  0.66470983  1
  I  I90  1  0.50049801  0.16408056  -0.00141290  1
  I  I91  1  0.50430267  0.16268338  0.32978652  1
  I  I92  1  0.50070117  0.16332859  0.67031089  1
  I  I93  1  0.49820751  0.50046844  -0.00000057  1
  I  I94  1  0.49158096  0.49924533  0.33664984  1
  I  I95  1  0.49319399  0.50051093  0.66453340  1
  I  I96  1  0.50230119  0.83633585  -0.00133680  1
  I  I97  1  0.49614584  0.83807241  0.33071960  1
  I  I98  1  0.50280387  0.83714495  0.66972266  1
  I  I99  1  0.83263361  0.16762751  -0.00218136  1
  I  I100  1  0.82835036  0.16763478  0.32971405  1
  I  I101  1  0.83332490  0.16765752  0.67104846  1
  I  I102  1  0.83795334  0.50111044  -0.00446713  1
  I  I103  1  0.83390406  0.49791220  0.33298738  1
  I  I104  1  0.83879170  0.49629190  0.67093069  1
  I  I105  1  0.83469787  0.83101114  -0.00421771  1
  I  I106  1  0.83229245  0.83446917  0.33296907  1
  I  I107  1  0.82623915  0.83644668  0.67136198  1
  I  I108  1  -0.00229666  0.16931361  0.16157039  1
  I  I109  1  0.00021450  0.16918886  0.50056978  1
  I  I110  1  -0.00056846  0.16750471  0.83572077  1
  I  I111  1  0.00379114  0.49844965  0.17202466  1
  I  I112  1  0.00360155  0.50325254  0.49953048  1
  I  I113  1  0.00101401  0.49616327  0.83061610  1
  I  I114  1  -0.00007925  0.83398004  0.16655021  1
  I  I115  1  0.00405329  0.82466610  0.50211987  1
  I  I116  1  -0.00214649  0.83567187  0.83014810  1
  I  I117  1  0.33631611  0.16433291  0.16189395  1
  I  I118  1  0.33333463  0.16600182  0.50084945  1
  I  I119  1  0.33397579  0.16745414  0.83651159  1
  I  I120  1  0.33056584  0.49764647  0.16121196  1
  I  I121  1  0.33145488  0.50319523  0.50355598  1
  I  I122  1  0.33044533  0.49687813  0.83323898  1
  I  I123  1  0.33689873  0.84052677  0.15816588  1
  I  I124  1  0.33083291  0.82923489  0.50424246  1
  I  I125  1  0.33617302  0.83642138  0.83500724  1
  I  I126  1  0.66586457  0.16501486  0.15670357  1
  I  I127  1  0.66642106  0.16920680  0.50580978  1
  I  I128  1  0.66665435  0.16764085  0.83683782  1
  I  I129  1  0.66682323  0.50146174  0.16772052  1
  I  I130  1  0.66443212  0.49897412  0.50233721  1
  I  I131  1  0.66900991  0.49721541  0.83060864  1
  I  I132  1  0.66292386  0.83233009  0.16600450  1
  I  I133  1  0.66660497  0.83123960  0.49908584  1
  I  I134  1  0.66615294  0.83565786  0.83584517  1
