# generated using pymatgen
data_Cs27Sn14Pb13I81
_symmetry_space_group_name_H-M   'P 1'
_cell_length_a   18.98022309
_cell_length_b   18.96905371
_cell_length_c   18.97979191
_cell_angle_alpha   89.99972654
_cell_angle_beta   90.00075309
_cell_angle_gamma   90.00001396
_symmetry_Int_Tables_number   1
_chemical_formula_structural   Cs27Sn14Pb13I81
_chemical_formula_sum   'Cs27 Sn14 Pb13 I81'
_cell_volume   6833.42489626
_cell_formula_units_Z   1
loop_
 _symmetry_equiv_pos_site_id
 _symmetry_equiv_pos_as_xyz
  1  'x, y, z'
loop_
 _atom_site_type_symbol
 _atom_site_label
 _atom_site_symmetry_multiplicity
 _atom_site_fract_x
 _atom_site_fract_y
 _atom_site_fract_z
 _atom_site_occupancy
  Cs  Cs0  1  -0.00145317  -0.00027382  0.00080706  1
  Cs  Cs1  1  0.00083494  0.00129413  0.33189072  1
  Cs  Cs2  1  0.00035645  -0.00052435  0.66763780  1
  Cs  Cs3  1  -0.00165310  0.33983023  0.00349147  1
  Cs  Cs4  1  0.00168360  0.33463118  0.33246187  1
  Cs  Cs5  1  0.00096669  0.33921221  0.66451115  1
  Cs  Cs6  1  0.00112283  0.66309367  0.00050824  1
  Cs  Cs7  1  0.00056775  0.65873350  0.33492260  1
  Cs  Cs8  1  0.00083496  0.65903747  0.66365347  1
  Cs  Cs9  1  0.33029190  -0.00085844  -0.00090065  1
  Cs  Cs10  1  0.33285129  -0.00012811  0.33258054  1
  Cs  Cs11  1  0.32892185  0.00126450  0.66894024  1
  Cs  Cs12  1  0.33651151  0.33426180  -0.00612977  1
  Cs  Cs13  1  0.33454500  0.33247566  0.33367421  1
  Cs  Cs14  1  0.33669656  0.33384572  0.67126460  1
  Cs  Cs15  1  0.33147515  0.66820271  -0.00255850  1
  Cs  Cs16  1  0.33567363  0.66708496  0.33286731  1
  Cs  Cs17  1  0.32946917  0.66537454  0.67058757  1
  Cs  Cs18  1  0.66900362  -0.00054323  0.00074576  1
  Cs  Cs19  1  0.66626911  -0.00060268  0.33314551  1
  Cs  Cs20  1  0.66902265  -0.00109778  0.66638545  1
  Cs  Cs21  1  0.66536668  0.33498236  -0.00156990  1
  Cs  Cs22  1  0.66385653  0.33085701  0.33204351  1
  Cs  Cs23  1  0.66275824  0.33374532  0.66998983  1
  Cs  Cs24  1  0.66686037  0.66792425  -0.00133589  1
  Cs  Cs25  1  0.66409944  0.66978291  0.33719336  1
  Cs  Cs26  1  0.66966571  0.66827648  0.66551936  1
  Sn  Sn27  1  0.83341905  0.16602609  0.16663861  1
  Sn  Sn28  1  0.83337156  0.16633466  0.49998636  1
  Sn  Sn29  1  0.16677124  0.16584694  0.49930867  1
  Sn  Sn30  1  0.16673693  0.16598468  0.16715472  1
  Sn  Sn31  1  0.49982856  0.16721002  0.16702410  1
  Sn  Sn32  1  0.50001289  0.49941868  0.49908685  1
  Sn  Sn33  1  0.50079489  0.83417480  0.83327306  1
  Sn  Sn34  1  0.83432748  0.83385729  0.16647464  1
  Sn  Sn35  1  0.83366301  0.16615618  0.83357710  1
  Sn  Sn36  1  0.16531276  0.83404629  0.16795381  1
  Sn  Sn37  1  0.16640325  0.83413020  0.49880487  1
  Sn  Sn38  1  0.50012253  0.49939426  0.16743377  1
  Sn  Sn39  1  0.49987109  0.16690434  0.49945109  1
  Sn  Sn40  1  0.83281539  0.83421384  0.83403149  1
  Pb  Pb41  1  0.50030616  0.50284335  0.83324282  1
  Pb  Pb42  1  0.49761979  0.83416846  0.50227146  1
  Pb  Pb43  1  0.16951225  0.49965581  0.16675658  1
  Pb  Pb44  1  0.83584451  0.83517248  0.49954421  1
  Pb  Pb45  1  0.16943592  0.49904504  0.49964479  1
  Pb  Pb46  1  0.83316066  0.50035278  0.83344735  1
  Pb  Pb47  1  0.50202303  0.16452025  0.83347904  1
  Pb  Pb48  1  0.16334180  0.16684387  0.83373727  1
  Pb  Pb49  1  0.49995687  0.83397955  0.16535550  1
  Pb  Pb50  1  0.16499357  0.83354673  0.83362592  1
  Pb  Pb51  1  0.83059554  0.50026650  0.16694088  1
  Pb  Pb52  1  0.16658589  0.49957329  0.83356081  1
  Pb  Pb53  1  0.83025319  0.49655214  0.49963314  1
  I  I54  1  0.16845130  0.00089211  0.17065281  1
  I  I55  1  0.16959683  0.00155295  0.49621375  1
  I  I56  1  0.17081967  0.00007338  0.83192016  1
  I  I57  1  0.16260151  0.32941536  0.17151693  1
  I  I58  1  0.16329623  0.32924865  0.49511027  1
  I  I59  1  0.16628477  0.33253182  0.83284664  1
  I  I60  1  0.16324644  0.67005913  0.16931208  1
  I  I61  1  0.16799702  0.66935027  0.49730233  1
  I  I62  1  0.16666428  0.66734120  0.83287996  1
  I  I63  1  0.50070899  0.00338568  0.17065052  1
  I  I64  1  0.50215967  0.00370610  0.49545006  1
  I  I65  1  0.50221212  -0.00293261  0.83377369  1
  I  I66  1  0.50039631  0.33115087  0.17017313  1
  I  I67  1  0.49887550  0.33126827  0.49647439  1
  I  I68  1  0.50111704  0.33303682  0.83329300  1
  I  I69  1  0.50009789  0.66475605  0.16937486  1
  I  I70  1  0.49784124  0.66463101  0.49634762  1
  I  I71  1  0.50572946  0.67050991  0.83417482  1
  I  I72  1  0.83146891  0.00135365  0.16566001  1
  I  I73  1  0.82709069  0.00377682  0.49975788  1
  I  I74  1  0.82854284  0.00009681  0.83466380  1
  I  I75  1  0.83649272  0.32939352  0.16613704  1
  I  I76  1  0.83995301  0.32777141  0.49922870  1
  I  I77  1  0.83355867  0.32970793  0.83415236  1
  I  I78  1  0.83683592  0.67023760  0.16015321  1
  I  I79  1  0.83362650  0.66675198  0.50132023  1
  I  I80  1  0.82943523  0.67056680  0.83890195  1
  I  I81  1  0.16856644  0.16145674  0.00388830  1
  I  I82  1  0.16359354  0.16262950  0.33306229  1
  I  I83  1  0.16788871  0.16243060  0.66319964  1
  I  I84  1  0.16993930  0.50067675  0.00070615  1
  I  I85  1  0.16499982  0.50166158  0.33323752  1
  I  I86  1  0.16926924  0.50143783  0.66604589  1
  I  I87  1  0.16720211  0.83817610  0.00334130  1
  I  I88  1  0.16303920  0.83866340  0.33229759  1
  I  I89  1  0.16899835  0.83805538  0.66393444  1
  I  I90  1  0.49953914  0.16975444  0.00327238  1
  I  I91  1  0.50366019  0.16976102  0.33306450  1
  I  I92  1  0.49965292  0.16995519  0.66361503  1
  I  I93  1  0.49976338  0.49476439  0.00292761  1
  I  I94  1  0.49990501  0.49559216  0.33323105  1
  I  I95  1  0.49912507  0.49427605  0.66366936  1
  I  I96  1  0.49969251  0.83356279  -0.00229171  1
  I  I97  1  0.50235928  0.83210506  0.33338920  1
  I  I98  1  0.50555127  0.83360031  0.66970627  1
  I  I99  1  0.83235233  0.16201626  0.00121180  1
  I  I100  1  0.83232496  0.16296252  0.33263924  1
  I  I101  1  0.83210544  0.16218346  0.66630908  1
  I  I102  1  0.83027243  0.49498278  0.00031558  1
  I  I103  1  0.83476164  0.50213017  0.33328552  1
  I  I104  1  0.83113533  0.50070929  0.66645377  1
  I  I105  1  0.83390677  0.84182539  0.00085527  1
  I  I106  1  0.83392303  0.83839516  0.33021049  1
  I  I107  1  0.82964064  0.83840496  0.66901590  1
  I  I108  1  -0.00027573  0.16106817  0.16902661  1
  I  I109  1  0.00019861  0.16028952  0.49791455  1
  I  I110  1  -0.00468260  0.15770766  0.83315060  1
  I  I111  1  0.00002162  0.49797431  0.16488566  1
  I  I112  1  0.00011499  0.50020104  0.50261497  1
  I  I113  1  -0.00042214  0.50200344  0.83276561  1
  I  I114  1  -0.00034815  0.84253075  0.16373989  1
  I  I115  1  0.00361675  0.84018472  0.50120912  1
  I  I116  1  -0.00358615  0.83959835  0.83515006  1
  I  I117  1  0.33329714  0.16585832  0.17407797  1
  I  I118  1  0.33343169  0.16638710  0.49282363  1
  I  I119  1  0.33336693  0.16555463  0.83317998  1
  I  I120  1  0.33727668  0.49662068  0.17113011  1
  I  I121  1  0.33703436  0.49457983  0.49572154  1
  I  I122  1  0.33407155  0.50243108  0.83349945  1
  I  I123  1  0.33085398  0.83622808  0.16829134  1
  I  I124  1  0.32999705  0.83879366  0.49507774  1
  I  I125  1  0.33484939  0.83152278  0.83356735  1
  I  I126  1  0.66696641  0.16639111  0.16926707  1
  I  I127  1  0.66648539  0.17116437  0.49727931  1
  I  I128  1  0.67005446  0.16433330  0.83340230  1
  I  I129  1  0.66283156  0.49516150  0.17029592  1
  I  I130  1  0.66241652  0.49616037  0.49590816  1
  I  I131  1  0.66649026  0.49848980  0.83319718  1
  I  I132  1  0.66919711  0.83675660  0.16347522  1
  I  I133  1  0.66673450  0.83328313  0.49857085  1
  I  I134  1  0.66805981  0.83682220  0.83897634  1
