# generated using pymatgen
data_Cs27Sn13Pb14I81
_symmetry_space_group_name_H-M   'P 1'
_cell_length_a   18.99752231
_cell_length_b   19.01325430
_cell_length_c   19.00975853
_cell_angle_alpha   90.00177002
_cell_angle_beta   90.00062403
_cell_angle_gamma   90.00167665
_symmetry_Int_Tables_number   1
_chemical_formula_structural   Cs27Sn13Pb14I81
_chemical_formula_sum   'Cs27 Sn13 Pb14 I81'
_cell_volume   6866.41455037
_cell_formula_units_Z   1
loop_
 _symmetry_equiv_pos_site_id
 _symmetry_equiv_pos_as_xyz
  1  'x, y, z'
loop_
 _atom_site_type_symbol
 _atom_site_label
 _atom_site_symmetry_multiplicity
 _atom_site_fract_x
 _atom_site_fract_y
 _atom_site_fract_z
 _atom_site_occupancy
  Cs  Cs0  1  -0.00027081  0.00516531  0.00272180  1
  Cs  Cs1  1  -0.00234472  0.00462980  0.33198454  1
  Cs  Cs2  1  -0.00325414  -0.00266127  0.66539447  1
  Cs  Cs3  1  -0.00676947  0.33421731  0.00477984  1
  Cs  Cs4  1  -0.00164027  0.33538715  0.33017802  1
  Cs  Cs5  1  0.00562914  0.33410847  0.66473999  1
  Cs  Cs6  1  -0.00367083  0.66405851  -0.00115016  1
  Cs  Cs7  1  -0.00072010  0.66423387  0.33609354  1
  Cs  Cs8  1  0.00150825  0.66913688  0.66423673  1
  Cs  Cs9  1  0.33308246  -0.00361207  0.00414220  1
  Cs  Cs10  1  0.33305156  -0.00388480  0.32751450  1
  Cs  Cs11  1  0.33245559  -0.00116590  0.66793113  1
  Cs  Cs12  1  0.33391041  0.33273629  -0.00023944  1
  Cs  Cs13  1  0.33525020  0.33459141  0.33409202  1
  Cs  Cs14  1  0.33597299  0.33268133  0.66682767  1
  Cs  Cs15  1  0.33340887  0.67026918  0.00162064  1
  Cs  Cs16  1  0.33482700  0.66791541  0.33250723  1
  Cs  Cs17  1  0.33244697  0.66672134  0.66622856  1
  Cs  Cs18  1  0.66692422  0.00025910  -0.00348336  1
  Cs  Cs19  1  0.66931721  -0.00014020  0.33688288  1
  Cs  Cs20  1  0.67557022  0.00527353  0.66604574  1
  Cs  Cs21  1  0.67351070  0.33281059  -0.00550007  1
  Cs  Cs22  1  0.66582062  0.32996558  0.33409576  1
  Cs  Cs23  1  0.65375852  0.32417867  0.67372122  1
  Cs  Cs24  1  0.67259026  0.66457898  0.00032374  1
  Cs  Cs25  1  0.66664424  0.66802383  0.33113127  1
  Cs  Cs26  1  0.66736238  0.66707335  0.66979978  1
  Sn  Sn27  1  0.83268551  0.49946986  0.50096730  1
  Sn  Sn28  1  0.16770475  0.50025457  0.16663015  1
  Sn  Sn29  1  0.49961791  0.49881812  0.16655811  1
  Sn  Sn30  1  0.49944338  0.83318719  0.50135602  1
  Sn  Sn31  1  0.49921335  0.83313269  0.83190684  1
  Sn  Sn32  1  0.83387210  0.83320717  0.16694892  1
  Sn  Sn33  1  0.16725608  0.16644617  0.50030128  1
  Sn  Sn34  1  0.16748314  0.83367789  0.50030906  1
  Sn  Sn35  1  0.49962181  0.16793508  0.16662633  1
  Sn  Sn36  1  0.16730126  0.83343468  0.83272235  1
  Sn  Sn37  1  0.16631697  0.49989615  0.49999898  1
  Sn  Sn38  1  0.16705495  0.50007793  0.83337311  1
  Sn  Sn39  1  0.16707243  0.16645724  0.83278429  1
  Pb  Pb40  1  0.49701765  0.16369309  0.49836670  1
  Pb  Pb41  1  0.49758808  0.50229998  0.83575070  1
  Pb  Pb42  1  0.83595292  0.17025367  0.50020229  1
  Pb  Pb43  1  0.16805181  0.16944034  0.16669056  1
  Pb  Pb44  1  0.49974448  0.50184558  0.49861252  1
  Pb  Pb45  1  0.83564053  0.49985437  0.82955688  1
  Pb  Pb46  1  0.83417383  0.83327978  0.83509696  1
  Pb  Pb47  1  0.83302647  0.50104435  0.16866242  1
  Pb  Pb48  1  0.49706758  0.16390857  0.83528757  1
  Pb  Pb49  1  0.83015765  0.16447184  0.16684168  1
  Pb  Pb50  1  0.50167833  0.83286829  0.16639768  1
  Pb  Pb51  1  0.16473735  0.83104927  0.16667135  1
  Pb  Pb52  1  0.83665840  0.16692256  0.83293043  1
  Pb  Pb53  1  0.83379886  0.83160828  0.49873887  1
  I  I54  1  0.16725397  0.00004137  0.16682263  1
  I  I55  1  0.17200187  -0.00079902  0.50697497  1
  I  I56  1  0.17085256  -0.00077763  0.82613909  1
  I  I57  1  0.16712787  0.33729622  0.16740170  1
  I  I58  1  0.16097960  0.33413797  0.50212174  1
  I  I59  1  0.16526527  0.33381999  0.82953215  1
  I  I60  1  0.17329133  0.66328040  0.16771931  1
  I  I61  1  0.16622659  0.66659073  0.50207307  1
  I  I62  1  0.17047541  0.66685086  0.83063947  1
  I  I63  1  0.50114096  0.00139676  0.16667158  1
  I  I64  1  0.49406490  -0.00413637  0.49942951  1
  I  I65  1  0.49233590  -0.00371302  0.83396084  1
  I  I66  1  0.49290486  0.33438599  0.16897138  1
  I  I67  1  0.50000360  0.33315352  0.49872654  1
  I  I68  1  0.49916699  0.33321735  0.83309008  1
  I  I69  1  0.49617350  0.66452661  0.16755607  1
  I  I70  1  0.49257441  0.66962497  0.49968889  1
  I  I71  1  0.49251412  0.66999134  0.83206279  1
  I  I72  1  0.83341851  -0.00312474  0.16818703  1
  I  I73  1  0.83366780  0.00018691  0.49757978  1
  I  I74  1  0.83516070  -0.00020484  0.83467370  1
  I  I75  1  0.83589160  0.33334560  0.16765432  1
  I  I76  1  0.84229213  0.33775493  0.49548779  1
  I  I77  1  0.83421688  0.33359361  0.83671166  1
  I  I78  1  0.83068901  0.66853125  0.16726810  1
  I  I79  1  0.84253066  0.66430023  0.49758930  1
  I  I80  1  0.83557563  0.66662353  0.83534771  1
  I  I81  1  0.16906241  0.16449309  -0.00270690  1
  I  I82  1  0.16814430  0.16563868  0.33614374  1
  I  I83  1  0.16702732  0.17173587  0.66636407  1
  I  I84  1  0.17300113  0.50146706  -0.00010758  1
  I  I85  1  0.16624268  0.50075872  0.33409189  1
  I  I86  1  0.16043186  0.50099929  0.66625656  1
  I  I87  1  0.17091083  0.83355344  -0.00303259  1
  I  I88  1  0.17068949  0.83273857  0.33642183  1
  I  I89  1  0.17009315  0.82849906  0.66626763  1
  I  I90  1  0.49608847  0.16766902  0.00288764  1
  I  I91  1  0.49654010  0.16821467  0.33069789  1
  I  I92  1  0.50166551  0.16851390  0.66676166  1
  I  I93  1  0.49311721  0.50005411  0.00368151  1
  I  I94  1  0.49243311  0.50077014  0.33070249  1
  I  I95  1  0.50073528  0.49975878  0.66684419  1
  I  I96  1  0.49457411  0.83381333  -0.00230651  1
  I  I97  1  0.49532017  0.83269944  0.33550578  1
  I  I98  1  0.49328133  0.83118566  0.66642378  1
  I  I99  1  0.83675413  0.16633528  0.00022014  1
  I  I100  1  0.83698363  0.16526051  0.33345489  1
  I  I101  1  0.82921724  0.16427040  0.66633669  1
  I  I102  1  0.83471729  0.50182916  -0.00017582  1
  I  I103  1  0.84306039  0.50282464  0.33582160  1
  I  I104  1  0.84235351  0.50475577  0.66222035  1
  I  I105  1  0.83202806  0.83062569  0.00269103  1
  I  I106  1  0.83202070  0.83108864  0.33124863  1
  I  I107  1  0.83311665  0.83202682  0.66669053  1
  I  I108  1  0.00011179  0.16654823  0.16590337  1
  I  I109  1  0.00472450  0.15958849  0.50301746  1
  I  I110  1  0.00550205  0.16257991  0.83082194  1
  I  I111  1  0.00311059  0.50246880  0.16470971  1
  I  I112  1  0.00353594  0.50285540  0.49742554  1
  I  I113  1  0.00506189  0.50341414  0.83994811  1
  I  I114  1  -0.00243122  0.83002175  0.16735013  1
  I  I115  1  0.00383387  0.83410880  0.50378093  1
  I  I116  1  0.00411280  0.83258460  0.82884170  1
  I  I117  1  0.33556715  0.16577017  0.16689630  1
  I  I118  1  0.32908501  0.17390450  0.50415615  1
  I  I119  1  0.32920075  0.17012239  0.82875419  1
  I  I120  1  0.33206011  0.49829750  0.16963886  1
  I  I121  1  0.32934010  0.49889438  0.50149783  1
  I  I122  1  0.32889863  0.49810916  0.82679307  1
  I  I123  1  0.33312345  0.83436125  0.16694795  1
  I  I124  1  0.33154402  0.83014843  0.50216546  1
  I  I125  1  0.33156266  0.83260792  0.83062607  1
  I  I126  1  0.66245049  0.17413007  0.16731192  1
  I  I127  1  0.66633225  0.16600306  0.49721576  1
  I  I128  1  0.66607832  0.16468076  0.83529487  1
  I  I129  1  0.66381169  0.49962962  0.17032287  1
  I  I130  1  0.66872692  0.50620362  0.49316291  1
  I  I131  1  0.66645127  0.50338961  0.83497063  1
  I  I132  1  0.66881969  0.83039260  0.16795135  1
  I  I133  1  0.66394198  0.82978737  0.50104741  1
  I  I134  1  0.66372753  0.83283682  0.83105164  1
