# generated using pymatgen
data_Cs27Sn14Pb13I81
_symmetry_space_group_name_H-M   'P 1'
_cell_length_a   18.99091370
_cell_length_b   18.97736162
_cell_length_c   18.96094710
_cell_angle_alpha   90.00023654
_cell_angle_beta   89.99960806
_cell_angle_gamma   90.00047491
_symmetry_Int_Tables_number   1
_chemical_formula_structural   Cs27Sn14Pb13I81
_chemical_formula_sum   'Cs27 Sn14 Pb13 I81'
_cell_volume   6833.47673614
_cell_formula_units_Z   1
loop_
 _symmetry_equiv_pos_site_id
 _symmetry_equiv_pos_as_xyz
  1  'x, y, z'
loop_
 _atom_site_type_symbol
 _atom_site_label
 _atom_site_symmetry_multiplicity
 _atom_site_fract_x
 _atom_site_fract_y
 _atom_site_fract_z
 _atom_site_occupancy
  Cs  Cs0  1  0.00436208  -0.00072711  -0.00102810  1
  Cs  Cs1  1  -0.00134532  0.00248035  0.33393617  1
  Cs  Cs2  1  -0.00100186  -0.00218800  0.66602270  1
  Cs  Cs3  1  -0.00160358  0.33943033  -0.00954355  1
  Cs  Cs4  1  0.00098272  0.32900141  0.33471667  1
  Cs  Cs5  1  -0.00124820  0.33516234  0.66942539  1
  Cs  Cs6  1  0.00706786  0.65950124  0.00546195  1
  Cs  Cs7  1  -0.00153688  0.66667945  0.33394103  1
  Cs  Cs8  1  -0.00029637  0.66735156  0.66498980  1
  Cs  Cs9  1  0.32893518  -0.00068841  -0.00154036  1
  Cs  Cs10  1  0.33282089  0.00326932  0.33349872  1
  Cs  Cs11  1  0.33639676  -0.00113140  0.66864792  1
  Cs  Cs12  1  0.33087145  0.33388733  0.00016366  1
  Cs  Cs13  1  0.33281404  0.33103084  0.33376041  1
  Cs  Cs14  1  0.33728102  0.33321771  0.66692055  1
  Cs  Cs15  1  0.32897102  0.66634248  0.00601553  1
  Cs  Cs16  1  0.33517634  0.66510657  0.33144039  1
  Cs  Cs17  1  0.33682290  0.66801706  0.66527450  1
  Cs  Cs18  1  0.66675873  -0.00033073  -0.00059888  1
  Cs  Cs19  1  0.66826525  0.00165180  0.33318938  1
  Cs  Cs20  1  0.66490874  -0.00268983  0.66698692  1
  Cs  Cs21  1  0.67018128  0.33509120  -0.00275235  1
  Cs  Cs22  1  0.66646370  0.33106840  0.33365973  1
  Cs  Cs23  1  0.66455230  0.33359272  0.66880988  1
  Cs  Cs24  1  0.66595258  0.66591253  0.00560130  1
  Cs  Cs25  1  0.66611730  0.66717126  0.33016571  1
  Cs  Cs26  1  0.66448649  0.66898734  0.66558672  1
  Sn  Sn27  1  0.83392068  0.16673111  0.50004000  1
  Sn  Sn28  1  0.50014619  0.83266130  0.49999279  1
  Sn  Sn29  1  0.50102636  0.83195519  0.83293158  1
  Sn  Sn30  1  0.50024220  0.50079698  0.50032849  1
  Sn  Sn31  1  0.16681127  0.49978069  0.50004483  1
  Sn  Sn32  1  0.16589130  0.16665968  0.50033974  1
  Sn  Sn33  1  0.83385545  0.16659799  0.16685887  1
  Sn  Sn34  1  0.83297460  0.83282318  0.83317193  1
  Sn  Sn35  1  0.50016331  0.16650589  0.16643054  1
  Sn  Sn36  1  0.83292997  0.49994921  0.50001404  1
  Sn  Sn37  1  0.16590458  0.16695611  0.16723366  1
  Sn  Sn38  1  0.50004118  0.50139366  0.83276339  1
  Sn  Sn39  1  0.16684118  0.83353970  0.49995935  1
  Sn  Sn40  1  0.83308403  0.83332767  0.50036587  1
  Pb  Pb41  1  0.50008393  0.49767272  0.16687160  1
  Pb  Pb42  1  0.83345072  0.83518676  0.16652681  1
  Pb  Pb43  1  0.83337855  0.49726813  0.16918266  1
  Pb  Pb44  1  0.16951088  0.50032978  0.83040318  1
  Pb  Pb45  1  0.16649541  0.83548593  0.16970489  1
  Pb  Pb46  1  0.16649777  0.16677926  0.83239151  1
  Pb  Pb47  1  0.50019486  0.16653350  0.49902620  1
  Pb  Pb48  1  0.83329816  0.16424154  0.83259023  1
  Pb  Pb49  1  0.83116997  0.50336481  0.83090403  1
  Pb  Pb50  1  0.50003633  0.83543688  0.16656240  1
  Pb  Pb51  1  0.50008834  0.16636475  0.83637193  1
  Pb  Pb52  1  0.16672415  0.83304641  0.83121418  1
  Pb  Pb53  1  0.16652823  0.49717066  0.16948506  1
  I  I54  1  0.16688568  0.00396796  0.17329113  1
  I  I55  1  0.16414706  0.00016301  0.49601578  1
  I  I56  1  0.16997250  -0.00022005  0.83097683  1
  I  I57  1  0.16807247  0.32893125  0.17476143  1
  I  I58  1  0.16492277  0.33297915  0.49539889  1
  I  I59  1  0.16901926  0.33358196  0.83102078  1
  I  I60  1  0.16789675  0.66641200  0.16687024  1
  I  I61  1  0.16432062  0.66682584  0.50265372  1
  I  I62  1  0.16386799  0.66672926  0.83211983  1
  I  I63  1  0.50006616  0.00344863  0.16918012  1
  I  I64  1  0.49996855  -0.00283228  0.50258315  1
  I  I65  1  0.50322054  -0.00350240  0.82811715  1
  I  I66  1  0.49961952  0.32967731  0.16939925  1
  I  I67  1  0.49976487  0.33598233  0.50228802  1
  I  I68  1  0.49892522  0.33618846  0.82787176  1
  I  I69  1  0.50017521  0.66660510  0.16759059  1
  I  I70  1  0.49947506  0.66697935  0.50322768  1
  I  I71  1  0.50425607  0.66745578  0.82578388  1
  I  I72  1  0.83303291  0.00365700  0.17454651  1
  I  I73  1  0.83556157  -0.00011643  0.49935193  1
  I  I74  1  0.82585933  -0.00341856  0.82595408  1
  I  I75  1  0.83245861  0.32873679  0.17343834  1
  I  I76  1  0.83544984  0.33301765  0.49423448  1
  I  I77  1  0.83168438  0.33370845  0.83327734  1
  I  I78  1  0.83154400  0.66660652  0.16811641  1
  I  I79  1  0.83595410  0.66714727  0.50512708  1
  I  I80  1  0.83120241  0.67103818  0.82483370  1
  I  I81  1  0.16732021  0.16518864  0.00322350  1
  I  I82  1  0.16630856  0.16632354  0.33502457  1
  I  I83  1  0.16173009  0.16642039  0.66195543  1
  I  I84  1  0.16840454  0.49767713  -0.00003074  1
  I  I85  1  0.17008410  0.50252591  0.33837020  1
  I  I86  1  0.16361899  0.49650899  0.66158690  1
  I  I87  1  0.16745704  0.83693393  0.00002898  1
  I  I88  1  0.16653163  0.83123384  0.33871272  1
  I  I89  1  0.16664359  0.83692826  0.66199897  1
  I  I90  1  0.49991425  0.16630186  0.00436793  1
  I  I91  1  0.49992581  0.16647030  0.33116699  1
  I  I92  1  0.49968762  0.16681728  0.66676724  1
  I  I93  1  0.50100732  0.50334019  -0.00303034  1
  I  I94  1  0.49957044  0.50363289  0.33720822  1
  I  I95  1  0.49937739  0.50252223  0.66459276  1
  I  I96  1  0.50635305  0.83080022  -0.00347786  1
  I  I97  1  0.50084132  0.82987842  0.33704219  1
  I  I98  1  0.50039531  0.83118541  0.66489900  1
  I  I99  1  0.83302504  0.16390012  0.00286575  1
  I  I100  1  0.83377832  0.16460546  0.33516142  1
  I  I101  1  0.83840320  0.16835275  0.66261315  1
  I  I102  1  0.83081620  0.49886539  -0.00038350  1
  I  I103  1  0.83027627  0.50587858  0.33846276  1
  I  I104  1  0.83628826  0.49346480  0.66201414  1
  I  I105  1  0.82513204  0.83754573  -0.00314801  1
  I  I106  1  0.83273166  0.83209834  0.33746239  1
  I  I107  1  0.83239268  0.83637755  0.66395767  1
  I  I108  1  -0.00004548  0.16489849  0.17528115  1
  I  I109  1  -0.00028525  0.16578019  0.49249057  1
  I  I110  1  -0.00021395  0.16459099  0.83705244  1
  I  I111  1  -0.00001335  0.49939883  0.16721004  1
  I  I112  1  -0.00018167  0.50180426  0.49758352  1
  I  I113  1  -0.00019212  0.49941186  0.83310476  1
  I  I114  1  -0.00004123  0.83633120  0.16618532  1
  I  I115  1  -0.00056412  0.83242607  0.50311461  1
  I  I116  1  -0.00294114  0.83774116  0.82714436  1
  I  I117  1  0.33255489  0.16645807  0.17252753  1
  I  I118  1  0.33089899  0.16662194  0.49549476  1
  I  I119  1  0.33351542  0.16427313  0.83268296  1
  I  I120  1  0.33339939  0.49622251  0.16928395  1
  I  I121  1  0.33368529  0.50154473  0.50337725  1
  I  I122  1  0.33749281  0.50517338  0.82712414  1
  I  I123  1  0.33337115  0.83784299  0.16709074  1
  I  I124  1  0.33381062  0.83214756  0.50316634  1
  I  I125  1  0.33676767  0.83144003  0.82821605  1
  I  I126  1  0.66749492  0.16600507  0.17264584  1
  I  I127  1  0.66937408  0.16638345  0.49540511  1
  I  I128  1  0.66662078  0.16822647  0.83335537  1
  I  I129  1  0.66661073  0.49557139  0.17030804  1
  I  I130  1  0.66641397  0.50119215  0.50326750  1
  I  I131  1  0.66339249  0.49960481  0.82616244  1
  I  I132  1  0.66665895  0.83829745  0.17214559  1
  I  I133  1  0.66669929  0.83235652  0.50347887  1
  I  I134  1  0.66593249  0.83197040  0.82319667  1
