# generated using pymatgen
data_Cs27Sn14Pb13I81
_symmetry_space_group_name_H-M   'P 1'
_cell_length_a   18.97053912
_cell_length_b   18.99014430
_cell_length_c   18.97174724
_cell_angle_alpha   89.99999476
_cell_angle_beta   90.00331080
_cell_angle_gamma   89.99990997
_symmetry_Int_Tables_number   1
_chemical_formula_structural   Cs27Sn14Pb13I81
_chemical_formula_sum   'Cs27 Sn14 Pb13 I81'
_cell_volume   6834.63406996
_cell_formula_units_Z   1
loop_
 _symmetry_equiv_pos_site_id
 _symmetry_equiv_pos_as_xyz
  1  'x, y, z'
loop_
 _atom_site_type_symbol
 _atom_site_label
 _atom_site_symmetry_multiplicity
 _atom_site_fract_x
 _atom_site_fract_y
 _atom_site_fract_z
 _atom_site_occupancy
  Cs  Cs0  1  -0.00022692  -0.00128129  -0.00019031  1
  Cs  Cs1  1  0.00259468  -0.00296972  0.33370335  1
  Cs  Cs2  1  -0.00153489  -0.00113032  0.66678809  1
  Cs  Cs3  1  0.00098980  0.33329455  -0.00014282  1
  Cs  Cs4  1  -0.00140082  0.33274983  0.33133583  1
  Cs  Cs5  1  0.00171000  0.33442107  0.66899698  1
  Cs  Cs6  1  -0.00160512  0.66898988  0.00175655  1
  Cs  Cs7  1  0.00158987  0.67075788  0.33145238  1
  Cs  Cs8  1  0.00016471  0.66735382  0.66650189  1
  Cs  Cs9  1  0.33657395  0.00079796  -0.00073123  1
  Cs  Cs10  1  0.33082205  -0.00110498  0.33379825  1
  Cs  Cs11  1  0.33268273  0.00844463  0.66820890  1
  Cs  Cs12  1  0.32951696  0.33440185  -0.00064419  1
  Cs  Cs13  1  0.33499448  0.33425386  0.33465249  1
  Cs  Cs14  1  0.33007975  0.33662981  0.66545420  1
  Cs  Cs15  1  0.33630760  0.66488719  -0.00222402  1
  Cs  Cs16  1  0.33088141  0.66765310  0.33444866  1
  Cs  Cs17  1  0.33274426  0.65719170  0.66803996  1
  Cs  Cs18  1  0.66556056  -0.00014482  -0.00099985  1
  Cs  Cs19  1  0.66611307  -0.00004595  0.33444466  1
  Cs  Cs20  1  0.66785291  -0.00205036  0.66671890  1
  Cs  Cs21  1  0.66814648  0.33246247  0.00337139  1
  Cs  Cs22  1  0.66578717  0.33338153  0.33288406  1
  Cs  Cs23  1  0.66584153  0.33439415  0.66305168  1
  Cs  Cs24  1  0.66686632  0.66694507  0.00056802  1
  Cs  Cs25  1  0.66776125  0.66735339  0.33245680  1
  Cs  Cs26  1  0.66648300  0.66869700  0.66704618  1
  Sn  Sn27  1  0.83333881  0.50031011  0.50060452  1
  Sn  Sn28  1  0.49908134  0.49998567  0.16676288  1
  Sn  Sn29  1  0.50021257  0.83343695  0.49963972  1
  Sn  Sn30  1  0.83311429  0.50009114  0.83258917  1
  Sn  Sn31  1  0.83313624  0.16675726  0.83315815  1
  Sn  Sn32  1  0.83414581  0.83321067  0.83265076  1
  Sn  Sn33  1  0.83275413  0.83320865  0.50055597  1
  Sn  Sn34  1  0.83357159  0.16616169  0.16681337  1
  Sn  Sn35  1  0.83331877  0.16654292  0.50001773  1
  Sn  Sn36  1  0.49970428  0.16664061  0.16675116  1
  Sn  Sn37  1  0.16650127  0.83343383  0.83307663  1
  Sn  Sn38  1  0.50035081  0.83334498  0.16766580  1
  Sn  Sn39  1  0.16663657  0.16719707  0.16667549  1
  Sn  Sn40  1  0.16730632  0.49959538  0.16680216  1
  Pb  Pb41  1  0.49996407  0.83334710  0.83234841  1
  Pb  Pb42  1  0.16400967  0.49998341  0.49745544  1
  Pb  Pb43  1  0.16418654  0.50178712  0.83558268  1
  Pb  Pb44  1  0.16454036  0.16504774  0.83537903  1
  Pb  Pb45  1  0.50206260  0.16707277  0.83496823  1
  Pb  Pb46  1  0.16436276  0.16674307  0.49781313  1
  Pb  Pb47  1  0.50180214  0.16476782  0.49813804  1
  Pb  Pb48  1  0.83342735  0.49821880  0.16682824  1
  Pb  Pb49  1  0.83155260  0.83586077  0.16666566  1
  Pb  Pb50  1  0.50215291  0.50212771  0.49784661  1
  Pb  Pb51  1  0.16729925  0.83333930  0.50282125  1
  Pb  Pb52  1  0.50247861  0.49963985  0.83530891  1
  Pb  Pb53  1  0.16953202  0.83344577  0.16469744  1
  I  I54  1  0.16538409  0.00267344  0.16520242  1
  I  I55  1  0.16358099  -0.00013070  0.49630629  1
  I  I56  1  0.15984328  -0.00277812  0.83611235  1
  I  I57  1  0.16984251  0.33260755  0.16583724  1
  I  I58  1  0.16425182  0.33336981  0.50165080  1
  I  I59  1  0.16395143  0.33338378  0.83475284  1
  I  I60  1  0.16997395  0.66440475  0.16509975  1
  I  I61  1  0.16293659  0.66680022  0.49587345  1
  I  I62  1  0.15961890  0.66953087  0.83647491  1
  I  I63  1  0.50201990  0.00025698  0.16968827  1
  I  I64  1  0.50786708  -0.00330141  0.49324814  1
  I  I65  1  0.50270220  -0.00013806  0.83796865  1
  I  I66  1  0.50163063  0.33285206  0.16476255  1
  I  I67  1  0.50401408  0.33341164  0.49677120  1
  I  I68  1  0.50322347  0.33338330  0.83645127  1
  I  I69  1  0.49640632  0.66676134  0.16977504  1
  I  I70  1  0.50776150  0.67005967  0.49328189  1
  I  I71  1  0.50329070  0.66681174  0.83847902  1
  I  I72  1  0.83388818  0.00405012  0.16620431  1
  I  I73  1  0.82934906  -0.00032356  0.50182505  1
  I  I74  1  0.83672963  -0.00022158  0.83211654  1
  I  I75  1  0.82925170  0.33006732  0.16662721  1
  I  I76  1  0.83453294  0.33293841  0.50107977  1
  I  I77  1  0.83147787  0.33292179  0.83273137  1
  I  I78  1  0.83311312  0.66680226  0.16620407  1
  I  I79  1  0.82937831  0.66738641  0.50658608  1
  I  I80  1  0.83652111  0.66729790  0.82750821  1
  I  I81  1  0.16379175  0.16963149  0.00397229  1
  I  I82  1  0.16371965  0.16840167  0.32886824  1
  I  I83  1  0.16519360  0.16443510  0.66692191  1
  I  I84  1  0.16788712  0.49592141  0.00359468  1
  I  I85  1  0.16778439  0.49727354  0.32917495  1
  I  I86  1  0.16766706  0.50170444  0.66689726  1
  I  I87  1  0.15814223  0.83353357  -0.00256160  1
  I  I88  1  0.16348562  0.83321486  0.33316378  1
  I  I89  1  0.16359503  0.83348198  0.67042574  1
  I  I90  1  0.50387269  0.16249851  0.00459918  1
  I  I91  1  0.50415807  0.16857189  0.32909805  1
  I  I92  1  0.50245593  0.16252226  0.66627905  1
  I  I93  1  0.49982337  0.50325605  0.00436806  1
  I  I94  1  0.50033414  0.49729670  0.32929307  1
  I  I95  1  0.49961152  0.50321515  0.66627826  1
  I  I96  1  0.50083110  0.83406964  0.00278650  1
  I  I97  1  0.50725936  0.83366164  0.33252184  1
  I  I98  1  0.50477374  0.83348959  0.66360121  1
  I  I99  1  0.83266040  0.16687369  0.00040286  1
  I  I100  1  0.83269926  0.16736979  0.33296084  1
  I  I101  1  0.83324058  0.16540535  0.66664844  1
  I  I102  1  0.83303161  0.50052283  -0.00222254  1
  I  I103  1  0.83282926  0.50024358  0.33568805  1
  I  I104  1  0.83319275  0.49612399  0.66670720  1
  I  I105  1  0.83530467  0.83298482  -0.00264138  1
  I  I106  1  0.83075730  0.83261449  0.33601957  1
  I  I107  1  0.83121409  0.83755245  0.66650620  1
  I  I108  1  -0.00077274  0.17231839  0.16637096  1
  I  I109  1  -0.00504020  0.16285562  0.49706134  1
  I  I110  1  -0.00451431  0.16818936  0.83645711  1
  I  I111  1  0.00182262  0.49444449  0.16626786  1
  I  I112  1  -0.00478890  0.50278253  0.50106815  1
  I  I113  1  -0.00429925  0.49756877  0.83281051  1
  I  I114  1  -0.00005732  0.83305374  0.16874978  1
  I  I115  1  -0.00356073  0.83385603  0.50159452  1
  I  I116  1  -0.00282769  0.83386886  0.82943551  1
  I  I117  1  0.33375932  0.16634041  0.16615389  1
  I  I118  1  0.33351654  0.16323396  0.49757266  1
  I  I119  1  0.33296482  0.16213118  0.83660610  1
  I  I120  1  0.33391072  0.49536607  0.16617524  1
  I  I121  1  0.33354770  0.50262862  0.50023769  1
  I  I122  1  0.33300672  0.50369839  0.83386446  1
  I  I123  1  0.33737360  0.83804365  0.17067746  1
  I  I124  1  0.33651576  0.83362399  0.49387187  1
  I  I125  1  0.33097864  0.83348716  0.83749118  1
  I  I126  1  0.66713702  0.16693926  0.16606287  1
  I  I127  1  0.67103659  0.16820542  0.49721083  1
  I  I128  1  0.67155161  0.16212389  0.83668264  1
  I  I129  1  0.66454122  0.49926364  0.16636385  1
  I  I130  1  0.67075215  0.49767791  0.50064996  1
  I  I131  1  0.67131411  0.50377601  0.83289227  1
  I  I132  1  0.66363535  0.83230008  0.16531893  1
  I  I133  1  0.66864983  0.83382269  0.50100748  1
  I  I134  1  0.67014871  0.83402006  0.83301113  1
