# generated using pymatgen
data_Cs27Sn13Pb14I81
_symmetry_space_group_name_H-M   'P 1'
_cell_length_a   18.97471149
_cell_length_b   18.97743309
_cell_length_c   18.98128826
_cell_angle_alpha   90.00090539
_cell_angle_beta   89.99872171
_cell_angle_gamma   90.00158414
_symmetry_Int_Tables_number   1
_chemical_formula_structural   Cs27Sn13Pb14I81
_chemical_formula_sum   'Cs27 Sn13 Pb14 I81'
_cell_volume   6834.99709520
_cell_formula_units_Z   1
loop_
 _symmetry_equiv_pos_site_id
 _symmetry_equiv_pos_as_xyz
  1  'x, y, z'
loop_
 _atom_site_type_symbol
 _atom_site_label
 _atom_site_symmetry_multiplicity
 _atom_site_fract_x
 _atom_site_fract_y
 _atom_site_fract_z
 _atom_site_occupancy
  Cs  Cs0  1  0.00041441  -0.00043197  -0.00089905  1
  Cs  Cs1  1  -0.00143504  0.00223511  0.33389403  1
  Cs  Cs2  1  0.00022557  0.00111492  0.66690663  1
  Cs  Cs3  1  -0.00308806  0.33473025  0.00015144  1
  Cs  Cs4  1  0.00041693  0.33175200  0.33508997  1
  Cs  Cs5  1  -0.00110913  0.33010392  0.66437553  1
  Cs  Cs6  1  0.00152642  0.66616537  0.00052068  1
  Cs  Cs7  1  -0.00035662  0.66609859  0.33274945  1
  Cs  Cs8  1  0.00095422  0.66750319  0.66667306  1
  Cs  Cs9  1  0.33559875  0.00008805  -0.00021742  1
  Cs  Cs10  1  0.33412561  0.00209665  0.33160899  1
  Cs  Cs11  1  0.33021267  0.00102433  0.66816429  1
  Cs  Cs12  1  0.33994112  0.33101570  0.00036128  1
  Cs  Cs13  1  0.33443444  0.33301955  0.33392418  1
  Cs  Cs14  1  0.33459985  0.33130769  0.66609252  1
  Cs  Cs15  1  0.32884134  0.66866151  -0.00203605  1
  Cs  Cs16  1  0.33468833  0.66546973  0.33519985  1
  Cs  Cs17  1  0.33350372  0.66678175  0.66678727  1
  Cs  Cs18  1  0.66138189  0.00195428  0.00102239  1
  Cs  Cs19  1  0.66700621  -0.00336763  0.33348004  1
  Cs  Cs20  1  0.66911790  -0.00152898  0.66502756  1
  Cs  Cs21  1  0.66186365  0.33888388  -0.00602012  1
  Cs  Cs22  1  0.66585718  0.33259014  0.33361410  1
  Cs  Cs23  1  0.66721712  0.33504940  0.67073792  1
  Cs  Cs24  1  0.66924544  0.65976834  0.00564783  1
  Cs  Cs25  1  0.66186075  0.67177904  0.32971095  1
  Cs  Cs26  1  0.66187673  0.66699507  0.66427996  1
  Sn  Sn27  1  0.83383025  0.50000920  0.49968933  1
  Sn  Sn28  1  0.50139228  0.16653390  0.50015677  1
  Sn  Sn29  1  0.50025848  0.83301598  0.83352463  1
  Sn  Sn30  1  0.16629223  0.49958564  0.16673731  1
  Sn  Sn31  1  0.16630288  0.50007158  0.83296679  1
  Sn  Sn32  1  0.16637203  0.83276222  0.83313373  1
  Sn  Sn33  1  0.83378733  0.16687388  0.16676784  1
  Sn  Sn34  1  0.16576967  0.50063121  0.50020411  1
  Sn  Sn35  1  0.16625175  0.83355679  0.16697834  1
  Sn  Sn36  1  0.83233165  0.16742669  0.49920397  1
  Sn  Sn37  1  0.16567330  0.16687819  0.16645174  1
  Sn  Sn38  1  0.83319496  0.83312202  0.83357949  1
  Sn  Sn39  1  0.16629590  0.83275508  0.49986439  1
  Pb  Pb40  1  0.49712332  0.83542500  0.50167969  1
  Pb  Pb41  1  0.50008936  0.16453498  0.83068339  1
  Pb  Pb42  1  0.49736490  0.50261188  0.83314946  1
  Pb  Pb43  1  0.49750881  0.50007653  0.16683053  1
  Pb  Pb44  1  0.83560740  0.50238604  0.83080217  1
  Pb  Pb45  1  0.50000838  0.49818950  0.49997486  1
  Pb  Pb46  1  0.16610417  0.16690492  0.49828996  1
  Pb  Pb47  1  0.83342201  0.16496171  0.83358180  1
  Pb  Pb48  1  0.49763239  0.83323260  0.16430325  1
  Pb  Pb49  1  0.16653091  0.16705045  0.83642619  1
  Pb  Pb50  1  0.83534557  0.83540497  0.16447503  1
  Pb  Pb51  1  0.83520517  0.83310579  0.50124797  1
  Pb  Pb52  1  0.83531045  0.49782009  0.16903578  1
  Pb  Pb53  1  0.50073829  0.16670417  0.16850634  1
  I  I54  1  0.16340107  -0.00043248  0.16692577  1
  I  I55  1  0.16696123  -0.00247389  0.50121746  1
  I  I56  1  0.16706620  -0.00359867  0.83216407  1
  I  I57  1  0.16265583  0.33359513  0.16838108  1
  I  I58  1  0.16619977  0.33616901  0.50025565  1
  I  I59  1  0.16583949  0.33668233  0.83116420  1
  I  I60  1  0.16795381  0.66681813  0.16568592  1
  I  I61  1  0.16198435  0.66632868  0.49714134  1
  I  I62  1  0.16679653  0.66794293  0.83673966  1
  I  I63  1  0.49535252  0.00001599  0.16605148  1
  I  I64  1  0.50446810  0.00314603  0.50041648  1
  I  I65  1  0.49423427  -0.00357924  0.83330707  1
  I  I66  1  0.49520726  0.33308431  0.16657559  1
  I  I67  1  0.49732921  0.33020184  0.49942273  1
  I  I68  1  0.49767638  0.33358051  0.83333502  1
  I  I69  1  0.49937628  0.66686772  0.16813830  1
  I  I70  1  0.50122079  0.66689114  0.50144798  1
  I  I71  1  0.49931670  0.67061665  0.83065211  1
  I  I72  1  0.84109117  0.00333187  0.17376290  1
  I  I73  1  0.83200046  0.00272058  0.49813493  1
  I  I74  1  0.83880225  -0.00330849  0.83051857  1
  I  I75  1  0.84161825  0.32975828  0.16881135  1
  I  I76  1  0.83747265  0.33286318  0.49698163  1
  I  I77  1  0.83600437  0.33368918  0.83414959  1
  I  I78  1  0.83479007  0.66660274  0.16686380  1
  I  I79  1  0.83895226  0.66412868  0.50345637  1
  I  I80  1  0.83418536  0.67039951  0.83160411  1
  I  I81  1  0.16126078  0.16537441  0.00463056  1
  I  I82  1  0.16588025  0.16545791  0.33033436  1
  I  I83  1  0.16661210  0.16550532  0.66656505  1
  I  I84  1  0.16747386  0.50447659  0.00008155  1
  I  I85  1  0.16322098  0.50290927  0.33370747  1
  I  I86  1  0.16360019  0.50825580  0.66615678  1
  I  I87  1  0.16683753  0.83101321  -0.00051981  1
  I  I88  1  0.16595729  0.83113783  0.33330182  1
  I  I89  1  0.16699436  0.82744053  0.66723936  1
  I  I90  1  0.49881136  0.16528134  0.00000433  1
  I  I91  1  0.49933624  0.16577925  0.33636083  1
  I  I92  1  0.50403392  0.16664220  0.66284626  1
  I  I93  1  0.49904644  0.49862946  -0.00021835  1
  I  I94  1  0.49583681  0.50015428  0.33368590  1
  I  I95  1  0.49624472  0.49928538  0.66655457  1
  I  I96  1  0.49596110  0.83541250  -0.00383233  1
  I  I97  1  0.49778503  0.83450823  0.33344191  1
  I  I98  1  0.49579052  0.83455913  0.66968269  1
  I  I99  1  0.84080423  0.16310629  0.00307915  1
  I  I100  1  0.83547272  0.16926458  0.33424030  1
  I  I101  1  0.83047032  0.16892272  0.66335836  1
  I  I102  1  0.83508273  0.49913805  -0.00004355  1
  I  I103  1  0.84150446  0.49861454  0.33705057  1
  I  I104  1  0.84074849  0.49289687  0.66304176  1
  I  I105  1  0.83758760  0.83540504  -0.00353844  1
  I  I106  1  0.83635355  0.83281750  0.33332234  1
  I  I107  1  0.83829887  0.83581936  0.66926563  1
  I  I108  1  0.00115132  0.16588579  0.17322709  1
  I  I109  1  -0.00238815  0.16744379  0.49780685  1
  I  I110  1  0.00022265  0.16246615  0.82843092  1
  I  I111  1  0.00431072  0.50281726  0.16470251  1
  I  I112  1  0.00176237  0.49731662  0.50011379  1
  I  I113  1  0.00407199  0.50687096  0.83568906  1
  I  I114  1  0.00437146  0.83138314  0.16415784  1
  I  I115  1  0.00387705  0.83465447  0.50269447  1
  I  I116  1  0.00207539  0.83050954  0.83337717  1
  I  I117  1  0.33011319  0.16628628  0.16808671  1
  I  I118  1  0.33455003  0.16537325  0.49905647  1
  I  I119  1  0.33299295  0.16422533  0.83212753  1
  I  I120  1  0.32761508  0.49774932  0.16949083  1
  I  I121  1  0.32942051  0.50259658  0.49987353  1
  I  I122  1  0.32848822  0.50580995  0.83097004  1
  I  I123  1  0.32818569  0.83600025  0.16495167  1
  I  I124  1  0.32855153  0.82946733  0.50180430  1
  I  I125  1  0.33116717  0.82981368  0.83346914  1
  I  I126  1  0.67005950  0.16436942  0.16998451  1
  I  I127  1  0.66843761  0.17091150  0.49472879  1
  I  I128  1  0.66680663  0.16351211  0.83747234  1
  I  I129  1  0.66728203  0.49825161  0.16780011  1
  I  I130  1  0.66988404  0.49671677  0.50140562  1
  I  I131  1  0.66690248  0.50156639  0.83152038  1
  I  I132  1  0.66690711  0.83620089  0.16512329  1
  I  I133  1  0.66672791  0.83168049  0.50364189  1
  I  I134  1  0.66682517  0.83778102  0.83009679  1
