# generated using pymatgen
data_Cs27Sn14Pb13I81
_symmetry_space_group_name_H-M   'P 1'
_cell_length_a   18.96229998
_cell_length_b   18.96022541
_cell_length_c   18.96032948
_cell_angle_alpha   89.99995298
_cell_angle_beta   90.00017396
_cell_angle_gamma   89.99872549
_symmetry_Int_Tables_number   1
_chemical_formula_structural   Cs27Sn14Pb13I81
_chemical_formula_sum   'Cs27 Sn14 Pb13 I81'
_cell_volume   6816.79743394
_cell_formula_units_Z   1
loop_
 _symmetry_equiv_pos_site_id
 _symmetry_equiv_pos_as_xyz
  1  'x, y, z'
loop_
 _atom_site_type_symbol
 _atom_site_label
 _atom_site_symmetry_multiplicity
 _atom_site_fract_x
 _atom_site_fract_y
 _atom_site_fract_z
 _atom_site_occupancy
  Cs  Cs0  1  0.00086764  0.00270641  -0.00047784  1
  Cs  Cs1  1  0.00000133  -0.00092732  0.33265952  1
  Cs  Cs2  1  0.00228364  0.00096281  0.66746594  1
  Cs  Cs3  1  0.00123668  0.33077201  0.00139433  1
  Cs  Cs4  1  -0.00077017  0.33423652  0.33217558  1
  Cs  Cs5  1  -0.00030273  0.33330063  0.66583854  1
  Cs  Cs6  1  -0.00161460  0.66885013  0.00156134  1
  Cs  Cs7  1  0.00020295  0.66592305  0.33318932  1
  Cs  Cs8  1  -0.00081577  0.66503736  0.66556124  1
  Cs  Cs9  1  0.33621023  -0.00031202  0.00144667  1
  Cs  Cs10  1  0.33479900  -0.00129377  0.33299044  1
  Cs  Cs11  1  0.33084413  0.00027342  0.66593890  1
  Cs  Cs12  1  0.33219847  0.33370964  0.00017158  1
  Cs  Cs13  1  0.33328660  0.33620417  0.33174137  1
  Cs  Cs14  1  0.33183570  0.33247526  0.66964501  1
  Cs  Cs15  1  0.33349451  0.66595343  0.00097819  1
  Cs  Cs16  1  0.33352237  0.66568576  0.33445696  1
  Cs  Cs17  1  0.33243812  0.66726788  0.66357343  1
  Cs  Cs18  1  0.66182354  -0.00646462  -0.00061957  1
  Cs  Cs19  1  0.66350666  0.00145651  0.33562945  1
  Cs  Cs20  1  0.66377703  0.00118395  0.66348983  1
  Cs  Cs21  1  0.66632556  0.33496005  0.00040045  1
  Cs  Cs22  1  0.66813190  0.33105654  0.33334622  1
  Cs  Cs23  1  0.66840487  0.33254027  0.66779167  1
  Cs  Cs24  1  0.66891517  0.67082972  -0.00844120  1
  Cs  Cs25  1  0.66376673  0.66726251  0.33268974  1
  Cs  Cs26  1  0.66772328  0.66631755  0.67337236  1
  Sn  Sn27  1  0.16642956  0.50014686  0.83420333  1
  Sn  Sn28  1  0.50038370  0.50005456  0.16711379  1
  Sn  Sn29  1  0.83381120  0.16645591  0.83427225  1
  Sn  Sn30  1  0.16649341  0.83330041  0.83286965  1
  Sn  Sn31  1  0.50010142  0.50031859  0.49977521  1
  Sn  Sn32  1  0.49996660  0.83219229  0.49997621  1
  Sn  Sn33  1  0.83326050  0.49974316  0.16670650  1
  Sn  Sn34  1  0.16614271  0.16731145  0.16689051  1
  Sn  Sn35  1  0.16661088  0.16622510  0.49954391  1
  Sn  Sn36  1  0.83389036  0.16698852  0.16558705  1
  Sn  Sn37  1  0.16639546  0.49939841  0.16588700  1
  Sn  Sn38  1  0.16634794  0.83392542  0.50049875  1
  Sn  Sn39  1  0.83357332  0.83319603  0.49986199  1
  Sn  Sn40  1  0.16614114  0.16653873  0.83362827  1
  Pb  Pb41  1  0.50025183  0.16880381  0.16655224  1
  Pb  Pb42  1  0.49722743  0.83337449  0.83059159  1
  Pb  Pb43  1  0.49785231  0.49994454  0.83337690  1
  Pb  Pb44  1  0.83335707  0.83404383  0.16838243  1
  Pb  Pb45  1  0.83054699  0.50199170  0.49796069  1
  Pb  Pb46  1  0.83601915  0.49788596  0.83571854  1
  Pb  Pb47  1  0.49728992  0.16720892  0.49994233  1
  Pb  Pb48  1  0.83553986  0.16508854  0.49965302  1
  Pb  Pb49  1  0.83574586  0.83611506  0.83107236  1
  Pb  Pb50  1  0.50011781  0.16665640  0.83355167  1
  Pb  Pb51  1  0.50006722  0.83047120  0.16863266  1
  Pb  Pb52  1  0.16664398  0.83356690  0.16669802  1
  Pb  Pb53  1  0.16782681  0.49998614  0.49977657  1
  I  I54  1  0.16129022  0.00338879  0.16541957  1
  I  I55  1  0.16845818  -0.00043688  0.50274455  1
  I  I56  1  0.16318700  0.00080265  0.83146277  1
  I  I57  1  0.16686768  0.33338729  0.16476219  1
  I  I58  1  0.16834634  0.33083048  0.50203301  1
  I  I59  1  0.16454582  0.33253154  0.83324189  1
  I  I60  1  0.16668937  0.66332204  0.16458869  1
  I  I61  1  0.16632787  0.66937902  0.50283479  1
  I  I62  1  0.16870585  0.66658978  0.83242844  1
  I  I63  1  0.49937464  0.00001792  0.16821793  1
  I  I64  1  0.50075871  -0.00299341  0.50134563  1
  I  I65  1  0.49757808  -0.00011870  0.83140368  1
  I  I66  1  0.49828037  0.33711794  0.17383563  1
  I  I67  1  0.49707868  0.33640666  0.49533622  1
  I  I68  1  0.49623972  0.33354035  0.82959363  1
  I  I69  1  0.49725687  0.66206397  0.16947472  1
  I  I70  1  0.49596624  0.66715289  0.49467417  1
  I  I71  1  0.49807704  0.66659793  0.83542670  1
  I  I72  1  0.84105394  0.00374486  0.16467545  1
  I  I73  1  0.82987662  -0.00299650  0.49810010  1
  I  I74  1  0.84082351  0.00395719  0.83987995  1
  I  I75  1  0.83503972  0.33315454  0.16470456  1
  I  I76  1  0.83345074  0.33322620  0.50129286  1
  I  I77  1  0.83981625  0.32983776  0.83255613  1
  I  I78  1  0.83521544  0.66359274  0.17010275  1
  I  I79  1  0.84013995  0.67004191  0.49804124  1
  I  I80  1  0.83499656  0.66678705  0.83393495  1
  I  I81  1  0.16294691  0.16766902  0.00005870  1
  I  I82  1  0.16353568  0.16687252  0.33261305  1
  I  I83  1  0.16400267  0.16615985  0.66728707  1
  I  I84  1  0.16904655  0.49716962  0.00093725  1
  I  I85  1  0.16585641  0.49708590  0.33038469  1
  I  I86  1  0.16941855  0.49757446  0.66891477  1
  I  I87  1  0.16576878  0.83503384  -0.00288122  1
  I  I88  1  0.16755941  0.83609832  0.33673594  1
  I  I89  1  0.16747295  0.83662404  0.66583174  1
  I  I90  1  0.49459732  0.16898640  0.00021169  1
  I  I91  1  0.49919718  0.16464122  0.33337228  1
  I  I92  1  0.49968848  0.16895449  0.66644613  1
  I  I93  1  0.49975888  0.49723169  0.00326642  1
  I  I94  1  0.49622768  0.50404774  0.33273741  1
  I  I95  1  0.49656869  0.50466697  0.66376201  1
  I  I96  1  0.49866475  0.83284286  -0.00026685  1
  I  I97  1  0.49564638  0.83233672  0.33724166  1
  I  I98  1  0.50128973  0.82643350  0.66226512  1
  I  I99  1  0.84366866  0.17134359  0.00079654  1
  I  I100  1  0.83816765  0.16955664  0.33029869  1
  I  I101  1  0.83867572  0.16436465  0.66896543  1
  I  I102  1  0.82887703  0.49967432  0.00411122  1
  I  I103  1  0.83965525  0.49388338  0.32958741  1
  I  I104  1  0.83328381  0.49919302  0.66684731  1
  I  I105  1  0.83520394  0.83131688  -0.00031769  1
  I  I106  1  0.83708294  0.83480709  0.33670665  1
  I  I107  1  0.83196914  0.83442590  0.66301639  1
  I  I108  1  0.00131853  0.17433073  0.16651675  1
  I  I109  1  0.00404514  0.16180779  0.50019461  1
  I  I110  1  0.00210274  0.16650606  0.83414072  1
  I  I111  1  0.00091434  0.49585548  0.16291490  1
  I  I112  1  0.00005444  0.50149396  0.49907495  1
  I  I113  1  0.00445463  0.50176556  0.83634742  1
  I  I114  1  0.00028655  0.82788687  0.17118098  1
  I  I115  1  0.00153006  0.83837758  0.50299446  1
  I  I116  1  0.00408472  0.83163300  0.82703423  1
  I  I117  1  0.32972198  0.16999403  0.16613358  1
  I  I118  1  0.32863919  0.16171367  0.50051558  1
  I  I119  1  0.32895348  0.16678016  0.83329799  1
  I  I120  1  0.33222949  0.49666549  0.16715527  1
  I  I121  1  0.33555784  0.50512740  0.49433384  1
  I  I122  1  0.32903837  0.49704441  0.83797089  1
  I  I123  1  0.33299301  0.83380045  0.16871485  1
  I  I124  1  0.33239548  0.83315907  0.50377637  1
  I  I125  1  0.32866011  0.83609321  0.82837612  1
  I  I126  1  0.67019783  0.17071210  0.16342360  1
  I  I127  1  0.66686668  0.16482794  0.49990976  1
  I  I128  1  0.67021216  0.16735973  0.83753477  1
  I  I129  1  0.66692038  0.49536153  0.17410103  1
  I  I130  1  0.66253717  0.50433394  0.49451910  1
  I  I131  1  0.66707251  0.49836686  0.83356511  1
  I  I132  1  0.66672831  0.83443566  0.16969619  1
  I  I133  1  0.66613368  0.82924930  0.49672414  1
  I  I134  1  0.66695132  0.83449659  0.83211784  1
