# generated using pymatgen
data_Cs27Sn13Pb14I81
_symmetry_space_group_name_H-M   'P 1'
_cell_length_a   18.99813468
_cell_length_b   18.98640095
_cell_length_c   18.99263628
_cell_angle_alpha   89.99854787
_cell_angle_beta   90.00077813
_cell_angle_gamma   89.99859526
_symmetry_Int_Tables_number   1
_chemical_formula_structural   Cs27Sn13Pb14I81
_chemical_formula_sum   'Cs27 Sn13 Pb14 I81'
_cell_volume   6850.76170059
_cell_formula_units_Z   1
loop_
 _symmetry_equiv_pos_site_id
 _symmetry_equiv_pos_as_xyz
  1  'x, y, z'
loop_
 _atom_site_type_symbol
 _atom_site_label
 _atom_site_symmetry_multiplicity
 _atom_site_fract_x
 _atom_site_fract_y
 _atom_site_fract_z
 _atom_site_occupancy
  Cs  Cs0  1  -0.01073506  0.00317259  -0.00041527  1
  Cs  Cs1  1  -0.00029797  0.00114076  0.33459652  1
  Cs  Cs2  1  0.00202440  0.00078847  0.66756715  1
  Cs  Cs3  1  0.00121395  0.33435736  -0.00011576  1
  Cs  Cs4  1  0.00053562  0.33580415  0.33384958  1
  Cs  Cs5  1  0.00115529  0.33335893  0.66564961  1
  Cs  Cs6  1  0.00220474  0.66588214  -0.00034098  1
  Cs  Cs7  1  0.00237691  0.66455653  0.33421254  1
  Cs  Cs8  1  -0.00011493  0.66688729  0.66610713  1
  Cs  Cs9  1  0.33669755  0.00078831  0.00238297  1
  Cs  Cs10  1  0.33657903  0.00175521  0.33103391  1
  Cs  Cs11  1  0.32998125  0.00041236  0.66577685  1
  Cs  Cs12  1  0.33414502  0.33171643  -0.00341194  1
  Cs  Cs13  1  0.33399832  0.32938863  0.33487547  1
  Cs  Cs14  1  0.33961417  0.32628764  0.66795190  1
  Cs  Cs15  1  0.33004952  0.66720163  0.00077526  1
  Cs  Cs16  1  0.32994535  0.66776051  0.33100510  1
  Cs  Cs17  1  0.33451473  0.66820001  0.66809922  1
  Cs  Cs18  1  0.67529632  0.00722035  0.00883479  1
  Cs  Cs19  1  0.66539679  0.00188007  0.32539027  1
  Cs  Cs20  1  0.66951941  -0.00502585  0.66920280  1
  Cs  Cs21  1  0.66347968  0.32904081  -0.00005047  1
  Cs  Cs22  1  0.66568682  0.33379477  0.33351162  1
  Cs  Cs23  1  0.65750414  0.33589639  0.66714856  1
  Cs  Cs24  1  0.66749401  0.66716009  -0.00052603  1
  Cs  Cs25  1  0.66647813  0.66515554  0.33522591  1
  Cs  Cs26  1  0.66504200  0.66651741  0.66617937  1
  Sn  Sn27  1  0.16620490  0.50053296  0.83161998  1
  Sn  Sn28  1  0.16622010  0.16661489  0.16664929  1
  Sn  Sn29  1  0.49970777  0.83299373  0.50053605  1
  Sn  Sn30  1  0.16662725  0.50026714  0.50139398  1
  Sn  Sn31  1  0.83351796  0.83332426  0.49983790  1
  Sn  Sn32  1  0.83311306  0.16709128  0.50058280  1
  Sn  Sn33  1  0.83379348  0.49981867  0.50056098  1
  Sn  Sn34  1  0.83384377  0.50014687  0.83275231  1
  Sn  Sn35  1  0.16719595  0.83275404  0.83284319  1
  Sn  Sn36  1  0.16684829  0.83248872  0.50064728  1
  Sn  Sn37  1  0.49962462  0.83335854  0.83331905  1
  Sn  Sn38  1  0.50045594  0.50066060  0.16676235  1
  Sn  Sn39  1  0.83239676  0.50033069  0.16660635  1
  Pb  Pb40  1  0.16651608  0.49877508  0.16664182  1
  Pb  Pb41  1  0.16645609  0.83574759  0.16615363  1
  Pb  Pb42  1  0.49784356  0.16956887  0.16678845  1
  Pb  Pb43  1  0.83342601  0.17011678  0.83033819  1
  Pb  Pb44  1  0.50315875  0.16299537  0.50022129  1
  Pb  Pb45  1  0.16516832  0.16664098  0.49888459  1
  Pb  Pb46  1  0.50003273  0.83140672  0.16611255  1
  Pb  Pb47  1  0.83365550  0.83060748  0.16945106  1
  Pb  Pb48  1  0.83370279  0.83140171  0.83153552  1
  Pb  Pb49  1  0.49949686  0.50190405  0.83518206  1
  Pb  Pb50  1  0.83518288  0.16985072  0.16902042  1
  Pb  Pb51  1  0.49925804  0.50195935  0.49864429  1
  Pb  Pb52  1  0.50015340  0.16234645  0.83315720  1
  Pb  Pb53  1  0.16650701  0.16619532  0.83524083  1
  I  I54  1  0.16750132  0.00307761  0.16915197  1
  I  I55  1  0.16511330  -0.00353532  0.50295021  1
  I  I56  1  0.17180159  -0.00378384  0.82809403  1
  I  I57  1  0.16564462  0.33156759  0.16837886  1
  I  I58  1  0.16046268  0.33666523  0.50120944  1
  I  I59  1  0.16140662  0.33684711  0.83076222  1
  I  I60  1  0.16656772  0.66651655  0.16734395  1
  I  I61  1  0.16141004  0.66663722  0.50178468  1
  I  I62  1  0.16627194  0.66624116  0.83010445  1
  I  I63  1  0.49850952  0.00004104  0.16702410  1
  I  I64  1  0.49706164  -0.00518491  0.50315259  1
  I  I65  1  0.49155844  -0.00572217  0.82742849  1
  I  I66  1  0.50526975  0.33733760  0.16734477  1
  I  I67  1  0.49971535  0.33338419  0.49750627  1
  I  I68  1  0.49972377  0.33362048  0.83550520  1
  I  I69  1  0.50319998  0.66370012  0.16787766  1
  I  I70  1  0.50495762  0.66984536  0.50291344  1
  I  I71  1  0.49884472  0.66952306  0.82847066  1
  I  I72  1  0.83391322  0.00033181  0.16754864  1
  I  I73  1  0.83428286  -0.00114755  0.50036089  1
  I  I74  1  0.83354922  -0.00017846  0.83203341  1
  I  I75  1  0.83058247  0.33770201  0.16967821  1
  I  I76  1  0.84040517  0.33542743  0.49835039  1
  I  I77  1  0.84086030  0.33857072  0.83246384  1
  I  I78  1  0.83175600  0.66234328  0.16929538  1
  I  I79  1  0.83405686  0.66593434  0.49940479  1
  I  I80  1  0.83448512  0.66313093  0.83122905  1
  I  I81  1  0.16669013  0.16965650  0.00280594  1
  I  I82  1  0.16487851  0.16896184  0.33133202  1
  I  I83  1  0.16513956  0.16694848  0.66667941  1
  I  I84  1  0.16345645  0.50326859  -0.00275769  1
  I  I85  1  0.16283350  0.50366699  0.33625420  1
  I  I86  1  0.15698154  0.50441903  0.66606584  1
  I  I87  1  0.17320724  0.82752606  -0.00371924  1
  I  I88  1  0.16644845  0.82860533  0.33696761  1
  I  I89  1  0.16694593  0.82938406  0.66548847  1
  I  I90  1  0.49968651  0.16525615  0.00020847  1
  I  I91  1  0.49929856  0.16402650  0.33350542  1
  I  I92  1  0.49897006  0.17338200  0.66638891  1
  I  I93  1  0.50390015  0.50274414  0.00281397  1
  I  I94  1  0.50420165  0.50283106  0.33096935  1
  I  I95  1  0.50323557  0.49942183  0.66671061  1
  I  I96  1  0.49173911  0.82952355  -0.00328049  1
  I  I97  1  0.49989431  0.83174739  0.33645264  1
  I  I98  1  0.49973037  0.83082329  0.66566398  1
  I  I99  1  0.83399349  0.16647404  0.00010996  1
  I  I100  1  0.83501089  0.16735700  0.33669009  1
  I  I101  1  0.83659810  0.16662518  0.66246465  1
  I  I102  1  0.83478222  0.50128117  -0.00033397  1
  I  I103  1  0.83399541  0.50057050  0.33492246  1
  I  I104  1  0.83910586  0.50086917  0.66542915  1
  I  I105  1  0.83337956  0.83191409  -0.00023484  1
  I  I106  1  0.83364207  0.83108570  0.33843387  1
  I  I107  1  0.83294606  0.83056977  0.66290019  1
  I  I108  1  0.00234493  0.16881581  0.16726877  1
  I  I109  1  -0.00267940  0.16363107  0.49796267  1
  I  I110  1  -0.00008679  0.16135145  0.83489558  1
  I  I111  1  -0.00252389  0.49808568  0.16819824  1
  I  I112  1  -0.00080144  0.50445445  0.49758296  1
  I  I113  1  0.00043622  0.50609441  0.83498764  1
  I  I114  1  0.00007751  0.83117746  0.16674163  1
  I  I115  1  0.00024426  0.83191069  0.50300627  1
  I  I116  1  0.00301769  0.83082684  0.82907875  1
  I  I117  1  0.33041038  0.16923147  0.16900823  1
  I  I118  1  0.33341566  0.16774589  0.49763709  1
  I  I119  1  0.33315809  0.17340530  0.83378785  1
  I  I120  1  0.33499308  0.49882841  0.16721214  1
  I  I121  1  0.32992452  0.50510376  0.50129984  1
  I  I122  1  0.33006211  0.50231084  0.83138627  1
  I  I123  1  0.33321381  0.83034487  0.17217981  1
  I  I124  1  0.33224529  0.82737390  0.50350590  1
  I  I125  1  0.33213893  0.82625854  0.82434705  1
  I  I126  1  0.66693667  0.16510680  0.16745761  1
  I  I127  1  0.67104495  0.17105202  0.49852670  1
  I  I128  1  0.66690224  0.16737390  0.83392193  1
  I  I129  1  0.66815360  0.50113743  0.16842391  1
  I  I130  1  0.66984522  0.50102557  0.50146736  1
  I  I131  1  0.66938066  0.50154290  0.83009335  1
  I  I132  1  0.66681970  0.83510238  0.16658783  1
  I  I133  1  0.66715437  0.83183255  0.50431348  1
  I  I134  1  0.66467548  0.83004626  0.82682307  1
