# generated using pymatgen
data_Cs27Sn14Pb13I81
_symmetry_space_group_name_H-M   'P 1'
_cell_length_a   18.98841097
_cell_length_b   18.96958849
_cell_length_c   18.97121773
_cell_angle_alpha   89.99967196
_cell_angle_beta   90.00000013
_cell_angle_gamma   90.00000007
_symmetry_Int_Tables_number   1
_chemical_formula_structural   Cs27Sn14Pb13I81
_chemical_formula_sum   'Cs27 Sn14 Pb13 I81'
_cell_volume   6833.47705974
_cell_formula_units_Z   1
loop_
 _symmetry_equiv_pos_site_id
 _symmetry_equiv_pos_as_xyz
  1  'x, y, z'
loop_
 _atom_site_type_symbol
 _atom_site_label
 _atom_site_symmetry_multiplicity
 _atom_site_fract_x
 _atom_site_fract_y
 _atom_site_fract_z
 _atom_site_occupancy
  Cs  Cs0  1  -0.00000003  0.00192621  -0.00441385  1
  Cs  Cs1  1  -0.00000003  -0.00180588  0.33505817  1
  Cs  Cs2  1  -0.00000005  -0.00029264  0.66811003  1
  Cs  Cs3  1  -0.00000017  0.34169359  -0.00467575  1
  Cs  Cs4  1  -0.00000002  0.33294654  0.33469562  1
  Cs  Cs5  1  0.00000003  0.33396196  0.66787164  1
  Cs  Cs6  1  0.00000008  0.65665685  0.00717254  1
  Cs  Cs7  1  0.00000010  0.67131652  0.32595875  1
  Cs  Cs8  1  0.00000001  0.66735355  0.66591611  1
  Cs  Cs9  1  0.33537603  0.00032078  -0.00112243  1
  Cs  Cs10  1  0.33127033  0.00039716  0.33135786  1
  Cs  Cs11  1  0.33147982  -0.00014741  0.66914867  1
  Cs  Cs12  1  0.33386299  0.33368328  0.00088597  1
  Cs  Cs13  1  0.33354484  0.33191094  0.33476033  1
  Cs  Cs14  1  0.33277501  0.33405500  0.66439746  1
  Cs  Cs15  1  0.33158336  0.66596409  0.00077859  1
  Cs  Cs16  1  0.33258379  0.67492234  0.33436296  1
  Cs  Cs17  1  0.33592943  0.66738501  0.66501688  1
  Cs  Cs18  1  0.66462406  0.00032078  -0.00112238  1
  Cs  Cs19  1  0.66872971  0.00039711  0.33135784  1
  Cs  Cs20  1  0.66852021  -0.00014746  0.66914883  1
  Cs  Cs21  1  0.66613701  0.33368330  0.00088593  1
  Cs  Cs22  1  0.66645510  0.33191100  0.33476037  1
  Cs  Cs23  1  0.66722504  0.33405504  0.66439750  1
  Cs  Cs24  1  0.66841663  0.66596410  0.00077862  1
  Cs  Cs25  1  0.66741624  0.67492231  0.33436288  1
  Cs  Cs26  1  0.66407060  0.66738498  0.66501691  1
  Sn  Sn27  1  0.50000003  0.16659647  0.49980981  1
  Sn  Sn28  1  0.16646806  0.16733950  0.49939784  1
  Sn  Sn29  1  0.16640171  0.83286980  0.83373429  1
  Sn  Sn30  1  0.49999999  0.49968149  0.83409304  1
  Sn  Sn31  1  0.83376800  0.16705660  0.16687028  1
  Sn  Sn32  1  0.16623198  0.16705661  0.16687025  1
  Sn  Sn33  1  0.83353193  0.16733950  0.49939782  1
  Sn  Sn34  1  0.50000001  0.83304967  0.83344627  1
  Sn  Sn35  1  0.83359830  0.83286982  0.83373431  1
  Sn  Sn36  1  0.16565247  0.49962606  0.49962038  1
  Sn  Sn37  1  0.49999999  0.16746828  0.16683894  1
  Sn  Sn38  1  0.49999999  0.16730854  0.83322523  1
  Sn  Sn39  1  0.83434752  0.49962604  0.49962033  1
  Sn  Sn40  1  0.50000004  0.49936487  0.16681623  1
  Pb  Pb41  1  0.16648511  0.83363610  0.50162412  1
  Pb  Pb42  1  0.16655774  0.83614637  0.16380212  1
  Pb  Pb43  1  0.83130974  0.16587709  0.83322700  1
  Pb  Pb44  1  0.49999997  0.83351965  0.16439253  1
  Pb  Pb45  1  0.16869028  0.16587709  0.83322701  1
  Pb  Pb46  1  0.50000000  0.49848969  0.49921524  1
  Pb  Pb47  1  0.83351487  0.83363606  0.50162407  1
  Pb  Pb48  1  0.50000002  0.83693147  0.50220226  1
  Pb  Pb49  1  0.83344226  0.83614636  0.16380210  1
  Pb  Pb50  1  0.83095210  0.50226233  0.83105561  1
  Pb  Pb51  1  0.16920137  0.49755656  0.16943389  1
  Pb  Pb52  1  0.83079866  0.49755659  0.16943390  1
  Pb  Pb53  1  0.16904786  0.50226231  0.83105562  1
  I  I54  1  0.17097617  0.00468751  0.17380162  1
  I  I55  1  0.16712830  0.00387505  0.49761243  1
  I  I56  1  0.17034899  -0.00224342  0.83150745  1
  I  I57  1  0.16634585  0.32917896  0.16691501  1
  I  I58  1  0.16713086  0.33143180  0.49794464  1
  I  I59  1  0.16872839  0.33354284  0.83456429  1
  I  I60  1  0.16903841  0.66629944  0.16782846  1
  I  I61  1  0.16346721  0.66375006  0.50391078  1
  I  I62  1  0.17035520  0.67017979  0.82995744  1
  I  I63  1  0.49999990  0.00401239  0.16634995  1
  I  I64  1  0.49999974  0.00566182  0.49882419  1
  I  I65  1  0.50000006  0.00054322  0.83229722  1
  I  I66  1  0.49999987  0.33108273  0.16061403  1
  I  I67  1  0.50000007  0.32984252  0.50518601  1
  I  I68  1  0.49999992  0.33247313  0.83378550  1
  I  I69  1  0.50000034  0.66368562  0.16200496  1
  I  I70  1  0.50000008  0.66659053  0.50070855  1
  I  I71  1  0.50000009  0.66664792  0.83730220  1
  I  I72  1  0.82902396  0.00468751  0.17380142  1
  I  I73  1  0.83287187  0.00387502  0.49761245  1
  I  I74  1  0.82965102  -0.00224345  0.83150743  1
  I  I75  1  0.83365442  0.32917899  0.16691481  1
  I  I76  1  0.83286908  0.33143179  0.49794461  1
  I  I77  1  0.83127170  0.33354284  0.83456451  1
  I  I78  1  0.83096126  0.66629939  0.16782862  1
  I  I79  1  0.83653259  0.66375002  0.50391075  1
  I  I80  1  0.82964471  0.67017980  0.82995733  1
  I  I81  1  0.16827243  0.16232906  0.00260934  1
  I  I82  1  0.17221107  0.16966778  0.33416795  1
  I  I83  1  0.16722166  0.16798181  0.66352402  1
  I  I84  1  0.16620610  0.49983537  0.00020015  1
  I  I85  1  0.16554151  0.49726691  0.33732338  1
  I  I86  1  0.16582309  0.49205653  0.66330411  1
  I  I87  1  0.16989765  0.83641571  -0.00421547  1
  I  I88  1  0.16698797  0.83186111  0.33320189  1
  I  I89  1  0.16896378  0.83703232  0.66973299  1
  I  I90  1  0.49999994  0.16554902  0.00012710  1
  I  I91  1  0.50000009  0.17270863  0.33296475  1
  I  I92  1  0.49999994  0.16579257  0.66668660  1
  I  I93  1  0.50000006  0.49470021  -0.00067394  1
  I  I94  1  0.49999996  0.49155043  0.33085963  1
  I  I95  1  0.49999997  0.49986649  0.66897753  1
  I  I96  1  0.50000018  0.83990194  -0.00415024  1
  I  I97  1  0.50000001  0.83189942  0.33317846  1
  I  I98  1  0.49999976  0.83229609  0.67097076  1
  I  I99  1  0.83172767  0.16232909  0.00260934  1
  I  I100  1  0.82778886  0.16966774  0.33416792  1
  I  I101  1  0.83277841  0.16798186  0.66352395  1
  I  I102  1  0.83379383  0.49983560  0.00020015  1
  I  I103  1  0.83445844  0.49726684  0.33732343  1
  I  I104  1  0.83417691  0.49205639  0.66330405  1
  I  I105  1  0.83010205  0.83641565  -0.00421548  1
  I  I106  1  0.83301195  0.83186126  0.33320191  1
  I  I107  1  0.83103648  0.83703230  0.66973299  1
  I  I108  1  0.00000001  0.16300198  0.17512516  1
  I  I109  1  -0.00000001  0.16957189  0.49349137  1
  I  I110  1  -0.00000003  0.16185739  0.83328264  1
  I  I111  1  -0.00000001  0.49898758  0.16490034  1
  I  I112  1  -0.00000000  0.49018508  0.50236607  1
  I  I113  1  -0.00000001  0.50222039  0.83386110  1
  I  I114  1  0.00000002  0.83486974  0.16325714  1
  I  I115  1  0.00000003  0.83849521  0.50620554  1
  I  I116  1  -0.00000000  0.83827176  0.83051068  1
  I  I117  1  0.33429337  0.16941229  0.16904073  1
  I  I118  1  0.33340322  0.17022989  0.49882987  1
  I  I119  1  0.33728449  0.16374756  0.83284357  1
  I  I120  1  0.33691775  0.49300314  0.16334282  1
  I  I121  1  0.33142391  0.49459467  0.50167601  1
  I  I122  1  0.33727477  0.50065757  0.83389303  1
  I  I123  1  0.33341713  0.83595527  0.16446074  1
  I  I124  1  0.33336871  0.83189825  0.50392590  1
  I  I125  1  0.33459831  0.83527481  0.83237204  1
  I  I126  1  0.66570661  0.16941229  0.16904061  1
  I  I127  1  0.66659677  0.17022970  0.49882992  1
  I  I128  1  0.66271548  0.16374769  0.83284359  1
  I  I129  1  0.66308228  0.49300265  0.16334299  1
  I  I130  1  0.66857610  0.49459461  0.50167608  1
  I  I131  1  0.66272525  0.50065735  0.83389294  1
  I  I132  1  0.66658288  0.83595577  0.16446092  1
  I  I133  1  0.66663128  0.83189858  0.50392618  1
  I  I134  1  0.66540171  0.83527494  0.83237154  1
