# generated using pymatgen
data_Cs27Sn13Pb14I81
_symmetry_space_group_name_H-M   'P 1'
_cell_length_a   18.98148828
_cell_length_b   18.98914624
_cell_length_c   19.00297721
_cell_angle_alpha   90.00041789
_cell_angle_beta   89.99938101
_cell_angle_gamma   89.99928467
_symmetry_Int_Tables_number   1
_chemical_formula_structural   Cs27Sn13Pb14I81
_chemical_formula_sum   'Cs27 Sn13 Pb14 I81'
_cell_volume   6849.47599422
_cell_formula_units_Z   1
loop_
 _symmetry_equiv_pos_site_id
 _symmetry_equiv_pos_as_xyz
  1  'x, y, z'
loop_
 _atom_site_type_symbol
 _atom_site_label
 _atom_site_symmetry_multiplicity
 _atom_site_fract_x
 _atom_site_fract_y
 _atom_site_fract_z
 _atom_site_occupancy
  Cs  Cs0  1  0.00165522  -0.00207444  -0.00027602  1
  Cs  Cs1  1  0.00211137  -0.00014219  0.33217577  1
  Cs  Cs2  1  0.00704548  -0.00658495  0.66851099  1
  Cs  Cs3  1  -0.00413786  0.33196396  -0.00069538  1
  Cs  Cs4  1  -0.00457887  0.33175921  0.33433708  1
  Cs  Cs5  1  0.00169205  0.33179793  0.66581631  1
  Cs  Cs6  1  0.00503657  0.67126885  -0.00019784  1
  Cs  Cs7  1  0.00516112  0.66911261  0.33182684  1
  Cs  Cs8  1  0.00184260  0.67862604  0.66861884  1
  Cs  Cs9  1  0.33805042  0.00023260  0.00053239  1
  Cs  Cs10  1  0.33436460  -0.00091873  0.33303349  1
  Cs  Cs11  1  0.32942735  0.00095176  0.66581256  1
  Cs  Cs12  1  0.33366759  0.33983588  -0.00231834  1
  Cs  Cs13  1  0.33141709  0.33830761  0.33442683  1
  Cs  Cs14  1  0.32357881  0.33816907  0.66776738  1
  Cs  Cs15  1  0.32751846  0.65875914  0.00062179  1
  Cs  Cs16  1  0.32608567  0.65923117  0.33988576  1
  Cs  Cs17  1  0.33066591  0.65536219  0.65747843  1
  Cs  Cs18  1  0.66494566  0.00096839  0.00027650  1
  Cs  Cs19  1  0.66583849  0.00184009  0.33152665  1
  Cs  Cs20  1  0.66586998  -0.00147501  0.66813620  1
  Cs  Cs21  1  0.66744540  0.33225880  0.00002845  1
  Cs  Cs22  1  0.66899520  0.33155405  0.33223576  1
  Cs  Cs23  1  0.66827664  0.33169971  0.66803831  1
  Cs  Cs24  1  0.66635360  0.66754077  -0.00053155  1
  Cs  Cs25  1  0.66522717  0.66797214  0.33612881  1
  Cs  Cs26  1  0.66556946  0.67083694  0.66339611  1
  Sn  Sn27  1  0.49988656  0.83346144  0.83409738  1
  Sn  Sn28  1  0.83324520  0.16634333  0.16646374  1
  Sn  Sn29  1  0.83254044  0.16672057  0.50060907  1
  Sn  Sn30  1  0.16722283  0.16681037  0.16618352  1
  Sn  Sn31  1  0.50071973  0.16624723  0.83297346  1
  Sn  Sn32  1  0.83278440  0.49978620  0.83296565  1
  Sn  Sn33  1  0.49979964  0.16646760  0.16664112  1
  Sn  Sn34  1  0.50077807  0.16686093  0.50037846  1
  Sn  Sn35  1  0.83283034  0.16679452  0.83300302  1
  Sn  Sn36  1  0.50049501  0.83325945  0.16591667  1
  Sn  Sn37  1  0.83204433  0.83361486  0.16658590  1
  Sn  Sn38  1  0.83300533  0.49951170  0.50045381  1
  Sn  Sn39  1  0.83271530  0.50057267  0.16655308  1
  Pb  Pb40  1  0.50006133  0.83561382  0.49960096  1
  Pb  Pb41  1  0.83164772  0.83385248  0.83566638  1
  Pb  Pb42  1  0.16687803  0.16650233  0.83593260  1
  Pb  Pb43  1  0.16707360  0.83374665  0.49977818  1
  Pb  Pb44  1  0.16809527  0.83557931  0.16652620  1
  Pb  Pb45  1  0.16635996  0.16657986  0.49753627  1
  Pb  Pb46  1  0.50230823  0.49989827  0.83329401  1
  Pb  Pb47  1  0.16217862  0.49944331  0.49996548  1
  Pb  Pb48  1  0.16258994  0.49980374  0.83343569  1
  Pb  Pb49  1  0.17174017  0.83354090  0.83378000  1
  Pb  Pb50  1  0.50211352  0.50031333  0.16673878  1
  Pb  Pb51  1  0.16323173  0.49691351  0.16654298  1
  Pb  Pb52  1  0.83324861  0.83422930  0.49720980  1
  Pb  Pb53  1  0.50280769  0.49663593  0.50006496  1
  I  I54  1  0.15999286  0.00346423  0.16723994  1
  I  I55  1  0.16293439  0.00078171  0.49931464  1
  I  I56  1  0.15893800  0.00019957  0.83324263  1
  I  I57  1  0.16802998  0.32905278  0.16689703  1
  I  I58  1  0.16957002  0.33297704  0.49904583  1
  I  I59  1  0.17169944  0.33303575  0.83446148  1
  I  I60  1  0.16586294  0.66647603  0.16696729  1
  I  I61  1  0.16623886  0.66620107  0.49863371  1
  I  I62  1  0.16474729  0.66670452  0.83511699  1
  I  I63  1  0.50540072  0.00191986  0.16629301  1
  I  I64  1  0.50832619  0.00418846  0.49852824  1
  I  I65  1  0.50727088  0.00202717  0.83519177  1
  I  I66  1  0.50127531  0.32938177  0.16576564  1
  I  I67  1  0.50295779  0.32829333  0.49782506  1
  I  I68  1  0.50301013  0.32954622  0.83587489  1
  I  I69  1  0.50747565  0.67011387  0.16025515  1
  I  I70  1  0.50059584  0.66650393  0.50008005  1
  I  I71  1  0.50325575  0.66975355  0.84103539  1
  I  I72  1  0.83301140  0.00161780  0.16699875  1
  I  I73  1  0.82899856  0.00394535  0.49901385  1
  I  I74  1  0.83135792  0.00343865  0.83372951  1
  I  I75  1  0.83377963  0.33186283  0.16691220  1
  I  I76  1  0.82942643  0.33183953  0.49482174  1
  I  I77  1  0.82803086  0.33160379  0.83827533  1
  I  I78  1  0.82753888  0.66674350  0.16662122  1
  I  I79  1  0.83426610  0.66384343  0.49989903  1
  I  I80  1  0.83177725  0.66425681  0.83381383  1
  I  I81  1  0.16366356  0.16605127  0.00369614  1
  I  I82  1  0.16460497  0.16600127  0.32962429  1
  I  I83  1  0.16636277  0.16689058  0.66675526  1
  I  I84  1  0.16533014  0.49949941  0.00027311  1
  I  I85  1  0.16575170  0.49995226  0.33310650  1
  I  I86  1  0.16747216  0.49853140  0.66659447  1
  I  I87  1  0.16164646  0.83425764  0.00031167  1
  I  I88  1  0.16665874  0.83452736  0.33262684  1
  I  I89  1  0.16448025  0.83512371  0.66707286  1
  I  I90  1  0.50402074  0.16225527  0.00052777  1
  I  I91  1  0.50410398  0.16298629  0.33219776  1
  I  I92  1  0.51005587  0.16214511  0.66729574  1
  I  I93  1  0.50366522  0.49483625  0.00009820  1
  I  I94  1  0.50343796  0.49988243  0.33328844  1
  I  I95  1  0.50355859  0.50200325  0.66668999  1
  I  I96  1  0.50651049  0.84448105  0.00107878  1
  I  I97  1  0.50575137  0.83966092  0.32964192  1
  I  I98  1  0.50200656  0.83904327  0.66966997  1
  I  I99  1  0.83141599  0.16981657  0.00079022  1
  I  I100  1  0.83123776  0.16938239  0.33220599  1
  I  I101  1  0.82501137  0.17546067  0.66693969  1
  I  I102  1  0.83234508  0.49441871  0.00042922  1
  I  I103  1  0.83251041  0.49471199  0.33279645  1
  I  I104  1  0.83201858  0.48948435  0.66678861  1
  I  I105  1  0.83173028  0.83446267  0.00369590  1
  I  I106  1  0.82715772  0.83483675  0.32885510  1
  I  I107  1  0.83247856  0.83241149  0.66688836  1
  I  I108  1  -0.00251367  0.16756553  0.16731439  1
  I  I109  1  -0.00392397  0.17174182  0.49856771  1
  I  I110  1  -0.00366142  0.17209089  0.83392815  1
  I  I111  1  -0.00549624  0.50007595  0.16700422  1
  I  I112  1  -0.00570314  0.48995985  0.49806017  1
  I  I113  1  -0.00591676  0.49134878  0.83481206  1
  I  I114  1  -0.00294521  0.83387325  0.16776792  1
  I  I115  1  -0.00058407  0.83519000  0.49835889  1
  I  I116  1  0.00000515  0.83274672  0.83407200  1
  I  I117  1  0.33494732  0.15964719  0.16718003  1
  I  I118  1  0.33669535  0.16349426  0.49958178  1
  I  I119  1  0.33713637  0.16125528  0.83340167  1
  I  I120  1  0.33317556  0.49974768  0.16650251  1
  I  I121  1  0.33309179  0.49994902  0.49977270  1
  I  I122  1  0.33340634  0.49955913  0.83374393  1
  I  I123  1  0.33749860  0.84188933  0.16218573  1
  I  I124  1  0.33399991  0.83674332  0.49739102  1
  I  I125  1  0.33934401  0.84465969  0.84246552  1
  I  I126  1  0.66749168  0.16656360  0.16696082  1
  I  I127  1  0.66777113  0.17008173  0.49508940  1
  I  I128  1  0.66744424  0.16714846  0.83763614  1
  I  I129  1  0.67091341  0.49376498  0.16643323  1
  I  I130  1  0.67105779  0.49804065  0.49862030  1
  I  I131  1  0.67077241  0.49637440  0.83504265  1
  I  I132  1  0.66705365  0.83924732  0.16367511  1
  I  I133  1  0.66679730  0.83013387  0.50120941  1
  I  I134  1  0.66385927  0.83626324  0.83593982  1
