# generated using pymatgen
data_Cs27Sn13Pb14I81
_symmetry_space_group_name_H-M   'P 1'
_cell_length_a   18.97572010
_cell_length_b   18.98510314
_cell_length_c   18.97187579
_cell_angle_alpha   90.00022540
_cell_angle_beta   90.00243986
_cell_angle_gamma   89.99855570
_symmetry_Int_Tables_number   1
_chemical_formula_structural   Cs27Sn13Pb14I81
_chemical_formula_sum   'Cs27 Sn13 Pb14 I81'
_cell_volume   6834.73213912
_cell_formula_units_Z   1
loop_
 _symmetry_equiv_pos_site_id
 _symmetry_equiv_pos_as_xyz
  1  'x, y, z'
loop_
 _atom_site_type_symbol
 _atom_site_label
 _atom_site_symmetry_multiplicity
 _atom_site_fract_x
 _atom_site_fract_y
 _atom_site_fract_z
 _atom_site_occupancy
  Cs  Cs0  1  0.00029315  -0.00114434  0.00136164  1
  Cs  Cs1  1  0.00010304  -0.00172617  0.33416647  1
  Cs  Cs2  1  0.00000079  0.00151811  0.66451886  1
  Cs  Cs3  1  -0.00009707  0.33304518  -0.00052763  1
  Cs  Cs4  1  0.00064860  0.33508519  0.33346360  1
  Cs  Cs5  1  0.00028599  0.33444030  0.66671299  1
  Cs  Cs6  1  -0.00188394  0.66776090  -0.00102172  1
  Cs  Cs7  1  0.00006777  0.66603961  0.33515467  1
  Cs  Cs8  1  0.00103332  0.66495868  0.66665851  1
  Cs  Cs9  1  0.33426767  -0.00102730  -0.00003234  1
  Cs  Cs10  1  0.33167117  -0.00304530  0.33277767  1
  Cs  Cs11  1  0.33327250  0.00104753  0.66672739  1
  Cs  Cs12  1  0.33391664  0.33500349  0.00267729  1
  Cs  Cs13  1  0.33310174  0.33789887  0.33154966  1
  Cs  Cs14  1  0.33376814  0.33201599  0.66639089  1
  Cs  Cs15  1  0.33477062  0.66727705  0.00151829  1
  Cs  Cs16  1  0.33389365  0.66504475  0.33454497  1
  Cs  Cs17  1  0.33247717  0.66673560  0.66453563  1
  Cs  Cs18  1  0.66552597  -0.00163372  0.00108973  1
  Cs  Cs19  1  0.66798614  0.00134119  0.33388034  1
  Cs  Cs20  1  0.66626439  0.00730556  0.65909159  1
  Cs  Cs21  1  0.66642911  0.33315582  -0.00487024  1
  Cs  Cs22  1  0.66584539  0.33270693  0.33337699  1
  Cs  Cs23  1  0.66036084  0.32624127  0.67255030  1
  Cs  Cs24  1  0.66813482  0.66841785  -0.00026431  1
  Cs  Cs25  1  0.66644191  0.66648962  0.33352170  1
  Cs  Cs26  1  0.66389719  0.66569178  0.66639349  1
  Sn  Sn27  1  0.16636545  0.16742669  0.50033655  1
  Sn  Sn28  1  0.16655790  0.83330238  0.83348881  1
  Sn  Sn29  1  0.83328264  0.49967736  0.50006638  1
  Sn  Sn30  1  0.50066178  0.16594309  0.16650902  1
  Sn  Sn31  1  0.83268578  0.16656403  0.16637820  1
  Sn  Sn32  1  0.16635343  0.16666478  0.83290594  1
  Sn  Sn33  1  0.83295106  0.83369026  0.83321556  1
  Sn  Sn34  1  0.83351342  0.50003391  0.16716109  1
  Sn  Sn35  1  0.16652508  0.50004062  0.83288900  1
  Sn  Sn36  1  0.50042008  0.83357981  0.83355695  1
  Sn  Sn37  1  0.83272468  0.83342470  0.16614516  1
  Sn  Sn38  1  0.16571120  0.49903095  0.50091120  1
  Sn  Sn39  1  0.50092936  0.83414659  0.16605109  1
  Pb  Pb40  1  0.83529410  0.16410967  0.83532702  1
  Pb  Pb41  1  0.16669317  0.83315036  0.16463450  1
  Pb  Pb42  1  0.49704886  0.16669110  0.49690266  1
  Pb  Pb43  1  0.16435611  0.50019730  0.16680977  1
  Pb  Pb44  1  0.83477164  0.50166119  0.83299327  1
  Pb  Pb45  1  0.50025839  0.83346508  0.49956798  1
  Pb  Pb46  1  0.16657891  0.83304982  0.50266480  1
  Pb  Pb47  1  0.49757758  0.16428695  0.83556776  1
  Pb  Pb48  1  0.50310832  0.50041243  0.16654965  1
  Pb  Pb49  1  0.83323460  0.83118516  0.49992051  1
  Pb  Pb50  1  0.16685105  0.16663052  0.16695246  1
  Pb  Pb51  1  0.50016204  0.49975506  0.50016537  1
  Pb  Pb52  1  0.83532422  0.16932660  0.49772036  1
  Pb  Pb53  1  0.49714791  0.50245203  0.83340284  1
  I  I54  1  0.16214746  0.00003977  0.16726192  1
  I  I55  1  0.16756916  0.00271605  0.50319353  1
  I  I56  1  0.16673431  -0.00038411  0.83062308  1
  I  I57  1  0.16687272  0.33327344  0.16134575  1
  I  I58  1  0.16262779  0.33402978  0.50807536  1
  I  I59  1  0.16519181  0.33340681  0.82954289  1
  I  I60  1  0.16692856  0.66667059  0.16658339  1
  I  I61  1  0.16297581  0.66334447  0.50339683  1
  I  I62  1  0.16624149  0.66695997  0.83034947  1
  I  I63  1  0.50740087  -0.00096132  0.16243778  1
  I  I64  1  0.49742742  0.00017943  0.50185525  1
  I  I65  1  0.49703898  -0.00384699  0.83661537  1
  I  I66  1  0.50218520  0.33058217  0.16812150  1
  I  I67  1  0.50110076  0.33311342  0.49733905  1
  I  I68  1  0.49848504  0.33293451  0.83486389  1
  I  I69  1  0.50289982  0.67013397  0.16221185  1
  I  I70  1  0.49652927  0.66662510  0.49765826  1
  I  I71  1  0.49835612  0.67099566  0.84072793  1
  I  I72  1  0.83017177  -0.00069208  0.16131917  1
  I  I73  1  0.83542492  0.00031283  0.49917966  1
  I  I74  1  0.83649349  -0.00412991  0.83955029  1
  I  I75  1  0.83149457  0.33329367  0.17185499  1
  I  I76  1  0.83744070  0.33716631  0.49381537  1
  I  I77  1  0.83667010  0.33320579  0.83568971  1
  I  I78  1  0.83096403  0.66751989  0.16616889  1
  I  I79  1  0.84162225  0.66330780  0.49392205  1
  I  I80  1  0.83641162  0.66997016  0.83952074  1
  I  I81  1  0.16618986  0.16628520  -0.00286247  1
  I  I82  1  0.16646751  0.17308234  0.33599689  1
  I  I83  1  0.16614365  0.16644471  0.66752832  1
  I  I84  1  0.16570376  0.49991010  -0.00317067  1
  I  I85  1  0.16485836  0.49428244  0.33651054  1
  I  I86  1  0.16025782  0.50055093  0.66676890  1
  I  I87  1  0.16611233  0.83365963  -0.00404606  1
  I  I88  1  0.16700382  0.83359277  0.33343129  1
  I  I89  1  0.16640020  0.83295783  0.67127460  1
  I  I90  1  0.50169493  0.16453769  0.00347684  1
  I  I91  1  0.50261649  0.15937230  0.32897058  1
  I  I92  1  0.50070824  0.16527800  0.66683657  1
  I  I93  1  0.49806424  0.49806099  0.00010157  1
  I  I94  1  0.49402419  0.50300786  0.33307880  1
  I  I95  1  0.50475566  0.50300378  0.66689115  1
  I  I96  1  0.49976680  0.83682604  0.00029554  1
  I  I97  1  0.50532743  0.83672155  0.32929449  1
  I  I98  1  0.49862846  0.83094699  0.67028531  1
  I  I99  1  0.83294481  0.17134826  0.00374699  1
  I  I100  1  0.83266633  0.16096601  0.32934708  1
  I  I101  1  0.83324321  0.16591705  0.66672492  1
  I  I102  1  0.83511550  0.49974413  0.00274782  1
  I  I103  1  0.84009109  0.50212809  0.33254721  1
  I  I104  1  0.83840244  0.50404082  0.66415120  1
  I  I105  1  0.83409679  0.83076106  0.00079953  1
  I  I106  1  0.82853459  0.83487507  0.32963849  1
  I  I107  1  0.83499728  0.83042792  0.66996232  1
  I  I108  1  -0.00290113  0.16550943  0.16602260  1
  I  I109  1  0.00338121  0.16799654  0.50210218  1
  I  I110  1  0.00362227  0.16415049  0.83286701  1
  I  I111  1  -0.00385912  0.50043097  0.16734177  1
  I  I112  1  0.00095527  0.49717258  0.49912654  1
  I  I113  1  0.00325318  0.50312860  0.83299059  1
  I  I114  1  -0.00346522  0.83430844  0.16258709  1
  I  I115  1  0.00003691  0.83498898  0.49870087  1
  I  I116  1  0.00014478  0.83274589  0.83804726  1
  I  I117  1  0.33597579  0.16025121  0.16595471  1
  I  I118  1  0.32899815  0.17276450  0.50301935  1
  I  I119  1  0.32933598  0.16463540  0.83214459  1
  I  I120  1  0.33342453  0.49998847  0.16730059  1
  I  I121  1  0.32950965  0.49707580  0.50438713  1
  I  I122  1  0.32846496  0.50172681  0.82755822  1
  I  I123  1  0.33653663  0.83902711  0.16264202  1
  I  I124  1  0.33315251  0.83079136  0.49839816  1
  I  I125  1  0.33302170  0.83326931  0.83766775  1
  I  I126  1  0.66753492  0.16531232  0.16684735  1
  I  I127  1  0.66677394  0.16769663  0.50105760  1
  I  I128  1  0.66663334  0.16635765  0.83235410  1
  I  I129  1  0.67126415  0.50115624  0.17253667  1
  I  I130  1  0.67013780  0.50365149  0.49309937  1
  I  I131  1  0.66682332  0.50212719  0.83325938  1
  I  I132  1  0.66755761  0.83322514  0.15823656  1
  I  I133  1  0.66688072  0.83036768  0.50518348  1
  I  I134  1  0.66701886  0.83110417  0.84027496  1
