# generated using pymatgen
data_Cs27Sn14Pb13I81
_symmetry_space_group_name_H-M   'P 1'
_cell_length_a   18.97364693
_cell_length_b   18.98327329
_cell_length_c   18.97287022
_cell_angle_alpha   89.99942200
_cell_angle_beta   89.99986781
_cell_angle_gamma   90.00216239
_symmetry_Int_Tables_number   1
_chemical_formula_structural   Cs27Sn14Pb13I81
_chemical_formula_sum   'Cs27 Sn14 Pb13 I81'
_cell_volume   6833.68491124
_cell_formula_units_Z   1
loop_
 _symmetry_equiv_pos_site_id
 _symmetry_equiv_pos_as_xyz
  1  'x, y, z'
loop_
 _atom_site_type_symbol
 _atom_site_label
 _atom_site_symmetry_multiplicity
 _atom_site_fract_x
 _atom_site_fract_y
 _atom_site_fract_z
 _atom_site_occupancy
  Cs  Cs0  1  0.00344804  0.00062516  -0.00025749  1
  Cs  Cs1  1  -0.00688242  -0.00016917  0.33632482  1
  Cs  Cs2  1  -0.00064789  0.00145975  0.66530014  1
  Cs  Cs3  1  0.00228032  0.33670401  -0.00073923  1
  Cs  Cs4  1  0.00037413  0.33031087  0.33480190  1
  Cs  Cs5  1  -0.00030544  0.33456449  0.66774200  1
  Cs  Cs6  1  -0.00062608  0.66485614  0.00029243  1
  Cs  Cs7  1  0.00016356  0.67018220  0.33839036  1
  Cs  Cs8  1  -0.00064793  0.66443458  0.66295786  1
  Cs  Cs9  1  0.33196192  -0.00176368  -0.00170226  1
  Cs  Cs10  1  0.33298389  -0.00006185  0.33121198  1
  Cs  Cs11  1  0.33408979  -0.00153521  0.67028438  1
  Cs  Cs12  1  0.33014855  0.33240164  0.00064451  1
  Cs  Cs13  1  0.33929837  0.33514185  0.33510181  1
  Cs  Cs14  1  0.33297233  0.33368916  0.66524178  1
  Cs  Cs15  1  0.33322654  0.66946181  -0.00059459  1
  Cs  Cs16  1  0.33195538  0.66431472  0.33546477  1
  Cs  Cs17  1  0.33368987  0.66730841  0.66480643  1
  Cs  Cs18  1  0.66531676  -0.00145166  -0.00102806  1
  Cs  Cs19  1  0.67571399  0.00797104  0.33485915  1
  Cs  Cs20  1  0.66619811  0.00047513  0.66665336  1
  Cs  Cs21  1  0.66903396  0.33723775  0.00558983  1
  Cs  Cs22  1  0.66021667  0.32594477  0.32958503  1
  Cs  Cs23  1  0.66855386  0.33335932  0.66498007  1
  Cs  Cs24  1  0.66884000  0.66531820  -0.00129825  1
  Cs  Cs25  1  0.66856792  0.66521540  0.32876442  1
  Cs  Cs26  1  0.66557653  0.66647216  0.67019693  1
  Sn  Sn27  1  0.16616018  0.83217476  0.83364463  1
  Sn  Sn28  1  0.16674441  0.50058914  0.16632506  1
  Sn  Sn29  1  0.16689368  0.16629284  0.16817642  1
  Sn  Sn30  1  0.83265524  0.49980622  0.49940793  1
  Sn  Sn31  1  0.16723759  0.16631591  0.49898073  1
  Sn  Sn32  1  0.16735126  0.83317853  0.16616386  1
  Sn  Sn33  1  0.16767381  0.50131838  0.83376629  1
  Sn  Sn34  1  0.49901759  0.49974688  0.83343605  1
  Sn  Sn35  1  0.49954849  0.83371716  0.16702929  1
  Sn  Sn36  1  0.83378583  0.83419199  0.83334029  1
  Sn  Sn37  1  0.50024789  0.83352844  0.49917070  1
  Sn  Sn38  1  0.83231821  0.16611489  0.83375977  1
  Sn  Sn39  1  0.50115564  0.16717440  0.83359741  1
  Sn  Sn40  1  0.50001893  0.83323258  0.83356533  1
  Pb  Pb41  1  0.49775998  0.50238452  0.16434627  1
  Pb  Pb42  1  0.83505001  0.16860718  0.50239272  1
  Pb  Pb43  1  0.83045079  0.83180020  0.50258830  1
  Pb  Pb44  1  0.16827742  0.83517318  0.49990271  1
  Pb  Pb45  1  0.16686734  0.16663433  0.83376996  1
  Pb  Pb46  1  0.83359281  0.83331988  0.16431705  1
  Pb  Pb47  1  0.49782262  0.16414555  0.16410016  1
  Pb  Pb48  1  0.16577465  0.49813323  0.49997268  1
  Pb  Pb49  1  0.83596291  0.49999610  0.16989066  1
  Pb  Pb50  1  0.83348101  0.50007468  0.83260014  1
  Pb  Pb51  1  0.83584503  0.16669430  0.16365258  1
  Pb  Pb52  1  0.49805091  0.16440458  0.50218454  1
  Pb  Pb53  1  0.50221034  0.50198112  0.50195749  1
  I  I54  1  0.17131723  -0.00109863  0.16362802  1
  I  I55  1  0.16712213  0.00286283  0.49886770  1
  I  I56  1  0.16912742  -0.00275435  0.83573792  1
  I  I57  1  0.16409645  0.33352604  0.16359817  1
  I  I58  1  0.16535542  0.33038198  0.49898907  1
  I  I59  1  0.16879672  0.33553451  0.83570491  1
  I  I60  1  0.17051744  0.66749004  0.16005070  1
  I  I61  1  0.16601711  0.66678955  0.49891823  1
  I  I62  1  0.16906893  0.66752592  0.83971412  1
  I  I63  1  0.49272174  -0.00390783  0.16214371  1
  I  I64  1  0.49856483  -0.00351055  0.50475266  1
  I  I65  1  0.49928743  -0.00162788  0.83323282  1
  I  I66  1  0.49822924  0.33327225  0.16465060  1
  I  I67  1  0.49972465  0.33319500  0.50303348  1
  I  I68  1  0.49834628  0.33347935  0.83204846  1
  I  I69  1  0.49427215  0.67056211  0.16369191  1
  I  I70  1  0.49778598  0.67005700  0.50463530  1
  I  I71  1  0.49962411  0.66814755  0.83310918  1
  I  I72  1  0.83623139  -0.00009802  0.16905809  1
  I  I73  1  0.83368793  0.00001473  0.49987749  1
  I  I74  1  0.83121144  -0.00092495  0.83272831  1
  I  I75  1  0.83623508  0.33332495  0.16231510  1
  I  I76  1  0.83593745  0.33583908  0.50595890  1
  I  I77  1  0.83192424  0.33116064  0.83066996  1
  I  I78  1  0.83507888  0.66676830  0.16358668  1
  I  I79  1  0.83660793  0.66447898  0.50415758  1
  I  I80  1  0.83097885  0.66932757  0.83195862  1
  I  I81  1  0.16675066  0.16613729  0.00207675  1
  I  I82  1  0.16644162  0.16650777  0.33223743  1
  I  I83  1  0.16642991  0.16673816  0.66559151  1
  I  I84  1  0.16945389  0.49827735  -0.00114723  1
  I  I85  1  0.16331274  0.50348794  0.33035453  1
  I  I86  1  0.16866993  0.50278321  0.66989995  1
  I  I87  1  0.17102271  0.83529725  -0.00104031  1
  I  I88  1  0.17231402  0.83036672  0.33011086  1
  I  I89  1  0.16829570  0.83109356  0.67016477  1
  I  I90  1  0.50032735  0.16355674  -0.00426003  1
  I  I91  1  0.50001857  0.16502815  0.33307754  1
  I  I92  1  0.49954676  0.16322566  0.67067388  1
  I  I93  1  0.49988501  0.50230443  -0.00424969  1
  I  I94  1  0.49920147  0.50258446  0.33308290  1
  I  I95  1  0.49333655  0.50332379  0.67081813  1
  I  I96  1  0.49816318  0.83387315  -0.00176578  1
  I  I97  1  0.49122230  0.83169307  0.33250807  1
  I  I98  1  0.49956444  0.83332697  0.66919684  1
  I  I99  1  0.83158795  0.16315175  -0.00442578  1
  I  I100  1  0.83368930  0.16781928  0.33336016  1
  I  I101  1  0.83322579  0.16258471  0.67034134  1
  I  I102  1  0.83237200  0.49990570  -0.00008399  1
  I  I103  1  0.83620529  0.50194876  0.33722566  1
  I  I104  1  0.83646357  0.50044520  0.66543883  1
  I  I105  1  0.82949476  0.83530360  -0.00429007  1
  I  I106  1  0.83380676  0.83140669  0.33348348  1
  I  I107  1  0.83441112  0.83641635  0.67104290  1
  I  I108  1  0.00452121  0.16314001  0.16727907  1
  I  I109  1  0.00307920  0.16548563  0.49918376  1
  I  I110  1  -0.00159847  0.16333996  0.83308286  1
  I  I111  1  0.00471475  0.50250755  0.15714045  1
  I  I112  1  -0.00173369  0.50016004  0.50454090  1
  I  I113  1  0.00303021  0.50206221  0.83563822  1
  I  I114  1  0.00387275  0.83316196  0.16108410  1
  I  I115  1  -0.00013778  0.83362500  0.50086796  1
  I  I116  1  0.00120420  0.83393510  0.83824276  1
  I  I117  1  0.32949198  0.16824889  0.16659088  1
  I  I118  1  0.33020292  0.16813886  0.49942458  1
  I  I119  1  0.33548832  0.16342323  0.83337623  1
  I  I120  1  0.32937380  0.49781746  0.16543622  1
  I  I121  1  0.33349481  0.49948480  0.49974059  1
  I  I122  1  0.33264852  0.50304488  0.83579629  1
  I  I123  1  0.33229595  0.83399780  0.15989096  1
  I  I124  1  0.33601763  0.83328889  0.50731093  1
  I  I125  1  0.33370971  0.83370323  0.83395654  1
  I  I126  1  0.66634911  0.16536250  0.16769669  1
  I  I127  1  0.66650311  0.16660861  0.50036437  1
  I  I128  1  0.66589914  0.16188117  0.83133857  1
  I  I129  1  0.66628967  0.50232243  0.16483650  1
  I  I130  1  0.66951192  0.50158153  0.50620267  1
  I  I131  1  0.66410404  0.50344758  0.83018635  1
  I  I132  1  0.66349571  0.83235718  0.16377909  1
  I  I133  1  0.66250737  0.83288632  0.50213332  1
  I  I134  1  0.66512679  0.83338538  0.83302561  1
