# generated using pymatgen
data_Cs27Sn13Pb14I81
_symmetry_space_group_name_H-M   'P 1'
_cell_length_a   18.97779165
_cell_length_b   18.98247464
_cell_length_c   18.96958924
_cell_angle_alpha   90.00079707
_cell_angle_beta   89.99840792
_cell_angle_gamma   89.99995795
_symmetry_Int_Tables_number   1
_chemical_formula_structural   Cs27Sn13Pb14I81
_chemical_formula_sum   'Cs27 Sn13 Pb14 I81'
_cell_volume   6833.70818708
_cell_formula_units_Z   1
loop_
 _symmetry_equiv_pos_site_id
 _symmetry_equiv_pos_as_xyz
  1  'x, y, z'
loop_
 _atom_site_type_symbol
 _atom_site_label
 _atom_site_symmetry_multiplicity
 _atom_site_fract_x
 _atom_site_fract_y
 _atom_site_fract_z
 _atom_site_occupancy
  Cs  Cs0  1  -0.00075467  -0.00096293  -0.00009877  1
  Cs  Cs1  1  0.00110473  0.00100286  0.33390638  1
  Cs  Cs2  1  -0.00129563  0.00098337  0.66598286  1
  Cs  Cs3  1  0.00038791  0.33276466  -0.00150602  1
  Cs  Cs4  1  0.00769676  0.33162923  0.33991176  1
  Cs  Cs5  1  -0.00164599  0.33380068  0.66373629  1
  Cs  Cs6  1  0.00125224  0.66929747  0.00130496  1
  Cs  Cs7  1  0.00392494  0.66842797  0.32973850  1
  Cs  Cs8  1  -0.00250097  0.66579524  0.66780433  1
  Cs  Cs9  1  0.33145410  -0.00028771  -0.00457908  1
  Cs  Cs10  1  0.33676830  0.00212817  0.33426889  1
  Cs  Cs11  1  0.33528926  -0.00327941  0.66941079  1
  Cs  Cs12  1  0.33176811  0.33109007  0.00048547  1
  Cs  Cs13  1  0.32807995  0.33437244  0.33349474  1
  Cs  Cs14  1  0.33431599  0.33728989  0.66803232  1
  Cs  Cs15  1  0.32870619  0.67002248  -0.00258770  1
  Cs  Cs16  1  0.33513431  0.66368068  0.33504457  1
  Cs  Cs17  1  0.33528823  0.66881979  0.66706049  1
  Cs  Cs18  1  0.66708290  0.00253899  0.00112828  1
  Cs  Cs19  1  0.66622756  -0.00076178  0.33303807  1
  Cs  Cs20  1  0.66719935  0.00039025  0.66534326  1
  Cs  Cs21  1  0.66723000  0.33265681  0.00036378  1
  Cs  Cs22  1  0.66657763  0.33181403  0.33153601  1
  Cs  Cs23  1  0.66883875  0.34251383  0.66750154  1
  Cs  Cs24  1  0.66799219  0.66327514  0.00259018  1
  Cs  Cs25  1  0.66478688  0.66871246  0.33132797  1
  Cs  Cs26  1  0.66769571  0.65988420  0.66785668  1
  Sn  Sn27  1  0.16575675  0.16736682  0.83319577  1
  Sn  Sn28  1  0.16642167  0.49915611  0.83334284  1
  Sn  Sn29  1  0.49994754  0.83367294  0.16682089  1
  Sn  Sn30  1  0.50035703  0.49963012  0.16660321  1
  Sn  Sn31  1  0.83338905  0.49844495  0.16705948  1
  Sn  Sn32  1  0.16677875  0.83364462  0.49985305  1
  Sn  Sn33  1  0.83314540  0.16778513  0.16646565  1
  Sn  Sn34  1  0.83266455  0.83404116  0.83272698  1
  Sn  Sn35  1  0.83310788  0.83343264  0.50066142  1
  Sn  Sn36  1  0.50053293  0.16645387  0.49970674  1
  Sn  Sn37  1  0.50064767  0.16671378  0.16743236  1
  Sn  Sn38  1  0.50040458  0.83417941  0.49938153  1
  Sn  Sn39  1  0.83380282  0.16609421  0.83368489  1
  Pb  Pb40  1  0.16664532  0.50245126  0.50268625  1
  Pb  Pb41  1  0.50014194  0.49987033  0.49761711  1
  Pb  Pb42  1  0.16657467  0.16643429  0.16486048  1
  Pb  Pb43  1  0.83177918  0.83388949  0.16682910  1
  Pb  Pb44  1  0.16956734  0.16472906  0.50294984  1
  Pb  Pb45  1  0.83492126  0.49959984  0.83549357  1
  Pb  Pb46  1  0.16649707  0.49988196  0.16495827  1
  Pb  Pb47  1  0.50303707  0.83326718  0.83301942  1
  Pb  Pb48  1  0.16415453  0.83378649  0.83131944  1
  Pb  Pb49  1  0.50086493  0.16674937  0.83304870  1
  Pb  Pb50  1  0.17004288  0.83367733  0.16918880  1
  Pb  Pb51  1  0.49764366  0.50004832  0.83649061  1
  Pb  Pb52  1  0.83345997  0.50282878  0.49644834  1
  Pb  Pb53  1  0.83134417  0.16523775  0.49988513  1
  I  I54  1  0.16538843  0.00000530  0.16288406  1
  I  I55  1  0.16506799  -0.00323044  0.50222293  1
  I  I56  1  0.16499373  0.00254680  0.83266678  1
  I  I57  1  0.17129668  0.33313162  0.16788250  1
  I  I58  1  0.16864054  0.33300651  0.49897302  1
  I  I59  1  0.16163062  0.33224278  0.83506752  1
  I  I60  1  0.16544472  0.66681692  0.16295199  1
  I  I61  1  0.16981292  0.67069232  0.50171284  1
  I  I62  1  0.16616168  0.66500248  0.83291757  1
  I  I63  1  0.50442687  0.00052669  0.17152030  1
  I  I64  1  0.50025650  -0.00115023  0.49178736  1
  I  I65  1  0.49509817  0.00006641  0.83792486  1
  I  I66  1  0.50462688  0.33242002  0.16938188  1
  I  I67  1  0.50011075  0.33024341  0.49657261  1
  I  I68  1  0.50331070  0.33316983  0.83171457  1
  I  I69  1  0.50440872  0.66695845  0.17043549  1
  I  I70  1  0.49944247  0.67017780  0.49587852  1
  I  I71  1  0.49913585  0.66681160  0.83349214  1
  I  I72  1  0.82871676  0.00278861  0.16490026  1
  I  I73  1  0.83400256  -0.00324493  0.49940162  1
  I  I74  1  0.83877172  0.00085195  0.83602126  1
  I  I75  1  0.82344204  0.33208511  0.15906216  1
  I  I76  1  0.83089406  0.33320044  0.50309703  1
  I  I77  1  0.83489533  0.33028199  0.83655169  1
  I  I78  1  0.82866908  0.66500895  0.16663119  1
  I  I79  1  0.82988604  0.67142252  0.50600761  1
  I  I80  1  0.83446571  0.66903694  0.83072675  1
  I  I81  1  0.16791636  0.16864581  -0.00328802  1
  I  I82  1  0.16441656  0.16536443  0.33374535  1
  I  I83  1  0.16075243  0.16988781  0.67064352  1
  I  I84  1  0.16737094  0.49759794  -0.00292825  1
  I  I85  1  0.16685130  0.50194045  0.33332647  1
  I  I86  1  0.16540530  0.49520745  0.67048142  1
  I  I87  1  0.16701793  0.83252779  -0.00037868  1
  I  I88  1  0.16011659  0.83319049  0.33723107  1
  I  I89  1  0.17277151  0.83358065  0.66353584  1
  I  I90  1  0.50088520  0.16591437  0.00334199  1
  I  I91  1  0.50572893  0.16435691  0.33194282  1
  I  I92  1  0.49846001  0.15842410  0.66380727  1
  I  I93  1  0.50476959  0.49961445  0.00476692  1
  I  I94  1  0.50345756  0.50135856  0.32936334  1
  I  I95  1  0.49875726  0.50036046  0.66667198  1
  I  I96  1  0.50215847  0.83433423  0.00314154  1
  I  I97  1  0.50241707  0.83397461  0.33363997  1
  I  I98  1  0.49760792  0.83914912  0.66309152  1
  I  I99  1  0.83109277  0.16396766  0.00021227  1
  I  I100  1  0.82937109  0.16806268  0.33029239  1
  I  I101  1  0.83590679  0.16276197  0.66938548  1
  I  I102  1  0.82890389  0.50163271  0.00329132  1
  I  I103  1  0.82837016  0.49552187  0.32851045  1
  I  I104  1  0.83451049  0.49875382  0.66677476  1
  I  I105  1  0.83228249  0.83420637  -0.00204057  1
  I  I106  1  0.83373550  0.83278179  0.33597253  1
  I  I107  1  0.83214685  0.83934463  0.66657369  1
  I  I108  1  -0.00351502  0.17075959  0.16387811  1
  I  I109  1  -0.00005468  0.16397278  0.49732826  1
  I  I110  1  -0.00130162  0.16556135  0.83934020  1
  I  I111  1  -0.00309887  0.49677020  0.16463371  1
  I  I112  1  -0.00003820  0.50179905  0.49683935  1
  I  I113  1  0.00250450  0.49964532  0.83654563  1
  I  I114  1  -0.00022854  0.83208249  0.16762876  1
  I  I115  1  -0.00078727  0.83231902  0.50585710  1
  I  I116  1  -0.00362220  0.83444380  0.82930301  1
  I  I117  1  0.33692503  0.16691666  0.16925379  1
  I  I118  1  0.33736422  0.16034803  0.49372483  1
  I  I119  1  0.33110007  0.17008432  0.83359023  1
  I  I120  1  0.33663390  0.50004387  0.16586385  1
  I  I121  1  0.33350169  0.50246322  0.49824223  1
  I  I122  1  0.32980549  0.49443399  0.83466349  1
  I  I123  1  0.33849954  0.83312203  0.17034175  1
  I  I124  1  0.33463241  0.83682835  0.49542964  1
  I  I125  1  0.33327923  0.83346724  0.83319938  1
  I  I126  1  0.66635167  0.16665655  0.16402022  1
  I  I127  1  0.66340548  0.15909822  0.49930850  1
  I  I128  1  0.66997826  0.16114103  0.83573082  1
  I  I129  1  0.66614655  0.50024531  0.16560422  1
  I  I130  1  0.66672825  0.50269139  0.50435841  1
  I  I131  1  0.66695993  0.50009825  0.83223836  1
  I  I132  1  0.66367573  0.83341552  0.17178129  1
  I  I133  1  0.66591277  0.83782331  0.49884205  1
  I  I134  1  0.67082786  0.83977005  0.82913153  1
