# generated using pymatgen
data_Cs27Sn14Pb13I81
_symmetry_space_group_name_H-M   'P 1'
_cell_length_a   18.97938759
_cell_length_b   18.97664217
_cell_length_c   18.96835976
_cell_angle_alpha   89.99878614
_cell_angle_beta   90.00032845
_cell_angle_gamma   89.99925199
_symmetry_Int_Tables_number   1
_chemical_formula_structural   Cs27Sn14Pb13I81
_chemical_formula_sum   'Cs27 Sn14 Pb13 I81'
_cell_volume   6831.74017970
_cell_formula_units_Z   1
loop_
 _symmetry_equiv_pos_site_id
 _symmetry_equiv_pos_as_xyz
  1  'x, y, z'
loop_
 _atom_site_type_symbol
 _atom_site_label
 _atom_site_symmetry_multiplicity
 _atom_site_fract_x
 _atom_site_fract_y
 _atom_site_fract_z
 _atom_site_occupancy
  Cs  Cs0  1  -0.00022669  0.00248948  0.00147484  1
  Cs  Cs1  1  -0.00259393  -0.00172190  0.33598170  1
  Cs  Cs2  1  0.00037738  -0.00087066  0.66592868  1
  Cs  Cs3  1  0.00043374  0.32944610  -0.00195616  1
  Cs  Cs4  1  -0.00192504  0.34334862  0.33468427  1
  Cs  Cs5  1  0.00105490  0.33372779  0.66778348  1
  Cs  Cs6  1  0.00031182  0.66726488  -0.00050681  1
  Cs  Cs7  1  0.00111436  0.66081987  0.33399674  1
  Cs  Cs8  1  0.00199982  0.66696884  0.66548998  1
  Cs  Cs9  1  0.33006747  -0.00082120  0.00994491  1
  Cs  Cs10  1  0.33561289  0.00092798  0.33050319  1
  Cs  Cs11  1  0.33086956  0.00049225  0.66468117  1
  Cs  Cs12  1  0.33110360  0.33022834  0.00104686  1
  Cs  Cs13  1  0.33660261  0.33282733  0.32502948  1
  Cs  Cs14  1  0.33564794  0.33431420  0.66817237  1
  Cs  Cs15  1  0.33578424  0.66980572  0.00586166  1
  Cs  Cs16  1  0.32998390  0.66669242  0.32787792  1
  Cs  Cs17  1  0.33327845  0.66562918  0.66641769  1
  Cs  Cs18  1  0.66931714  -0.00466958  -0.00123957  1
  Cs  Cs19  1  0.66923890  0.00316210  0.33634051  1
  Cs  Cs20  1  0.66702784  -0.00094710  0.66536328  1
  Cs  Cs21  1  0.66785717  0.33584467  -0.00260635  1
  Cs  Cs22  1  0.66638635  0.33207848  0.32977652  1
  Cs  Cs23  1  0.66482732  0.33348299  0.66725839  1
  Cs  Cs24  1  0.66303327  0.66832524  -0.00239260  1
  Cs  Cs25  1  0.66857180  0.66340076  0.33269532  1
  Cs  Cs26  1  0.66451134  0.66790520  0.66887261  1
  Sn  Sn27  1  0.83235162  0.16727990  0.83296836  1
  Sn  Sn28  1  0.83353375  0.16609317  0.16695110  1
  Sn  Sn29  1  0.16716609  0.50114189  0.83285953  1
  Sn  Sn30  1  0.83346433  0.83370072  0.16787066  1
  Sn  Sn31  1  0.50045193  0.16641720  0.83309501  1
  Sn  Sn32  1  0.49961648  0.49930678  0.83252872  1
  Sn  Sn33  1  0.49985035  0.83229905  0.50037462  1
  Sn  Sn34  1  0.83329653  0.49957714  0.83265815  1
  Sn  Sn35  1  0.49986400  0.50068141  0.50040191  1
  Sn  Sn36  1  0.16675416  0.83403699  0.50072149  1
  Sn  Sn37  1  0.16687727  0.83292460  0.83284991  1
  Sn  Sn38  1  0.83440481  0.16650223  0.49999572  1
  Sn  Sn39  1  0.16602111  0.16659025  0.50015175  1
  Sn  Sn40  1  0.83340998  0.83350114  0.49929518  1
  Pb  Pb41  1  0.16928605  0.49973804  0.50154132  1
  Pb  Pb42  1  0.16653793  0.49986165  0.16297523  1
  Pb  Pb43  1  0.50311891  0.83349118  0.17036742  1
  Pb  Pb44  1  0.50016872  0.49996891  0.16607053  1
  Pb  Pb45  1  0.16673302  0.16631399  0.83183418  1
  Pb  Pb46  1  0.49714449  0.83391393  0.83173022  1
  Pb  Pb47  1  0.83125533  0.49993916  0.50231497  1
  Pb  Pb48  1  0.83331174  0.50017236  0.16355146  1
  Pb  Pb49  1  0.50007865  0.16677198  0.50144752  1
  Pb  Pb50  1  0.16348492  0.16661044  0.17078288  1
  Pb  Pb51  1  0.83510954  0.83369932  0.83274162  1
  Pb  Pb52  1  0.16393375  0.83346872  0.16764927  1
  Pb  Pb53  1  0.50296263  0.16647583  0.16295813  1
  I  I54  1  0.16837965  0.00004492  0.15890051  1
  I  I55  1  0.16661722  -0.00127024  0.50732264  1
  I  I56  1  0.16523252  -0.00239235  0.82952231  1
  I  I57  1  0.16410772  0.33302990  0.16697886  1
  I  I58  1  0.16124644  0.33077751  0.50280641  1
  I  I59  1  0.16617114  0.33557517  0.83123113  1
  I  I60  1  0.16312616  0.66687881  0.17054855  1
  I  I61  1  0.16335532  0.66964690  0.50265668  1
  I  I62  1  0.16479650  0.66649695  0.82652599  1
  I  I63  1  0.49796826  -0.00002618  0.16554045  1
  I  I64  1  0.50072280  -0.00248006  0.50238718  1
  I  I65  1  0.50622245  0.00256441  0.83034779  1
  I  I66  1  0.50272478  0.33314137  0.17274333  1
  I  I67  1  0.50042135  0.33555681  0.50442712  1
  I  I68  1  0.50001610  0.33430119  0.82671984  1
  I  I69  1  0.50342892  0.66688541  0.16148653  1
  I  I70  1  0.50144762  0.66715875  0.50736493  1
  I  I71  1  0.50361110  0.66394508  0.83079760  1
  I  I72  1  0.83311302  0.00059739  0.16496899  1
  I  I73  1  0.83180522  0.00002497  0.50180375  1
  I  I74  1  0.83014555  0.00298812  0.83301915  1
  I  I75  1  0.83329697  0.33012181  0.16944950  1
  I  I76  1  0.83687049  0.33021697  0.49835713  1
  I  I77  1  0.83455985  0.33241781  0.83317595  1
  I  I78  1  0.83403490  0.66963268  0.17138879  1
  I  I79  1  0.83591520  0.66967237  0.49702558  1
  I  I80  1  0.83104199  0.66443610  0.83311031  1
  I  I81  1  0.16656603  0.16730666  -0.00006551  1
  I  I82  1  0.16436511  0.15871902  0.33880747  1
  I  I83  1  0.16014322  0.16433959  0.66401031  1
  I  I84  1  0.16852266  0.50546810  -0.00578022  1
  I  I85  1  0.16774121  0.50023872  0.33368061  1
  I  I86  1  0.16427883  0.50131266  0.66986766  1
  I  I87  1  0.16515121  0.82828437  -0.00260981  1
  I  I88  1  0.16904023  0.83827473  0.33735825  1
  I  I89  1  0.16311302  0.83309047  0.66541240  1
  I  I90  1  0.50336049  0.17407436  -0.00526509  1
  I  I91  1  0.49981840  0.16730908  0.33345780  1
  I  I92  1  0.50649713  0.16868843  0.66933825  1
  I  I93  1  0.50079366  0.49562410  -0.00426807  1
  I  I94  1  0.50064181  0.50428323  0.33649714  1
  I  I95  1  0.50077556  0.50012312  0.66795757  1
  I  I96  1  0.50013687  0.83260230  -0.00003409  1
  I  I97  1  0.49382260  0.82824754  0.33875190  1
  I  I98  1  0.50622066  0.83231229  0.66350304  1
  I  I99  1  0.82826501  0.16671490  -0.00099464  1
  I  I100  1  0.83754482  0.16039147  0.33454971  1
  I  I101  1  0.83324696  0.16595482  0.66651183  1
  I  I102  1  0.83123687  0.49667563  -0.00477313  1
  I  I103  1  0.83113138  0.49763584  0.33363897  1
  I  I104  1  0.83478451  0.49627927  0.67044630  1
  I  I105  1  0.83602586  0.83631672  0.00151171  1
  I  I106  1  0.83372713  0.84179400  0.33509774  1
  I  I107  1  0.83220017  0.83652488  0.66354306  1
  I  I108  1  -0.00450178  0.16188904  0.15838715  1
  I  I109  1  -0.00153144  0.15829674  0.50317351  1
  I  I110  1  -0.00300619  0.16974166  0.83466378  1
  I  I111  1  -0.00043847  0.50038886  0.16678747  1
  I  I112  1  0.00003300  0.50173968  0.50193668  1
  I  I113  1  -0.00017501  0.49930768  0.83376419  1
  I  I114  1  -0.00382129  0.83816406  0.17080402  1
  I  I115  1  -0.00036345  0.83884939  0.50083306  1
  I  I116  1  0.00277242  0.82950136  0.82773940  1
  I  I117  1  0.33322959  0.16777572  0.16611487  1
  I  I118  1  0.33119749  0.16306255  0.50556406  1
  I  I119  1  0.33545112  0.17068580  0.82822924  1
  I  I120  1  0.33345538  0.50033066  0.16632207  1
  I  I121  1  0.33687976  0.50335557  0.50819846  1
  I  I122  1  0.33397555  0.49902453  0.82749034  1
  I  I123  1  0.33327663  0.83212052  0.16583883  1
  I  I124  1  0.33266590  0.83390598  0.50767371  1
  I  I125  1  0.32947930  0.82996347  0.82628910  1
  I  I126  1  0.67110120  0.16317578  0.17348869  1
  I  I127  1  0.66982672  0.16333540  0.49928988  1
  I  I128  1  0.66817682  0.17441682  0.83114529  1
  I  I129  1  0.66697731  0.50025238  0.16456977  1
  I  I130  1  0.66360677  0.50379707  0.50716404  1
  I  I131  1  0.66647813  0.49472609  0.83015556  1
  I  I132  1  0.67104015  0.83763556  0.16907286  1
  I  I133  1  0.66754247  0.83445050  0.49633423  1
  I  I134  1  0.66668502  0.83094837  0.83304461  1
