# generated using pymatgen
data_Cs27Sn13Pb14I81
_symmetry_space_group_name_H-M   'P 1'
_cell_length_a   18.97907875
_cell_length_b   18.96800649
_cell_length_c   18.98393296
_cell_angle_alpha   90.00055480
_cell_angle_beta   90.00023829
_cell_angle_gamma   90.00110028
_symmetry_Int_Tables_number   1
_chemical_formula_structural   Cs27Sn13Pb14I81
_chemical_formula_sum   'Cs27 Sn13 Pb14 I81'
_cell_volume   6834.12642678
_cell_formula_units_Z   1
loop_
 _symmetry_equiv_pos_site_id
 _symmetry_equiv_pos_as_xyz
  1  'x, y, z'
loop_
 _atom_site_type_symbol
 _atom_site_label
 _atom_site_symmetry_multiplicity
 _atom_site_fract_x
 _atom_site_fract_y
 _atom_site_fract_z
 _atom_site_occupancy
  Cs  Cs0  1  0.00211918  -0.00106753  0.00235046  1
  Cs  Cs1  1  -0.00106857  0.00218219  0.33124461  1
  Cs  Cs2  1  0.00105290  -0.00046483  0.66667138  1
  Cs  Cs3  1  -0.00035738  0.33235021  -0.00386645  1
  Cs  Cs4  1  0.00268029  0.33394677  0.33379768  1
  Cs  Cs5  1  -0.00418101  0.32935070  0.66952492  1
  Cs  Cs6  1  -0.00034396  0.66819898  -0.00117187  1
  Cs  Cs7  1  0.00157105  0.66506951  0.33522310  1
  Cs  Cs8  1  -0.00171104  0.66785359  0.66630684  1
  Cs  Cs9  1  0.33112993  0.00237196  -0.00119264  1
  Cs  Cs10  1  0.33755001  -0.00155341  0.33564533  1
  Cs  Cs11  1  0.33469900  0.00036205  0.66584333  1
  Cs  Cs12  1  0.33276222  0.33285748  -0.00070936  1
  Cs  Cs13  1  0.32939823  0.33700425  0.33180253  1
  Cs  Cs14  1  0.33430527  0.33200261  0.66928997  1
  Cs  Cs15  1  0.33329073  0.66588879  -0.00129774  1
  Cs  Cs16  1  0.33182916  0.66557153  0.33747767  1
  Cs  Cs17  1  0.33371193  0.66788648  0.66653607  1
  Cs  Cs18  1  0.66512612  0.00249178  0.01207464  1
  Cs  Cs19  1  0.66187230  0.00612371  0.32700458  1
  Cs  Cs20  1  0.66560066  0.00554853  0.66244148  1
  Cs  Cs21  1  0.66792546  0.33201952  -0.00085726  1
  Cs  Cs22  1  0.66697568  0.33141725  0.33514859  1
  Cs  Cs23  1  0.66989113  0.33117329  0.66515915  1
  Cs  Cs24  1  0.66721581  0.66606327  -0.00062941  1
  Cs  Cs25  1  0.66658971  0.66711868  0.33243663  1
  Cs  Cs26  1  0.66811222  0.66493272  0.66793302  1
  Sn  Sn27  1  0.16711839  0.50092839  0.83309489  1
  Sn  Sn28  1  0.50089498  0.50045947  0.16651360  1
  Sn  Sn29  1  0.83293876  0.83314197  0.50011183  1
  Sn  Sn30  1  0.50041422  0.83294773  0.83338188  1
  Sn  Sn31  1  0.83259499  0.50096387  0.49908990  1
  Sn  Sn32  1  0.16679673  0.16649230  0.49933266  1
  Sn  Sn33  1  0.49932473  0.50066911  0.83323430  1
  Sn  Sn34  1  0.16681879  0.83227226  0.83389816  1
  Sn  Sn35  1  0.16679469  0.16568626  0.16775917  1
  Sn  Sn36  1  0.16684337  0.83361111  0.16657060  1
  Sn  Sn37  1  0.83275543  0.50044601  0.16744175  1
  Sn  Sn38  1  0.50069069  0.50040905  0.50029082  1
  Sn  Sn39  1  0.83265814  0.83336415  0.83281717  1
  Pb  Pb40  1  0.50027318  0.16649020  0.83347970  1
  Pb  Pb41  1  0.16610032  0.49842765  0.50306306  1
  Pb  Pb42  1  0.50284990  0.83139427  0.50206126  1
  Pb  Pb43  1  0.16664949  0.16607592  0.83345892  1
  Pb  Pb44  1  0.49745133  0.16959608  0.49991525  1
  Pb  Pb45  1  0.16488227  0.83503675  0.50029304  1
  Pb  Pb46  1  0.83303287  0.16208626  0.83356124  1
  Pb  Pb47  1  0.49739748  0.83093340  0.16463314  1
  Pb  Pb48  1  0.16649247  0.50034570  0.16462362  1
  Pb  Pb49  1  0.83501791  0.83142213  0.16701672  1
  Pb  Pb50  1  0.49716485  0.16966804  0.16669957  1
  Pb  Pb51  1  0.83290731  0.50127511  0.83312584  1
  Pb  Pb52  1  0.83506366  0.16652216  0.49982953  1
  Pb  Pb53  1  0.83578821  0.16991387  0.16673007  1
  I  I54  1  0.16488935  -0.00079931  0.16298473  1
  I  I55  1  0.16377529  0.00274052  0.50082505  1
  I  I56  1  0.16662995  -0.00365878  0.83452905  1
  I  I57  1  0.16696831  0.33165015  0.16881331  1
  I  I58  1  0.16597811  0.33090054  0.49448661  1
  I  I59  1  0.17147548  0.33601999  0.83393329  1
  I  I60  1  0.16606656  0.66889576  0.16242482  1
  I  I61  1  0.16754048  0.66653185  0.49781538  1
  I  I62  1  0.16754774  0.66762113  0.83867353  1
  I  I63  1  0.50093922  -0.00026680  0.16472376  1
  I  I64  1  0.50057155  -0.00020866  0.50267872  1
  I  I65  1  0.49724191  -0.00386473  0.83228524  1
  I  I66  1  0.50139880  0.33816078  0.16339523  1
  I  I67  1  0.50649784  0.33826064  0.50360088  1
  I  I68  1  0.49351057  0.33749990  0.83380076  1
  I  I69  1  0.50081687  0.66262222  0.16759235  1
  I  I70  1  0.49909615  0.66275750  0.49849130  1
  I  I71  1  0.49786045  0.66570134  0.83349935  1
  I  I72  1  0.83369656  -0.00021782  0.16591832  1
  I  I73  1  0.83742878  -0.00311316  0.50733870  1
  I  I74  1  0.83674162  -0.00615632  0.82625994  1
  I  I75  1  0.83128546  0.33817623  0.17191747  1
  I  I76  1  0.83051737  0.33683006  0.49665334  1
  I  I77  1  0.83526312  0.33362954  0.83299190  1
  I  I78  1  0.83283557  0.66334127  0.16740632  1
  I  I79  1  0.83190281  0.66562991  0.50084221  1
  I  I80  1  0.83513934  0.66936610  0.83238678  1
  I  I81  1  0.16669067  0.16585123  0.00242862  1
  I  I82  1  0.16551202  0.16337144  0.33251741  1
  I  I83  1  0.16598614  0.16805997  0.66465409  1
  I  I84  1  0.16969949  0.49976512  -0.00314450  1
  I  I85  1  0.16906499  0.50139676  0.33337522  1
  I  I86  1  0.17031925  0.50472354  0.67073841  1
  I  I87  1  0.16421618  0.83480770  -0.00131217  1
  I  I88  1  0.16381099  0.83477714  0.33095275  1
  I  I89  1  0.16777451  0.83076622  0.66994684  1
  I  I90  1  0.49711878  0.16923958  0.00017983  1
  I  I91  1  0.50016504  0.16734300  0.33328329  1
  I  I92  1  0.49610881  0.16872143  0.66659958  1
  I  I93  1  0.49921816  0.50385616  -0.00063828  1
  I  I94  1  0.50400593  0.49844068  0.33341763  1
  I  I95  1  0.49913334  0.50390577  0.66725910  1
  I  I96  1  0.50409126  0.82654476  -0.00375502  1
  I  I97  1  0.49889452  0.83109205  0.33330569  1
  I  I98  1  0.49339747  0.82662429  0.67043425  1
  I  I99  1  0.83675936  0.16893810  0.00022462  1
  I  I100  1  0.83426851  0.16265612  0.33329038  1
  I  I101  1  0.83752514  0.17241806  0.66652506  1
  I  I102  1  0.83176042  0.50140535  0.00182975  1
  I  I103  1  0.82735323  0.50536675  0.33413852  1
  I  I104  1  0.83157978  0.50206139  0.66418571  1
  I  I105  1  0.83360463  0.83041840  -0.00274191  1
  I  I106  1  0.83781333  0.82905576  0.33591939  1
  I  I107  1  0.83657336  0.82585933  0.66724715  1
  I  I108  1  0.00381494  0.16501820  0.16950743  1
  I  I109  1  0.00292320  0.16959866  0.49684768  1
  I  I110  1  0.00032340  0.17045699  0.83309620  1
  I  I111  1  -0.00210259  0.50014066  0.17009133  1
  I  I112  1  -0.00289591  0.50227426  0.49631814  1
  I  I113  1  0.00205503  0.50367550  0.83434130  1
  I  I114  1  0.00301001  0.83388458  0.16023477  1
  I  I115  1  -0.00288582  0.82619877  0.50612985  1
  I  I116  1  0.00075426  0.82864224  0.83339551  1
  I  I117  1  0.32926462  0.16510258  0.16925065  1
  I  I118  1  0.32966245  0.16705373  0.49697508  1
  I  I119  1  0.33312891  0.16466947  0.83302806  1
  I  I120  1  0.33567364  0.49948604  0.16795952  1
  I  I121  1  0.33580455  0.49764423  0.49783688  1
  I  I122  1  0.33391980  0.50668352  0.83373005  1
  I  I123  1  0.32935400  0.83461407  0.16121331  1
  I  I124  1  0.33342937  0.83287068  0.50067535  1
  I  I125  1  0.33275711  0.82839452  0.83820251  1
  I  I126  1  0.66651187  0.16486182  0.16619908  1
  I  I127  1  0.66662517  0.16560099  0.50136014  1
  I  I128  1  0.66663715  0.17056420  0.83146123  1
  I  I129  1  0.66631476  0.50169796  0.16466526  1
  I  I130  1  0.66680725  0.50382330  0.50160565  1
  I  I131  1  0.66378424  0.50459616  0.83392778  1
  I  I132  1  0.66655014  0.83346349  0.16481116  1
  I  I133  1  0.67079173  0.83031396  0.50594026  1
  I  I134  1  0.66646396  0.82587418  0.82785113  1
