# generated using pymatgen
data_Cs27Sn13Pb14I81
_symmetry_space_group_name_H-M   'P 1'
_cell_length_a   18.99810271
_cell_length_b   18.98693278
_cell_length_c   18.99264524
_cell_angle_alpha   89.99853665
_cell_angle_beta   89.99909721
_cell_angle_gamma   89.99882430
_symmetry_Int_Tables_number   1
_chemical_formula_structural   Cs27Sn13Pb14I81
_chemical_formula_sum   'Cs27 Sn13 Pb14 I81'
_cell_volume   6850.94530205
_cell_formula_units_Z   1
loop_
 _symmetry_equiv_pos_site_id
 _symmetry_equiv_pos_as_xyz
  1  'x, y, z'
loop_
 _atom_site_type_symbol
 _atom_site_label
 _atom_site_symmetry_multiplicity
 _atom_site_fract_x
 _atom_site_fract_y
 _atom_site_fract_z
 _atom_site_occupancy
  Cs  Cs0  1  0.00028510  -0.00105163  0.00278661  1
  Cs  Cs1  1  0.00203561  0.00034528  0.33122004  1
  Cs  Cs2  1  0.00048335  0.00860051  0.66603383  1
  Cs  Cs3  1  -0.00152819  0.33272847  -0.00076460  1
  Cs  Cs4  1  -0.00410481  0.33121305  0.33352346  1
  Cs  Cs5  1  -0.00798590  0.32494201  0.66665129  1
  Cs  Cs6  1  -0.00004837  0.66846978  -0.00084399  1
  Cs  Cs7  1  0.00129736  0.66781356  0.33361956  1
  Cs  Cs8  1  0.00298495  0.66537707  0.66690006  1
  Cs  Cs9  1  0.34057544  0.00885397  0.00582796  1
  Cs  Cs10  1  0.33271123  0.00249540  0.32892655  1
  Cs  Cs11  1  0.33316105  0.00048647  0.66709322  1
  Cs  Cs12  1  0.33399030  0.33274639  -0.00079609  1
  Cs  Cs13  1  0.33448649  0.33549034  0.33335966  1
  Cs  Cs14  1  0.33229861  0.33459941  0.66701625  1
  Cs  Cs15  1  0.33148410  0.66443641  -0.00263780  1
  Cs  Cs16  1  0.33277612  0.66514705  0.33576503  1
  Cs  Cs17  1  0.33132641  0.66543439  0.66520439  1
  Cs  Cs18  1  0.65974925  -0.00745746  -0.00681787  1
  Cs  Cs19  1  0.66476212  -0.00224786  0.33229128  1
  Cs  Cs20  1  0.66623541  -0.00064087  0.67320909  1
  Cs  Cs21  1  0.66748037  0.33225038  0.00175615  1
  Cs  Cs22  1  0.66831355  0.33406783  0.33302553  1
  Cs  Cs23  1  0.67463948  0.33248624  0.66641290  1
  Cs  Cs24  1  0.66893012  0.67308405  -0.00264349  1
  Cs  Cs25  1  0.66611721  0.66613015  0.33523335  1
  Cs  Cs26  1  0.66840434  0.66686794  0.66671125  1
  Sn  Sn27  1  0.83266730  0.16648928  0.16636401  1
  Sn  Sn28  1  0.49979908  0.16705100  0.50013492  1
  Sn  Sn29  1  0.16663505  0.83268200  0.50093829  1
  Sn  Sn30  1  0.83330034  0.49987774  0.16682132  1
  Sn  Sn31  1  0.49968386  0.49988672  0.50054706  1
  Sn  Sn32  1  0.50024758  0.50039247  0.16639112  1
  Sn  Sn33  1  0.49968655  0.50014241  0.83281324  1
  Sn  Sn34  1  0.16730217  0.83305375  0.83275517  1
  Sn  Sn35  1  0.49954268  0.83333708  0.50003097  1
  Sn  Sn36  1  0.16708209  0.50022710  0.83264242  1
  Sn  Sn37  1  0.16640639  0.50017261  0.16687985  1
  Sn  Sn38  1  0.83386395  0.83314519  0.50017220  1
  Sn  Sn39  1  0.16668298  0.49997350  0.50044132  1
  Pb  Pb40  1  0.83662554  0.83309926  0.83038347  1
  Pb  Pb41  1  0.49988972  0.16974999  0.83073519  1
  Pb  Pb42  1  0.16873083  0.16687324  0.49989256  1
  Pb  Pb43  1  0.83368545  0.50140805  0.49824768  1
  Pb  Pb44  1  0.83327119  0.83322680  0.16836061  1
  Pb  Pb45  1  0.83305806  0.16630468  0.83672578  1
  Pb  Pb46  1  0.16473580  0.16974192  0.16680031  1
  Pb  Pb47  1  0.49706089  0.83092181  0.83087906  1
  Pb  Pb48  1  0.50215739  0.16915209  0.16861272  1
  Pb  Pb49  1  0.16686092  0.16672320  0.83340033  1
  Pb  Pb50  1  0.83050384  0.16346907  0.49805173  1
  Pb  Pb51  1  0.83370127  0.50009586  0.83606510  1
  Pb  Pb52  1  0.16699365  0.83146843  0.16654613  1
  Pb  Pb53  1  0.49970128  0.83069222  0.16860387  1
  I  I54  1  0.16310653  0.00001235  0.16736173  1
  I  I55  1  0.16699413  -0.00360215  0.50532385  1
  I  I56  1  0.16397592  -0.00342764  0.82449763  1
  I  I57  1  0.17044056  0.33877964  0.16751573  1
  I  I58  1  0.17212633  0.33716497  0.49961617  1
  I  I59  1  0.17134705  0.33769565  0.83350691  1
  I  I60  1  0.16430006  0.66227509  0.16798471  1
  I  I61  1  0.17096796  0.66567813  0.49942043  1
  I  I62  1  0.17035718  0.66481690  0.83206812  1
  I  I63  1  0.50243458  0.00015647  0.16879848  1
  I  I64  1  0.50039251  -0.00090956  0.49896983  1
  I  I65  1  0.49945462  -0.00027166  0.83217754  1
  I  I66  1  0.49684115  0.33788512  0.16997205  1
  I  I67  1  0.49459248  0.33557057  0.49863149  1
  I  I68  1  0.49206528  0.33825390  0.83237550  1
  I  I69  1  0.50251172  0.66171867  0.16985998  1
  I  I70  1  0.49919751  0.66559486  0.49868840  1
  I  I71  1  0.49835625  0.66262998  0.83247500  1
  I  I72  1  0.83465327  0.00260223  0.17102347  1
  I  I73  1  0.83583981  -0.00412771  0.49675425  1
  I  I74  1  0.83471281  -0.00040446  0.83512730  1
  I  I75  1  0.83366341  0.33541223  0.16908877  1
  I  I76  1  0.83339457  0.33320611  0.50066757  1
  I  I77  1  0.83581605  0.33365278  0.82888047  1
  I  I78  1  0.83341637  0.66325574  0.16809224  1
  I  I79  1  0.82901615  0.66915877  0.49648390  1
  I  I80  1  0.83057529  0.66650091  0.83684630  1
  I  I81  1  0.16614069  0.16604214  0.00010117  1
  I  I82  1  0.16684629  0.16612116  0.33345918  1
  I  I83  1  0.16549880  0.17206801  0.66646042  1
  I  I84  1  0.16952927  0.50368667  -0.00022199  1
  I  I85  1  0.16995377  0.50386829  0.33402721  1
  I  I86  1  0.17627221  0.50596663  0.66588658  1
  I  I87  1  0.16444006  0.82632161  -0.00301930  1
  I  I88  1  0.16664772  0.82864729  0.33706007  1
  I  I89  1  0.16717818  0.82310065  0.66501994  1
  I  I90  1  0.50104212  0.16778807  0.00006128  1
  I  I91  1  0.50002280  0.16857495  0.33661160  1
  I  I92  1  0.50001056  0.16784121  0.66254033  1
  I  I93  1  0.49605081  0.49900041  0.00029261  1
  I  I94  1  0.49746864  0.50032801  0.33423765  1
  I  I95  1  0.49191804  0.50072384  0.66531599  1
  I  I96  1  0.50031309  0.83228987  -0.00051894  1
  I  I97  1  0.49718044  0.83046134  0.33785871  1
  I  I98  1  0.50294248  0.83065198  0.66231510  1
  I  I99  1  0.83436317  0.17508055  0.00453500  1
  I  I100  1  0.83300531  0.17365801  0.33077340  1
  I  I101  1  0.83313561  0.16619330  0.66633385  1
  I  I102  1  0.83341873  0.49621053  0.00431663  1
  I  I103  1  0.83313353  0.49769051  0.33025713  1
  I  I104  1  0.83263470  0.50138668  0.66662759  1
  I  I105  1  0.83493194  0.83345803  -0.00015689  1
  I  I106  1  0.83571704  0.83159276  0.33661937  1
  I  I107  1  0.82851392  0.83131679  0.66231137  1
  I  I108  1  -0.00308253  0.17323956  0.16887251  1
  I  I109  1  -0.00026197  0.16709133  0.49931043  1
  I  I110  1  0.00003300  0.16986578  0.83134751  1
  I  I111  1  0.00068467  0.49656687  0.16769790  1
  I  I112  1  0.00325592  0.50578025  0.49923089  1
  I  I113  1  0.00369658  0.50441866  0.83333516  1
  I  I114  1  0.00015464  0.83012302  0.17031305  1
  I  I115  1  0.00141617  0.82613502  0.50230148  1
  I  I116  1  0.00434855  0.82364301  0.82833075  1
  I  I117  1  0.33375247  0.16626593  0.16717949  1
  I  I118  1  0.33659875  0.16455130  0.49872662  1
  I  I119  1  0.33353310  0.16535406  0.83429563  1
  I  I120  1  0.33337407  0.50213947  0.16821600  1
  I  I121  1  0.33380020  0.50385314  0.49560032  1
  I  I122  1  0.33284325  0.50356203  0.83671725  1
  I  I123  1  0.33328460  0.83259661  0.17016886  1
  I  I124  1  0.33313053  0.83037729  0.50374261  1
  I  I125  1  0.32955976  0.82859624  0.82617978  1
  I  I126  1  0.66957421  0.17573077  0.17007009  1
  I  I127  1  0.66298385  0.17079453  0.49825794  1
  I  I128  1  0.66631434  0.16890745  0.83158783  1
  I  I129  1  0.66599140  0.49544731  0.16929446  1
  I  I130  1  0.66340497  0.50125539  0.49933255  1
  I  I131  1  0.66355629  0.49874558  0.83141137  1
  I  I132  1  0.66656910  0.82935203  0.17039529  1
  I  I133  1  0.66557187  0.83180696  0.49599051  1
  I  I134  1  0.66631619  0.83242743  0.83248084  1
