# generated using pymatgen
data_Cs27Sn13Pb14I81
_symmetry_space_group_name_H-M   'P 1'
_cell_length_a   18.97612200
_cell_length_b   18.97705076
_cell_length_c   18.98085547
_cell_angle_alpha   90.00125020
_cell_angle_beta   90.00086480
_cell_angle_gamma   89.99920820
_symmetry_Int_Tables_number   1
_chemical_formula_structural   Cs27Sn13Pb14I81
_chemical_formula_sum   'Cs27 Sn13 Pb14 I81'
_cell_volume   6835.21162607
_cell_formula_units_Z   1
loop_
 _symmetry_equiv_pos_site_id
 _symmetry_equiv_pos_as_xyz
  1  'x, y, z'
loop_
 _atom_site_type_symbol
 _atom_site_label
 _atom_site_symmetry_multiplicity
 _atom_site_fract_x
 _atom_site_fract_y
 _atom_site_fract_z
 _atom_site_occupancy
  Cs  Cs0  1  -0.00021706  -0.00039374  -0.00000319  1
  Cs  Cs1  1  0.00192998  0.00226612  0.33489500  1
  Cs  Cs2  1  0.00086672  -0.00002445  0.66583037  1
  Cs  Cs3  1  0.00010002  0.33681936  0.00102461  1
  Cs  Cs4  1  -0.00067055  0.33151170  0.33354811  1
  Cs  Cs5  1  -0.00067986  0.33213056  0.66521583  1
  Cs  Cs6  1  -0.00585200  0.66056807  0.00054374  1
  Cs  Cs7  1  -0.00005943  0.66561232  0.33371163  1
  Cs  Cs8  1  -0.00080419  0.66709078  0.66695025  1
  Cs  Cs9  1  0.33331035  0.00118653  -0.00089012  1
  Cs  Cs10  1  0.33456232  -0.00155184  0.33087800  1
  Cs  Cs11  1  0.33092035  -0.00139707  0.67009518  1
  Cs  Cs12  1  0.33390390  0.33448110  -0.00036298  1
  Cs  Cs13  1  0.33551647  0.33443142  0.33520240  1
  Cs  Cs14  1  0.33668660  0.33262027  0.66630657  1
  Cs  Cs15  1  0.33132930  0.66352578  -0.00231298  1
  Cs  Cs16  1  0.33460033  0.66758624  0.33561754  1
  Cs  Cs17  1  0.33351116  0.66699139  0.66663028  1
  Cs  Cs18  1  0.66638503  0.00020620  0.00265479  1
  Cs  Cs19  1  0.65921085  -0.00173370  0.32965274  1
  Cs  Cs20  1  0.66688724  0.00327699  0.66760771  1
  Cs  Cs21  1  0.66502117  0.33154620  0.00009922  1
  Cs  Cs22  1  0.66447854  0.33228461  0.33724707  1
  Cs  Cs23  1  0.66316658  0.33052890  0.66363560  1
  Cs  Cs24  1  0.67402244  0.66712064  0.00076284  1
  Cs  Cs25  1  0.66431140  0.66906179  0.33339050  1
  Cs  Cs26  1  0.66704044  0.66617268  0.66588790  1
  Sn  Sn27  1  0.16582745  0.83241928  0.49998382  1
  Sn  Sn28  1  0.83435933  0.50091448  0.50008456  1
  Sn  Sn29  1  0.16550568  0.16624012  0.83435670  1
  Sn  Sn30  1  0.49970838  0.83215027  0.83354064  1
  Sn  Sn31  1  0.16581328  0.16613325  0.16557590  1
  Sn  Sn32  1  0.16624014  0.83335880  0.16603828  1
  Sn  Sn33  1  0.50002984  0.50132015  0.83445763  1
  Sn  Sn34  1  0.83458153  0.16658206  0.83430684  1
  Sn  Sn35  1  0.83413806  0.16652386  0.16594946  1
  Sn  Sn36  1  0.50000359  0.50048744  0.16560386  1
  Sn  Sn37  1  0.83400487  0.83291513  0.49991962  1
  Sn  Sn38  1  0.16670546  0.83336918  0.83408163  1
  Sn  Sn39  1  0.16575418  0.50065430  0.50019762  1
  Pb  Pb40  1  0.83115402  0.49766917  0.16914961  1
  Pb  Pb41  1  0.49947130  0.16625137  0.83353439  1
  Pb  Pb42  1  0.16784607  0.49980933  0.83126076  1
  Pb  Pb43  1  0.49958002  0.83342430  0.50245506  1
  Pb  Pb44  1  0.83386838  0.83515911  0.83168917  1
  Pb  Pb45  1  0.16788144  0.49978284  0.16883366  1
  Pb  Pb46  1  0.49745898  0.83100131  0.16367391  1
  Pb  Pb47  1  0.16689426  0.16613017  0.49996119  1
  Pb  Pb48  1  0.83344808  0.16597598  0.49955627  1
  Pb  Pb49  1  0.83083113  0.49732731  0.83110933  1
  Pb  Pb50  1  0.49966314  0.16597970  0.49986432  1
  Pb  Pb51  1  0.49996770  0.50034343  0.50034018  1
  Pb  Pb52  1  0.83574960  0.83543076  0.16914820  1
  Pb  Pb53  1  0.49922779  0.16853579  0.16642596  1
  I  I54  1  0.16373054  -0.00006059  0.16867145  1
  I  I55  1  0.16209428  -0.00348828  0.50089491  1
  I  I56  1  0.16941060  -0.00072350  0.83081983  1
  I  I57  1  0.16492932  0.33032104  0.16349627  1
  I  I58  1  0.16353221  0.33589547  0.49996417  1
  I  I59  1  0.16512095  0.33038480  0.83611804  1
  I  I60  1  0.17006421  0.66954625  0.16533727  1
  I  I61  1  0.16347021  0.66786725  0.50010119  1
  I  I62  1  0.17039652  0.66970938  0.83420199  1
  I  I63  1  0.50188562  -0.00028046  0.16670235  1
  I  I64  1  0.50123761  -0.00077715  0.50172636  1
  I  I65  1  0.49758820  -0.00277207  0.83068745  1
  I  I66  1  0.49771675  0.33627793  0.16108154  1
  I  I67  1  0.50002395  0.33397562  0.50259906  1
  I  I68  1  0.49996039  0.33574998  0.83527340  1
  I  I69  1  0.49795889  0.66349297  0.16632416  1
  I  I70  1  0.49984282  0.66671630  0.49865383  1
  I  I71  1  0.49267276  0.66710059  0.83536880  1
  I  I72  1  0.83405630  0.00344907  0.16478585  1
  I  I73  1  0.83950674  -0.00289660  0.50156044  1
  I  I74  1  0.83252130  0.00311611  0.83350835  1
  I  I75  1  0.84018592  0.32979447  0.16488420  1
  I  I76  1  0.83654759  0.33571503  0.50017261  1
  I  I77  1  0.83847761  0.32948331  0.83440736  1
  I  I78  1  0.83369613  0.66670576  0.16633893  1
  I  I79  1  0.83790575  0.66687875  0.50107250  1
  I  I80  1  0.83471813  0.66663695  0.83303615  1
  I  I81  1  0.16353992  0.15892476  -0.00036436  1
  I  I82  1  0.16254308  0.16430727  0.33028821  1
  I  I83  1  0.16331196  0.16361255  0.66978440  1
  I  I84  1  0.16781336  0.50196345  -0.00006616  1
  I  I85  1  0.16634557  0.50317660  0.33675743  1
  I  I86  1  0.16589510  0.50347961  0.66334328  1
  I  I87  1  0.17319489  0.83988529  -0.00061797  1
  I  I88  1  0.16201022  0.83402635  0.33358221  1
  I  I89  1  0.16767892  0.83410139  0.66702040  1
  I  I90  1  0.50080866  0.16639643  -0.00015660  1
  I  I91  1  0.50089179  0.17021676  0.33269217  1
  I  I92  1  0.50104995  0.17060677  0.66741537  1
  I  I93  1  0.49739985  0.50232458  -0.00088754  1
  I  I94  1  0.49928220  0.49702595  0.33140663  1
  I  I95  1  0.49949222  0.50269955  0.66935962  1
  I  I96  1  0.49456955  0.83277943  -0.00405202  1
  I  I97  1  0.49950262  0.83232147  0.33303352  1
  I  I98  1  0.49383618  0.82743589  0.67029555  1
  I  I99  1  0.83731634  0.16636320  -0.00025882  1
  I  I100  1  0.83868966  0.16785558  0.33054497  1
  I  I101  1  0.83691208  0.16656217  0.66920410  1
  I  I102  1  0.83335776  0.50035712  -0.00002265  1
  I  I103  1  0.83519515  0.50122830  0.33697950  1
  I  I104  1  0.83540140  0.50136196  0.66329358  1
  I  I105  1  0.83319376  0.83331200  0.00006742  1
  I  I106  1  0.83864097  0.83122257  0.33712258  1
  I  I107  1  0.83871068  0.83218901  0.66378553  1
  I  I108  1  0.00115391  0.16365989  0.16295675  1
  I  I109  1  0.00017885  0.16810454  0.50065182  1
  I  I110  1  0.00128777  0.16093444  0.83607515  1
  I  I111  1  0.00000033  0.50085058  0.16696684  1
  I  I112  1  0.00048293  0.50402992  0.49993538  1
  I  I113  1  -0.00012429  0.50168555  0.83311123  1
  I  I114  1  0.00419254  0.83398014  0.16192997  1
  I  I115  1  0.00157806  0.82910145  0.50268588  1
  I  I116  1  0.00348127  0.83699562  0.83303619  1
  I  I117  1  0.32958017  0.16346219  0.16278714  1
  I  I118  1  0.33249818  0.16930649  0.50071661  1
  I  I119  1  0.32994764  0.16532187  0.83659173  1
  I  I120  1  0.33568287  0.49775415  0.16546406  1
  I  I121  1  0.33063282  0.50375397  0.49988170  1
  I  I122  1  0.33587932  0.49882508  0.83344125  1
  I  I123  1  0.32916306  0.84018740  0.17280999  1
  I  I124  1  0.32948902  0.82918552  0.49855314  1
  I  I125  1  0.33149404  0.83579351  0.83039757  1
  I  I126  1  0.66937468  0.16893623  0.16348320  1
  I  I127  1  0.66733514  0.16851352  0.50143598  1
  I  I128  1  0.66925877  0.16706291  0.83553452  1
  I  I129  1  0.66341159  0.49806433  0.16440031  1
  I  I130  1  0.66936204  0.50270017  0.50022411  1
  I  I131  1  0.66293129  0.50472894  0.83468689  1
  I  I132  1  0.66668998  0.83495989  0.16818305  1
  I  I133  1  0.66956048  0.82940138  0.50194330  1
  I  I134  1  0.66445063  0.83133810  0.82986028  1
