# generated using pymatgen
data_Cs27Sn13Pb14I81
_symmetry_space_group_name_H-M   'P 1'
_cell_length_a   18.99831188
_cell_length_b   18.98783873
_cell_length_c   18.98941550
_cell_angle_alpha   90.00110057
_cell_angle_beta   89.99966334
_cell_angle_gamma   90.00053001
_symmetry_Int_Tables_number   1
_chemical_formula_structural   Cs27Sn13Pb14I81
_chemical_formula_sum   'Cs27 Sn13 Pb14 I81'
_cell_volume   6850.18253799
_cell_formula_units_Z   1
loop_
 _symmetry_equiv_pos_site_id
 _symmetry_equiv_pos_as_xyz
  1  'x, y, z'
loop_
 _atom_site_type_symbol
 _atom_site_label
 _atom_site_symmetry_multiplicity
 _atom_site_fract_x
 _atom_site_fract_y
 _atom_site_fract_z
 _atom_site_occupancy
  Cs  Cs0  1  -0.00038891  0.00090498  0.00390009  1
  Cs  Cs1  1  -0.00048276  -0.00086896  0.33431646  1
  Cs  Cs2  1  0.00255084  -0.00133146  0.66328821  1
  Cs  Cs3  1  -0.00685052  0.33162328  0.00965142  1
  Cs  Cs4  1  -0.00074423  0.33784540  0.32338641  1
  Cs  Cs5  1  0.00117671  0.33627921  0.66620160  1
  Cs  Cs6  1  -0.00173180  0.66823188  -0.00241622  1
  Cs  Cs7  1  0.00018472  0.66795955  0.33431041  1
  Cs  Cs8  1  0.00020683  0.66620699  0.66732490  1
  Cs  Cs9  1  0.33548420  -0.00032094  -0.00006582  1
  Cs  Cs10  1  0.33457257  0.00036144  0.33518732  1
  Cs  Cs11  1  0.33259644  0.00135719  0.66528989  1
  Cs  Cs12  1  0.33131989  0.33403553  -0.00180507  1
  Cs  Cs13  1  0.33367768  0.33777962  0.33064154  1
  Cs  Cs14  1  0.33325898  0.33353450  0.66769367  1
  Cs  Cs15  1  0.33636504  0.66676976  0.00018841  1
  Cs  Cs16  1  0.33663841  0.66154053  0.33083258  1
  Cs  Cs17  1  0.33045709  0.66351980  0.66722561  1
  Cs  Cs18  1  0.66359693  0.00050269  -0.00856317  1
  Cs  Cs19  1  0.66578616  -0.00052047  0.33630064  1
  Cs  Cs20  1  0.66552216  0.00096566  0.66722337  1
  Cs  Cs21  1  0.67828916  0.32997404  -0.00141799  1
  Cs  Cs22  1  0.66514924  0.33871221  0.33200356  1
  Cs  Cs23  1  0.66845856  0.33371570  0.66835415  1
  Cs  Cs24  1  0.66423899  0.66842066  -0.00022376  1
  Cs  Cs25  1  0.66328777  0.66236740  0.33091670  1
  Cs  Cs26  1  0.67214447  0.66442607  0.66842764  1
  Sn  Sn27  1  0.49961833  0.49966824  0.83327941  1
  Sn  Sn28  1  0.16692783  0.83376316  0.83338703  1
  Sn  Sn29  1  0.49977080  0.83345093  0.50028047  1
  Sn  Sn30  1  0.16714456  0.83378801  0.49959671  1
  Sn  Sn31  1  0.49974149  0.16620760  0.49901456  1
  Sn  Sn32  1  0.83332103  0.83407685  0.16757164  1
  Sn  Sn33  1  0.16645804  0.83361014  0.16723922  1
  Sn  Sn34  1  0.49983394  0.16636874  0.16719866  1
  Sn  Sn35  1  0.16714890  0.49958191  0.83342626  1
  Sn  Sn36  1  0.83327301  0.83413795  0.49902312  1
  Sn  Sn37  1  0.16648986  0.16677120  0.83310282  1
  Sn  Sn38  1  0.16635231  0.16649654  0.50010738  1
  Sn  Sn39  1  0.83384750  0.16628129  0.49979630  1
  Pb  Pb40  1  0.83398710  0.49999057  0.83330150  1
  Pb  Pb41  1  0.83323925  0.50364559  0.16688553  1
  Pb  Pb42  1  0.83572543  0.83367807  0.83287580  1
  Pb  Pb43  1  0.49798915  0.16840535  0.83267036  1
  Pb  Pb44  1  0.83065538  0.16371495  0.16958280  1
  Pb  Pb45  1  0.49751595  0.83174063  0.83031011  1
  Pb  Pb46  1  0.83352338  0.50009569  0.49980392  1
  Pb  Pb47  1  0.16819195  0.16451189  0.16739240  1
  Pb  Pb48  1  0.50017242  0.83500218  0.16875164  1
  Pb  Pb49  1  0.83686551  0.16624207  0.83045223  1
  Pb  Pb50  1  0.50002509  0.49666991  0.16350084  1
  Pb  Pb51  1  0.16658002  0.49966140  0.50139880  1
  Pb  Pb52  1  0.49991518  0.49952074  0.50201110  1
  Pb  Pb53  1  0.16674914  0.50328685  0.16353864  1
  I  I54  1  0.16355872  -0.00353514  0.16228136  1
  I  I55  1  0.16703781  -0.00075694  0.50512138  1
  I  I56  1  0.16587664  -0.00034346  0.83071022  1
  I  I57  1  0.16798527  0.33319163  0.16674041  1
  I  I58  1  0.16779900  0.32954769  0.50617366  1
  I  I59  1  0.17243948  0.33264854  0.82528418  1
  I  I60  1  0.16402409  0.67165785  0.16951834  1
  I  I61  1  0.16600725  0.67050356  0.50110697  1
  I  I62  1  0.17038318  0.66756053  0.83268205  1
  I  I63  1  0.49835825  0.00263713  0.16816020  1
  I  I64  1  0.49904401  0.00024284  0.49750809  1
  I  I65  1  0.49904617  0.00015241  0.83528837  1
  I  I66  1  0.49790743  0.32914607  0.17661454  1
  I  I67  1  0.49938885  0.32950542  0.49764534  1
  I  I68  1  0.49113960  0.33591569  0.83083942  1
  I  I69  1  0.50031344  0.66679242  0.16746912  1
  I  I70  1  0.49916544  0.66984067  0.50153277  1
  I  I71  1  0.49300709  0.66408746  0.83183042  1
  I  I72  1  0.83991478  -0.00376701  0.16929403  1
  I  I73  1  0.83425671  -0.00090306  0.49688755  1
  I  I74  1  0.83218580  -0.00004524  0.83606895  1
  I  I75  1  0.83258697  0.33280227  0.16695944  1
  I  I76  1  0.83264381  0.32967404  0.50320043  1
  I  I77  1  0.83499663  0.33302462  0.83095505  1
  I  I78  1  0.83752986  0.67171874  0.17396325  1
  I  I79  1  0.83421420  0.67085531  0.49728637  1
  I  I80  1  0.83589499  0.66700427  0.83067287  1
  I  I81  1  0.17098302  0.16506849  -0.00245145  1
  I  I82  1  0.16538995  0.16022221  0.33701648  1
  I  I83  1  0.16890487  0.16175860  0.66566650  1
  I  I84  1  0.17192511  0.49898153  -0.00470296  1
  I  I85  1  0.16608331  0.49966999  0.33290925  1
  I  I86  1  0.17032158  0.50469643  0.66974438  1
  I  I87  1  0.16147006  0.83273317  -0.00027408  1
  I  I88  1  0.16520067  0.83958850  0.33478965  1
  I  I89  1  0.16691740  0.83350840  0.66586219  1
  I  I90  1  0.49651597  0.16757547  0.00184687  1
  I  I91  1  0.49715731  0.16153502  0.33570875  1
  I  I92  1  0.50126952  0.16365929  0.66306714  1
  I  I93  1  0.49217325  0.50114838  -0.00394023  1
  I  I94  1  0.50094774  0.50193477  0.33320977  1
  I  I95  1  0.49370265  0.49867788  0.66948948  1
  I  I96  1  0.50017030  0.83417508  -0.00008454  1
  I  I97  1  0.49481179  0.83506907  0.33701707  1
  I  I98  1  0.50086801  0.84079087  0.66219217  1
  I  I99  1  0.83214281  0.16670294  0.00034864  1
  I  I100  1  0.84000639  0.16350365  0.33759842  1
  I  I101  1  0.82712338  0.15922836  0.66227260  1
  I  I102  1  0.83357437  0.50065997  0.00002658  1
  I  I103  1  0.83307310  0.49747135  0.33331660  1
  I  I104  1  0.83315918  0.50313271  0.66666817  1
  I  I105  1  0.83905389  0.83143954  0.00275466  1
  I  I106  1  0.84003745  0.83748177  0.33492147  1
  I  I107  1  0.83365654  0.83637212  0.66283503  1
  I  I108  1  -0.00017576  0.16823705  0.16543864  1
  I  I109  1  0.00087261  0.15855339  0.50752822  1
  I  I110  1  0.00513049  0.16792328  0.82875261  1
  I  I111  1  0.00021407  0.49543885  0.16386316  1
  I  I112  1  0.00015615  0.50089531  0.50485255  1
  I  I113  1  0.00388270  0.50238762  0.83110031  1
  I  I114  1  0.00104979  0.83392226  0.17100267  1
  I  I115  1  0.00094845  0.83855332  0.50022689  1
  I  I116  1  0.00443305  0.83014209  0.82828904  1
  I  I117  1  0.33567286  0.16312880  0.17263559  1
  I  I118  1  0.33287651  0.15956794  0.50137714  1
  I  I119  1  0.32991681  0.16381463  0.82723564  1
  I  I120  1  0.33336860  0.50318715  0.16874045  1
  I  I121  1  0.33323434  0.50151880  0.49988051  1
  I  I122  1  0.33165659  0.50080086  0.83147635  1
  I  I123  1  0.33056029  0.83491759  0.16648400  1
  I  I124  1  0.33231279  0.83967767  0.50129581  1
  I  I125  1  0.32906936  0.83556263  0.83387613  1
  I  I126  1  0.66320167  0.16517421  0.17145630  1
  I  I127  1  0.66631007  0.15936627  0.49555328  1
  I  I128  1  0.66669618  0.17021041  0.83340045  1
  I  I129  1  0.66640905  0.50246131  0.16386120  1
  I  I130  1  0.66658302  0.50102493  0.50466867  1
  I  I131  1  0.66393112  0.49961941  0.83168369  1
  I  I132  1  0.66919082  0.83406842  0.17295803  1
  I  I133  1  0.66687206  0.83974502  0.49505103  1
  I  I134  1  0.66645406  0.82979621  0.83403647  1
