# generated using pymatgen
data_Cs27Sn14Pb13I81
_symmetry_space_group_name_H-M   'P 1'
_cell_length_a   18.96618552
_cell_length_b   18.95536323
_cell_length_c   18.96437255
_cell_angle_alpha   90.00021178
_cell_angle_beta   89.99926196
_cell_angle_gamma   90.00062924
_symmetry_Int_Tables_number   1
_chemical_formula_structural   Cs27Sn14Pb13I81
_chemical_formula_sum   'Cs27 Sn14 Pb13 I81'
_cell_volume   6817.89931837
_cell_formula_units_Z   1
loop_
 _symmetry_equiv_pos_site_id
 _symmetry_equiv_pos_as_xyz
  1  'x, y, z'
loop_
 _atom_site_type_symbol
 _atom_site_label
 _atom_site_symmetry_multiplicity
 _atom_site_fract_x
 _atom_site_fract_y
 _atom_site_fract_z
 _atom_site_occupancy
  Cs  Cs0  1  -0.00075735  0.00198364  -0.00084878  1
  Cs  Cs1  1  0.00345427  0.00322077  0.33452317  1
  Cs  Cs2  1  -0.00160288  -0.00121055  0.66705918  1
  Cs  Cs3  1  -0.00098379  0.33189691  0.00264540  1
  Cs  Cs4  1  0.00361499  0.33103990  0.33115587  1
  Cs  Cs5  1  -0.00010104  0.33807698  0.66532383  1
  Cs  Cs6  1  0.00043255  0.66577090  -0.00183606  1
  Cs  Cs7  1  -0.00148907  0.66611069  0.33502002  1
  Cs  Cs8  1  0.00492860  0.66155975  0.66742731  1
  Cs  Cs9  1  0.33484867  -0.00277443  -0.00110393  1
  Cs  Cs10  1  0.32976592  -0.00193969  0.33401206  1
  Cs  Cs11  1  0.33472911  0.00162505  0.66715913  1
  Cs  Cs12  1  0.33618753  0.33360536  -0.00062205  1
  Cs  Cs13  1  0.33277767  0.33334336  0.33464972  1
  Cs  Cs14  1  0.33478509  0.33592304  0.66537279  1
  Cs  Cs15  1  0.32962152  0.66837750  0.00156667  1
  Cs  Cs16  1  0.33130484  0.66877115  0.33079860  1
  Cs  Cs17  1  0.32658492  0.66019962  0.66737448  1
  Cs  Cs18  1  0.66688106  0.00047139  -0.00188334  1
  Cs  Cs19  1  0.66679507  -0.00139865  0.33620917  1
  Cs  Cs20  1  0.66634913  -0.00011646  0.66651163  1
  Cs  Cs21  1  0.66611369  0.33205739  -0.00011421  1
  Cs  Cs22  1  0.66621020  0.33285310  0.33307875  1
  Cs  Cs23  1  0.66558404  0.33493038  0.66654845  1
  Cs  Cs24  1  0.66731955  0.66813637  0.00087490  1
  Cs  Cs25  1  0.66724382  0.66856393  0.33357201  1
  Cs  Cs26  1  0.66776784  0.66554946  0.66497544  1
  Sn  Sn27  1  0.83325137  0.16611862  0.83220542  1
  Sn  Sn28  1  0.50018233  0.16604874  0.83303443  1
  Sn  Sn29  1  0.83247699  0.16595892  0.50091144  1
  Sn  Sn30  1  0.50075692  0.83367651  0.83199796  1
  Sn  Sn31  1  0.83242059  0.83386491  0.83281662  1
  Sn  Sn32  1  0.50027612  0.16697028  0.16693619  1
  Sn  Sn33  1  0.83316121  0.83293233  0.16666571  1
  Sn  Sn34  1  0.16671104  0.49988850  0.16655174  1
  Sn  Sn35  1  0.16662612  0.16652474  0.83315900  1
  Sn  Sn36  1  0.83270161  0.83416224  0.50057354  1
  Sn  Sn37  1  0.83319927  0.50063960  0.16659014  1
  Sn  Sn38  1  0.50001147  0.49959214  0.16657523  1
  Sn  Sn39  1  0.50044325  0.83394813  0.50139874  1
  Sn  Sn40  1  0.50095835  0.16577001  0.50010454  1
  Pb  Pb41  1  0.83301958  0.50006334  0.83541421  1
  Pb  Pb42  1  0.16668673  0.49707948  0.83545612  1
  Pb  Pb43  1  0.83167997  0.16624715  0.16698534  1
  Pb  Pb44  1  0.16990385  0.16814942  0.16453290  1
  Pb  Pb45  1  0.50023998  0.50081190  0.83537035  1
  Pb  Pb46  1  0.50015234  0.50054801  0.49764659  1
  Pb  Pb47  1  0.50155673  0.83366945  0.16669473  1
  Pb  Pb48  1  0.16671271  0.49980889  0.49743271  1
  Pb  Pb49  1  0.16674524  0.83356786  0.50029359  1
  Pb  Pb50  1  0.16671268  0.16658134  0.50246388  1
  Pb  Pb51  1  0.83312522  0.49973107  0.49760269  1
  Pb  Pb52  1  0.16306642  0.83145766  0.16651215  1
  Pb  Pb53  1  0.16672012  0.83526437  0.83319911  1
  I  I54  1  0.16669195  0.00021471  0.16636382  1
  I  I55  1  0.16642907  0.00026491  0.49697610  1
  I  I56  1  0.16708820  0.00340994  0.83509934  1
  I  I57  1  0.16049737  0.33628741  0.16527467  1
  I  I58  1  0.16619744  0.33283427  0.50037552  1
  I  I59  1  0.16734706  0.32895635  0.83413727  1
  I  I60  1  0.17362195  0.66313351  0.16582961  1
  I  I61  1  0.16675268  0.66678736  0.50016139  1
  I  I62  1  0.16669199  0.66656468  0.83455996  1
  I  I63  1  0.50298774  0.00278831  0.16544483  1
  I  I64  1  0.50443646  0.00087644  0.49839750  1
  I  I65  1  0.50073885  0.00119105  0.83605792  1
  I  I66  1  0.50235710  0.33263659  0.16584734  1
  I  I67  1  0.50369497  0.32975309  0.50223883  1
  I  I68  1  0.50073495  0.32974243  0.83197673  1
  I  I69  1  0.49916766  0.66443304  0.16648531  1
  I  I70  1  0.50551413  0.67044950  0.50233450  1
  I  I71  1  0.50609212  0.67055595  0.83103121  1
  I  I72  1  0.82980478  -0.00264062  0.16586779  1
  I  I73  1  0.82905865  -0.00014117  0.49825260  1
  I  I74  1  0.83247682  0.00029522  0.83605310  1
  I  I75  1  0.83415341  0.33541410  0.16618111  1
  I  I76  1  0.82898759  0.32964762  0.50362528  1
  I  I77  1  0.83203732  0.32948715  0.83103632  1
  I  I78  1  0.83091675  0.66709025  0.16645707  1
  I  I79  1  0.82873113  0.67027427  0.50102408  1
  I  I80  1  0.82826004  0.67037168  0.83216420  1
  I  I81  1  0.16463669  0.16736277  -0.00339244  1
  I  I82  1  0.16597215  0.16903100  0.33323096  1
  I  I83  1  0.17077460  0.16580693  0.67040425  1
  I  I84  1  0.16674204  0.49982239  0.00358494  1
  I  I85  1  0.16650316  0.49844994  0.32897203  1
  I  I86  1  0.16640608  0.50012613  0.66692353  1
  I  I87  1  0.16788898  0.83338948  -0.00011347  1
  I  I88  1  0.16804276  0.83267035  0.33327224  1
  I  I89  1  0.16277989  0.83277677  0.66683796  1
  I  I90  1  0.50048050  0.16742373  -0.00096697  1
  I  I91  1  0.50559888  0.16747346  0.33404168  1
  I  I92  1  0.50024565  0.16198008  0.66706071  1
  I  I93  1  0.50098462  0.49527221  0.00387055  1
  I  I94  1  0.50079966  0.49571912  0.32919688  1
  I  I95  1  0.49951462  0.49718910  0.66659789  1
  I  I96  1  0.50431823  0.83676040  -0.00250889  1
  I  I97  1  0.50480992  0.83592881  0.33575941  1
  I  I98  1  0.50833276  0.84278759  0.66700136  1
  I  I99  1  0.83212671  0.16454387  -0.00268138  1
  I  I100  1  0.82822239  0.16445587  0.33587823  1
  I  I101  1  0.82957526  0.15951661  0.66727589  1
  I  I102  1  0.83269094  0.50294546  0.00390792  1
  I  I103  1  0.83247176  0.50353939  0.32919587  1
  I  I104  1  0.83415217  0.50156932  0.66660902  1
  I  I105  1  0.82934473  0.83336053  -0.00086176  1
  I  I106  1  0.82871925  0.83244862  0.33399426  1
  I  I107  1  0.82874727  0.83987840  0.66688314  1
  I  I108  1  -0.00020828  0.16806330  0.16617763  1
  I  I109  1  -0.00361233  0.16254954  0.50271472  1
  I  I110  1  -0.00178968  0.16287874  0.83063270  1
  I  I111  1  -0.00080988  0.50527075  0.16611513  1
  I  I112  1  -0.00042208  0.49981304  0.49709757  1
  I  I113  1  -0.00025268  0.49980006  0.83705631  1
  I  I114  1  -0.00545938  0.82943504  0.16617092  1
  I  I115  1  -0.00420423  0.83751362  0.49917952  1
  I  I116  1  -0.00379664  0.83737077  0.83417064  1
  I  I117  1  0.33828936  0.17130219  0.16722835  1
  I  I118  1  0.33717438  0.16329341  0.49949045  1
  I  I119  1  0.33528060  0.16360284  0.83502558  1
  I  I120  1  0.33420786  0.49359886  0.16631927  1
  I  I121  1  0.33375302  0.49953529  0.49736061  1
  I  I122  1  0.33356248  0.50028742  0.83699558  1
  I  I123  1  0.33361706  0.83215603  0.16642925  1
  I  I124  1  0.33735021  0.83817509  0.50300703  1
  I  I125  1  0.33700903  0.83781182  0.83059753  1
  I  I126  1  0.66361573  0.17204418  0.16251065  1
  I  I127  1  0.66621782  0.16332257  0.50325182  1
  I  I128  1  0.66636807  0.16309477  0.83397879  1
  I  I129  1  0.66663633  0.49974271  0.16645773  1
  I  I130  1  0.66665561  0.49919100  0.49588606  1
  I  I131  1  0.66666269  0.49518276  0.83805502  1
  I  I132  1  0.66964997  0.82801022  0.16630974  1
  I  I133  1  0.66715922  0.83751532  0.49976164  1
  I  I134  1  0.66713173  0.84082985  0.83421723  1
