# generated using pymatgen
data_Cs27Sn13Pb14I81
_symmetry_space_group_name_H-M   'P 1'
_cell_length_a   18.97923279
_cell_length_b   18.97960451
_cell_length_c   18.97524886
_cell_angle_alpha   89.99896242
_cell_angle_beta   89.99931718
_cell_angle_gamma   90.00058657
_symmetry_Int_Tables_number   1
_chemical_formula_structural   Cs27Sn13Pb14I81
_chemical_formula_sum   'Cs27 Sn13 Pb14 I81'
_cell_volume   6835.23249421
_cell_formula_units_Z   1
loop_
 _symmetry_equiv_pos_site_id
 _symmetry_equiv_pos_as_xyz
  1  'x, y, z'
loop_
 _atom_site_type_symbol
 _atom_site_label
 _atom_site_symmetry_multiplicity
 _atom_site_fract_x
 _atom_site_fract_y
 _atom_site_fract_z
 _atom_site_occupancy
  Cs  Cs0  1  -0.00019058  -0.00220942  0.00459389  1
  Cs  Cs1  1  -0.00370014  -0.00074439  0.32620400  1
  Cs  Cs2  1  0.00114975  0.00089563  0.66614849  1
  Cs  Cs3  1  0.00173770  0.33709559  0.00221073  1
  Cs  Cs4  1  -0.00536660  0.33119705  0.32985079  1
  Cs  Cs5  1  0.00042290  0.33253598  0.66669976  1
  Cs  Cs6  1  -0.00175085  0.66684207  0.00765950  1
  Cs  Cs7  1  0.00217737  0.67039857  0.32148288  1
  Cs  Cs8  1  0.00254677  0.66641268  0.66718020  1
  Cs  Cs9  1  0.33498190  0.00211570  -0.00189481  1
  Cs  Cs10  1  0.33314464  0.00112583  0.33615641  1
  Cs  Cs11  1  0.33358124  0.00033790  0.66694098  1
  Cs  Cs12  1  0.33289189  0.33186741  0.00222023  1
  Cs  Cs13  1  0.33421359  0.33617425  0.32824389  1
  Cs  Cs14  1  0.33212052  0.33218016  0.66704417  1
  Cs  Cs15  1  0.33203937  0.66609192  -0.00163327  1
  Cs  Cs16  1  0.33326894  0.66272280  0.33420653  1
  Cs  Cs17  1  0.33232776  0.66674733  0.66595303  1
  Cs  Cs18  1  0.66443184  -0.00129483  -0.00120577  1
  Cs  Cs19  1  0.66866465  0.00038116  0.33385446  1
  Cs  Cs20  1  0.66542498  0.00000068  0.66705142  1
  Cs  Cs21  1  0.66612139  0.33508102  0.00139298  1
  Cs  Cs22  1  0.67201024  0.33909219  0.33041887  1
  Cs  Cs23  1  0.66947759  0.33433336  0.66577959  1
  Cs  Cs24  1  0.66984824  0.66871406  -0.00184075  1
  Cs  Cs25  1  0.66538328  0.66302024  0.33474890  1
  Cs  Cs26  1  0.66620502  0.66619306  0.66662929  1
  Sn  Sn27  1  0.50069301  0.83398854  0.50017920  1
  Sn  Sn28  1  0.83289760  0.83308348  0.50129009  1
  Sn  Sn29  1  0.49966147  0.83356765  0.16697794  1
  Sn  Sn30  1  0.16626838  0.49892545  0.50087652  1
  Sn  Sn31  1  0.16645052  0.16734708  0.83256562  1
  Sn  Sn32  1  0.16753164  0.49927006  0.83220280  1
  Sn  Sn33  1  0.49917996  0.49972300  0.83268225  1
  Sn  Sn34  1  0.83288538  0.83427319  0.83185523  1
  Sn  Sn35  1  0.50052327  0.83315200  0.83292185  1
  Sn  Sn36  1  0.83342482  0.16583589  0.83291065  1
  Sn  Sn37  1  0.50018674  0.16711977  0.83226245  1
  Sn  Sn38  1  0.16732317  0.16759304  0.50061507  1
  Sn  Sn39  1  0.49972148  0.16672263  0.50062878  1
  Pb  Pb40  1  0.49997602  0.50254393  0.16346192  1
  Pb  Pb41  1  0.16700282  0.49961717  0.16648379  1
  Pb  Pb42  1  0.83326187  0.16495549  0.50177786  1
  Pb  Pb43  1  0.17016382  0.83372736  0.16666959  1
  Pb  Pb44  1  0.83047270  0.83353997  0.16650124  1
  Pb  Pb45  1  0.49857679  0.49940689  0.50201896  1
  Pb  Pb46  1  0.83286536  0.16646847  0.16309135  1
  Pb  Pb47  1  0.16699355  0.16664667  0.16704004  1
  Pb  Pb48  1  0.83384890  0.50019491  0.83312774  1
  Pb  Pb49  1  0.50010118  0.16493535  0.16730344  1
  Pb  Pb50  1  0.16652700  0.83385776  0.50004042  1
  Pb  Pb51  1  0.16633358  0.83351818  0.83346767  1
  Pb  Pb52  1  0.83693528  0.50328189  0.50032594  1
  Pb  Pb53  1  0.83296958  0.50000371  0.16669452  1
  I  I54  1  0.16548679  0.00021005  0.16584737  1
  I  I55  1  0.16927467  0.00329524  0.50639315  1
  I  I56  1  0.16955853  0.00337884  0.82856828  1
  I  I57  1  0.16830435  0.33320844  0.16518176  1
  I  I58  1  0.17308745  0.33216065  0.50626938  1
  I  I59  1  0.16987707  0.33253055  0.82989778  1
  I  I60  1  0.16591247  0.66656333  0.16628405  1
  I  I61  1  0.16752858  0.66416055  0.50556335  1
  I  I62  1  0.17108351  0.66380501  0.82899628  1
  I  I63  1  0.50065998  -0.00319803  0.16081023  1
  I  I64  1  0.49728854  -0.00031834  0.50473124  1
  I  I65  1  0.50000659  -0.00002173  0.83367117  1
  I  I66  1  0.49913119  0.33344684  0.16595143  1
  I  I67  1  0.49721090  0.33005025  0.50630808  1
  I  I68  1  0.49984751  0.33210580  0.82871576  1
  I  I69  1  0.50032255  0.67081549  0.16802873  1
  I  I70  1  0.50178272  0.66964237  0.50127060  1
  I  I71  1  0.49983069  0.66772698  0.83367481  1
  I  I72  1  0.83437906  -0.00034441  0.16814119  1
  I  I73  1  0.83305426  -0.00319276  0.50304910  1
  I  I74  1  0.82972940  -0.00043643  0.82971381  1
  I  I75  1  0.83292004  0.33307052  0.16579300  1
  I  I76  1  0.83054221  0.33324202  0.50120354  1
  I  I77  1  0.83032605  0.33023386  0.83335115  1
  I  I78  1  0.83426351  0.66740133  0.16330129  1
  I  I79  1  0.82591954  0.67140482  0.50784398  1
  I  I80  1  0.82879749  0.67004207  0.83065636  1
  I  I81  1  0.16804716  0.17008665  -0.00415718  1
  I  I82  1  0.17301342  0.16974958  0.33739511  1
  I  I83  1  0.16827174  0.17044833  0.66780434  1
  I  I84  1  0.17040829  0.49599698  -0.00381310  1
  I  I85  1  0.16734051  0.49716782  0.33665416  1
  I  I86  1  0.17084277  0.49636197  0.66788961  1
  I  I87  1  0.16610293  0.83280200  -0.00049723  1
  I  I88  1  0.16540422  0.83268935  0.33376381  1
  I  I89  1  0.17014116  0.83208077  0.66681268  1
  I  I90  1  0.49906672  0.16545263  -0.00402648  1
  I  I91  1  0.49364188  0.16053402  0.33733942  1
  I  I92  1  0.49843232  0.16104065  0.66799963  1
  I  I93  1  0.49408912  0.49842247  -0.00537293  1
  I  I94  1  0.49761708  0.50107154  0.33360015  1
  I  I95  1  0.49802245  0.50518626  0.67041833  1
  I  I96  1  0.50312889  0.83318606  -0.00224480  1
  I  I97  1  0.50302682  0.83882529  0.33499038  1
  I  I98  1  0.50396723  0.83440490  0.66736287  1
  I  I99  1  0.83276962  0.15952902  -0.00590530  1
  I  I100  1  0.83432211  0.16445344  0.33374674  1
  I  I101  1  0.83299506  0.16402239  0.67030647  1
  I  I102  1  0.83532895  0.50250582  -0.00088532  1
  I  I103  1  0.83438992  0.50180406  0.33392138  1
  I  I104  1  0.83142559  0.50000279  0.66691748  1
  I  I105  1  0.82958524  0.83655844  -0.00352103  1
  I  I106  1  0.83051160  0.83286533  0.33639452  1
  I  I107  1  0.82464281  0.83663452  0.66783691  1
  I  I108  1  -0.00001130  0.16528749  0.16747760  1
  I  I109  1  0.00288214  0.16889178  0.50565284  1
  I  I110  1  0.00071188  0.16644914  0.82876087  1
  I  I111  1  0.00039490  0.50252869  0.16357111  1
  I  I112  1  0.00484426  0.49407349  0.50934975  1
  I  I113  1  0.00342860  0.49665436  0.82953539  1
  I  I114  1  -0.00040084  0.83226776  0.16655292  1
  I  I115  1  -0.00286048  0.83291372  0.50707793  1
  I  I116  1  -0.00322346  0.83646767  0.82797792  1
  I  I117  1  0.33355663  0.16395349  0.16136071  1
  I  I118  1  0.33403582  0.16282649  0.50843702  1
  I  I119  1  0.33407796  0.16605572  0.83041921  1
  I  I120  1  0.33349359  0.50278219  0.16738580  1
  I  I121  1  0.33057065  0.50209769  0.50351699  1
  I  I122  1  0.33361774  0.49880205  0.83017364  1
  I  I123  1  0.33812334  0.83368381  0.16495462  1
  I  I124  1  0.33681351  0.83432548  0.50189152  1
  I  I125  1  0.33681979  0.83508111  0.83237652  1
  I  I126  1  0.66634014  0.16574752  0.16664115  1
  I  I127  1  0.66348490  0.16247151  0.50513809  1
  I  I128  1  0.66530978  0.16516922  0.83019671  1
  I  I129  1  0.66604341  0.50008770  0.16507252  1
  I  I130  1  0.66672097  0.49833234  0.50092492  1
  I  I131  1  0.66368377  0.49882075  0.83419139  1
  I  I132  1  0.66299868  0.83403163  0.16434752  1
  I  I133  1  0.66479784  0.83888927  0.50130640  1
  I  I134  1  0.66514526  0.83583399  0.83369207  1
