# generated using pymatgen
data_Cs27Sn13Pb14I81
_symmetry_space_group_name_H-M   'P 1'
_cell_length_a   18.97276692
_cell_length_b   18.97971840
_cell_length_c   18.98186059
_cell_angle_alpha   89.99874981
_cell_angle_beta   90.00023148
_cell_angle_gamma   89.99962310
_symmetry_Int_Tables_number   1
_chemical_formula_structural   Cs27Sn13Pb14I81
_chemical_formula_sum   'Cs27 Sn13 Pb14 I81'
_cell_volume   6835.32573299
_cell_formula_units_Z   1
loop_
 _symmetry_equiv_pos_site_id
 _symmetry_equiv_pos_as_xyz
  1  'x, y, z'
loop_
 _atom_site_type_symbol
 _atom_site_label
 _atom_site_symmetry_multiplicity
 _atom_site_fract_x
 _atom_site_fract_y
 _atom_site_fract_z
 _atom_site_occupancy
  Cs  Cs0  1  0.00297577  -0.00031172  -0.00033227  1
  Cs  Cs1  1  0.00063308  0.00226569  0.33100982  1
  Cs  Cs2  1  -0.00327584  -0.00410675  0.67084345  1
  Cs  Cs3  1  0.00054342  0.33398769  -0.00111597  1
  Cs  Cs4  1  0.00201454  0.33221930  0.33295579  1
  Cs  Cs5  1  0.00197509  0.33325630  0.66865524  1
  Cs  Cs6  1  -0.00110726  0.66419268  -0.00281095  1
  Cs  Cs7  1  -0.00329859  0.66574319  0.33658397  1
  Cs  Cs8  1  0.00215067  0.66926622  0.66590778  1
  Cs  Cs9  1  0.33064108  -0.00444639  0.00243924  1
  Cs  Cs10  1  0.32709579  -0.00435384  0.33661867  1
  Cs  Cs11  1  0.33510068  -0.00533217  0.66079156  1
  Cs  Cs12  1  0.33452858  0.33349267  -0.00101678  1
  Cs  Cs13  1  0.33192198  0.33216481  0.33358928  1
  Cs  Cs14  1  0.33460815  0.33428210  0.66864985  1
  Cs  Cs15  1  0.33498953  0.66862992  -0.00008194  1
  Cs  Cs16  1  0.33169771  0.66989184  0.33275260  1
  Cs  Cs17  1  0.33010284  0.66843241  0.66728014  1
  Cs  Cs18  1  0.66614578  0.00120252  -0.00054941  1
  Cs  Cs19  1  0.66714249  0.00006639  0.33471527  1
  Cs  Cs20  1  0.66702333  -0.00085951  0.66540668  1
  Cs  Cs21  1  0.66534006  0.33394469  0.00088285  1
  Cs  Cs22  1  0.66641358  0.33308035  0.33205742  1
  Cs  Cs23  1  0.66491836  0.33229350  0.66769568  1
  Cs  Cs24  1  0.66626499  0.66512673  0.00001585  1
  Cs  Cs25  1  0.66870673  0.66673493  0.33228252  1
  Cs  Cs26  1  0.66674943  0.66720789  0.66701399  1
  Sn  Sn27  1  0.16775436  0.49892638  0.83450412  1
  Sn  Sn28  1  0.83265151  0.16610237  0.16723840  1
  Sn  Sn29  1  0.49906609  0.49915758  0.16687936  1
  Sn  Sn30  1  0.49922557  0.49924552  0.83343773  1
  Sn  Sn31  1  0.83257357  0.49939950  0.50014350  1
  Sn  Sn32  1  0.50010617  0.16700267  0.16644263  1
  Sn  Sn33  1  0.16766527  0.49969494  0.16600753  1
  Sn  Sn34  1  0.16822726  0.16726235  0.83316863  1
  Sn  Sn35  1  0.83301117  0.83435570  0.16691330  1
  Sn  Sn36  1  0.83325198  0.16703955  0.49928945  1
  Sn  Sn37  1  0.50063163  0.49972533  0.49977059  1
  Sn  Sn38  1  0.49878230  0.16706485  0.83411921  1
  Sn  Sn39  1  0.83291940  0.83353950  0.49887930  1
  Pb  Pb40  1  0.83283785  0.16682685  0.83396183  1
  Pb  Pb41  1  0.16723074  0.49978909  0.50021822  1
  Pb  Pb42  1  0.83321015  0.49944309  0.16833012  1
  Pb  Pb43  1  0.50223462  0.83040916  0.49975219  1
  Pb  Pb44  1  0.49998501  0.83375011  0.83353581  1
  Pb  Pb45  1  0.16385802  0.83348085  0.49976518  1
  Pb  Pb46  1  0.16699910  0.83317203  0.83354685  1
  Pb  Pb47  1  0.50144722  0.16835920  0.49972367  1
  Pb  Pb48  1  0.16364303  0.82999331  0.16657335  1
  Pb  Pb49  1  0.83315876  0.49993174  0.83052888  1
  Pb  Pb50  1  0.16403181  0.16680707  0.50313426  1
  Pb  Pb51  1  0.50197542  0.83378262  0.16670562  1
  Pb  Pb52  1  0.83303643  0.83332067  0.83394525  1
  Pb  Pb53  1  0.16711326  0.16846164  0.16496816  1
  I  I54  1  0.16793313  0.00012570  0.16467126  1
  I  I55  1  0.16636895  0.00025676  0.50175171  1
  I  I56  1  0.16883623  0.00336524  0.83309854  1
  I  I57  1  0.16446867  0.33657215  0.16512596  1
  I  I58  1  0.16071510  0.33357792  0.49825642  1
  I  I59  1  0.16968012  0.33444556  0.83653743  1
  I  I60  1  0.17174673  0.66183070  0.16067545  1
  I  I61  1  0.16371982  0.66617279  0.50243011  1
  I  I62  1  0.17018422  0.66283500  0.83601434  1
  I  I63  1  0.50403032  0.00376411  0.16061987  1
  I  I64  1  0.50227629  0.00019206  0.50164706  1
  I  I65  1  0.49752129  0.00408501  0.83847144  1
  I  I66  1  0.50385953  0.33399390  0.16546840  1
  I  I67  1  0.50738493  0.33676782  0.50035442  1
  I  I68  1  0.49681625  0.33421138  0.83372254  1
  I  I69  1  0.49845736  0.66298045  0.16558527  1
  I  I70  1  0.50570478  0.66160989  0.50047239  1
  I  I71  1  0.49688951  0.66261341  0.83382760  1
  I  I72  1  0.82822679  0.00138284  0.17445719  1
  I  I73  1  0.83456165  0.00035525  0.49608538  1
  I  I74  1  0.83357624  0.00034975  0.82819928  1
  I  I75  1  0.83201992  0.33064302  0.17092720  1
  I  I76  1  0.82949160  0.33339188  0.49629172  1
  I  I77  1  0.83450602  0.33336895  0.83244638  1
  I  I78  1  0.83412015  0.66819947  0.17167098  1
  I  I79  1  0.82958398  0.66639372  0.49580881  1
  I  I80  1  0.83360329  0.66633871  0.83366662  1
  I  I81  1  0.16419043  0.17015501  -0.00302049  1
  I  I82  1  0.16756442  0.16850359  0.33314925  1
  I  I83  1  0.17088912  0.17528349  0.67120248  1
  I  I84  1  0.17237488  0.49669497  -0.00048047  1
  I  I85  1  0.16869794  0.50045146  0.33068871  1
  I  I86  1  0.16852750  0.49646117  0.66984207  1
  I  I87  1  0.16177175  0.83424160  0.00013147  1
  I  I88  1  0.16859737  0.83128375  0.33297651  1
  I  I89  1  0.16290088  0.83063501  0.66678494  1
  I  I90  1  0.50411592  0.17527278  0.00041830  1
  I  I91  1  0.50496250  0.17261052  0.33023696  1
  I  I92  1  0.49882958  0.17197683  0.66945047  1
  I  I93  1  0.49609933  0.49630768  0.00013958  1
  I  I94  1  0.50146523  0.49634699  0.33251694  1
  I  I95  1  0.50137195  0.49601513  0.66732288  1
  I  I96  1  0.50494668  0.82822588  0.00022559  1
  I  I97  1  0.49960227  0.83233655  0.33323201  1
  I  I98  1  0.50395352  0.83369318  0.66656167  1
  I  I99  1  0.83214901  0.16230512  0.00331943  1
  I  I100  1  0.82789301  0.16635316  0.33272258  1
  I  I101  1  0.83365926  0.16633600  0.66392592  1
  I  I102  1  0.83196078  0.50072903  0.00012096  1
  I  I103  1  0.82985229  0.50048259  0.33634440  1
  I  I104  1  0.82981984  0.50002696  0.66223924  1
  I  I105  1  0.83336159  0.83813860  0.00362912  1
  I  I106  1  0.83264055  0.83308636  0.33384234  1
  I  I107  1  0.83359968  0.83373837  0.66320167  1
  I  I108  1  -0.00276697  0.16485219  0.16931030  1
  I  I109  1  -0.00485699  0.16995973  0.49448858  1
  I  I110  1  0.00243658  0.17146876  0.83231343  1
  I  I111  1  0.00201789  0.50048143  0.16329978  1
  I  I112  1  -0.00300531  0.50139057  0.49925567  1
  I  I113  1  0.00315561  0.49627179  0.83715753  1
  I  I114  1  -0.00443341  0.83873728  0.17157522  1
  I  I115  1  -0.00501186  0.82873365  0.49678709  1
  I  I116  1  0.00000811  0.83272895  0.83193396  1
  I  I117  1  0.33660379  0.17113313  0.16382735  1
  I  I118  1  0.33351769  0.16963381  0.49748335  1
  I  I119  1  0.33448938  0.17342927  0.83925044  1
  I  I120  1  0.33490437  0.49415770  0.16825390  1
  I  I121  1  0.33674583  0.49820614  0.50020531  1
  I  I122  1  0.33422330  0.49555812  0.83181405  1
  I  I123  1  0.33323666  0.83514349  0.16568967  1
  I  I124  1  0.33356583  0.83188914  0.50135406  1
  I  I125  1  0.33341213  0.83267603  0.83321488  1
  I  I126  1  0.66651784  0.16963947  0.16442220  1
  I  I127  1  0.67007574  0.16560035  0.50103379  1
  I  I128  1  0.66344672  0.17238107  0.83429927  1
  I  I129  1  0.66378687  0.49945647  0.16409575  1
  I  I130  1  0.66663125  0.50027958  0.49988853  1
  I  I131  1  0.66304258  0.49560333  0.83608848  1
  I  I132  1  0.67020100  0.83168501  0.17154853  1
  I  I133  1  0.67072606  0.83512181  0.49620730  1
  I  I134  1  0.66661947  0.83215140  0.83246980  1
