# generated using pymatgen
data_Cs27Sn14Pb13I81
_symmetry_space_group_name_H-M   'P 1'
_cell_length_a   18.97975518
_cell_length_b   18.96895895
_cell_length_c   18.97908834
_cell_angle_alpha   89.99901601
_cell_angle_beta   90.00125192
_cell_angle_gamma   89.99940378
_symmetry_Int_Tables_number   1
_chemical_formula_structural   Cs27Sn14Pb13I81
_chemical_formula_sum   'Cs27 Sn14 Pb13 I81'
_cell_volume   6832.96899254
_cell_formula_units_Z   1
loop_
 _symmetry_equiv_pos_site_id
 _symmetry_equiv_pos_as_xyz
  1  'x, y, z'
loop_
 _atom_site_type_symbol
 _atom_site_label
 _atom_site_symmetry_multiplicity
 _atom_site_fract_x
 _atom_site_fract_y
 _atom_site_fract_z
 _atom_site_occupancy
  Cs  Cs0  1  -0.00054258  -0.00655725  -0.00210585  1
  Cs  Cs1  1  -0.00055109  0.00382513  0.33668324  1
  Cs  Cs2  1  0.00171534  0.00043103  0.66403144  1
  Cs  Cs3  1  0.00025892  0.33422352  0.00100986  1
  Cs  Cs4  1  0.00040566  0.33155022  0.33352016  1
  Cs  Cs5  1  0.00158945  0.33360828  0.66594348  1
  Cs  Cs6  1  -0.00616212  0.67572164  0.00856118  1
  Cs  Cs7  1  -0.00231185  0.66479628  0.32817403  1
  Cs  Cs8  1  -0.00083643  0.66584526  0.66653568  1
  Cs  Cs9  1  0.33319850  -0.00606412  -0.00335801  1
  Cs  Cs10  1  0.33460012  0.00250182  0.33488555  1
  Cs  Cs11  1  0.33309277  -0.00200939  0.66641642  1
  Cs  Cs12  1  0.33452513  0.33441460  -0.00046892  1
  Cs  Cs13  1  0.33344853  0.33274097  0.33327576  1
  Cs  Cs14  1  0.33272802  0.33454497  0.66661516  1
  Cs  Cs15  1  0.33004227  0.66955348  0.00116774  1
  Cs  Cs16  1  0.33525751  0.66680206  0.33230249  1
  Cs  Cs17  1  0.33348486  0.66366395  0.66562685  1
  Cs  Cs18  1  0.66776503  -0.00436038  -0.00861474  1
  Cs  Cs19  1  0.66660827  0.00083923  0.33402450  1
  Cs  Cs20  1  0.66480361  -0.00068129  0.67178443  1
  Cs  Cs21  1  0.66398096  0.33208141  -0.00393671  1
  Cs  Cs22  1  0.66468855  0.33238072  0.33341123  1
  Cs  Cs23  1  0.66680076  0.33508015  0.66970634  1
  Cs  Cs24  1  0.67618399  0.67415890  0.00210011  1
  Cs  Cs25  1  0.66681669  0.66923990  0.33239114  1
  Cs  Cs26  1  0.66753929  0.66357286  0.66633949  1
  Sn  Sn27  1  0.16597781  0.83275629  0.49973866  1
  Sn  Sn28  1  0.83402135  0.83419151  0.50001709  1
  Sn  Sn29  1  0.49919123  0.49885209  0.49973997  1
  Sn  Sn30  1  0.49998977  0.49937514  0.16649051  1
  Sn  Sn31  1  0.49917853  0.49998967  0.83377304  1
  Sn  Sn32  1  0.16731218  0.50009993  0.50022601  1
  Sn  Sn33  1  0.50010006  0.16758093  0.49981977  1
  Sn  Sn34  1  0.16692633  0.16704855  0.50002747  1
  Sn  Sn35  1  0.83276209  0.16707454  0.16702668  1
  Sn  Sn36  1  0.16697677  0.16688312  0.16615400  1
  Sn  Sn37  1  0.83287858  0.16615656  0.49964497  1
  Sn  Sn38  1  0.50022014  0.16692527  0.16685288  1
  Sn  Sn39  1  0.16684153  0.49948822  0.83335393  1
  Sn  Sn40  1  0.16685156  0.16754473  0.83335890  1
  Pb  Pb41  1  0.16824518  0.49826157  0.16658692  1
  Pb  Pb42  1  0.83344974  0.49940016  0.49994276  1
  Pb  Pb43  1  0.16690375  0.83658074  0.17001077  1
  Pb  Pb44  1  0.50001028  0.83339512  0.50007126  1
  Pb  Pb45  1  0.83019247  0.49694111  0.16677998  1
  Pb  Pb46  1  0.83321860  0.83690442  0.16977058  1
  Pb  Pb47  1  0.83455911  0.49984297  0.83356480  1
  Pb  Pb48  1  0.83635271  0.16692977  0.83306891  1
  Pb  Pb49  1  0.49993964  0.83420560  0.16685425  1
  Pb  Pb50  1  0.49962142  0.82910215  0.83308447  1
  Pb  Pb51  1  0.49761220  0.16798342  0.83330624  1
  Pb  Pb52  1  0.83365727  0.83344112  0.82969320  1
  Pb  Pb53  1  0.16666278  0.83229956  0.83083751  1
  I  I54  1  0.16949403  0.00544992  0.16606249  1
  I  I55  1  0.16619575  0.00197782  0.49951984  1
  I  I56  1  0.16574651  0.00289181  0.83275434  1
  I  I57  1  0.16483632  0.32952685  0.17230623  1
  I  I58  1  0.16700855  0.33216713  0.50054696  1
  I  I59  1  0.16997796  0.33312979  0.82715482  1
  I  I60  1  0.16901183  0.66665461  0.16665626  1
  I  I61  1  0.16752445  0.66546691  0.50623298  1
  I  I62  1  0.17295348  0.66271301  0.82625513  1
  I  I63  1  0.49932099  0.00467794  0.17459189  1
  I  I64  1  0.49713726  0.00365216  0.49412278  1
  I  I65  1  0.49924761  0.00008512  0.83329307  1
  I  I66  1  0.49972223  0.33222615  0.16888752  1
  I  I67  1  0.49712667  0.33289313  0.49910112  1
  I  I68  1  0.49777195  0.33625125  0.83229339  1
  I  I69  1  0.49807679  0.66324774  0.16881267  1
  I  I70  1  0.49691414  0.66306541  0.50020747  1
  I  I71  1  0.49198900  0.66078203  0.83018322  1
  I  I72  1  0.83167074  0.00495854  0.16950944  1
  I  I73  1  0.83757910  0.00188082  0.49569109  1
  I  I74  1  0.83410004  0.00046904  0.83597649  1
  I  I75  1  0.83682188  0.32886845  0.17557420  1
  I  I76  1  0.83595983  0.32969805  0.49621928  1
  I  I77  1  0.83177933  0.33309450  0.82973162  1
  I  I78  1  0.83193549  0.66692333  0.16679759  1
  I  I79  1  0.83638473  0.66909274  0.50214124  1
  I  I80  1  0.83324539  0.66667411  0.83133669  1
  I  I81  1  0.16700494  0.17337871  0.00017355  1
  I  I82  1  0.16647054  0.16635617  0.33467375  1
  I  I83  1  0.16626596  0.16681786  0.66488847  1
  I  I84  1  0.17262986  0.49230817  -0.00269312  1
  I  I85  1  0.17006269  0.49904351  0.33665775  1
  I  I86  1  0.17454049  0.49477416  0.66515857  1
  I  I87  1  0.16713269  0.83364631  0.00014601  1
  I  I88  1  0.16352353  0.83221344  0.33816422  1
  I  I89  1  0.16323879  0.83902957  0.66257737  1
  I  I90  1  0.50016461  0.17159418  0.00291238  1
  I  I91  1  0.49620239  0.17367096  0.33440600  1
  I  I92  1  0.50051407  0.16965030  0.66334444  1
  I  I93  1  0.49516772  0.49292063  0.00015285  1
  I  I94  1  0.49594665  0.49539834  0.33443305  1
  I  I95  1  0.49604918  0.49627513  0.66548668  1
  I  I96  1  0.50003940  0.83577174  -0.00000609  1
  I  I97  1  0.49947497  0.82809713  0.33374535  1
  I  I98  1  0.50074890  0.83581325  0.66617309  1
  I  I99  1  0.83219566  0.16967615  0.00312564  1
  I  I100  1  0.83709881  0.16354166  0.33467992  1
  I  I101  1  0.83311599  0.16287729  0.66293584  1
  I  I102  1  0.83353755  0.49746241  0.00022264  1
  I  I103  1  0.83462090  0.50254366  0.33360090  1
  I  I104  1  0.82805359  0.49850515  0.66634036  1
  I  I105  1  0.83261186  0.83342179  0.00029141  1
  I  I106  1  0.83767478  0.83488958  0.33737190  1
  I  I107  1  0.83758360  0.84094151  0.66183869  1
  I  I108  1  0.00052598  0.16624118  0.17149250  1
  I  I109  1  0.00125234  0.16628403  0.49789027  1
  I  I110  1  0.00458864  0.17314209  0.83133796  1
  I  I111  1  0.00009737  0.49847006  0.16679081  1
  I  I112  1  0.00352153  0.49708805  0.50569347  1
  I  I113  1  0.00444924  0.49441045  0.82452740  1
  I  I114  1  0.00007641  0.83245410  0.16468952  1
  I  I115  1  0.00091559  0.83857431  0.50082127  1
  I  I116  1  0.00036682  0.83168386  0.83473274  1
  I  I117  1  0.33352300  0.17094305  0.17170304  1
  I  I118  1  0.33259401  0.16690623  0.49742967  1
  I  I119  1  0.32955477  0.16884944  0.83148891  1
  I  I120  1  0.33645200  0.49283140  0.16822104  1
  I  I121  1  0.33319915  0.49700148  0.50080584  1
  I  I122  1  0.33292113  0.49465590  0.83051258  1
  I  I123  1  0.33323868  0.83610292  0.16921696  1
  I  I124  1  0.33037037  0.83658875  0.50066964  1
  I  I125  1  0.33292106  0.83743403  0.83046532  1
  I  I126  1  0.66591268  0.17161144  0.17686038  1
  I  I127  1  0.66610432  0.16659927  0.49272690  1
  I  I128  1  0.66644009  0.16810963  0.83274057  1
  I  I129  1  0.66171340  0.49418810  0.16901127  1
  I  I130  1  0.66317656  0.49714787  0.50074931  1
  I  I131  1  0.66334619  0.49886267  0.83048682  1
  I  I132  1  0.66673536  0.83315757  0.17003359  1
  I  I133  1  0.66935231  0.83714183  0.49895432  1
  I  I134  1  0.66666557  0.83322494  0.83136887  1
