# generated using pymatgen
data_Cs27Sn13Pb14I81
_symmetry_space_group_name_H-M   'P 1'
_cell_length_a   18.97541700
_cell_length_b   18.98320014
_cell_length_c   18.97035320
_cell_angle_alpha   89.99892583
_cell_angle_beta   89.99849541
_cell_angle_gamma   90.00147654
_symmetry_Int_Tables_number   1
_chemical_formula_structural   Cs27Sn13Pb14I81
_chemical_formula_sum   'Cs27 Sn13 Pb14 I81'
_cell_volume   6833.38943127
_cell_formula_units_Z   1
loop_
 _symmetry_equiv_pos_site_id
 _symmetry_equiv_pos_as_xyz
  1  'x, y, z'
loop_
 _atom_site_type_symbol
 _atom_site_label
 _atom_site_symmetry_multiplicity
 _atom_site_fract_x
 _atom_site_fract_y
 _atom_site_fract_z
 _atom_site_occupancy
  Cs  Cs0  1  0.00005473  -0.00182927  -0.00010775  1
  Cs  Cs1  1  -0.00061789  -0.00536542  0.33410493  1
  Cs  Cs2  1  -0.00174471  0.00263039  0.66671901  1
  Cs  Cs3  1  -0.00131416  0.33247143  -0.00168505  1
  Cs  Cs4  1  0.00149913  0.33819343  0.33175298  1
  Cs  Cs5  1  0.00072783  0.33092369  0.66956798  1
  Cs  Cs6  1  -0.00138806  0.66978929  0.00096606  1
  Cs  Cs7  1  0.00410099  0.66571275  0.33537686  1
  Cs  Cs8  1  0.00199759  0.66726964  0.66446133  1
  Cs  Cs9  1  0.33184708  0.00346070  -0.00007789  1
  Cs  Cs10  1  0.33457707  0.00279284  0.33314334  1
  Cs  Cs11  1  0.33578311  0.00087411  0.66788664  1
  Cs  Cs12  1  0.33159293  0.32909892  -0.00016879  1
  Cs  Cs13  1  0.33447990  0.33285114  0.33166905  1
  Cs  Cs14  1  0.33032243  0.33243594  0.66851023  1
  Cs  Cs15  1  0.33621533  0.66789358  -0.00179080  1
  Cs  Cs16  1  0.32608292  0.66437947  0.33495863  1
  Cs  Cs17  1  0.33565567  0.66895811  0.66676069  1
  Cs  Cs18  1  0.66825007  -0.00295553  0.00164980  1
  Cs  Cs19  1  0.66567050  0.00175221  0.33846693  1
  Cs  Cs20  1  0.66556160  0.00102364  0.65660333  1
  Cs  Cs21  1  0.66931508  0.33604471  -0.00006431  1
  Cs  Cs22  1  0.66500645  0.33486330  0.33287863  1
  Cs  Cs23  1  0.67029014  0.33413940  0.66704776  1
  Cs  Cs24  1  0.66622284  0.66640765  0.00077494  1
  Cs  Cs25  1  0.66832573  0.66399201  0.33039283  1
  Cs  Cs26  1  0.66108844  0.66608489  0.66713382  1
  Sn  Sn27  1  0.16654230  0.16662163  0.50007795  1
  Sn  Sn28  1  0.83342905  0.83342086  0.83316575  1
  Sn  Sn29  1  0.16600513  0.83345036  0.83356181  1
  Sn  Sn30  1  0.50058314  0.16666431  0.83341871  1
  Sn  Sn31  1  0.16718245  0.16649415  0.83258795  1
  Sn  Sn32  1  0.50033401  0.50087941  0.16724823  1
  Sn  Sn33  1  0.16664270  0.50026618  0.83377294  1
  Sn  Sn34  1  0.83239681  0.83335035  0.16619072  1
  Sn  Sn35  1  0.83335095  0.16649353  0.16678969  1
  Sn  Sn36  1  0.83280359  0.50014508  0.16726446  1
  Sn  Sn37  1  0.50043464  0.49993796  0.49947004  1
  Sn  Sn38  1  0.50047324  0.83276422  0.16674850  1
  Sn  Sn39  1  0.83274701  0.50014211  0.49970566  1
  Pb  Pb40  1  0.16683691  0.49838097  0.50225144  1
  Pb  Pb41  1  0.50216532  0.16691122  0.16508036  1
  Pb  Pb42  1  0.49999172  0.83071581  0.49649971  1
  Pb  Pb43  1  0.83545499  0.16923870  0.49727340  1
  Pb  Pb44  1  0.16416193  0.16658099  0.16651564  1
  Pb  Pb45  1  0.16690762  0.50005296  0.16422168  1
  Pb  Pb46  1  0.49827931  0.16931672  0.50209634  1
  Pb  Pb47  1  0.83316066  0.83071361  0.49960945  1
  Pb  Pb48  1  0.83508190  0.50231335  0.83348355  1
  Pb  Pb49  1  0.50047973  0.83552704  0.83507450  1
  Pb  Pb50  1  0.16692185  0.83329037  0.16486931  1
  Pb  Pb51  1  0.49815350  0.49822928  0.83385302  1
  Pb  Pb52  1  0.16678202  0.83613942  0.50292812  1
  Pb  Pb53  1  0.83330973  0.16418913  0.83465791  1
  I  I54  1  0.16665637  -0.00001322  0.16432811  1
  I  I55  1  0.16604501  0.00392595  0.50494909  1
  I  I56  1  0.16637250  0.00032061  0.83053040  1
  I  I57  1  0.16563732  0.33338032  0.16268493  1
  I  I58  1  0.16580216  0.33084539  0.50792432  1
  I  I59  1  0.17058712  0.33244067  0.83022314  1
  I  I60  1  0.16297586  0.66657870  0.16458261  1
  I  I61  1  0.16645870  0.66641986  0.50181626  1
  I  I62  1  0.16194646  0.66718178  0.83546515  1
  I  I63  1  0.50388092  -0.00238699  0.16234106  1
  I  I64  1  0.49826959  0.00028719  0.49982273  1
  I  I65  1  0.49349873  0.00304693  0.83646827  1
  I  I66  1  0.50407692  0.33640583  0.16875986  1
  I  I67  1  0.50319445  0.33701272  0.49295100  1
  I  I68  1  0.49335382  0.33055883  0.83541762  1
  I  I69  1  0.50829017  0.66586033  0.16750334  1
  I  I70  1  0.50320940  0.66256484  0.50163471  1
  I  I71  1  0.49768817  0.66666415  0.83195782  1
  I  I72  1  0.83125891  -0.00117525  0.16008635  1
  I  I73  1  0.83544536  0.00011567  0.49925127  1
  I  I74  1  0.83923970  -0.00350197  0.84091522  1
  I  I75  1  0.83045410  0.33464918  0.16994973  1
  I  I76  1  0.83025949  0.33707567  0.49552327  1
  I  I77  1  0.83526792  0.33340726  0.83521254  1
  I  I78  1  0.82902596  0.66649727  0.16536083  1
  I  I79  1  0.83149431  0.66273883  0.49496726  1
  I  I80  1  0.83868420  0.66999281  0.83932121  1
  I  I81  1  0.16958324  0.16660382  -0.00349303  1
  I  I82  1  0.16491632  0.16920832  0.33581892  1
  I  I83  1  0.16956978  0.16747763  0.66870664  1
  I  I84  1  0.16630694  0.49660759  -0.00383866  1
  I  I85  1  0.16636740  0.49738780  0.33341525  1
  I  I86  1  0.16628499  0.50109639  0.67018917  1
  I  I87  1  0.16466076  0.83633576  -0.00364775  1
  I  I88  1  0.16569016  0.83482875  0.33338387  1
  I  I89  1  0.16084289  0.83045870  0.67148061  1
  I  I90  1  0.49208533  0.16854358  -0.00268951  1
  I  I91  1  0.49796701  0.16496699  0.33324572  1
  I  I92  1  0.49811636  0.16722375  0.67012737  1
  I  I93  1  0.50408845  0.50263045  0.00314141  1
  I  I94  1  0.50416913  0.50257412  0.33224654  1
  I  I95  1  0.50336000  0.49706229  0.66441326  1
  I  I96  1  0.50206501  0.82638300  0.00304151  1
  I  I97  1  0.50803310  0.83450012  0.32839380  1
  I  I98  1  0.49974460  0.83251241  0.66676080  1
  I  I99  1  0.83510906  0.17170923  0.00277398  1
  I  I100  1  0.83405178  0.16148714  0.32926687  1
  I  I101  1  0.83221342  0.16701873  0.66659531  1
  I  I102  1  0.83028598  0.49885039  0.00322807  1
  I  I103  1  0.83050435  0.50085123  0.33184559  1
  I  I104  1  0.83054029  0.50098332  0.66430778  1
  I  I105  1  0.83458456  0.83120068  0.00115100  1
  I  I106  1  0.82905131  0.83559113  0.32955216  1
  I  I107  1  0.83937796  0.83250515  0.66942480  1
  I  I108  1  -0.00388678  0.16731171  0.16380892  1
  I  I109  1  0.00299881  0.16911220  0.50863631  1
  I  I110  1  0.00291188  0.16809599  0.83128279  1
  I  I111  1  -0.00342390  0.50087638  0.16996315  1
  I  I112  1  -0.00249674  0.49925400  0.49553579  1
  I  I113  1  0.00303503  0.49487652  0.83329858  1
  I  I114  1  -0.00341359  0.83277558  0.16394175  1
  I  I115  1  -0.00005816  0.83005997  0.49558287  1
  I  I116  1  0.00021922  0.83467961  0.83984306  1
  I  I117  1  0.33344740  0.16697277  0.16691425  1
  I  I118  1  0.33029820  0.16935446  0.50227347  1
  I  I119  1  0.33167936  0.16540158  0.83137240  1
  I  I120  1  0.33673397  0.50444314  0.17005163  1
  I  I121  1  0.33594470  0.49841665  0.49579019  1
  I  I122  1  0.33011184  0.50333206  0.83300156  1
  I  I123  1  0.33648593  0.82803035  0.16492694  1
  I  I124  1  0.33337689  0.82992384  0.49990304  1
  I  I125  1  0.33066556  0.83245323  0.83489825  1
  I  I126  1  0.67002162  0.16717968  0.16340584  1
  I  I127  1  0.66677138  0.16598066  0.50191772  1
  I  I128  1  0.66464207  0.16689529  0.83709591  1
  I  I129  1  0.66740578  0.50044287  0.16935555  1
  I  I130  1  0.66684056  0.49928440  0.49614329  1
  I  I131  1  0.66669966  0.49905162  0.83297046  1
  I  I132  1  0.66809525  0.83144039  0.15919523  1
  I  I133  1  0.66668367  0.83701599  0.50699763  1
  I  I134  1  0.66935166  0.83372455  0.83775582  1
