# generated using pymatgen
data_Cs27Sn13Pb14I81
_symmetry_space_group_name_H-M   'P 1'
_cell_length_a   18.97294108
_cell_length_b   18.97922304
_cell_length_c   18.97957016
_cell_angle_alpha   89.99813184
_cell_angle_beta   89.99901807
_cell_angle_gamma   89.99931601
_symmetry_Int_Tables_number   1
_chemical_formula_structural   Cs27Sn13Pb14I81
_chemical_formula_sum   'Cs27 Sn13 Pb14 I81'
_cell_volume   6834.38531180
_cell_formula_units_Z   1
loop_
 _symmetry_equiv_pos_site_id
 _symmetry_equiv_pos_as_xyz
  1  'x, y, z'
loop_
 _atom_site_type_symbol
 _atom_site_label
 _atom_site_symmetry_multiplicity
 _atom_site_fract_x
 _atom_site_fract_y
 _atom_site_fract_z
 _atom_site_occupancy
  Cs  Cs0  1  0.00082929  0.00047462  0.00153547  1
  Cs  Cs1  1  -0.00127048  -0.00062427  0.33175477  1
  Cs  Cs2  1  0.00002285  0.00030662  0.66504977  1
  Cs  Cs3  1  -0.00176182  0.33078380  -0.00090531  1
  Cs  Cs4  1  0.00366136  0.33182801  0.33409481  1
  Cs  Cs5  1  0.00119542  0.33225808  0.66762447  1
  Cs  Cs6  1  -0.00150045  0.66894835  -0.00058031  1
  Cs  Cs7  1  0.00156439  0.66808207  0.33267960  1
  Cs  Cs8  1  -0.00023034  0.66738421  0.66945468  1
  Cs  Cs9  1  0.33611274  -0.00117409  -0.00372782  1
  Cs  Cs10  1  0.33800658  0.00088767  0.33457548  1
  Cs  Cs11  1  0.34027154  -0.00123377  0.67008681  1
  Cs  Cs12  1  0.33436564  0.33305236  0.00206150  1
  Cs  Cs13  1  0.33058990  0.33647030  0.33357892  1
  Cs  Cs14  1  0.33231726  0.33300094  0.66476936  1
  Cs  Cs15  1  0.33455367  0.66854054  0.00070086  1
  Cs  Cs16  1  0.33185247  0.66280445  0.32973493  1
  Cs  Cs17  1  0.33257424  0.66793135  0.66965569  1
  Cs  Cs18  1  0.66455785  0.00276101  0.00076619  1
  Cs  Cs19  1  0.66253909  -0.00217114  0.34107134  1
  Cs  Cs20  1  0.66061392  -0.00029238  0.65812443  1
  Cs  Cs21  1  0.66844364  0.33170815  -0.00092252  1
  Cs  Cs22  1  0.66552120  0.33321124  0.33284830  1
  Cs  Cs23  1  0.66540977  0.33736442  0.66769066  1
  Cs  Cs24  1  0.67048548  0.66592293  0.00198975  1
  Cs  Cs25  1  0.66579704  0.66778821  0.33502007  1
  Cs  Cs26  1  0.66734567  0.66207258  0.66340948  1
  Sn  Sn27  1  0.16598431  0.16560678  0.16573998  1
  Sn  Sn28  1  0.16755741  0.49923019  0.83382129  1
  Sn  Sn29  1  0.49874076  0.49998640  0.83319456  1
  Sn  Sn30  1  0.83328114  0.83517423  0.83355072  1
  Sn  Sn31  1  0.83354083  0.49969541  0.49877309  1
  Sn  Sn32  1  0.16647960  0.83364333  0.49912017  1
  Sn  Sn33  1  0.83379364  0.49976903  0.16800892  1
  Sn  Sn34  1  0.83383485  0.16609989  0.16626600  1
  Sn  Sn35  1  0.50020800  0.50005295  0.50053639  1
  Sn  Sn36  1  0.83373187  0.83407361  0.16598964  1
  Sn  Sn37  1  0.83386444  0.16492340  0.83350576  1
  Sn  Sn38  1  0.16602675  0.83449733  0.16750090  1
  Sn  Sn39  1  0.16584059  0.16727309  0.83419340  1
  Pb  Pb40  1  0.16646447  0.50176553  0.50224077  1
  Pb  Pb41  1  0.50271577  0.49996489  0.16648372  1
  Pb  Pb42  1  0.49977001  0.16976270  0.49997190  1
  Pb  Pb43  1  0.83471811  0.83133833  0.49974286  1
  Pb  Pb44  1  0.16659750  0.16403393  0.50005503  1
  Pb  Pb45  1  0.83346533  0.16910338  0.49991958  1
  Pb  Pb46  1  0.16433850  0.49992634  0.16419787  1
  Pb  Pb47  1  0.16517493  0.83415870  0.83403898  1
  Pb  Pb48  1  0.50011496  0.83346102  0.16651782  1
  Pb  Pb49  1  0.49984917  0.16660581  0.16658096  1
  Pb  Pb50  1  0.83355631  0.49961564  0.83360802  1
  Pb  Pb51  1  0.50025333  0.16881025  0.83340893  1
  Pb  Pb52  1  0.49670920  0.83037953  0.49992191  1
  Pb  Pb53  1  0.50403042  0.83059875  0.83349020  1
  I  I54  1  0.15756527  0.00018604  0.16513374  1
  I  I55  1  0.16326129  -0.00368331  0.50016466  1
  I  I56  1  0.16282675  0.00295493  0.83428776  1
  I  I57  1  0.16219057  0.33060857  0.16398897  1
  I  I58  1  0.16765184  0.33348987  0.49831742  1
  I  I59  1  0.16356927  0.33263535  0.83736863  1
  I  I60  1  0.16218001  0.66915876  0.16876804  1
  I  I61  1  0.16564718  0.66941530  0.49500181  1
  I  I62  1  0.16772807  0.66490414  0.83247662  1
  I  I63  1  0.50394818  0.00003042  0.16679783  1
  I  I64  1  0.50006086  -0.00042810  0.49976444  1
  I  I65  1  0.49708342  0.00000774  0.83346245  1
  I  I66  1  0.50027399  0.33355023  0.16745651  1
  I  I67  1  0.50380184  0.33797840  0.50453699  1
  I  I68  1  0.50183349  0.33690682  0.82902953  1
  I  I69  1  0.49974362  0.66645190  0.16600936  1
  I  I70  1  0.50573249  0.66273934  0.50470286  1
  I  I71  1  0.49457134  0.66255165  0.82953075  1
  I  I72  1  0.83912349  0.00000587  0.16004787  1
  I  I73  1  0.83455806  -0.00013023  0.49898762  1
  I  I74  1  0.84078286  0.00075090  0.84157881  1
  I  I75  1  0.83638443  0.33272251  0.16519710  1
  I  I76  1  0.83029251  0.33737423  0.49757868  1
  I  I77  1  0.83428155  0.33102753  0.83666610  1
  I  I78  1  0.83660956  0.66726133  0.16492310  1
  I  I79  1  0.83052531  0.66329270  0.49788353  1
  I  I80  1  0.83405392  0.66824744  0.83669484  1
  I  I81  1  0.16153298  0.16590196  0.00003578  1
  I  I82  1  0.16111675  0.16559121  0.32975681  1
  I  I83  1  0.16185330  0.17037170  0.67019415  1
  I  I84  1  0.16997593  0.50103745  -0.00371324  1
  I  I85  1  0.16893168  0.49808409  0.33303817  1
  I  I86  1  0.16448354  0.49693172  0.67019664  1
  I  I87  1  0.16310026  0.83316666  0.00289805  1
  I  I88  1  0.15980658  0.83632304  0.33143338  1
  I  I89  1  0.16405011  0.83049308  0.66542077  1
  I  I90  1  0.50078008  0.17103961  -0.00014460  1
  I  I91  1  0.50036767  0.16918543  0.33317169  1
  I  I92  1  0.50004018  0.16562059  0.66700559  1
  I  I93  1  0.49761866  0.49946186  -0.00292089  1
  I  I94  1  0.50295022  0.50060018  0.33610956  1
  I  I95  1  0.50410618  0.49997042  0.66684165  1
  I  I96  1  0.49533535  0.82941404  -0.00019967  1
  I  I97  1  0.50445506  0.83056158  0.33337927  1
  I  I98  1  0.49894872  0.83427432  0.66675457  1
  I  I99  1  0.83724543  0.16929010  0.00034380  1
  I  I100  1  0.83823646  0.16524317  0.32955639  1
  I  I101  1  0.83824899  0.16483214  0.67016333  1
  I  I102  1  0.83386634  0.50072370  0.00234020  1
  I  I103  1  0.82815560  0.50077214  0.33267467  1
  I  I104  1  0.83217931  0.50098856  0.66511779  1
  I  I105  1  0.83934876  0.82958472  0.00110647  1
  I  I106  1  0.83592197  0.83464386  0.32995024  1
  I  I107  1  0.83653326  0.83417569  0.66916637  1
  I  I108  1  -0.00067238  0.16659483  0.16201949  1
  I  I109  1  0.00001255  0.17132434  0.50155190  1
  I  I110  1  -0.00011284  0.17048887  0.83737603  1
  I  I111  1  -0.00389613  0.50061441  0.17033759  1
  I  I112  1  -0.00252036  0.50142898  0.49784357  1
  I  I113  1  0.00191702  0.49932439  0.83317036  1
  I  I114  1  -0.00080673  0.83307341  0.16671223  1
  I  I115  1  0.00239467  0.82935290  0.49866084  1
  I  I116  1  -0.00282295  0.82962873  0.83471596  1
  I  I117  1  0.32923983  0.16227832  0.16199985  1
  I  I118  1  0.33288111  0.16849749  0.49946188  1
  I  I119  1  0.32991673  0.16892181  0.83760304  1
  I  I120  1  0.33293982  0.49993366  0.16868203  1
  I  I121  1  0.33562854  0.50187154  0.50365765  1
  I  I122  1  0.33269562  0.49532065  0.82745317  1
  I  I123  1  0.32945146  0.83687783  0.17034579  1
  I  I124  1  0.32895635  0.83174165  0.49467561  1
  I  I125  1  0.33332580  0.83443251  0.83314283  1
  I  I126  1  0.67083444  0.16790608  0.16124783  1
  I  I127  1  0.66699481  0.16429461  0.49978599  1
  I  I128  1  0.67028917  0.16581437  0.83905096  1
  I  I129  1  0.67133983  0.50028394  0.16482842  1
  I  I130  1  0.66725466  0.50072997  0.50331944  1
  I  I131  1  0.66516210  0.50088219  0.83172292  1
  I  I132  1  0.67087089  0.83232956  0.16180199  1
  I  I133  1  0.66663382  0.83333557  0.50019995  1
  I  I134  1  0.67211149  0.83678738  0.84007898  1
