# generated using pymatgen
data_Cs27Sn14Pb13I81
_symmetry_space_group_name_H-M   'P 1'
_cell_length_a   18.97776375
_cell_length_b   18.98219132
_cell_length_c   18.96686712
_cell_angle_alpha   89.99893726
_cell_angle_beta   89.99946603
_cell_angle_gamma   90.00112091
_symmetry_Int_Tables_number   1
_chemical_formula_structural   Cs27Sn14Pb13I81
_chemical_formula_sum   'Cs27 Sn14 Pb13 I81'
_cell_volume   6832.61552579
_cell_formula_units_Z   1
loop_
 _symmetry_equiv_pos_site_id
 _symmetry_equiv_pos_as_xyz
  1  'x, y, z'
loop_
 _atom_site_type_symbol
 _atom_site_label
 _atom_site_symmetry_multiplicity
 _atom_site_fract_x
 _atom_site_fract_y
 _atom_site_fract_z
 _atom_site_occupancy
  Cs  Cs0  1  0.00030241  -0.00125710  -0.00042385  1
  Cs  Cs1  1  0.00368946  0.00108987  0.32896730  1
  Cs  Cs2  1  0.00054642  -0.00035919  0.66768424  1
  Cs  Cs3  1  -0.00082761  0.33297697  -0.00008918  1
  Cs  Cs4  1  0.00101778  0.33799403  0.33594425  1
  Cs  Cs5  1  -0.00068307  0.33243882  0.66590808  1
  Cs  Cs6  1  0.00018872  0.66873352  -0.00011068  1
  Cs  Cs7  1  -0.00030237  0.66150906  0.33699631  1
  Cs  Cs8  1  -0.00568255  0.66699634  0.66185315  1
  Cs  Cs9  1  0.32992282  -0.00072874  -0.00212221  1
  Cs  Cs10  1  0.33480629  -0.00489149  0.33538020  1
  Cs  Cs11  1  0.33266021  0.00244035  0.66677521  1
  Cs  Cs12  1  0.33356477  0.33792638  -0.00129421  1
  Cs  Cs13  1  0.33054629  0.33821256  0.33383474  1
  Cs  Cs14  1  0.33730521  0.33051009  0.66812771  1
  Cs  Cs15  1  0.33311155  0.66350774  0.00062629  1
  Cs  Cs16  1  0.33411061  0.66865350  0.33164377  1
  Cs  Cs17  1  0.33562338  0.66934173  0.66839013  1
  Cs  Cs18  1  0.66830456  0.00171655  0.00245017  1
  Cs  Cs19  1  0.66125074  0.00240298  0.32928675  1
  Cs  Cs20  1  0.66677595  0.00021310  0.66809280  1
  Cs  Cs21  1  0.66675295  0.33320865  0.00163409  1
  Cs  Cs22  1  0.66829345  0.32913610  0.33494837  1
  Cs  Cs23  1  0.66503424  0.33371726  0.66691188  1
  Cs  Cs24  1  0.66705598  0.66503022  -0.00068995  1
  Cs  Cs25  1  0.66631358  0.67165987  0.33764053  1
  Cs  Cs26  1  0.67059641  0.66733235  0.66406263  1
  Sn  Sn27  1  0.83333722  0.16747593  0.83276050  1
  Sn  Sn28  1  0.16697515  0.16639663  0.16583046  1
  Sn  Sn29  1  0.50017714  0.16581138  0.83327378  1
  Sn  Sn30  1  0.83412116  0.83232503  0.16647969  1
  Sn  Sn31  1  0.83411642  0.49918548  0.83409782  1
  Sn  Sn32  1  0.49984457  0.49927346  0.50003101  1
  Sn  Sn33  1  0.16723573  0.83311912  0.83366470  1
  Sn  Sn34  1  0.83308459  0.50098274  0.16602717  1
  Sn  Sn35  1  0.49962021  0.83422645  0.83372064  1
  Sn  Sn36  1  0.83288229  0.16619239  0.50076863  1
  Sn  Sn37  1  0.16560293  0.50012147  0.83308130  1
  Sn  Sn38  1  0.50076484  0.16767999  0.50069568  1
  Sn  Sn39  1  0.16559750  0.83379994  0.16565981  1
  Sn  Sn40  1  0.16656770  0.16685971  0.83418662  1
  Pb  Pb41  1  0.83357506  0.83353096  0.83461334  1
  Pb  Pb42  1  0.83160687  0.49792222  0.50035288  1
  Pb  Pb43  1  0.16639718  0.83322472  0.50010852  1
  Pb  Pb44  1  0.49948623  0.83339932  0.16371557  1
  Pb  Pb45  1  0.50057282  0.49994532  0.83222181  1
  Pb  Pb46  1  0.50002148  0.83421778  0.50283512  1
  Pb  Pb47  1  0.50317991  0.49990499  0.16965225  1
  Pb  Pb48  1  0.83345219  0.83705552  0.49636211  1
  Pb  Pb49  1  0.83533022  0.16677841  0.16654659  1
  Pb  Pb50  1  0.16486309  0.50035874  0.16464253  1
  Pb  Pb51  1  0.16933108  0.50000561  0.50348327  1
  Pb  Pb52  1  0.49661321  0.16684452  0.16647875  1
  Pb  Pb53  1  0.16704413  0.16661613  0.50013805  1
  I  I54  1  0.15998995  -0.00039841  0.15841398  1
  I  I55  1  0.16857483  0.00023017  0.50343761  1
  I  I56  1  0.16739760  0.00066030  0.83692710  1
  I  I57  1  0.16564447  0.33096070  0.16229788  1
  I  I58  1  0.16460095  0.33315494  0.49778310  1
  I  I59  1  0.16673054  0.33223705  0.83710017  1
  I  I60  1  0.16495890  0.66962383  0.16131884  1
  I  I61  1  0.16881498  0.66645396  0.49994834  1
  I  I62  1  0.16857123  0.66724399  0.83764463  1
  I  I63  1  0.50587654  0.00016406  0.17152907  1
  I  I64  1  0.50353422  0.00360951  0.50215003  1
  I  I65  1  0.49689014  0.00154330  0.82781876  1
  I  I66  1  0.49966048  0.33318289  0.16110593  1
  I  I67  1  0.50368555  0.33146716  0.50761450  1
  I  I68  1  0.49746487  0.33032437  0.83077340  1
  I  I69  1  0.49557798  0.66671844  0.16633512  1
  I  I70  1  0.49990579  0.66444425  0.50174465  1
  I  I71  1  0.49614990  0.66881653  0.83236516  1
  I  I72  1  0.83608637  -0.00195937  0.16635879  1
  I  I73  1  0.82715013  0.00476261  0.50754817  1
  I  I74  1  0.83493696  0.00303289  0.83117583  1
  I  I75  1  0.83477512  0.33527886  0.16510862  1
  I  I76  1  0.83145240  0.33004647  0.49966832  1
  I  I77  1  0.83605890  0.33264390  0.83537503  1
  I  I78  1  0.83866564  0.66652545  0.15975052  1
  I  I79  1  0.83106988  0.66660574  0.50245186  1
  I  I80  1  0.83550338  0.66420635  0.83590742  1
  I  I81  1  0.16570104  0.16527822  -0.00219392  1
  I  I82  1  0.16554125  0.16115131  0.33038041  1
  I  I83  1  0.16682279  0.16593614  0.67047302  1
  I  I84  1  0.16672263  0.49896077  -0.00380190  1
  I  I85  1  0.16573376  0.49935688  0.33317588  1
  I  I86  1  0.15932400  0.49854699  0.67193442  1
  I  I87  1  0.16664079  0.83553649  -0.00120859  1
  I  I88  1  0.16297505  0.83955024  0.32947372  1
  I  I89  1  0.17151609  0.83567919  0.67091423  1
  I  I90  1  0.50345320  0.16240682  -0.00374623  1
  I  I91  1  0.50521595  0.17062686  0.33640904  1
  I  I92  1  0.49843508  0.16682346  0.66823909  1
  I  I93  1  0.49862300  0.49984410  -0.00031820  1
  I  I94  1  0.50080723  0.49209995  0.33751112  1
  I  I95  1  0.50133559  0.49745542  0.66463762  1
  I  I96  1  0.49818800  0.83979299  -0.00425554  1
  I  I97  1  0.49964768  0.83331921  0.33331968  1
  I  I98  1  0.49355574  0.83513033  0.67088738  1
  I  I99  1  0.83110774  0.16769641  -0.00317347  1
  I  I100  1  0.82931193  0.16612517  0.33550348  1
  I  I101  1  0.83469220  0.17236981  0.66885593  1
  I  I102  1  0.83653502  0.49710008  -0.00141776  1
  I  I103  1  0.83204080  0.50229856  0.33090713  1
  I  I104  1  0.83619552  0.49786153  0.66983925  1
  I  I105  1  0.83496648  0.83481792  0.00244488  1
  I  I106  1  0.83992042  0.82709931  0.32846702  1
  I  I107  1  0.83318208  0.83033344  0.66683267  1
  I  I108  1  0.00297730  0.16476418  0.16170154  1
  I  I109  1  -0.00258501  0.16663367  0.50379546  1
  I  I110  1  0.00011159  0.16697671  0.83323658  1
  I  I111  1  -0.00310236  0.50009321  0.16529477  1
  I  I112  1  -0.00029421  0.49850937  0.49835516  1
  I  I113  1  -0.00035803  0.49621512  0.83715806  1
  I  I114  1  0.00096466  0.83494554  0.15907939  1
  I  I115  1  -0.00028863  0.83457588  0.50623222  1
  I  I116  1  0.00285541  0.83631576  0.83628791  1
  I  I117  1  0.32871358  0.16004890  0.16223101  1
  I  I118  1  0.33644825  0.16986299  0.50445475  1
  I  I119  1  0.33303395  0.16590946  0.83268854  1
  I  I120  1  0.33306719  0.50022444  0.16619291  1
  I  I121  1  0.33696783  0.49154520  0.50185761  1
  I  I122  1  0.33095066  0.49771140  0.83149435  1
  I  I123  1  0.32976755  0.83855974  0.16500417  1
  I  I124  1  0.33345574  0.83498176  0.49577748  1
  I  I125  1  0.33208933  0.83596117  0.83755866  1
  I  I126  1  0.66680307  0.16622453  0.16470757  1
  I  I127  1  0.66631082  0.17063648  0.50796100  1
  I  I128  1  0.66686984  0.16668690  0.82844757  1
  I  I129  1  0.67125512  0.50437926  0.15765238  1
  I  I130  1  0.66397973  0.49691939  0.50320398  1
  I  I131  1  0.66960767  0.49696820  0.83550537  1
  I  I132  1  0.66941976  0.82948834  0.16551518  1
  I  I133  1  0.66674397  0.83078245  0.50078219  1
  I  I134  1  0.66463743  0.83653692  0.83422381  1
