# generated using pymatgen
data_Cs27Sn14Pb13I81
_symmetry_space_group_name_H-M   'P 1'
_cell_length_a   18.98424227
_cell_length_b   18.96442161
_cell_length_c   18.97626231
_cell_angle_alpha   89.99987477
_cell_angle_beta   89.99960707
_cell_angle_gamma   89.99979115
_symmetry_Int_Tables_number   1
_chemical_formula_structural   Cs27Sn14Pb13I81
_chemical_formula_sum   'Cs27 Sn14 Pb13 I81'
_cell_volume   6831.93214491
_cell_formula_units_Z   1
loop_
 _symmetry_equiv_pos_site_id
 _symmetry_equiv_pos_as_xyz
  1  'x, y, z'
loop_
 _atom_site_type_symbol
 _atom_site_label
 _atom_site_symmetry_multiplicity
 _atom_site_fract_x
 _atom_site_fract_y
 _atom_site_fract_z
 _atom_site_occupancy
  Cs  Cs0  1  0.00132489  0.00161555  0.00119803  1
  Cs  Cs1  1  0.00198533  0.00252283  0.33171539  1
  Cs  Cs2  1  -0.00311174  -0.00156712  0.66737578  1
  Cs  Cs3  1  0.00283585  0.32171679  0.00165416  1
  Cs  Cs4  1  0.00097624  0.33213406  0.33235241  1
  Cs  Cs5  1  0.00139224  0.33457185  0.66648598  1
  Cs  Cs6  1  -0.00119463  0.66852745  -0.00194638  1
  Cs  Cs7  1  0.00097664  0.66626133  0.33508333  1
  Cs  Cs8  1  -0.00147178  0.66649495  0.66639398  1
  Cs  Cs9  1  0.33284729  -0.00008997  0.00334287  1
  Cs  Cs10  1  0.33440643  -0.00108023  0.33368785  1
  Cs  Cs11  1  0.33892875  -0.00108435  0.66127816  1
  Cs  Cs12  1  0.33324912  0.33300309  -0.00929061  1
  Cs  Cs13  1  0.32979303  0.33537492  0.33331236  1
  Cs  Cs14  1  0.33360252  0.33424747  0.67356879  1
  Cs  Cs15  1  0.33402475  0.66603817  -0.00039330  1
  Cs  Cs16  1  0.33131370  0.66694367  0.33554622  1
  Cs  Cs17  1  0.33149484  0.66631544  0.66467350  1
  Cs  Cs18  1  0.66547534  -0.00368573  -0.00120020  1
  Cs  Cs19  1  0.66300100  0.00200872  0.33517510  1
  Cs  Cs20  1  0.66488502  0.00718007  0.66551972  1
  Cs  Cs21  1  0.66396649  0.33429897  0.00261001  1
  Cs  Cs22  1  0.66936377  0.33548385  0.33195336  1
  Cs  Cs23  1  0.66516342  0.32473469  0.66571102  1
  Cs  Cs24  1  0.66654717  0.66755747  0.00106106  1
  Cs  Cs25  1  0.66778950  0.66411690  0.33191756  1
  Cs  Cs26  1  0.67219798  0.66801051  0.66678068  1
  Sn  Sn27  1  0.83321052  0.83278218  0.83324868  1
  Sn  Sn28  1  0.83344042  0.83300632  0.16696933  1
  Sn  Sn29  1  0.49974168  0.16672167  0.16674973  1
  Sn  Sn30  1  0.16679669  0.83310247  0.83390371  1
  Sn  Sn31  1  0.83305606  0.50070420  0.50091623  1
  Sn  Sn32  1  0.16667223  0.16755559  0.50024355  1
  Sn  Sn33  1  0.50001644  0.83273957  0.83360603  1
  Sn  Sn34  1  0.50026134  0.50027620  0.50020721  1
  Sn  Sn35  1  0.16669385  0.49905809  0.49951612  1
  Sn  Sn36  1  0.49989664  0.83365345  0.16625878  1
  Sn  Sn37  1  0.83363114  0.50018510  0.83307141  1
  Sn  Sn38  1  0.83318909  0.83305337  0.49977225  1
  Sn  Sn39  1  0.16643625  0.50067299  0.16646169  1
  Sn  Sn40  1  0.16660502  0.83230600  0.16597413  1
  Pb  Pb41  1  0.83066061  0.16366476  0.16678752  1
  Pb  Pb42  1  0.16869751  0.16645374  0.16800973  1
  Pb  Pb43  1  0.83590843  0.50166905  0.16623564  1
  Pb  Pb44  1  0.49755129  0.50065263  0.16797262  1
  Pb  Pb45  1  0.50275613  0.83155498  0.49972195  1
  Pb  Pb46  1  0.49994536  0.16395051  0.83588390  1
  Pb  Pb47  1  0.83530695  0.16734771  0.49985023  1
  Pb  Pb48  1  0.49766380  0.16977598  0.49777581  1
  Pb  Pb49  1  0.16472954  0.83283353  0.49989204  1
  Pb  Pb50  1  0.16437538  0.50190628  0.83347590  1
  Pb  Pb51  1  0.16675127  0.16302595  0.83035179  1
  Pb  Pb52  1  0.83334122  0.16679560  0.83345907  1
  Pb  Pb53  1  0.50282149  0.50254137  0.83090467  1
  I  I54  1  0.16449180  -0.00362562  0.16470498  1
  I  I55  1  0.16450139  0.00131173  0.49986476  1
  I  I56  1  0.16273953  -0.00528431  0.83926405  1
  I  I57  1  0.16730544  0.33600621  0.17091454  1
  I  I58  1  0.16413042  0.33567821  0.49267765  1
  I  I59  1  0.16444668  0.33348658  0.83640828  1
  I  I60  1  0.16875121  0.66822201  0.17031278  1
  I  I61  1  0.16752330  0.66390458  0.49837112  1
  I  I62  1  0.16756738  0.67037548  0.83260838  1
  I  I63  1  0.49834000  -0.00275103  0.16372364  1
  I  I64  1  0.49956560  -0.00020560  0.50201066  1
  I  I65  1  0.50320678  -0.00478625  0.83267353  1
  I  I66  1  0.49807118  0.33152458  0.17129840  1
  I  I67  1  0.50608188  0.33757710  0.49722241  1
  I  I68  1  0.50145528  0.33364406  0.83442696  1
  I  I69  1  0.50190793  0.67026970  0.16380635  1
  I  I70  1  0.49413196  0.66389138  0.49725458  1
  I  I71  1  0.49856478  0.67074005  0.84126956  1
  I  I72  1  0.83991919  -0.00549658  0.16597921  1
  I  I73  1  0.83549097  -0.00318543  0.50101074  1
  I  I74  1  0.83341560  -0.00455819  0.83262203  1
  I  I75  1  0.83335458  0.33356159  0.16721017  1
  I  I76  1  0.83163875  0.33732880  0.50486926  1
  I  I77  1  0.83429252  0.33679651  0.82595162  1
  I  I78  1  0.82842179  0.67049311  0.16686964  1
  I  I79  1  0.83605012  0.66649724  0.50075203  1
  I  I80  1  0.83358610  0.66868173  0.83142352  1
  I  I81  1  0.16751506  0.16935716  0.00001070  1
  I  I82  1  0.16689228  0.16617801  0.33589343  1
  I  I83  1  0.16637547  0.17341895  0.66271884  1
  I  I84  1  0.16623277  0.50428528  0.00250455  1
  I  I85  1  0.16506622  0.50292709  0.33430662  1
  I  I86  1  0.16762405  0.49821346  0.66364003  1
  I  I87  1  0.16297102  0.82839251  0.00117283  1
  I  I88  1  0.16692454  0.83258543  0.33065461  1
  I  I89  1  0.16609892  0.83354596  0.66900014  1
  I  I90  1  0.49824321  0.16539253  0.00372400  1
  I  I91  1  0.49924277  0.15636353  0.33046356  1
  I  I92  1  0.49944557  0.16524460  0.66648363  1
  I  I93  1  0.49996470  0.49781046  -0.00011716  1
  I  I94  1  0.50438690  0.50296313  0.33606983  1
  I  I95  1  0.49366906  0.50244110  0.66295169  1
  I  I96  1  0.50391037  0.83637779  0.00072325  1
  I  I97  1  0.49909847  0.83574195  0.33030252  1
  I  I98  1  0.49874588  0.83013784  0.66910376  1
  I  I99  1  0.83519390  0.16812961  0.00020637  1
  I  I100  1  0.83352076  0.16548123  0.33334575  1
  I  I101  1  0.83295699  0.16039410  0.66649051  1
  I  I102  1  0.83400245  0.50687555  -0.00257254  1
  I  I103  1  0.83225915  0.50488649  0.33630654  1
  I  I104  1  0.83622932  0.51025732  0.66529967  1
  I  I105  1  0.83295423  0.82953450  -0.00026426  1
  I  I106  1  0.83400085  0.82901320  0.33323382  1
  I  I107  1  0.83521781  0.82869573  0.66699862  1
  I  I108  1  0.00033116  0.16596494  0.16773094  1
  I  I109  1  0.00301001  0.17104312  0.49763539  1
  I  I110  1  0.00020535  0.16346751  0.83437478  1
  I  I111  1  0.00364182  0.50650869  0.17338063  1
  I  I112  1  -0.00010983  0.50098685  0.49990141  1
  I  I113  1  -0.00322962  0.50927973  0.82659904  1
  I  I114  1  0.00027705  0.82802200  0.16472303  1
  I  I115  1  -0.00320890  0.82834413  0.50040944  1
  I  I116  1  -0.00068167  0.82985560  0.83523399  1
  I  I117  1  0.33602230  0.15846912  0.16927078  1
  I  I118  1  0.33001445  0.16934202  0.49867156  1
  I  I119  1  0.33329759  0.16657288  0.83265563  1
  I  I120  1  0.32975007  0.50659275  0.17379856  1
  I  I121  1  0.33218669  0.49698435  0.49427749  1
  I  I122  1  0.33319279  0.50200755  0.83195374  1
  I  I123  1  0.33307801  0.83358007  0.16050458  1
  I  I124  1  0.33334401  0.83256408  0.50070171  1
  I  I125  1  0.33327963  0.83401704  0.84063307  1
  I  I126  1  0.66285991  0.16174145  0.16767112  1
  I  I127  1  0.66640723  0.16657384  0.49934142  1
  I  I128  1  0.66652315  0.16429802  0.83208954  1
  I  I129  1  0.66682166  0.50043175  0.16865529  1
  I  I130  1  0.66792536  0.50689665  0.50290123  1
  I  I131  1  0.67065706  0.50773092  0.82913309  1
  I  I132  1  0.66671066  0.83757845  0.16413504  1
  I  I133  1  0.67074550  0.82751791  0.49957301  1
  I  I134  1  0.66733417  0.82924586  0.83710573  1
