# generated using pymatgen
data_Cs27Sn14Pb13I81
_symmetry_space_group_name_H-M   'P 1'
_cell_length_a   18.99661158
_cell_length_b   18.96965335
_cell_length_c   18.96416358
_cell_angle_alpha   90.00041854
_cell_angle_beta   90.00021188
_cell_angle_gamma   89.99987089
_symmetry_Int_Tables_number   1
_chemical_formula_structural   Cs27Sn14Pb13I81
_chemical_formula_sum   'Cs27 Sn14 Pb13 I81'
_cell_volume   6833.90961155
_cell_formula_units_Z   1
loop_
 _symmetry_equiv_pos_site_id
 _symmetry_equiv_pos_as_xyz
  1  'x, y, z'
loop_
 _atom_site_type_symbol
 _atom_site_label
 _atom_site_symmetry_multiplicity
 _atom_site_fract_x
 _atom_site_fract_y
 _atom_site_fract_z
 _atom_site_occupancy
  Cs  Cs0  1  0.00073802  -0.00120342  0.00184264  1
  Cs  Cs1  1  0.00043749  -0.00159109  0.32883812  1
  Cs  Cs2  1  0.00228358  0.00229941  0.66766394  1
  Cs  Cs3  1  -0.00152638  0.33667817  0.00106978  1
  Cs  Cs4  1  0.00053873  0.33280838  0.33226716  1
  Cs  Cs5  1  0.00054931  0.33386594  0.66634281  1
  Cs  Cs6  1  0.00038169  0.66391052  -0.00056729  1
  Cs  Cs7  1  -0.00357692  0.66874714  0.33388130  1
  Cs  Cs8  1  0.00019582  0.66196389  0.66608958  1
  Cs  Cs9  1  0.33230411  -0.00146674  0.00021005  1
  Cs  Cs10  1  0.33160146  -0.00166383  0.32793636  1
  Cs  Cs11  1  0.33093789  0.00219252  0.66828114  1
  Cs  Cs12  1  0.33568915  0.33484581  0.00103114  1
  Cs  Cs13  1  0.33332209  0.33421514  0.33370493  1
  Cs  Cs14  1  0.33207067  0.33059440  0.66528559  1
  Cs  Cs15  1  0.33347563  0.66574322  -0.00002434  1
  Cs  Cs16  1  0.33638883  0.66659559  0.33506294  1
  Cs  Cs17  1  0.33188545  0.66746830  0.66494041  1
  Cs  Cs18  1  0.66705759  0.00002988  -0.00041078  1
  Cs  Cs19  1  0.66832609  -0.00784837  0.32844870  1
  Cs  Cs20  1  0.66743271  0.00187264  0.66801911  1
  Cs  Cs21  1  0.66543628  0.33455959  0.00102222  1
  Cs  Cs22  1  0.66597455  0.33285777  0.33113922  1
  Cs  Cs23  1  0.66746315  0.33033951  0.66684360  1
  Cs  Cs24  1  0.66563476  0.66309358  -0.00105704  1
  Cs  Cs25  1  0.66739949  0.67354891  0.34218734  1
  Cs  Cs26  1  0.66838682  0.66806490  0.66001452  1
  Sn  Sn27  1  0.50039687  0.50013727  0.16653035  1
  Sn  Sn28  1  0.83354317  0.16608307  0.83293993  1
  Sn  Sn29  1  0.83262157  0.50020884  0.16696007  1
  Sn  Sn30  1  0.16661240  0.16638009  0.83319119  1
  Sn  Sn31  1  0.50002599  0.83338718  0.83310133  1
  Sn  Sn32  1  0.16642671  0.83389585  0.83251092  1
  Sn  Sn33  1  0.16665396  0.16560882  0.50056229  1
  Sn  Sn34  1  0.49993421  0.49997848  0.83307112  1
  Sn  Sn35  1  0.83331193  0.16643154  0.50028509  1
  Sn  Sn36  1  0.50004090  0.16626421  0.50026536  1
  Sn  Sn37  1  0.16696971  0.50000248  0.16668236  1
  Sn  Sn38  1  0.16668638  0.83438407  0.50105277  1
  Sn  Sn39  1  0.49986600  0.16663227  0.83296094  1
  Sn  Sn40  1  0.83359721  0.83383175  0.83316027  1
  Pb  Pb41  1  0.16673432  0.16844083  0.16636479  1
  Pb  Pb42  1  0.83328028  0.49731520  0.49758740  1
  Pb  Pb43  1  0.83589403  0.83620866  0.50277128  1
  Pb  Pb44  1  0.49772952  0.83661038  0.50269798  1
  Pb  Pb45  1  0.83326123  0.16798496  0.16628245  1
  Pb  Pb46  1  0.50004080  0.49780313  0.50054367  1
  Pb  Pb47  1  0.16669929  0.83092356  0.16636909  1
  Pb  Pb48  1  0.50000476  0.16811745  0.16647856  1
  Pb  Pb49  1  0.16663700  0.49988323  0.49773583  1
  Pb  Pb50  1  0.50004095  0.83058503  0.16417898  1
  Pb  Pb51  1  0.16879843  0.49979470  0.83456439  1
  Pb  Pb52  1  0.83093219  0.49972490  0.83423939  1
  Pb  Pb53  1  0.83328683  0.83080875  0.16373977  1
  I  I54  1  0.16631438  -0.00019497  0.16648993  1
  I  I55  1  0.16707079  0.00142357  0.50532510  1
  I  I56  1  0.17062950  0.00058625  0.83052857  1
  I  I57  1  0.16730594  0.33647703  0.16582300  1
  I  I58  1  0.16685569  0.32946733  0.50368410  1
  I  I59  1  0.16642607  0.32999652  0.83025875  1
  I  I60  1  0.16745688  0.66297731  0.16483483  1
  I  I61  1  0.16700306  0.66977146  0.50456378  1
  I  I62  1  0.16660163  0.66969921  0.83094988  1
  I  I63  1  0.49977582  -0.00020066  0.16622104  1
  I  I64  1  0.50243106  0.00462085  0.50667679  1
  I  I65  1  0.49989592  0.00068659  0.82817288  1
  I  I66  1  0.49979384  0.33652208  0.15982641  1
  I  I67  1  0.49657933  0.32945733  0.50588627  1
  I  I68  1  0.49990220  0.33223772  0.83452109  1
  I  I69  1  0.49857863  0.66215008  0.15991714  1
  I  I70  1  0.49785056  0.66718459  0.49992890  1
  I  I71  1  0.49898790  0.66688091  0.84084734  1
  I  I72  1  0.83386155  -0.00018644  0.16823381  1
  I  I73  1  0.83018013  0.00430364  0.50155009  1
  I  I74  1  0.82919553  0.00108553  0.83021695  1
  I  I75  1  0.83313081  0.33623849  0.16385136  1
  I  I76  1  0.83658895  0.32888984  0.50780163  1
  I  I77  1  0.83375580  0.32991546  0.83133205  1
  I  I78  1  0.83403508  0.66263419  0.16368245  1
  I  I79  1  0.83509380  0.66725027  0.50000946  1
  I  I80  1  0.83437915  0.66933561  0.83733714  1
  I  I81  1  0.16730468  0.16328402  -0.00386302  1
  I  I82  1  0.16665769  0.16402066  0.33687365  1
  I  I83  1  0.16729734  0.16426004  0.66759545  1
  I  I84  1  0.16553598  0.49942782  0.00259719  1
  I  I85  1  0.16980963  0.49851783  0.32963123  1
  I  I86  1  0.16853753  0.49985965  0.66669796  1
  I  I87  1  0.16732065  0.83709260  -0.00392060  1
  I  I88  1  0.16655997  0.83798630  0.33635400  1
  I  I89  1  0.16768857  0.83731850  0.66835282  1
  I  I90  1  0.50002830  0.16550361  -0.00411096  1
  I  I91  1  0.49870281  0.17086192  0.33650971  1
  I  I92  1  0.49960427  0.16959837  0.66849901  1
  I  I93  1  0.49964113  0.49749136  -0.00091747  1
  I  I94  1  0.49879590  0.49605432  0.33050009  1
  I  I95  1  0.49946200  0.50105778  0.67013515  1
  I  I96  1  0.49654403  0.83948347  -0.00482046  1
  I  I97  1  0.49807157  0.83281330  0.33385115  1
  I  I98  1  0.50247920  0.82684370  0.67119561  1
  I  I99  1  0.83278620  0.16443156  -0.00396747  1
  I  I100  1  0.83449510  0.17110282  0.33647126  1
  I  I101  1  0.83291459  0.16428205  0.66805978  1
  I  I102  1  0.83502129  0.49775761  0.00236393  1
  I  I103  1  0.83151891  0.49738504  0.32929068  1
  I  I104  1  0.83194697  0.50160866  0.66676058  1
  I  I105  1  0.83597566  0.84090260  -0.00469731  1
  I  I106  1  0.83521515  0.83350727  0.33373211  1
  I  I107  1  0.82954933  0.83312528  0.67093461  1
  I  I108  1  0.00007129  0.17231079  0.16599754  1
  I  I109  1  0.00054057  0.16462150  0.50638147  1
  I  I110  1  0.00022760  0.16068327  0.82816083  1
  I  I111  1  -0.00008115  0.49860384  0.16633098  1
  I  I112  1  0.00008679  0.49742478  0.49798348  1
  I  I113  1  -0.00002151  0.49992208  0.83691410  1
  I  I114  1  0.00010474  0.82929693  0.16406950  1
  I  I115  1  0.00355637  0.83790537  0.50501893  1
  I  I116  1  0.00061561  0.84029140  0.83087801  1
  I  I117  1  0.33328641  0.17126773  0.16640639  1
  I  I118  1  0.33290517  0.16513170  0.50688128  1
  I  I119  1  0.33339294  0.16543351  0.82846339  1
  I  I120  1  0.33409404  0.49895170  0.16158105  1
  I  I121  1  0.33331162  0.49723666  0.49681190  1
  I  I122  1  0.33671624  0.49900096  0.83980666  1
  I  I123  1  0.33324938  0.83049353  0.16436814  1
  I  I124  1  0.33002542  0.83762450  0.50551770  1
  I  I125  1  0.33308981  0.83562344  0.83061156  1
  I  I126  1  0.66664146  0.17171947  0.16628015  1
  I  I127  1  0.66656671  0.17094751  0.50781194  1
  I  I128  1  0.66636649  0.16532902  0.82845770  1
  I  I129  1  0.66587530  0.49732883  0.15946516  1
  I  I130  1  0.66657491  0.49866827  0.49768547  1
  I  I131  1  0.66300317  0.49863744  0.84023569  1
  I  I132  1  0.66667501  0.83140022  0.16596299  1
  I  I133  1  0.66674081  0.83301810  0.49993738  1
  I  I134  1  0.66640565  0.83639106  0.83651050  1
