# generated using pymatgen
data_Cs27Sn14Pb13I81
_symmetry_space_group_name_H-M   'P 1'
_cell_length_a   18.96758588
_cell_length_b   18.97241570
_cell_length_c   18.98639905
_cell_angle_alpha   89.99870037
_cell_angle_beta   90.00102074
_cell_angle_gamma   89.99532816
_symmetry_Int_Tables_number   1
_chemical_formula_structural   Cs27Sn14Pb13I81
_chemical_formula_sum   'Cs27 Sn14 Pb13 I81'
_cell_volume   6832.46308594
_cell_formula_units_Z   1
loop_
 _symmetry_equiv_pos_site_id
 _symmetry_equiv_pos_as_xyz
  1  'x, y, z'
loop_
 _atom_site_type_symbol
 _atom_site_label
 _atom_site_symmetry_multiplicity
 _atom_site_fract_x
 _atom_site_fract_y
 _atom_site_fract_z
 _atom_site_occupancy
  Cs  Cs0  1  0.00208707  0.00365028  0.00123726  1
  Cs  Cs1  1  0.00091394  0.00055793  0.33274079  1
  Cs  Cs2  1  -0.00176855  0.00187852  0.66608334  1
  Cs  Cs3  1  -0.00091888  0.33133751  -0.00228107  1
  Cs  Cs4  1  -0.00076833  0.32983729  0.33454392  1
  Cs  Cs5  1  -0.00090856  0.33398823  0.66752880  1
  Cs  Cs6  1  0.00184737  0.66630464  0.00238029  1
  Cs  Cs7  1  -0.00243494  0.67018701  0.32869628  1
  Cs  Cs8  1  -0.00053450  0.66383388  0.66711253  1
  Cs  Cs9  1  0.33310638  -0.00132943  0.00097704  1
  Cs  Cs10  1  0.33192978  -0.00223696  0.33338478  1
  Cs  Cs11  1  0.33597248  -0.00028064  0.66569017  1
  Cs  Cs12  1  0.33399511  0.33278086  0.00065620  1
  Cs  Cs13  1  0.34191151  0.33491418  0.34090384  1
  Cs  Cs14  1  0.33454375  0.33733366  0.65695562  1
  Cs  Cs15  1  0.32885602  0.66859534  -0.00004402  1
  Cs  Cs16  1  0.33442637  0.66950404  0.33435586  1
  Cs  Cs17  1  0.33199899  0.66419930  0.66555873  1
  Cs  Cs18  1  0.66333238  0.00033318  -0.00649574  1
  Cs  Cs19  1  0.66695963  -0.00145177  0.33436273  1
  Cs  Cs20  1  0.66669610  -0.00225080  0.67218605  1
  Cs  Cs21  1  0.66521287  0.33394683  0.00089832  1
  Cs  Cs22  1  0.66127382  0.33679089  0.33220409  1
  Cs  Cs23  1  0.66876548  0.33354717  0.66702015  1
  Cs  Cs24  1  0.66913783  0.66529112  -0.00106630  1
  Cs  Cs25  1  0.66778901  0.66482616  0.33065652  1
  Cs  Cs26  1  0.66851370  0.66827662  0.66964412  1
  Sn  Sn27  1  0.50027314  0.49974985  0.83353076  1
  Sn  Sn28  1  0.16654087  0.16746546  0.16646393  1
  Sn  Sn29  1  0.83333567  0.16744310  0.49997571  1
  Sn  Sn30  1  0.16623956  0.83427501  0.83311755  1
  Sn  Sn31  1  0.16660095  0.16626243  0.83347876  1
  Sn  Sn32  1  0.83344811  0.16652169  0.16639557  1
  Sn  Sn33  1  0.83374393  0.49942682  0.50018603  1
  Sn  Sn34  1  0.16722160  0.83356845  0.16664777  1
  Sn  Sn35  1  0.83413651  0.16755291  0.83353512  1
  Sn  Sn36  1  0.83268224  0.49917376  0.83295651  1
  Sn  Sn37  1  0.49968222  0.83343548  0.16700474  1
  Sn  Sn38  1  0.16693200  0.83343038  0.50016997  1
  Sn  Sn39  1  0.49962799  0.83335905  0.49941883  1
  Sn  Sn40  1  0.16685307  0.49894066  0.16729432  1
  Pb  Pb41  1  0.50277980  0.50271643  0.50188130  1
  Pb  Pb42  1  0.83327303  0.83613301  0.16632506  1
  Pb  Pb43  1  0.16521038  0.16489487  0.50005258  1
  Pb  Pb44  1  0.83514908  0.49751167  0.16631217  1
  Pb  Pb45  1  0.49901320  0.16911529  0.83323988  1
  Pb  Pb46  1  0.83323946  0.83318275  0.49999489  1
  Pb  Pb47  1  0.16618370  0.49903708  0.83460631  1
  Pb  Pb48  1  0.49745363  0.50251425  0.16467477  1
  Pb  Pb49  1  0.50331689  0.16398721  0.50009501  1
  Pb  Pb50  1  0.83614976  0.83332909  0.83356375  1
  Pb  Pb51  1  0.49725985  0.83134896  0.83347024  1
  Pb  Pb52  1  0.49930140  0.16439198  0.16662893  1
  Pb  Pb53  1  0.16417578  0.50250054  0.49706244  1
  I  I54  1  0.16590437  -0.00023393  0.16573275  1
  I  I55  1  0.16697830  -0.00336836  0.49582029  1
  I  I56  1  0.16136572  0.00031978  0.83823542  1
  I  I57  1  0.15955147  0.33190362  0.15876886  1
  I  I58  1  0.16716965  0.33340676  0.50045278  1
  I  I59  1  0.16421200  0.33022367  0.83991909  1
  I  I60  1  0.17040161  0.66807349  0.16557671  1
  I  I61  1  0.16807195  0.67072207  0.50145123  1
  I  I62  1  0.16709448  0.66887514  0.83521575  1
  I  I63  1  0.49415426  -0.00362943  0.16920899  1
  I  I64  1  0.49701063  -0.00394668  0.49693563  1
  I  I65  1  0.50326541  -0.00020500  0.83318289  1
  I  I66  1  0.49874737  0.33349204  0.16557885  1
  I  I67  1  0.49825785  0.33369754  0.50107891  1
  I  I68  1  0.50005573  0.33678912  0.83416454  1
  I  I69  1  0.49397548  0.67048862  0.17033170  1
  I  I70  1  0.49673479  0.67036449  0.49606321  1
  I  I71  1  0.50589028  0.66380065  0.83337149  1
  I  I72  1  0.83978796  0.00424107  0.16717481  1
  I  I73  1  0.83402654  0.00290512  0.50071503  1
  I  I74  1  0.83532278  0.00345405  0.83229959  1
  I  I75  1  0.84030733  0.32951042  0.16617665  1
  I  I76  1  0.83518638  0.33267749  0.50169427  1
  I  I77  1  0.83613498  0.33244336  0.83241780  1
  I  I78  1  0.83515315  0.66655600  0.16757850  1
  I  I79  1  0.83394712  0.66407936  0.50589668  1
  I  I80  1  0.83104966  0.66360191  0.82762711  1
  I  I81  1  0.15785574  0.16099274  0.00036910  1
  I  I82  1  0.16081630  0.16416106  0.33036478  1
  I  I83  1  0.16169395  0.16134654  0.66952834  1
  I  I84  1  0.16463043  0.50577554  0.00243618  1
  I  I85  1  0.16439611  0.49960411  0.32924796  1
  I  I86  1  0.16826294  0.50149279  0.66649183  1
  I  I87  1  0.16996740  0.83374515  0.00087713  1
  I  I88  1  0.17022495  0.83334979  0.33239295  1
  I  I89  1  0.16962506  0.83781490  0.66685477  1
  I  I90  1  0.50504441  0.16386823  -0.00008355  1
  I  I91  1  0.50063174  0.16885274  0.33331611  1
  I  I92  1  0.49895436  0.16317241  0.66672745  1
  I  I93  1  0.50777004  0.50208406  -0.00287380  1
  I  I94  1  0.50084318  0.49959379  0.33339217  1
  I  I95  1  0.49954387  0.50224404  0.66961123  1
  I  I96  1  0.49497642  0.83272093  0.00239429  1
  I  I97  1  0.49119150  0.83391008  0.33303612  1
  I  I98  1  0.49594571  0.83212836  0.66438272  1
  I  I99  1  0.83876759  0.16978788  -0.00071557  1
  I  I100  1  0.83851826  0.16830208  0.33307731  1
  I  I101  1  0.83777066  0.17029733  0.66758813  1
  I  I102  1  0.83115619  0.49666436  -0.00285406  1
  I  I103  1  0.83638400  0.49697451  0.33546322  1
  I  I104  1  0.83104886  0.49301039  0.66753634  1
  I  I105  1  0.83201642  0.83135841  -0.00007233  1
  I  I106  1  0.83765115  0.83358964  0.33327812  1
  I  I107  1  0.83358080  0.83750457  0.66671129  1
  I  I108  1  0.00095759  0.16376945  0.16566724  1
  I  I109  1  -0.00312468  0.16703292  0.50018450  1
  I  I110  1  -0.00044419  0.16798446  0.83448778  1
  I  I111  1  0.00311153  0.50709259  0.16432857  1
  I  I112  1  -0.00341079  0.49810986  0.50819329  1
  I  I113  1  -0.00269942  0.49889111  0.83039865  1
  I  I114  1  0.00369958  0.83145332  0.16773683  1
  I  I115  1  0.00288438  0.83359084  0.49821835  1
  I  I116  1  0.00436442  0.83216133  0.83430037  1
  I  I117  1  0.32933030  0.16661125  0.15993461  1
  I  I118  1  0.33328600  0.16746500  0.50001732  1
  I  I119  1  0.32950339  0.16264852  0.84068566  1
  I  I120  1  0.32933874  0.49598527  0.16320283  1
  I  I121  1  0.33330383  0.49913199  0.50160715  1
  I  I122  1  0.33481886  0.50254290  0.83694300  1
  I  I123  1  0.33117720  0.83519878  0.16703441  1
  I  I124  1  0.33213333  0.83354412  0.49862500  1
  I  I125  1  0.32918954  0.83716574  0.83463986  1
  I  I126  1  0.66975650  0.16516614  0.16578246  1
  I  I127  1  0.67174444  0.16841953  0.50024019  1
  I  I128  1  0.66997943  0.16801744  0.83391523  1
  I  I129  1  0.66676199  0.50093835  0.16810020  1
  I  I130  1  0.67061522  0.49763147  0.50038921  1
  I  I131  1  0.66846401  0.49588832  0.83010738  1
  I  I132  1  0.66383565  0.83429187  0.17312632  1
  I  I133  1  0.66407387  0.83350572  0.49433497  1
  I  I134  1  0.66656434  0.83553963  0.83267766  1
