# generated using pymatgen
data_Cs27Sn13Pb14I81
_symmetry_space_group_name_H-M   'P 1'
_cell_length_a   18.97265025
_cell_length_b   18.97888238
_cell_length_c   18.97947198
_cell_angle_alpha   90.00312444
_cell_angle_beta   89.99976851
_cell_angle_gamma   89.99982941
_symmetry_Int_Tables_number   1
_chemical_formula_structural   Cs27Sn13Pb14I81
_chemical_formula_sum   'Cs27 Sn13 Pb14 I81'
_cell_volume   6834.12251745
_cell_formula_units_Z   1
loop_
 _symmetry_equiv_pos_site_id
 _symmetry_equiv_pos_as_xyz
  1  'x, y, z'
loop_
 _atom_site_type_symbol
 _atom_site_label
 _atom_site_symmetry_multiplicity
 _atom_site_fract_x
 _atom_site_fract_y
 _atom_site_fract_z
 _atom_site_occupancy
  Cs  Cs0  1  0.00081381  -0.00019043  0.00081518  1
  Cs  Cs1  1  0.00080648  0.00247283  0.33270143  1
  Cs  Cs2  1  -0.00268040  0.00142870  0.66545863  1
  Cs  Cs3  1  -0.00011671  0.33371305  0.00155635  1
  Cs  Cs4  1  0.00003512  0.33243940  0.33403870  1
  Cs  Cs5  1  0.00081221  0.33178891  0.66380029  1
  Cs  Cs6  1  -0.00076098  0.66576883  -0.00048842  1
  Cs  Cs7  1  0.00189582  0.66472572  0.33156673  1
  Cs  Cs8  1  -0.00143722  0.66674326  0.66939710  1
  Cs  Cs9  1  0.33391694  0.00038751  -0.00072531  1
  Cs  Cs10  1  0.33233521  -0.00155478  0.33163436  1
  Cs  Cs11  1  0.33164288  0.00132056  0.66982277  1
  Cs  Cs12  1  0.33807819  0.33051802  -0.00535465  1
  Cs  Cs13  1  0.33304252  0.33344775  0.33493647  1
  Cs  Cs14  1  0.33669893  0.33419002  0.66883043  1
  Cs  Cs15  1  0.33045886  0.67017695  -0.00133473  1
  Cs  Cs16  1  0.33540109  0.66775812  0.33469399  1
  Cs  Cs17  1  0.33309550  0.66486944  0.66590404  1
  Cs  Cs18  1  0.66548782  0.00274718  -0.00037107  1
  Cs  Cs19  1  0.66535553  -0.00297332  0.33517476  1
  Cs  Cs20  1  0.67124245  -0.00243914  0.66515951  1
  Cs  Cs21  1  0.66195616  0.33596711  0.00028607  1
  Cs  Cs22  1  0.66507681  0.33824063  0.33154398  1
  Cs  Cs23  1  0.65884476  0.33323857  0.66686104  1
  Cs  Cs24  1  0.67318903  0.65880040  0.00210202  1
  Cs  Cs25  1  0.65668543  0.66419511  0.33500236  1
  Cs  Cs26  1  0.66904779  0.66936796  0.66401224  1
  Sn  Sn27  1  0.16584096  0.83337896  0.16674350  1
  Sn  Sn28  1  0.49996066  0.83307210  0.83379718  1
  Sn  Sn29  1  0.16551871  0.50079638  0.49938647  1
  Sn  Sn30  1  0.16658292  0.49978739  0.16715651  1
  Sn  Sn31  1  0.83425684  0.50011248  0.50009159  1
  Sn  Sn32  1  0.83394152  0.83393427  0.16706279  1
  Sn  Sn33  1  0.49985655  0.16591645  0.49956329  1
  Sn  Sn34  1  0.83400792  0.16593413  0.16590423  1
  Sn  Sn35  1  0.16715734  0.83432870  0.83322633  1
  Sn  Sn36  1  0.16611970  0.16696784  0.16570433  1
  Sn  Sn37  1  0.16619219  0.83279947  0.50014772  1
  Sn  Sn38  1  0.83419994  0.16694716  0.83402381  1
  Sn  Sn39  1  0.16551588  0.16592070  0.83407761  1
  Pb  Pb40  1  0.49911783  0.49841751  0.50004744  1
  Pb  Pb41  1  0.50012794  0.83339423  0.16424059  1
  Pb  Pb42  1  0.50010512  0.16484726  0.83176845  1
  Pb  Pb43  1  0.83396621  0.83504428  0.83556042  1
  Pb  Pb44  1  0.50002463  0.50379485  0.83330075  1
  Pb  Pb45  1  0.16777794  0.16678999  0.50006946  1
  Pb  Pb46  1  0.49733177  0.83530126  0.50218658  1
  Pb  Pb47  1  0.83529262  0.49970167  0.16837898  1
  Pb  Pb48  1  0.16658039  0.49979804  0.83331222  1
  Pb  Pb49  1  0.83566238  0.83126998  0.49699390  1
  Pb  Pb50  1  0.83364656  0.49665989  0.83076284  1
  Pb  Pb51  1  0.83118639  0.16844408  0.49931849  1
  Pb  Pb52  1  0.50007955  0.16643404  0.16857089  1
  Pb  Pb53  1  0.49617519  0.50013820  0.16639245  1
  I  I54  1  0.16339630  -0.00017308  0.16673271  1
  I  I55  1  0.16950436  -0.00247778  0.49794864  1
  I  I56  1  0.16748545  -0.00020807  0.83563210  1
  I  I57  1  0.16226742  0.33242536  0.16826191  1
  I  I58  1  0.16500969  0.33573512  0.49643207  1
  I  I59  1  0.16301337  0.32990730  0.83576330  1
  I  I60  1  0.16328874  0.66778557  0.16704123  1
  I  I61  1  0.16402005  0.66699278  0.49679151  1
  I  I62  1  0.17109041  0.66996462  0.83531441  1
  I  I63  1  0.49524375  -0.00002121  0.16817283  1
  I  I64  1  0.49901042  0.00264633  0.49986636  1
  I  I65  1  0.49535270  -0.00259410  0.83240741  1
  I  I66  1  0.50053216  0.33309051  0.16729077  1
  I  I67  1  0.49729338  0.33071617  0.50171140  1
  I  I68  1  0.49897847  0.33294043  0.83114385  1
  I  I69  1  0.50134319  0.66692004  0.16716801  1
  I  I70  1  0.50140146  0.66691008  0.50125260  1
  I  I71  1  0.49045146  0.67159021  0.83249611  1
  I  I72  1  0.84217259  0.00069083  0.16397019  1
  I  I73  1  0.83320994  -0.00002908  0.50140513  1
  I  I74  1  0.83529902  0.00314044  0.83334234  1
  I  I75  1  0.83820013  0.33021386  0.16512100  1
  I  I76  1  0.84118507  0.33598363  0.49842302  1
  I  I77  1  0.84012316  0.32849040  0.83982609  1
  I  I78  1  0.83856363  0.66917511  0.16682985  1
  I  I79  1  0.83543586  0.66356207  0.49920099  1
  I  I80  1  0.83270260  0.66681133  0.83435218  1
  I  I81  1  0.16399012  0.16377265  0.00042653  1
  I  I82  1  0.16397483  0.16446684  0.33038006  1
  I  I83  1  0.16452679  0.16314479  0.66932735  1
  I  I84  1  0.16616046  0.50276726  0.00306878  1
  I  I85  1  0.16293317  0.50216737  0.33326337  1
  I  I86  1  0.16409769  0.50288724  0.66360236  1
  I  I87  1  0.16764295  0.83361183  0.00045123  1
  I  I88  1  0.16251792  0.83356723  0.33245774  1
  I  I89  1  0.17172902  0.83358853  0.66710515  1
  I  I90  1  0.49938567  0.16592806  -0.00013927  1
  I  I91  1  0.49829259  0.16697818  0.33609164  1
  I  I92  1  0.49833561  0.16669416  0.66434647  1
  I  I93  1  0.50000863  0.49719364  -0.00008793  1
  I  I94  1  0.50193863  0.49972055  0.33346954  1
  I  I95  1  0.49693852  0.49750129  0.66638842  1
  I  I96  1  0.49123771  0.83671767  -0.00325338  1
  I  I97  1  0.49921097  0.83376092  0.33340105  1
  I  I98  1  0.49402509  0.83520147  0.66987511  1
  I  I99  1  0.83807981  0.16256922  0.00073318  1
  I  I100  1  0.83843794  0.16436436  0.32994779  1
  I  I101  1  0.83731159  0.16775648  0.66911501  1
  I  I102  1  0.83437619  0.50205760  0.00033603  1
  I  I103  1  0.83740706  0.49699406  0.33603349  1
  I  I104  1  0.84123623  0.49944678  0.66290068  1
  I  I105  1  0.83967510  0.83405652  0.00343325  1
  I  I106  1  0.83981281  0.84097113  0.32920871  1
  I  I107  1  0.83382881  0.83414406  0.66660436  1
  I  I108  1  0.00135745  0.16557098  0.16379181  1
  I  I109  1  0.00012099  0.16597989  0.50077782  1
  I  I110  1  0.00142028  0.16085322  0.83587172  1
  I  I111  1  0.00371358  0.50022755  0.16930904  1
  I  I112  1  0.00196247  0.50167173  0.49602373  1
  I  I113  1  0.00029911  0.50472764  0.83394859  1
  I  I114  1  0.00218871  0.83430786  0.16470991  1
  I  I115  1  0.00417715  0.83378829  0.50482531  1
  I  I116  1  0.00364867  0.83523317  0.83200396  1
  I  I117  1  0.32944507  0.16570554  0.16373532  1
  I  I118  1  0.33508038  0.16783585  0.50068144  1
  I  I119  1  0.33012843  0.16486107  0.83648851  1
  I  I120  1  0.32750671  0.50057476  0.17417416  1
  I  I121  1  0.32958317  0.50320987  0.49561320  1
  I  I122  1  0.33280492  0.49420432  0.83139931  1
  I  I123  1  0.32930970  0.83401633  0.16857401  1
  I  I124  1  0.32881383  0.82802740  0.49485119  1
  I  I125  1  0.33027855  0.83931210  0.83507572  1
  I  I126  1  0.67029197  0.16177200  0.16375415  1
  I  I127  1  0.66393602  0.16868564  0.50142901  1
  I  I128  1  0.66943645  0.16528632  0.83599388  1
  I  I129  1  0.66708955  0.50034854  0.16914693  1
  I  I130  1  0.66903759  0.49673087  0.49988734  1
  I  I131  1  0.66693293  0.49946937  0.83113239  1
  I  I132  1  0.66989736  0.83955074  0.16510248  1
  I  I133  1  0.66680807  0.83226571  0.50056810  1
  I  I134  1  0.66489455  0.83648480  0.83393315  1
