# generated using pymatgen
data_Cs27Sn13Pb14I81
_symmetry_space_group_name_H-M   'P 1'
_cell_length_a   18.97805899
_cell_length_b   18.97212848
_cell_length_c   18.98188798
_cell_angle_alpha   89.99760158
_cell_angle_beta   90.00264495
_cell_angle_gamma   89.99882869
_symmetry_Int_Tables_number   1
_chemical_formula_structural   Cs27Sn13Pb14I81
_chemical_formula_sum   'Cs27 Sn13 Pb14 I81'
_cell_volume   6834.50797237
_cell_formula_units_Z   1
loop_
 _symmetry_equiv_pos_site_id
 _symmetry_equiv_pos_as_xyz
  1  'x, y, z'
loop_
 _atom_site_type_symbol
 _atom_site_label
 _atom_site_symmetry_multiplicity
 _atom_site_fract_x
 _atom_site_fract_y
 _atom_site_fract_z
 _atom_site_occupancy
  Cs  Cs0  1  -0.00069902  -0.00130888  0.00138109  1
  Cs  Cs1  1  -0.00202286  0.00129436  0.33358944  1
  Cs  Cs2  1  0.00205156  -0.00143839  0.66661913  1
  Cs  Cs3  1  0.00200069  0.33215371  0.00425206  1
  Cs  Cs4  1  -0.00325896  0.33657067  0.33066760  1
  Cs  Cs5  1  -0.00153305  0.33396874  0.66385122  1
  Cs  Cs6  1  -0.00363961  0.66969317  -0.00140772  1
  Cs  Cs7  1  0.00252885  0.66463978  0.33556701  1
  Cs  Cs8  1  -0.00062774  0.66728975  0.66707861  1
  Cs  Cs9  1  0.33155978  0.00238267  -0.00331505  1
  Cs  Cs10  1  0.33457749  -0.00130782  0.33570813  1
  Cs  Cs11  1  0.33230063  0.00054055  0.66760547  1
  Cs  Cs12  1  0.33357721  0.33317923  0.00107211  1
  Cs  Cs13  1  0.33039919  0.33865768  0.32975457  1
  Cs  Cs14  1  0.33335039  0.33004226  0.66896829  1
  Cs  Cs15  1  0.33394033  0.66528362  0.00097854  1
  Cs  Cs16  1  0.33923259  0.66196918  0.33275623  1
  Cs  Cs17  1  0.33298467  0.66774577  0.66447103  1
  Cs  Cs18  1  0.66793270  -0.00163371  0.00095497  1
  Cs  Cs19  1  0.66779246  -0.00159721  0.33151087  1
  Cs  Cs20  1  0.66449808  0.00194606  0.66649179  1
  Cs  Cs21  1  0.66412964  0.33563166  -0.00216398  1
  Cs  Cs22  1  0.67342734  0.33261998  0.33605049  1
  Cs  Cs23  1  0.66963773  0.33697147  0.66616281  1
  Cs  Cs24  1  0.67121835  0.66381850  0.00239012  1
  Cs  Cs25  1  0.65545760  0.66858304  0.33090609  1
  Cs  Cs26  1  0.66801665  0.65785316  0.66675861  1
  Sn  Sn27  1  0.49977290  0.83370881  0.83312026  1
  Sn  Sn28  1  0.16620833  0.16678958  0.83272248  1
  Sn  Sn29  1  0.49906061  0.16645579  0.49982672  1
  Sn  Sn30  1  0.50025696  0.16572322  0.83317608  1
  Sn  Sn31  1  0.83346156  0.50029550  0.16665490  1
  Sn  Sn32  1  0.16600591  0.83417589  0.49971261  1
  Sn  Sn33  1  0.16666948  0.49998036  0.83312823  1
  Sn  Sn34  1  0.49979934  0.16637436  0.16689246  1
  Sn  Sn35  1  0.16694258  0.83358656  0.16700266  1
  Sn  Sn36  1  0.16728441  0.16611256  0.50024912  1
  Sn  Sn37  1  0.83340337  0.83329635  0.50031359  1
  Sn  Sn38  1  0.16744219  0.83324925  0.83336460  1
  Sn  Sn39  1  0.83364024  0.16626521  0.83340032  1
  Pb  Pb40  1  0.83531801  0.83168753  0.16925463  1
  Pb  Pb41  1  0.49950577  0.83503659  0.50247768  1
  Pb  Pb42  1  0.50213736  0.49724408  0.16642852  1
  Pb  Pb43  1  0.83607887  0.49733500  0.83469388  1
  Pb  Pb44  1  0.16674829  0.49979465  0.50209851  1
  Pb  Pb45  1  0.83348521  0.50333573  0.49772460  1
  Pb  Pb46  1  0.16817606  0.16500334  0.16721187  1
  Pb  Pb47  1  0.49777131  0.50001430  0.83325705  1
  Pb  Pb48  1  0.83380086  0.16505732  0.50186079  1
  Pb  Pb49  1  0.83305433  0.83493411  0.83165604  1
  Pb  Pb50  1  0.49968325  0.49628066  0.50024444  1
  Pb  Pb51  1  0.49770887  0.83539516  0.16382273  1
  Pb  Pb52  1  0.83094985  0.16779302  0.16421860  1
  Pb  Pb53  1  0.16531930  0.50281244  0.16419955  1
  I  I54  1  0.16657567  -0.00292929  0.16140434  1
  I  I55  1  0.16683918  -0.00004737  0.50551370  1
  I  I56  1  0.16801816  0.00026736  0.83246092  1
  I  I57  1  0.16698282  0.33328718  0.16596360  1
  I  I58  1  0.17121633  0.32958163  0.50550005  1
  I  I59  1  0.16709578  0.33130977  0.82923869  1
  I  I60  1  0.16608907  0.67083579  0.16667868  1
  I  I61  1  0.16178669  0.67025454  0.50210321  1
  I  I62  1  0.17092843  0.66844307  0.83348905  1
  I  I63  1  0.50061175  0.00341742  0.16732078  1
  I  I64  1  0.49826794  0.00340990  0.49992494  1
  I  I65  1  0.49459888  0.00165158  0.83327198  1
  I  I66  1  0.49759449  0.32901934  0.16239503  1
  I  I67  1  0.49447913  0.32755860  0.50434788  1
  I  I68  1  0.49888397  0.32927744  0.83325332  1
  I  I69  1  0.50016995  0.66693614  0.16509653  1
  I  I70  1  0.50022977  0.66707523  0.50138013  1
  I  I71  1  0.49430736  0.66989245  0.83296487  1
  I  I72  1  0.83304924  -0.00011104  0.16648260  1
  I  I73  1  0.83661948  -0.00260554  0.50025939  1
  I  I74  1  0.83693326  0.00309368  0.83341411  1
  I  I75  1  0.83456906  0.33552612  0.16596848  1
  I  I76  1  0.83301162  0.33318360  0.50021254  1
  I  I77  1  0.83145358  0.32923059  0.83255245  1
  I  I78  1  0.83503319  0.66412752  0.16414020  1
  I  I79  1  0.84182455  0.67107941  0.50286851  1
  I  I80  1  0.83338409  0.66667466  0.83330819  1
  I  I81  1  0.16772434  0.16561283  -0.00338556  1
  I  I82  1  0.17129865  0.16120448  0.33652770  1
  I  I83  1  0.17074741  0.16266621  0.66797045  1
  I  I84  1  0.16657192  0.49756629  -0.00374594  1
  I  I85  1  0.16525425  0.49940317  0.33315763  1
  I  I86  1  0.16604112  0.50283254  0.67026221  1
  I  I87  1  0.17079382  0.83401563  -0.00182601  1
  I  I88  1  0.16087617  0.83964662  0.33454853  1
  I  I89  1  0.16643143  0.83479000  0.66741665  1
  I  I90  1  0.49950324  0.16366050  -0.00185998  1
  I  I91  1  0.49482810  0.16673959  0.33419772  1
  I  I92  1  0.49800901  0.16239361  0.66781431  1
  I  I93  1  0.49943564  0.49694531  -0.00026812  1
  I  I94  1  0.49926848  0.50039201  0.33318403  1
  I  I95  1  0.50132326  0.49885511  0.66704642  1
  I  I96  1  0.49453505  0.84023781  -0.00412060  1
  I  I97  1  0.49954999  0.83540686  0.33351082  1
  I  I98  1  0.49375673  0.84052770  0.67030347  1
  I  I99  1  0.83532507  0.16576573  -0.00390282  1
  I  I100  1  0.83279859  0.16737222  0.33344370  1
  I  I101  1  0.83018128  0.16632029  0.66984753  1
  I  I102  1  0.83404838  0.50041971  0.00220829  1
  I  I103  1  0.83571595  0.49658385  0.33031522  1
  I  I104  1  0.83347629  0.49956427  0.66671996  1
  I  I105  1  0.83441300  0.83345553  -0.00011592  1
  I  I106  1  0.83936137  0.83529855  0.33700619  1
  I  I107  1  0.84034136  0.83533458  0.66409224  1
  I  I108  1  0.00003228  0.16693548  0.16555380  1
  I  I109  1  0.00332711  0.16395384  0.50605699  1
  I  I110  1  0.00188210  0.16623434  0.82888596  1
  I  I111  1  -0.00221972  0.49807977  0.16540739  1
  I  I112  1  0.00015510  0.49509530  0.50005597  1
  I  I113  1  0.00389397  0.50145929  0.83383599  1
  I  I114  1  0.00349049  0.83466078  0.16017003  1
  I  I115  1  0.00256272  0.83904858  0.50245657  1
  I  I116  1  0.00358101  0.83489219  0.83457260  1
  I  I117  1  0.33607987  0.16552595  0.16113911  1
  I  I118  1  0.33238802  0.16048352  0.50602570  1
  I  I119  1  0.33285501  0.16587140  0.83265639  1
  I  I120  1  0.33327845  0.50003490  0.16598796  1
  I  I121  1  0.33297753  0.50492489  0.49893689  1
  I  I122  1  0.32972930  0.49597258  0.83425672  1
  I  I123  1  0.32970159  0.83350201  0.17047013  1
  I  I124  1  0.32988899  0.83613433  0.50006274  1
  I  I125  1  0.33149161  0.83840010  0.83182555  1
  I  I126  1  0.66290105  0.16667977  0.16678203  1
  I  I127  1  0.66404252  0.16494056  0.50168875  1
  I  I128  1  0.66514322  0.16154089  0.83353141  1
  I  I129  1  0.66968341  0.50053467  0.16487745  1
  I  I130  1  0.66679854  0.50024630  0.50093450  1
  I  I131  1  0.66687106  0.49975004  0.83451613  1
  I  I132  1  0.66639916  0.83288050  0.16696546  1
  I  I133  1  0.66840896  0.83587733  0.50156182  1
  I  I134  1  0.66397540  0.84060352  0.83155127  1
