# generated using pymatgen
data_Cs27Sn13Pb14I81
_symmetry_space_group_name_H-M   'P 1'
_cell_length_a   18.97334090
_cell_length_b   18.97350606
_cell_length_c   18.98414444
_cell_angle_alpha   90.00096944
_cell_angle_beta   90.00009960
_cell_angle_gamma   90.00163662
_symmetry_Int_Tables_number   1
_chemical_formula_structural   Cs27Sn13Pb14I81
_chemical_formula_sum   'Cs27 Sn13 Pb14 I81'
_cell_volume   6834.11731151
_cell_formula_units_Z   1
loop_
 _symmetry_equiv_pos_site_id
 _symmetry_equiv_pos_as_xyz
  1  'x, y, z'
loop_
 _atom_site_type_symbol
 _atom_site_label
 _atom_site_symmetry_multiplicity
 _atom_site_fract_x
 _atom_site_fract_y
 _atom_site_fract_z
 _atom_site_occupancy
  Cs  Cs0  1  -0.00119656  -0.00368499  0.00007501  1
  Cs  Cs1  1  0.00029981  0.00053013  0.33461855  1
  Cs  Cs2  1  0.00224607  -0.00092579  0.66501428  1
  Cs  Cs3  1  0.00065605  0.33486065  0.00037968  1
  Cs  Cs4  1  0.00000277  0.33506048  0.33324330  1
  Cs  Cs5  1  -0.00144796  0.33381408  0.66596513  1
  Cs  Cs6  1  -0.00016868  0.66730729  0.00137765  1
  Cs  Cs7  1  -0.00033598  0.66310044  0.33037757  1
  Cs  Cs8  1  0.00023565  0.66604694  0.66880818  1
  Cs  Cs9  1  0.33517423  0.00141146  0.00146243  1
  Cs  Cs10  1  0.33122167  0.00088398  0.33292346  1
  Cs  Cs11  1  0.33119193  -0.00539495  0.66523939  1
  Cs  Cs12  1  0.33251069  0.33225357  0.00259354  1
  Cs  Cs13  1  0.33228248  0.33289425  0.32883166  1
  Cs  Cs14  1  0.33371748  0.33322985  0.66773518  1
  Cs  Cs15  1  0.33534646  0.66784548  -0.00067565  1
  Cs  Cs16  1  0.33918537  0.66584143  0.33498101  1
  Cs  Cs17  1  0.33829648  0.67523298  0.66484594  1
  Cs  Cs18  1  0.66725888  -0.00431827  0.00353914  1
  Cs  Cs19  1  0.66858944  -0.00173455  0.33193911  1
  Cs  Cs20  1  0.66703711  0.00587430  0.66585889  1
  Cs  Cs21  1  0.66546222  0.33361158  -0.00240428  1
  Cs  Cs22  1  0.66836519  0.33343791  0.33517363  1
  Cs  Cs23  1  0.66734662  0.33147117  0.66742858  1
  Cs  Cs24  1  0.66095899  0.67449049  -0.00623208  1
  Cs  Cs25  1  0.66202287  0.66928597  0.33329399  1
  Cs  Cs26  1  0.65951045  0.66629005  0.67191477  1
  Sn  Sn27  1  0.83376718  0.16760508  0.16673102  1
  Sn  Sn28  1  0.83369589  0.16695367  0.83359640  1
  Sn  Sn29  1  0.16647029  0.16732224  0.83312339  1
  Sn  Sn30  1  0.49981555  0.16709078  0.83249528  1
  Sn  Sn31  1  0.83303091  0.49969095  0.16679915  1
  Sn  Sn32  1  0.83362570  0.83245107  0.50040134  1
  Sn  Sn33  1  0.16590680  0.50105997  0.16674553  1
  Sn  Sn34  1  0.83299700  0.16680385  0.49976911  1
  Sn  Sn35  1  0.16640341  0.83222903  0.16705273  1
  Sn  Sn36  1  0.83381910  0.50060117  0.49956846  1
  Sn  Sn37  1  0.16657338  0.49950934  0.83300194  1
  Sn  Sn38  1  0.16630106  0.49982710  0.50018492  1
  Sn  Sn39  1  0.50019146  0.16725925  0.50029463  1
  Pb  Pb40  1  0.49677422  0.49763780  0.83327196  1
  Pb  Pb41  1  0.83470230  0.49858306  0.83352098  1
  Pb  Pb42  1  0.49681620  0.83341506  0.16701060  1
  Pb  Pb43  1  0.83460018  0.83240111  0.16857363  1
  Pb  Pb44  1  0.16434330  0.16715625  0.16452000  1
  Pb  Pb45  1  0.50052944  0.49757102  0.49994550  1
  Pb  Pb46  1  0.83356649  0.83595677  0.83048743  1
  Pb  Pb47  1  0.16647096  0.16849287  0.50186256  1
  Pb  Pb48  1  0.49991455  0.83683813  0.83319763  1
  Pb  Pb49  1  0.50309988  0.16695534  0.16683176  1
  Pb  Pb50  1  0.50095967  0.49987744  0.16660435  1
  Pb  Pb51  1  0.50280675  0.83653987  0.49987435  1
  Pb  Pb52  1  0.16451312  0.83021587  0.49779889  1
  Pb  Pb53  1  0.16645893  0.83301190  0.83532053  1
  I  I54  1  0.16464561  -0.00154165  0.16446252  1
  I  I55  1  0.16593626  0.00006288  0.49994764  1
  I  I56  1  0.16661537  0.00341359  0.83461508  1
  I  I57  1  0.16450105  0.33651257  0.16791588  1
  I  I58  1  0.16113046  0.33659958  0.49543077  1
  I  I59  1  0.16605468  0.33307865  0.83548831  1
  I  I60  1  0.15936359  0.66435810  0.16458978  1
  I  I61  1  0.16087450  0.66194317  0.50503290  1
  I  I62  1  0.16420947  0.66310451  0.83210956  1
  I  I63  1  0.49948746  0.00048849  0.16600136  1
  I  I64  1  0.50468007  0.00468969  0.50477124  1
  I  I65  1  0.49761420  0.00534698  0.82884400  1
  I  I66  1  0.49433148  0.33310107  0.16658655  1
  I  I67  1  0.50665439  0.32960690  0.50429223  1
  I  I68  1  0.50330715  0.32921489  0.82919404  1
  I  I69  1  0.50474764  0.66661906  0.16687156  1
  I  I70  1  0.50018711  0.66665882  0.49957036  1
  I  I71  1  0.49922988  0.66667524  0.83387281  1
  I  I72  1  0.83474391  0.00267331  0.16704108  1
  I  I73  1  0.82860591  0.00183652  0.50023798  1
  I  I74  1  0.83569670  0.00526700  0.83455082  1
  I  I75  1  0.83920301  0.33327006  0.17132231  1
  I  I76  1  0.83345824  0.33281313  0.49943506  1
  I  I77  1  0.83223835  0.32964714  0.82915986  1
  I  I78  1  0.83786904  0.66306372  0.17287722  1
  I  I79  1  0.84054910  0.66513122  0.49341234  1
  I  I80  1  0.83631773  0.66653433  0.83362920  1
  I  I81  1  0.16709822  0.17169866  -0.00356520  1
  I  I82  1  0.16732590  0.16694738  0.33327281  1
  I  I83  1  0.16218421  0.17201747  0.66998098  1
  I  I84  1  0.16246230  0.49885438  0.00047884  1
  I  I85  1  0.16159238  0.50332485  0.33314384  1
  I  I86  1  0.16115826  0.49262963  0.66642130  1
  I  I87  1  0.16401069  0.82852119  0.00311071  1
  I  I88  1  0.16460737  0.83025485  0.33008998  1
  I  I89  1  0.16624637  0.83322928  0.66638081  1
  I  I90  1  0.49969138  0.16720141  -0.00322495  1
  I  I91  1  0.50509402  0.16688740  0.33638408  1
  I  I92  1  0.50643856  0.16809523  0.66682511  1
  I  I93  1  0.50025600  0.49619808  -0.00011650  1
  I  I94  1  0.49492539  0.49627249  0.33342543  1
  I  I95  1  0.50062739  0.49964759  0.66656942  1
  I  I96  1  0.50136666  0.83576771  0.00003040  1
  I  I97  1  0.50003483  0.83640585  0.33367113  1
  I  I98  1  0.49865057  0.83153611  0.66638400  1
  I  I99  1  0.83444962  0.17181138  -0.00004021  1
  I  I100  1  0.82913752  0.16722719  0.33426084  1
  I  I101  1  0.83229925  0.16680908  0.66614710  1
  I  I102  1  0.83949228  0.49296710  0.00292570  1
  I  I103  1  0.84216847  0.49323095  0.33389018  1
  I  I104  1  0.83834976  0.49768538  0.66356196  1
  I  I105  1  0.83440953  0.83485774  0.00019482  1
  I  I106  1  0.83525750  0.83968904  0.33628927  1
  I  I107  1  0.83504220  0.83295332  0.66237452  1
  I  I108  1  -0.00384037  0.16823142  0.16857214  1
  I  I109  1  -0.00347927  0.16564401  0.50084490  1
  I  I110  1  -0.00048112  0.17053882  0.83290923  1
  I  I111  1  0.00019608  0.49878159  0.16794394  1
  I  I112  1  -0.00094513  0.49636164  0.49894379  1
  I  I113  1  0.00309567  0.49283487  0.83323344  1
  I  I114  1  0.00248240  0.83175677  0.16668578  1
  I  I115  1  -0.00324033  0.84123269  0.49979647  1
  I  I116  1  0.00004601  0.83824451  0.83293212  1
  I  I117  1  0.33308441  0.16631262  0.16640056  1
  I  I118  1  0.33551252  0.16896264  0.50505456  1
  I  I119  1  0.33297871  0.17127458  0.82931109  1
  I  I120  1  0.32955948  0.50318567  0.16743735  1
  I  I121  1  0.33017492  0.49708762  0.49875389  1
  I  I122  1  0.32820592  0.49338645  0.83451346  1
  I  I123  1  0.32859207  0.82763862  0.16651682  1
  I  I124  1  0.33320133  0.83395612  0.49901556  1
  I  I125  1  0.33302211  0.83534013  0.83351068  1
  I  I126  1  0.67152564  0.17164812  0.16349350  1
  I  I127  1  0.66889272  0.16842437  0.50484989  1
  I  I128  1  0.66754745  0.16613553  0.83117898  1
  I  I129  1  0.67109462  0.49338595  0.17350676  1
  I  I130  1  0.67073791  0.50026765  0.49444861  1
  I  I131  1  0.66670197  0.49817923  0.83313078  1
  I  I132  1  0.66694533  0.83443450  0.16740316  1
  I  I133  1  0.67098531  0.82910702  0.49777399  1
  I  I134  1  0.66685123  0.83298523  0.83481755  1
