# generated using pymatgen
data_Cs27Sn13Pb14I81
_symmetry_space_group_name_H-M   'P 1'
_cell_length_a   18.98143506
_cell_length_b   18.97165395
_cell_length_c   18.97655419
_cell_angle_alpha   90.00073106
_cell_angle_beta   89.99843610
_cell_angle_gamma   89.99851189
_symmetry_Int_Tables_number   1
_chemical_formula_structural   Cs27Sn13Pb14I81
_chemical_formula_sum   'Cs27 Sn13 Pb14 I81'
_cell_volume   6833.63207632
_cell_formula_units_Z   1
loop_
 _symmetry_equiv_pos_site_id
 _symmetry_equiv_pos_as_xyz
  1  'x, y, z'
loop_
 _atom_site_type_symbol
 _atom_site_label
 _atom_site_symmetry_multiplicity
 _atom_site_fract_x
 _atom_site_fract_y
 _atom_site_fract_z
 _atom_site_occupancy
  Cs  Cs0  1  0.00019422  0.00036161  0.00213608  1
  Cs  Cs1  1  0.00405655  -0.00094596  0.33375764  1
  Cs  Cs2  1  0.00041934  -0.00106739  0.66612230  1
  Cs  Cs3  1  0.00088859  0.33046953  -0.00260214  1
  Cs  Cs4  1  -0.00285626  0.33588218  0.33566241  1
  Cs  Cs5  1  0.00014672  0.33616966  0.66648131  1
  Cs  Cs6  1  -0.00335019  0.66956757  0.00124999  1
  Cs  Cs7  1  -0.00389054  0.66517006  0.33437665  1
  Cs  Cs8  1  0.00331703  0.66660230  0.66510528  1
  Cs  Cs9  1  0.33050523  0.00235014  0.00195986  1
  Cs  Cs10  1  0.33045008  -0.00244365  0.33455335  1
  Cs  Cs11  1  0.33335722  -0.00072798  0.66513564  1
  Cs  Cs12  1  0.33390701  0.33265901  -0.00110091  1
  Cs  Cs13  1  0.33352407  0.33328967  0.33034031  1
  Cs  Cs14  1  0.33327503  0.33589323  0.66848682  1
  Cs  Cs15  1  0.33593638  0.66518867  0.00379566  1
  Cs  Cs16  1  0.33743010  0.66701564  0.32925567  1
  Cs  Cs17  1  0.33094298  0.66490950  0.66643275  1
  Cs  Cs18  1  0.66958204  -0.00095682  -0.00352063  1
  Cs  Cs19  1  0.66313533  0.00251563  0.34133336  1
  Cs  Cs20  1  0.66439792  -0.00140826  0.66513015  1
  Cs  Cs21  1  0.66573058  0.33324035  -0.00045386  1
  Cs  Cs22  1  0.66958566  0.33460771  0.33455472  1
  Cs  Cs23  1  0.66666060  0.33155656  0.66621851  1
  Cs  Cs24  1  0.66809635  0.67152861  0.00558996  1
  Cs  Cs25  1  0.66553105  0.66349786  0.32276176  1
  Cs  Cs26  1  0.66387003  0.67107659  0.66973799  1
  Sn  Sn27  1  0.16663578  0.16586987  0.83221032  1
  Sn  Sn28  1  0.83232368  0.16657669  0.16635175  1
  Sn  Sn29  1  0.16613495  0.49979022  0.16648274  1
  Sn  Sn30  1  0.50132670  0.49946026  0.83258681  1
  Sn  Sn31  1  0.83360565  0.83309602  0.50009834  1
  Sn  Sn32  1  0.83320739  0.16726719  0.83366107  1
  Sn  Sn33  1  0.50015133  0.16722087  0.83393227  1
  Sn  Sn34  1  0.50021024  0.49992584  0.50080002  1
  Sn  Sn35  1  0.83226958  0.49971625  0.83308807  1
  Sn  Sn36  1  0.50118815  0.16672903  0.16593477  1
  Sn  Sn37  1  0.16689092  0.83406052  0.83294800  1
  Sn  Sn38  1  0.16666162  0.16674657  0.50093557  1
  Sn  Sn39  1  0.16580368  0.83385899  0.50100584  1
  Pb  Pb40  1  0.49901295  0.49781884  0.16565285  1
  Pb  Pb41  1  0.50015069  0.83734694  0.16637329  1
  Pb  Pb42  1  0.16826953  0.50039834  0.49800794  1
  Pb  Pb43  1  0.49759716  0.16836325  0.50045455  1
  Pb  Pb44  1  0.83544236  0.83372285  0.83188517  1
  Pb  Pb45  1  0.49729165  0.83357241  0.83350981  1
  Pb  Pb46  1  0.83557266  0.16540650  0.50064096  1
  Pb  Pb47  1  0.83330325  0.83676875  0.16959724  1
  Pb  Pb48  1  0.83530768  0.49760653  0.16390825  1
  Pb  Pb49  1  0.16677601  0.50004368  0.83478719  1
  Pb  Pb50  1  0.83073947  0.50251346  0.50255340  1
  Pb  Pb51  1  0.16637904  0.16794856  0.16654348  1
  Pb  Pb52  1  0.49952671  0.83042469  0.50007250  1
  Pb  Pb53  1  0.16648071  0.83069110  0.16687725  1
  I  I54  1  0.16743025  0.00018306  0.16706007  1
  I  I55  1  0.16434196  0.00021278  0.50322724  1
  I  I56  1  0.16674146  0.00178921  0.83015475  1
  I  I57  1  0.16782165  0.33526654  0.16597834  1
  I  I58  1  0.16846535  0.33081081  0.50373771  1
  I  I59  1  0.16674580  0.33017838  0.83095987  1
  I  I60  1  0.16853755  0.66322762  0.16547075  1
  I  I61  1  0.16442002  0.66968079  0.50430923  1
  I  I62  1  0.16621775  0.66894917  0.82969607  1
  I  I63  1  0.50093647  0.00553896  0.16068855  1
  I  I64  1  0.50052884  0.00010107  0.49932292  1
  I  I65  1  0.50241946  0.00384232  0.83716552  1
  I  I66  1  0.50142730  0.32995923  0.16460766  1
  I  I67  1  0.49742175  0.33594575  0.50215381  1
  I  I68  1  0.49756831  0.33225580  0.83325128  1
  I  I69  1  0.49711101  0.66629002  0.16726827  1
  I  I70  1  0.49678536  0.66276685  0.50715952  1
  I  I71  1  0.50190798  0.66341811  0.82869241  1
  I  I72  1  0.83196114  0.00463018  0.15760182  1
  I  I73  1  0.83550661  -0.00245116  0.50158996  1
  I  I74  1  0.83155032  0.00353944  0.83588527  1
  I  I75  1  0.83069266  0.32962801  0.16607207  1
  I  I76  1  0.83486557  0.33333109  0.49818340  1
  I  I77  1  0.83542453  0.33182905  0.83611435  1
  I  I78  1  0.83530983  0.66654269  0.16572233  1
  I  I79  1  0.84229435  0.66994039  0.50280051  1
  I  I80  1  0.83104284  0.66422967  0.83079766  1
  I  I81  1  0.16695183  0.16447158  -0.00323020  1
  I  I82  1  0.16736577  0.16379738  0.33565031  1
  I  I83  1  0.16696327  0.16357203  0.66812513  1
  I  I84  1  0.16902528  0.49786127  0.00200951  1
  I  I85  1  0.16971588  0.49766872  0.33068059  1
  I  I86  1  0.16612385  0.49984509  0.66689243  1
  I  I87  1  0.16724027  0.83800607  -0.00300083  1
  I  I88  1  0.16392653  0.83823338  0.33677693  1
  I  I89  1  0.16329847  0.83726419  0.66645478  1
  I  I90  1  0.49730924  0.17273952  -0.00185405  1
  I  I91  1  0.50263329  0.16877329  0.33112516  1
  I  I92  1  0.50189244  0.16883387  0.67005086  1
  I  I93  1  0.50067980  0.49678738  -0.00338658  1
  I  I94  1  0.49563028  0.49955982  0.33490967  1
  I  I95  1  0.50107727  0.49381564  0.66848658  1
  I  I96  1  0.49752560  0.82723772  -0.00035072  1
  I  I97  1  0.49720280  0.83236234  0.33352059  1
  I  I98  1  0.50143730  0.83743097  0.66674758  1
  I  I99  1  0.83530857  0.17017609  -0.00177742  1
  I  I100  1  0.83056886  0.16448735  0.33113983  1
  I  I101  1  0.83138887  0.16894441  0.67015772  1
  I  I102  1  0.82802210  0.49901087  -0.00410208  1
  I  I103  1  0.83311851  0.49936501  0.33330292  1
  I  I104  1  0.83421391  0.49205855  0.67045887  1
  I  I105  1  0.83518581  0.83139184  -0.00019380  1
  I  I106  1  0.84172372  0.83405217  0.33724814  1
  I  I107  1  0.83667172  0.83561365  0.66412966  1
  I  I108  1  -0.00222700  0.16852679  0.16263094  1
  I  I109  1  0.00357423  0.16581608  0.50307163  1
  I  I110  1  0.00002231  0.16736458  0.83420490  1
  I  I111  1  0.00267328  0.49700348  0.16601286  1
  I  I112  1  -0.00009660  0.49853265  0.49995864  1
  I  I113  1  -0.00205361  0.49595036  0.83594270  1
  I  I114  1  0.00003809  0.83549840  0.16435375  1
  I  I115  1  0.00165160  0.83723914  0.50428693  1
  I  I116  1  0.00344077  0.83669732  0.83114916  1
  I  I117  1  0.33531216  0.16966086  0.16301385  1
  I  I118  1  0.32971122  0.16136532  0.50291991  1
  I  I119  1  0.33335350  0.16749312  0.83401851  1
  I  I120  1  0.33135451  0.49700432  0.16469811  1
  I  I121  1  0.33586848  0.50004121  0.50687269  1
  I  I122  1  0.33586537  0.49648378  0.83161258  1
  I  I123  1  0.33301824  0.83448807  0.16877509  1
  I  I124  1  0.32985498  0.83688176  0.50371514  1
  I  I125  1  0.32920135  0.83681396  0.82655767  1
  I  I126  1  0.66656867  0.16777689  0.15870157  1
  I  I127  1  0.66665456  0.16475441  0.50104404  1
  I  I128  1  0.66662589  0.17190740  0.83850556  1
  I  I129  1  0.66680022  0.50059291  0.16914680  1
  I  I130  1  0.66313198  0.49909655  0.50095584  1
  I  I131  1  0.66608879  0.49113662  0.82911353  1
  I  I132  1  0.66689890  0.82827240  0.16824846  1
  I  I133  1  0.66904679  0.83418771  0.50080643  1
  I  I134  1  0.66684131  0.83547170  0.83063966  1
