# generated using pymatgen
data_Cs27Sn13Pb14I81
_symmetry_space_group_name_H-M   'P 1'
_cell_length_a   18.97838633
_cell_length_b   19.00230903
_cell_length_c   18.99649729
_cell_angle_alpha   90.00191412
_cell_angle_beta   90.00170414
_cell_angle_gamma   89.99932478
_symmetry_Int_Tables_number   1
_chemical_formula_structural   Cs27Sn13Pb14I81
_chemical_formula_sum   'Cs27 Sn13 Pb14 I81'
_cell_volume   6850.76687435
_cell_formula_units_Z   1
loop_
 _symmetry_equiv_pos_site_id
 _symmetry_equiv_pos_as_xyz
  1  'x, y, z'
loop_
 _atom_site_type_symbol
 _atom_site_label
 _atom_site_symmetry_multiplicity
 _atom_site_fract_x
 _atom_site_fract_y
 _atom_site_fract_z
 _atom_site_occupancy
  Cs  Cs0  1  0.00162387  0.00172820  -0.00186905  1
  Cs  Cs1  1  0.00376530  0.00344388  0.33692180  1
  Cs  Cs2  1  0.00455779  0.00098327  0.66538006  1
  Cs  Cs3  1  0.00297005  0.33307593  0.00184862  1
  Cs  Cs4  1  0.00056518  0.33454236  0.33338114  1
  Cs  Cs5  1  -0.00022180  0.33186608  0.66406166  1
  Cs  Cs6  1  0.00000305  0.66550110  0.00012907  1
  Cs  Cs7  1  -0.00228603  0.66298157  0.33484397  1
  Cs  Cs8  1  -0.00186631  0.66712180  0.66476826  1
  Cs  Cs9  1  0.33094681  -0.00037717  0.00158379  1
  Cs  Cs10  1  0.32766719  -0.01052679  0.34071682  1
  Cs  Cs11  1  0.32412198  -0.00097507  0.66064124  1
  Cs  Cs12  1  0.32884659  0.33448892  -0.00124380  1
  Cs  Cs13  1  0.33394060  0.33086555  0.33261726  1
  Cs  Cs14  1  0.33812771  0.33696887  0.66749094  1
  Cs  Cs15  1  0.32432003  0.66608876  0.00014232  1
  Cs  Cs16  1  0.33440218  0.67763765  0.33355930  1
  Cs  Cs17  1  0.33368323  0.66320365  0.66604380  1
  Cs  Cs18  1  0.66649951  0.00165207  -0.00121492  1
  Cs  Cs19  1  0.66483481  0.00141857  0.33200773  1
  Cs  Cs20  1  0.66799044  0.00273638  0.67158994  1
  Cs  Cs21  1  0.66674620  0.33095448  0.00124199  1
  Cs  Cs22  1  0.66680023  0.33152226  0.33094359  1
  Cs  Cs23  1  0.66383105  0.33224223  0.66669766  1
  Cs  Cs24  1  0.66785229  0.66797834  0.00008025  1
  Cs  Cs25  1  0.66690766  0.66710863  0.33138865  1
  Cs  Cs26  1  0.66696208  0.66547796  0.66845825  1
  Sn  Sn27  1  0.50056165  0.16689909  0.16596756  1
  Sn  Sn28  1  0.50076601  0.16544414  0.83431416  1
  Sn  Sn29  1  0.83253695  0.49980162  0.16644584  1
  Sn  Sn30  1  0.50072329  0.49972243  0.16636085  1
  Sn  Sn31  1  0.16631949  0.49968248  0.49963081  1
  Sn  Sn32  1  0.83290382  0.16661728  0.16572943  1
  Sn  Sn33  1  0.83295018  0.16681990  0.83430863  1
  Sn  Sn34  1  0.83331301  0.50052259  0.49999659  1
  Sn  Sn35  1  0.83300507  0.83378179  0.16663587  1
  Sn  Sn36  1  0.83245115  0.83295955  0.50008166  1
  Sn  Sn37  1  0.83285257  0.83354832  0.83339457  1
  Sn  Sn38  1  0.83296063  0.49959678  0.83354126  1
  Sn  Sn39  1  0.50069289  0.83424978  0.83357395  1
  Pb  Pb40  1  0.50088667  0.50003097  0.49690366  1
  Pb  Pb41  1  0.83309103  0.16683114  0.49994884  1
  Pb  Pb42  1  0.16677876  0.16988739  0.49996713  1
  Pb  Pb43  1  0.16353793  0.83061825  0.50022628  1
  Pb  Pb44  1  0.16363872  0.49988799  0.83093044  1
  Pb  Pb45  1  0.16746612  0.16667991  0.16669705  1
  Pb  Pb46  1  0.16730798  0.16684976  0.83342839  1
  Pb  Pb47  1  0.50208364  0.50001085  0.83594564  1
  Pb  Pb48  1  0.16310436  0.83330317  0.16650233  1
  Pb  Pb49  1  0.50192284  0.83378606  0.16436174  1
  Pb  Pb50  1  0.50020832  0.16641456  0.49985717  1
  Pb  Pb51  1  0.16661552  0.83325849  0.83335588  1
  Pb  Pb52  1  0.16694389  0.49999018  0.16893353  1
  Pb  Pb53  1  0.50323091  0.83339413  0.50337825  1
  I  I54  1  0.16621360  0.00005141  0.16797732  1
  I  I55  1  0.16614180  -0.00042270  0.49976881  1
  I  I56  1  0.16052124  0.00004539  0.83175493  1
  I  I57  1  0.16085233  0.33342063  0.16838995  1
  I  I58  1  0.15568651  0.33750267  0.49953213  1
  I  I59  1  0.16590030  0.33344695  0.83175527  1
  I  I60  1  0.16780090  0.66648729  0.16657331  1
  I  I61  1  0.16243642  0.66332095  0.49954885  1
  I  I62  1  0.16742735  0.66651701  0.83373566  1
  I  I63  1  0.50667484  0.00309267  0.16367621  1
  I  I64  1  0.50203123  -0.00022358  0.49421831  1
  I  I65  1  0.51195553  0.00076270  0.83955218  1
  I  I66  1  0.51000371  0.33291008  0.16209448  1
  I  I67  1  0.50170982  0.33355293  0.50523606  1
  I  I68  1  0.50502316  0.33051795  0.83431415  1
  I  I69  1  0.50576198  0.66439351  0.16708490  1
  I  I70  1  0.49815751  0.66658799  0.49983689  1
  I  I71  1  0.50632973  0.66892113  0.83334406  1
  I  I72  1  0.82946621  0.00041235  0.16411309  1
  I  I73  1  0.83179498  -0.00296366  0.49998375  1
  I  I74  1  0.82949053  0.00000959  0.83572069  1
  I  I75  1  0.83025423  0.33357172  0.16483091  1
  I  I76  1  0.83771228  0.33662999  0.50009815  1
  I  I77  1  0.83018932  0.33309013  0.83501644  1
  I  I78  1  0.83026757  0.66606317  0.16505015  1
  I  I79  1  0.83729004  0.66599150  0.50015851  1
  I  I80  1  0.83028771  0.66691818  0.83489150  1
  I  I81  1  0.16389441  0.16846059  0.00003848  1
  I  I82  1  0.16441236  0.16725156  0.33318808  1
  I  I83  1  0.16475541  0.16615914  0.66683511  1
  I  I84  1  0.16565523  0.49984765  0.00015328  1
  I  I85  1  0.15674024  0.49955016  0.33621172  1
  I  I86  1  0.16003315  0.50080316  0.66321605  1
  I  I87  1  0.16362446  0.83171072  -0.00016689  1
  I  I88  1  0.16719537  0.83330839  0.33355366  1
  I  I89  1  0.16439305  0.83305876  0.66665574  1
  I  I90  1  0.50700922  0.16704840  -0.00004171  1
  I  I91  1  0.50722348  0.17353515  0.32922158  1
  I  I92  1  0.50656243  0.16409796  0.67062487  1
  I  I93  1  0.50794802  0.49874677  0.00349401  1
  I  I94  1  0.50748537  0.49320978  0.32913803  1
  I  I95  1  0.50013492  0.49927791  0.66683216  1
  I  I96  1  0.50909634  0.83408256  -0.00321459  1
  I  I97  1  0.50058766  0.83315495  0.33309576  1
  I  I98  1  0.50733834  0.83834524  0.67135216  1
  I  I99  1  0.83005395  0.16701187  -0.00002221  1
  I  I100  1  0.82940089  0.16691128  0.32984982  1
  I  I101  1  0.82927997  0.16716222  0.67010761  1
  I  I102  1  0.82847771  0.50273884  0.00038548  1
  I  I103  1  0.83417936  0.50296267  0.33274370  1
  I  I104  1  0.83825305  0.50323555  0.66690403  1
  I  I105  1  0.82976576  0.83018798  -0.00039216  1
  I  I106  1  0.83458234  0.82897116  0.33288218  1
  I  I107  1  0.82993975  0.82922495  0.66745580  1
  I  I108  1  -0.00405355  0.16746345  0.16259581  1
  I  I109  1  -0.00068561  0.16367487  0.50032693  1
  I  I110  1  -0.00409160  0.16583488  0.83724900  1
  I  I111  1  -0.00413180  0.50006294  0.16469520  1
  I  I112  1  -0.00311749  0.50433937  0.49853813  1
  I  I113  1  -0.00564977  0.50102943  0.83946755  1
  I  I114  1  -0.00623279  0.83181313  0.16321125  1
  I  I115  1  -0.00484534  0.83198898  0.50270499  1
  I  I116  1  -0.00477603  0.83350000  0.83317922  1
  I  I117  1  0.33751136  0.17493160  0.16036781  1
  I  I118  1  0.33341077  0.16915881  0.50048803  1
  I  I119  1  0.33744165  0.16217541  0.83867143  1
  I  I120  1  0.33665702  0.49329863  0.16704113  1
  I  I121  1  0.33094166  0.49749933  0.49939415  1
  I  I122  1  0.33367449  0.50003178  0.83276268  1
  I  I123  1  0.33379692  0.83232055  0.16502950  1
  I  I124  1  0.33329085  0.83222193  0.50065436  1
  I  I125  1  0.33676738  0.83883720  0.83488313  1
  I  I126  1  0.66830426  0.16846565  0.16276152  1
  I  I127  1  0.66713154  0.17023802  0.50015392  1
  I  I128  1  0.66834880  0.16571342  0.83702766  1
  I  I129  1  0.66933954  0.49918824  0.16911261  1
  I  I130  1  0.67074114  0.50401866  0.50200400  1
  I  I131  1  0.67093523  0.50094193  0.82767166  1
  I  I132  1  0.67085123  0.83154743  0.16899383  1
  I  I133  1  0.67135831  0.82479585  0.49716649  1
  I  I134  1  0.66923367  0.83394712  0.83286179  1
