# generated using pymatgen
data_Cs27Sn14Pb13I81
_symmetry_space_group_name_H-M   'P 1'
_cell_length_a   18.95675551
_cell_length_b   18.96436595
_cell_length_c   18.96054924
_cell_angle_alpha   89.99965904
_cell_angle_beta   90.00255432
_cell_angle_gamma   90.00005860
_symmetry_Int_Tables_number   1
_chemical_formula_structural   Cs27Sn14Pb13I81
_chemical_formula_sum   'Cs27 Sn14 Pb13 I81'
_cell_volume   6816.37145995
_cell_formula_units_Z   1
loop_
 _symmetry_equiv_pos_site_id
 _symmetry_equiv_pos_as_xyz
  1  'x, y, z'
loop_
 _atom_site_type_symbol
 _atom_site_label
 _atom_site_symmetry_multiplicity
 _atom_site_fract_x
 _atom_site_fract_y
 _atom_site_fract_z
 _atom_site_occupancy
  Cs  Cs0  1  -0.00113823  0.00456344  0.00000548  1
  Cs  Cs1  1  -0.00004969  -0.00138252  0.33523754  1
  Cs  Cs2  1  0.00205269  -0.00104498  0.66385924  1
  Cs  Cs3  1  -0.00035715  0.33098634  -0.00022051  1
  Cs  Cs4  1  0.00017291  0.33327464  0.33251115  1
  Cs  Cs5  1  0.00063138  0.33339432  0.66763351  1
  Cs  Cs6  1  -0.00067864  0.66447111  -0.00143877  1
  Cs  Cs7  1  -0.00111996  0.66734246  0.33406551  1
  Cs  Cs8  1  -0.00013600  0.66725297  0.66663374  1
  Cs  Cs9  1  0.34291555  -0.00107139  0.00437814  1
  Cs  Cs10  1  0.33420055  -0.00297478  0.32461372  1
  Cs  Cs11  1  0.33139687  0.00059097  0.66838153  1
  Cs  Cs12  1  0.32924467  0.33666245  0.00226007  1
  Cs  Cs13  1  0.33571911  0.33346300  0.33361482  1
  Cs  Cs14  1  0.33307873  0.33402475  0.66505649  1
  Cs  Cs15  1  0.33543112  0.66580171  0.00110715  1
  Cs  Cs16  1  0.33091642  0.66744292  0.33075002  1
  Cs  Cs17  1  0.33217982  0.66553015  0.66771323  1
  Cs  Cs18  1  0.65945267  0.00483822  0.00059218  1
  Cs  Cs19  1  0.66781961  0.00102197  0.33281347  1
  Cs  Cs20  1  0.66379704  -0.00061240  0.66752118  1
  Cs  Cs21  1  0.67034724  0.32986453  -0.00194403  1
  Cs  Cs22  1  0.66382273  0.33430531  0.33592738  1
  Cs  Cs23  1  0.66482645  0.33215396  0.66632043  1
  Cs  Cs24  1  0.66612623  0.66657047  0.00063068  1
  Cs  Cs25  1  0.66848032  0.66520133  0.33464992  1
  Cs  Cs26  1  0.66829033  0.66625727  0.66534987  1
  Sn  Sn27  1  0.16674921  0.16652157  0.83275547  1
  Sn  Sn28  1  0.83238935  0.83349563  0.50014920  1
  Sn  Sn29  1  0.83251861  0.50066332  0.16733538  1
  Sn  Sn30  1  0.16617297  0.83361390  0.83356428  1
  Sn  Sn31  1  0.83357244  0.83284685  0.16625818  1
  Sn  Sn32  1  0.50127626  0.50020266  0.16564072  1
  Sn  Sn33  1  0.16603537  0.16734859  0.50036677  1
  Sn  Sn34  1  0.50027045  0.83317872  0.50027784  1
  Sn  Sn35  1  0.83393596  0.16684795  0.50029161  1
  Sn  Sn36  1  0.16568965  0.49935950  0.50068146  1
  Sn  Sn37  1  0.49962613  0.50010507  0.83396012  1
  Sn  Sn38  1  0.83419602  0.49962335  0.49945439  1
  Sn  Sn39  1  0.16726274  0.50004587  0.83245005  1
  Sn  Sn40  1  0.83375982  0.83343151  0.83368918  1
  Pb  Pb41  1  0.16589081  0.50008278  0.16693409  1
  Pb  Pb42  1  0.50023423  0.17012421  0.16676963  1
  Pb  Pb43  1  0.49965978  0.50155715  0.50003293  1
  Pb  Pb44  1  0.16653731  0.83334132  0.50127432  1
  Pb  Pb45  1  0.49904409  0.16379406  0.50000090  1
  Pb  Pb46  1  0.50012096  0.83143397  0.83178894  1
  Pb  Pb47  1  0.16659186  0.16654397  0.16716731  1
  Pb  Pb48  1  0.83359510  0.50127984  0.83321162  1
  Pb  Pb49  1  0.50274443  0.83105123  0.16904327  1
  Pb  Pb50  1  0.49692347  0.16988712  0.83304779  1
  Pb  Pb51  1  0.16383776  0.83331797  0.16293708  1
  Pb  Pb52  1  0.83515570  0.16356260  0.83081668  1
  Pb  Pb53  1  0.83337352  0.16698712  0.16921762  1
  I  I54  1  0.16451050  -0.00022111  0.16887147  1
  I  I55  1  0.16249875  0.00236059  0.50554064  1
  I  I56  1  0.15939683  -0.00011720  0.82720660  1
  I  I57  1  0.16487116  0.33368946  0.16247868  1
  I  I58  1  0.15921672  0.33425585  0.50766462  1
  I  I59  1  0.17155020  0.33421332  0.82896287  1
  I  I60  1  0.16819060  0.66650602  0.16813911  1
  I  I61  1  0.16384055  0.66399726  0.50415213  1
  I  I62  1  0.16619189  0.66589883  0.82877574  1
  I  I63  1  0.50013187  -0.00042038  0.16774737  1
  I  I64  1  0.50519408  -0.00400844  0.50144764  1
  I  I65  1  0.49934060  -0.00015613  0.83184989  1
  I  I66  1  0.50602157  0.33834487  0.16490321  1
  I  I67  1  0.50248289  0.33361898  0.49965742  1
  I  I68  1  0.49690415  0.33811241  0.83507371  1
  I  I69  1  0.50150521  0.66321664  0.16336538  1
  I  I70  1  0.50503654  0.66910699  0.50074420  1
  I  I71  1  0.49410916  0.66350689  0.83547825  1
  I  I72  1  0.83565588  -0.00313000  0.16807524  1
  I  I73  1  0.83419389  -0.00088264  0.50032044  1
  I  I74  1  0.83874171  -0.00475909  0.83300980  1
  I  I75  1  0.83005762  0.33693252  0.17065843  1
  I  I76  1  0.83786109  0.33447115  0.49547202  1
  I  I77  1  0.83349100  0.33326401  0.83381456  1
  I  I78  1  0.83054356  0.66622242  0.17194273  1
  I  I79  1  0.83357584  0.66661455  0.49938639  1
  I  I80  1  0.83828109  0.66939418  0.82857351  1
  I  I81  1  0.16615602  0.16869840  -0.00353191  1
  I  I82  1  0.16239114  0.17215780  0.33745456  1
  I  I83  1  0.16208314  0.16811411  0.66628669  1
  I  I84  1  0.16748267  0.49995905  -0.00323815  1
  I  I85  1  0.16598904  0.49574329  0.33673316  1
  I  I86  1  0.16661694  0.49985531  0.66675941  1
  I  I87  1  0.16228635  0.83117486  -0.00536001  1
  I  I88  1  0.16706532  0.83301733  0.33338313  1
  I  I89  1  0.16124143  0.83189542  0.66944765  1
  I  I90  1  0.49886552  0.16287794  -0.00028245  1
  I  I91  1  0.49778328  0.16846542  0.33371763  1
  I  I92  1  0.50281315  0.16927953  0.66648356  1
  I  I93  1  0.49892555  0.50200311  -0.00028666  1
  I  I94  1  0.50156412  0.50209553  0.33128933  1
  I  I95  1  0.49822211  0.50219302  0.66877606  1
  I  I96  1  0.50006448  0.83326722  0.00011891  1
  I  I97  1  0.50396365  0.83101236  0.33687467  1
  I  I98  1  0.50666046  0.82986184  0.66403870  1
  I  I99  1  0.83533569  0.16695288  -0.00029179  1
  I  I100  1  0.83988500  0.16253278  0.33767706  1
  I  I101  1  0.83550136  0.16867011  0.66244642  1
  I  I102  1  0.83258362  0.50576876  0.00223486  1
  I  I103  1  0.83329585  0.50455635  0.33454039  1
  I  I104  1  0.83424264  0.50172911  0.66365138  1
  I  I105  1  0.83979228  0.82596982  -0.00010853  1
  I  I106  1  0.82869701  0.83210724  0.33445354  1
  I  I107  1  0.83393269  0.83201353  0.66572743  1
  I  I108  1  -0.00021050  0.16956598  0.16447187  1
  I  I109  1  -0.00018743  0.16566303  0.50351453  1
  I  I110  1  0.00350189  0.17250947  0.83159668  1
  I  I111  1  -0.00338879  0.50401330  0.16834400  1
  I  I112  1  -0.00072298  0.50202955  0.50033354  1
  I  I113  1  0.00289199  0.49941465  0.83203752  1
  I  I114  1  -0.00442094  0.82604383  0.17370669  1
  I  I115  1  -0.00318043  0.83274639  0.49880486  1
  I  I116  1  -0.00015365  0.82980977  0.83027171  1
  I  I117  1  0.33330319  0.16740846  0.16929904  1
  I  I118  1  0.32945689  0.17179933  0.50497817  1
  I  I119  1  0.32852089  0.16150199  0.82521416  1
  I  I120  1  0.33554407  0.49939793  0.16579611  1
  I  I121  1  0.33045761  0.49756740  0.50127768  1
  I  I122  1  0.33178268  0.50216385  0.83267896  1
  I  I123  1  0.33367008  0.83239033  0.16834030  1
  I  I124  1  0.33509327  0.83142850  0.50344691  1
  I  I125  1  0.33049913  0.83387220  0.82882066  1
  I  I126  1  0.66712006  0.16452610  0.16814656  1
  I  I127  1  0.66975919  0.16914081  0.49855531  1
  I  I128  1  0.66671467  0.16657321  0.83224162  1
  I  I129  1  0.66791340  0.50483415  0.16759121  1
  I  I130  1  0.66962097  0.49927561  0.49954216  1
  I  I131  1  0.66483768  0.50409810  0.83335129  1
  I  I132  1  0.67095411  0.83045890  0.16300880  1
  I  I133  1  0.66950907  0.83181449  0.50221606  1
  I  I134  1  0.66969172  0.82977259  0.83296653  1
