# generated using pymatgen
data_Cs27Sn13Pb14I81
_symmetry_space_group_name_H-M   'P 1'
_cell_length_a   18.97007476
_cell_length_b   18.98128495
_cell_length_c   18.98125381
_cell_angle_alpha   89.99850977
_cell_angle_beta   89.99983102
_cell_angle_gamma   89.99847650
_symmetry_Int_Tables_number   1
_chemical_formula_structural   Cs27Sn13Pb14I81
_chemical_formula_sum   'Cs27 Sn13 Pb14 I81'
_cell_volume   6834.70142968
_cell_formula_units_Z   1
loop_
 _symmetry_equiv_pos_site_id
 _symmetry_equiv_pos_as_xyz
  1  'x, y, z'
loop_
 _atom_site_type_symbol
 _atom_site_label
 _atom_site_symmetry_multiplicity
 _atom_site_fract_x
 _atom_site_fract_y
 _atom_site_fract_z
 _atom_site_occupancy
  Cs  Cs0  1  0.00214313  -0.00106065  -0.00337601  1
  Cs  Cs1  1  0.00251544  -0.00253612  0.33555158  1
  Cs  Cs2  1  -0.00275149  0.00022726  0.66798315  1
  Cs  Cs3  1  -0.00217593  0.33401580  0.00097060  1
  Cs  Cs4  1  -0.00570541  0.33769351  0.33207943  1
  Cs  Cs5  1  0.00102909  0.33496454  0.66534704  1
  Cs  Cs6  1  0.00017474  0.66600157  0.00364529  1
  Cs  Cs7  1  -0.00398650  0.66440160  0.33218704  1
  Cs  Cs8  1  -0.00013694  0.66491765  0.66431986  1
  Cs  Cs9  1  0.33229055  -0.00085287  0.00292424  1
  Cs  Cs10  1  0.33305650  0.00005579  0.33315727  1
  Cs  Cs11  1  0.33172537  0.00354501  0.66442190  1
  Cs  Cs12  1  0.33272892  0.33347894  -0.00217604  1
  Cs  Cs13  1  0.33429656  0.33249400  0.33468878  1
  Cs  Cs14  1  0.33225835  0.33335329  0.66679978  1
  Cs  Cs15  1  0.33591281  0.66795843  -0.00105102  1
  Cs  Cs16  1  0.33294563  0.66855181  0.33349203  1
  Cs  Cs17  1  0.33407670  0.66340680  0.66749601  1
  Cs  Cs18  1  0.66691913  -0.00111678  -0.00013077  1
  Cs  Cs19  1  0.66562290  0.00322498  0.33291015  1
  Cs  Cs20  1  0.67366475  -0.00199726  0.66777942  1
  Cs  Cs21  1  0.67111258  0.33239178  0.00436783  1
  Cs  Cs22  1  0.67040025  0.33465493  0.32907456  1
  Cs  Cs23  1  0.66440519  0.33039285  0.66700651  1
  Cs  Cs24  1  0.66563714  0.66800179  -0.00474971  1
  Cs  Cs25  1  0.67018039  0.66337179  0.33445730  1
  Cs  Cs26  1  0.66594723  0.67204120  0.67141193  1
  Sn  Sn27  1  0.49888684  0.50000961  0.16714115  1
  Sn  Sn28  1  0.16691203  0.16777420  0.16704955  1
  Sn  Sn29  1  0.16782185  0.49929075  0.16679660  1
  Sn  Sn30  1  0.49934951  0.16646419  0.83295122  1
  Sn  Sn31  1  0.16756948  0.83373222  0.50116266  1
  Sn  Sn32  1  0.16705673  0.16626464  0.49984700  1
  Sn  Sn33  1  0.83302036  0.83399423  0.16668120  1
  Sn  Sn34  1  0.49960537  0.49986313  0.49936048  1
  Sn  Sn35  1  0.49922467  0.83368423  0.49995490  1
  Sn  Sn36  1  0.83340512  0.49985998  0.83288433  1
  Sn  Sn37  1  0.16751515  0.16600795  0.83310524  1
  Sn  Sn38  1  0.16721560  0.83358596  0.83223677  1
  Sn  Sn39  1  0.49933846  0.16651369  0.50077788  1
  Pb  Pb40  1  0.82984800  0.50003943  0.50276198  1
  Pb  Pb41  1  0.83295967  0.50153405  0.16511479  1
  Pb  Pb42  1  0.83617597  0.83160301  0.83502762  1
  Pb  Pb43  1  0.83351341  0.16673125  0.49994082  1
  Pb  Pb44  1  0.49810261  0.16838788  0.16686687  1
  Pb  Pb45  1  0.83368268  0.83344064  0.49835980  1
  Pb  Pb46  1  0.16551021  0.49974237  0.83542654  1
  Pb  Pb47  1  0.49759520  0.83621054  0.83103456  1
  Pb  Pb48  1  0.50153976  0.49761946  0.83331635  1
  Pb  Pb49  1  0.50212524  0.83101110  0.16910413  1
  Pb  Pb50  1  0.16590498  0.83337126  0.16720561  1
  Pb  Pb51  1  0.83652215  0.16390602  0.16665585  1
  Pb  Pb52  1  0.83368853  0.16827645  0.83326434  1
  Pb  Pb53  1  0.16835243  0.49997392  0.49786795  1
  I  I54  1  0.16436224  0.00273377  0.16642881  1
  I  I55  1  0.17379927  0.00060769  0.49771745  1
  I  I56  1  0.16930398  0.00113591  0.83548293  1
  I  I57  1  0.17017687  0.33276924  0.16602238  1
  I  I58  1  0.17106827  0.33020593  0.50311199  1
  I  I59  1  0.16897159  0.32999604  0.83079509  1
  I  I60  1  0.16778264  0.66441177  0.16631905  1
  I  I61  1  0.17076807  0.66941805  0.50291034  1
  I  I62  1  0.16388081  0.66910482  0.83048964  1
  I  I63  1  0.50009322  0.00012063  0.16710289  1
  I  I64  1  0.49514643  0.00060815  0.50379315  1
  I  I65  1  0.49888025  0.00419066  0.82963721  1
  I  I66  1  0.49915196  0.33634318  0.17186419  1
  I  I67  1  0.49555567  0.33249460  0.50076363  1
  I  I68  1  0.49309995  0.32995037  0.82733608  1
  I  I69  1  0.49357972  0.66293155  0.17087019  1
  I  I70  1  0.49605510  0.66679714  0.49454096  1
  I  I71  1  0.50014955  0.66674286  0.83260606  1
  I  I72  1  0.83453954  -0.00338764  0.16678485  1
  I  I73  1  0.82940050  -0.00003706  0.49925722  1
  I  I74  1  0.83216447  -0.00009850  0.83463482  1
  I  I75  1  0.83259133  0.33339134  0.16539436  1
  I  I76  1  0.83483889  0.33351498  0.49898946  1
  I  I77  1  0.83498704  0.33583433  0.83603433  1
  I  I78  1  0.83738198  0.66880970  0.16630150  1
  I  I79  1  0.83466851  0.66667356  0.49921649  1
  I  I80  1  0.83299346  0.66408285  0.83477126  1
  I  I81  1  0.17017498  0.16606139  -0.00063209  1
  I  I82  1  0.17114330  0.16497017  0.33430690  1
  I  I83  1  0.17100666  0.16186142  0.66642953  1
  I  I84  1  0.17125310  0.49706811  0.00338770  1
  I  I85  1  0.16736803  0.49700075  0.32995356  1
  I  I86  1  0.16619828  0.49850890  0.66653632  1
  I  I87  1  0.16331900  0.83658908  -0.00192039  1
  I  I88  1  0.16922077  0.83700399  0.33630845  1
  I  I89  1  0.16924429  0.84050867  0.66590511  1
  I  I90  1  0.49532477  0.16960465  -0.00240513  1
  I  I91  1  0.49539915  0.16465044  0.33662145  1
  I  I92  1  0.49193074  0.16996347  0.66549659  1
  I  I93  1  0.49787369  0.49808369  0.00248352  1
  I  I94  1  0.49595607  0.49824098  0.33386038  1
  I  I95  1  0.50182196  0.50105715  0.66369623  1
  I  I96  1  0.49976279  0.83255413  -0.00014977  1
  I  I97  1  0.49279178  0.83871972  0.33735940  1
  I  I98  1  0.49936950  0.82689544  0.66278801  1
  I  I99  1  0.83250470  0.16736082  -0.00000137  1
  I  I100  1  0.83249950  0.16792578  0.33317106  1
  I  I101  1  0.83662217  0.16729109  0.66671877  1
  I  I102  1  0.83221565  0.50068984  -0.00220442  1
  I  I103  1  0.83472007  0.50141023  0.33326573  1
  I  I104  1  0.83500882  0.50007910  0.66998056  1
  I  I105  1  0.83601353  0.83179123  0.00255599  1
  I  I106  1  0.83707092  0.83034399  0.33084307  1
  I  I107  1  0.83193899  0.83184831  0.66675076  1
  I  I108  1  0.00517676  0.17365743  0.16640703  1
  I  I109  1  0.00426989  0.16117849  0.50120936  1
  I  I110  1  0.00396191  0.16373527  0.83291856  1
  I  I111  1  0.00256084  0.49742698  0.16474229  1
  I  I112  1  0.00017980  0.50024845  0.49834114  1
  I  I113  1  -0.00204705  0.49900654  0.83698700  1
  I  I114  1  -0.00156106  0.83087683  0.16779481  1
  I  I115  1  0.00374012  0.83895330  0.50221403  1
  I  I116  1  0.00416210  0.84004309  0.82801241  1
  I  I117  1  0.32964649  0.16688055  0.16666020  1
  I  I118  1  0.33298486  0.16602810  0.50069435  1
  I  I119  1  0.33202464  0.16505566  0.83200495  1
  I  I120  1  0.33312490  0.49706801  0.16928852  1
  I  I121  1  0.33661276  0.49962220  0.49944310  1
  I  I122  1  0.33340245  0.50126818  0.83321038  1
  I  I123  1  0.33335715  0.83354007  0.16525579  1
  I  I124  1  0.33274627  0.83447852  0.50202103  1
  I  I125  1  0.32949976  0.83290665  0.83458149  1
  I  I126  1  0.66642626  0.16820337  0.16642916  1
  I  I127  1  0.66258524  0.16566839  0.50508533  1
  I  I128  1  0.66358426  0.16928406  0.82782769  1
  I  I129  1  0.66382260  0.50122928  0.17040031  1
  I  I130  1  0.66152216  0.49894268  0.49224912  1
  I  I131  1  0.66900350  0.49885621  0.83532963  1
  I  I132  1  0.66955664  0.83053736  0.16754695  1
  I  I133  1  0.66331201  0.83367877  0.49756544  1
  I  I134  1  0.66647108  0.83372332  0.83301331  1
