# generated using pymatgen
data_Cs27Sn13Pb14I81
_symmetry_space_group_name_H-M   'P 1'
_cell_length_a   18.99529294
_cell_length_b   18.96845057
_cell_length_c   18.96928139
_cell_angle_alpha   89.99890880
_cell_angle_beta   90.00028115
_cell_angle_gamma   89.99994980
_symmetry_Int_Tables_number   1
_chemical_formula_structural   Cs27Sn13Pb14I81
_chemical_formula_sum   'Cs27 Sn13 Pb14 I81'
_cell_volume   6834.84596449
_cell_formula_units_Z   1
loop_
 _symmetry_equiv_pos_site_id
 _symmetry_equiv_pos_as_xyz
  1  'x, y, z'
loop_
 _atom_site_type_symbol
 _atom_site_label
 _atom_site_symmetry_multiplicity
 _atom_site_fract_x
 _atom_site_fract_y
 _atom_site_fract_z
 _atom_site_occupancy
  Cs  Cs0  1  0.00444306  -0.00144236  0.00027395  1
  Cs  Cs1  1  0.00366771  0.00329281  0.33357468  1
  Cs  Cs2  1  -0.00005822  -0.00061912  0.66616126  1
  Cs  Cs3  1  -0.00184909  0.33592999  0.00065264  1
  Cs  Cs4  1  0.00090041  0.32963704  0.33699465  1
  Cs  Cs5  1  -0.00589467  0.33776738  0.65992192  1
  Cs  Cs6  1  -0.00012763  0.66648395  0.00052852  1
  Cs  Cs7  1  -0.00236934  0.66793044  0.33119517  1
  Cs  Cs8  1  0.00138350  0.66664073  0.66800998  1
  Cs  Cs9  1  0.33101785  -0.00005752  -0.00145104  1
  Cs  Cs10  1  0.33366464  0.00234177  0.33344654  1
  Cs  Cs11  1  0.33361442  -0.00160265  0.66793037  1
  Cs  Cs12  1  0.33519927  0.33345461  -0.00061823  1
  Cs  Cs13  1  0.33246479  0.33146597  0.33369062  1
  Cs  Cs14  1  0.33404150  0.34349695  0.66810677  1
  Cs  Cs15  1  0.33203255  0.66693401  0.00084672  1
  Cs  Cs16  1  0.33603501  0.66683380  0.33309169  1
  Cs  Cs17  1  0.33261853  0.66579160  0.66630115  1
  Cs  Cs18  1  0.66610509  0.00166825  -0.00064545  1
  Cs  Cs19  1  0.66431601  -0.00043733  0.33330703  1
  Cs  Cs20  1  0.66651684  0.00044396  0.66746447  1
  Cs  Cs21  1  0.66648177  0.33093576  -0.00143012  1
  Cs  Cs22  1  0.66655194  0.33373711  0.33208692  1
  Cs  Cs23  1  0.67224045  0.33686075  0.67271983  1
  Cs  Cs24  1  0.66860034  0.66797178  0.00408593  1
  Cs  Cs25  1  0.66584394  0.66674682  0.33155096  1
  Cs  Cs26  1  0.66624992  0.66619674  0.66444141  1
  Sn  Sn27  1  0.83330823  0.49867782  0.16682479  1
  Sn  Sn28  1  0.50003365  0.83346327  0.83261136  1
  Sn  Sn29  1  0.83326078  0.83365057  0.83264933  1
  Sn  Sn30  1  0.16692069  0.83354612  0.50043440  1
  Sn  Sn31  1  0.83319309  0.83373386  0.50062168  1
  Sn  Sn32  1  0.50007207  0.16660089  0.50043325  1
  Sn  Sn33  1  0.16675341  0.83413940  0.83239778  1
  Sn  Sn34  1  0.16670657  0.49981035  0.16700255  1
  Sn  Sn35  1  0.49992282  0.49884677  0.16671234  1
  Sn  Sn36  1  0.50060035  0.16731609  0.16722717  1
  Sn  Sn37  1  0.83284815  0.16699315  0.16666635  1
  Sn  Sn38  1  0.49993443  0.83423529  0.50091791  1
  Sn  Sn39  1  0.16651504  0.16709564  0.83244954  1
  Pb  Pb40  1  0.16924368  0.16500086  0.50287252  1
  Pb  Pb41  1  0.83567687  0.16448883  0.83531407  1
  Pb  Pb42  1  0.50022919  0.50300530  0.83596037  1
  Pb  Pb43  1  0.16701671  0.16878210  0.16504629  1
  Pb  Pb44  1  0.83339634  0.83423540  0.16684970  1
  Pb  Pb45  1  0.83316888  0.50236948  0.49757027  1
  Pb  Pb46  1  0.16646640  0.50011148  0.83483656  1
  Pb  Pb47  1  0.50022442  0.49975110  0.49816299  1
  Pb  Pb48  1  0.49845282  0.16508672  0.83293777  1
  Pb  Pb49  1  0.16675641  0.83160587  0.16671695  1
  Pb  Pb50  1  0.83328992  0.50253873  0.83547670  1
  Pb  Pb51  1  0.16663387  0.50258525  0.49757348  1
  Pb  Pb52  1  0.49986761  0.83416017  0.16683450  1
  Pb  Pb53  1  0.83096333  0.16441569  0.49812252  1
  I  I54  1  0.16627247  0.00019500  0.16732489  1
  I  I55  1  0.16480372  -0.00385836  0.49964199  1
  I  I56  1  0.16710825  -0.00235766  0.83278070  1
  I  I57  1  0.16706751  0.33659812  0.16344890  1
  I  I58  1  0.16871808  0.33311482  0.50103900  1
  I  I59  1  0.16928381  0.33070449  0.83854597  1
  I  I60  1  0.16667783  0.66355861  0.16524654  1
  I  I61  1  0.16980408  0.67143477  0.50622600  1
  I  I62  1  0.16680891  0.67053663  0.83122653  1
  I  I63  1  0.50532464  0.00304039  0.16769273  1
  I  I64  1  0.50003622  -0.00151305  0.49591844  1
  I  I65  1  0.50113538  -0.00365138  0.83526161  1
  I  I66  1  0.50038021  0.33269740  0.17201763  1
  I  I67  1  0.49846936  0.33013805  0.49507793  1
  I  I68  1  0.49663475  0.33318837  0.83157945  1
  I  I69  1  0.50106370  0.66433850  0.16586518  1
  I  I70  1  0.49957655  0.67037273  0.50193363  1
  I  I71  1  0.49666929  0.67166388  0.82873828  1
  I  I72  1  0.82703662  0.00277321  0.16635465  1
  I  I73  1  0.83494151  -0.00411538  0.50064161  1
  I  I74  1  0.83128207  -0.00409974  0.83296327  1
  I  I75  1  0.83213588  0.33350151  0.16600186  1
  I  I76  1  0.83218808  0.33300608  0.50025043  1
  I  I77  1  0.83515347  0.33309867  0.83354998  1
  I  I78  1  0.83229161  0.66432740  0.16643993  1
  I  I79  1  0.83074308  0.67123995  0.50118374  1
  I  I80  1  0.83611603  0.67134581  0.83248417  1
  I  I81  1  0.16864320  0.15790681  -0.00251168  1
  I  I82  1  0.16543745  0.16543342  0.33348965  1
  I  I83  1  0.16830944  0.16168035  0.67053974  1
  I  I84  1  0.16698470  0.50369621  0.00328161  1
  I  I85  1  0.16712751  0.50134288  0.32920849  1
  I  I86  1  0.16759469  0.49918662  0.66662038  1
  I  I87  1  0.16671696  0.83517493  -0.00333891  1
  I  I88  1  0.16691278  0.83072007  0.33653469  1
  I  I89  1  0.16700308  0.83673491  0.66721599  1
  I  I90  1  0.50219340  0.16892019  0.00288657  1
  I  I91  1  0.50257930  0.16318965  0.33243868  1
  I  I92  1  0.49739657  0.16017325  0.66391474  1
  I  I93  1  0.49986489  0.49588767  0.00449538  1
  I  I94  1  0.50036369  0.50290126  0.32945560  1
  I  I95  1  0.49881420  0.49805293  0.66665867  1
  I  I96  1  0.49961142  0.83225147  -0.00276112  1
  I  I97  1  0.50030532  0.83313948  0.33640082  1
  I  I98  1  0.49990842  0.83900099  0.66593277  1
  I  I99  1  0.82661963  0.16813985  0.00359616  1
  I  I100  1  0.83284277  0.16793708  0.32974053  1
  I  I101  1  0.83234597  0.16681293  0.66663170  1
  I  I102  1  0.83312628  0.50001005  0.00417425  1
  I  I103  1  0.83272891  0.50021518  0.32896394  1
  I  I104  1  0.83376654  0.49899706  0.66657803  1
  I  I105  1  0.83363946  0.83219758  -0.00274260  1
  I  I106  1  0.83236801  0.83185068  0.33621450  1
  I  I107  1  0.83326004  0.83402921  0.66671180  1
  I  I108  1  -0.00224617  0.16951642  0.16432594  1
  I  I109  1  0.00007013  0.16423997  0.49750287  1
  I  I110  1  0.00327653  0.15860996  0.83743611  1
  I  I111  1  -0.00057880  0.49873827  0.16539200  1
  I  I112  1  -0.00004493  0.50184541  0.49624210  1
  I  I113  1  -0.00002995  0.50356413  0.83888971  1
  I  I114  1  -0.00008065  0.83227557  0.16669279  1
  I  I115  1  0.00008261  0.83122001  0.50506200  1
  I  I116  1  0.00042859  0.83635025  0.82884989  1
  I  I117  1  0.33626998  0.16979807  0.16902655  1
  I  I118  1  0.33695165  0.15876201  0.49088721  1
  I  I119  1  0.33083803  0.15818539  0.83720758  1
  I  I120  1  0.33409528  0.49819310  0.16626023  1
  I  I121  1  0.33347121  0.50312760  0.49619085  1
  I  I122  1  0.33336012  0.50269698  0.83762696  1
  I  I123  1  0.33346375  0.83179185  0.16600399  1
  I  I124  1  0.33386954  0.83611097  0.50495294  1
  I  I125  1  0.33306308  0.83650518  0.82900961  1
  I  I126  1  0.66578180  0.17343677  0.16899129  1
  I  I127  1  0.66303180  0.15889178  0.49708927  1
  I  I128  1  0.66663793  0.16384497  0.83394999  1
  I  I129  1  0.66652926  0.49744629  0.16684036  1
  I  I130  1  0.66658691  0.50480771  0.49614666  1
  I  I131  1  0.66666410  0.50156179  0.83647247  1
  I  I132  1  0.66661846  0.82852814  0.16591304  1
  I  I133  1  0.66604496  0.83624093  0.50506418  1
  I  I134  1  0.66651069  0.83219953  0.82874646  1
