# generated using pymatgen
data_Cs27Sn13Pb14I81
_symmetry_space_group_name_H-M   'P 1'
_cell_length_a   18.97968309
_cell_length_b   18.97968309
_cell_length_c   18.97095771
_cell_angle_alpha   90.00195350
_cell_angle_beta   90.00195368
_cell_angle_gamma   89.99838428
_symmetry_Int_Tables_number   1
_chemical_formula_structural   Cs27Sn13Pb14I81
_chemical_formula_sum   'Cs27 Sn13 Pb14 I81'
_cell_volume   6833.87716517
_cell_formula_units_Z   1
loop_
 _symmetry_equiv_pos_site_id
 _symmetry_equiv_pos_as_xyz
  1  'x, y, z'
loop_
 _atom_site_type_symbol
 _atom_site_label
 _atom_site_symmetry_multiplicity
 _atom_site_fract_x
 _atom_site_fract_y
 _atom_site_fract_z
 _atom_site_occupancy
  Cs  Cs0  1  0.00236361  -0.00236335  -0.00000001  1
  Cs  Cs1  1  0.00075286  0.00117116  0.33865192  1
  Cs  Cs2  1  -0.00117115  -0.00075278  0.66134823  1
  Cs  Cs3  1  -0.00205885  0.33541687  -0.00268370  1
  Cs  Cs4  1  0.00456812  0.33381613  0.33740000  1
  Cs  Cs5  1  0.00049932  0.33157598  0.66786268  1
  Cs  Cs6  1  0.00019301  0.66840726  -0.00040025  1
  Cs  Cs7  1  0.00289561  0.66395494  0.33047370  1
  Cs  Cs8  1  -0.00458759  0.67063323  0.67107373  1
  Cs  Cs9  1  0.33159283  -0.00019288  0.00040031  1
  Cs  Cs10  1  0.32936671  0.00458744  0.32892640  1
  Cs  Cs11  1  0.33604522  -0.00289572  0.66952635  1
  Cs  Cs12  1  0.33558604  0.33168189  -0.00119210  1
  Cs  Cs13  1  0.32659541  0.33370804  0.33562496  1
  Cs  Cs14  1  0.33397761  0.33416951  0.66698698  1
  Cs  Cs15  1  0.33113411  0.66886581  0.00000001  1
  Cs  Cs16  1  0.33132882  0.66309316  0.33721349  1
  Cs  Cs17  1  0.33690670  0.66867085  0.66278651  1
  Cs  Cs18  1  0.66458303  0.00205870  0.00268377  1
  Cs  Cs19  1  0.66842385  -0.00049940  0.33213739  1
  Cs  Cs20  1  0.66618377  -0.00456815  0.66260003  1
  Cs  Cs21  1  0.66637078  0.33362927  0.00000008  1
  Cs  Cs22  1  0.66687499  0.33463700  0.33151265  1
  Cs  Cs23  1  0.66536293  0.33312498  0.66848734  1
  Cs  Cs24  1  0.66831810  0.66441395  0.00119211  1
  Cs  Cs25  1  0.66583059  0.66602245  0.33301311  1
  Cs  Cs26  1  0.66629201  0.67340454  0.66437496  1
  Sn  Sn27  1  0.83290079  0.49971807  0.49959812  1
  Sn  Sn28  1  0.83270686  0.49976073  0.16765092  1
  Sn  Sn29  1  0.49935897  0.49974964  0.83396558  1
  Sn  Sn30  1  0.83302471  0.16645201  0.83377454  1
  Sn  Sn31  1  0.83354797  0.16697527  0.16622548  1
  Sn  Sn32  1  0.50031832  0.83214793  0.16651720  1
  Sn  Sn33  1  0.50028189  0.16709919  0.50040190  1
  Sn  Sn34  1  0.83271343  0.83324299  0.16659067  1
  Sn  Sn35  1  0.16785202  0.49968165  0.83348273  1
  Sn  Sn36  1  0.50025040  0.50064108  0.16603443  1
  Sn  Sn37  1  0.16675701  0.16728660  0.83340933  1
  Sn  Sn38  1  0.16687524  0.83312472  0.50000003  1
  Sn  Sn39  1  0.50023930  0.16729315  0.83234910  1
  Pb  Pb40  1  0.16419258  0.50165968  0.50339474  1
  Pb  Pb41  1  0.83160175  0.16839828  0.50000000  1
  Pb  Pb42  1  0.16691013  0.49982404  0.16430681  1
  Pb  Pb43  1  0.50155134  0.49844866  0.49999998  1
  Pb  Pb44  1  0.16680256  0.83318905  0.16858586  1
  Pb  Pb45  1  0.83305650  0.83675500  0.83590300  1
  Pb  Pb46  1  0.16324501  0.16694351  0.16409703  1
  Pb  Pb47  1  0.50017599  0.83308985  0.83569319  1
  Pb  Pb48  1  0.16915248  0.16529225  0.50290347  1
  Pb  Pb49  1  0.50138299  0.16739403  0.16637385  1
  Pb  Pb50  1  0.16681096  0.83319743  0.83141406  1
  Pb  Pb51  1  0.83470773  0.83084759  0.49709656  1
  Pb  Pb52  1  0.49834034  0.83580742  0.49660529  1
  Pb  Pb53  1  0.83260593  0.49861700  0.83362615  1
  I  I54  1  0.16811409  0.00008733  0.16426597  1
  I  I55  1  0.16535049  -0.00228134  0.50063170  1
  I  I56  1  0.16719770  0.00328420  0.83306275  1
  I  I57  1  0.16751155  0.33335341  0.17012578  1
  I  I58  1  0.16642863  0.33339496  0.49874164  1
  I  I59  1  0.16704969  0.33273409  0.83358299  1
  I  I60  1  0.16198194  0.66648653  0.16338761  1
  I  I61  1  0.16717498  0.66908311  0.50054816  1
  I  I62  1  0.17076854  0.66355857  0.83293408  1
  I  I63  1  0.50462933  -0.00161376  0.16732746  1
  I  I64  1  0.50102276  0.00350875  0.50649734  1
  I  I65  1  0.49930239  0.00343217  0.83143164  1
  I  I66  1  0.50556656  0.33620409  0.16433176  1
  I  I67  1  0.50092743  0.33058747  0.50017372  1
  I  I68  1  0.49948050  0.33303789  0.83614572  1
  I  I69  1  0.50844362  0.66541426  0.16138239  1
  I  I70  1  0.50010744  0.66663926  0.50257331  1
  I  I71  1  0.49517137  0.66316929  0.83583510  1
  I  I72  1  0.82873270  0.00017486  0.16087208  1
  I  I73  1  0.83393030  0.00000160  0.49964929  1
  I  I74  1  0.83357989  0.00519618  0.83763836  1
  I  I75  1  0.82830970  0.33389410  0.16525804  1
  I  I76  1  0.83307629  0.33603496  0.49382589  1
  I  I77  1  0.83312606  0.33042511  0.83889342  1
  I  I78  1  0.82913423  0.66591600  0.17146503  1
  I  I79  1  0.83267302  0.66305503  0.49672327  1
  I  I80  1  0.83470002  0.66654466  0.83330798  1
  I  I81  1  0.17269138  0.16903068  -0.00418767  1
  I  I82  1  0.16766161  0.16479914  0.33367273  1
  I  I83  1  0.16106892  0.17045325  0.67095713  1
  I  I84  1  0.16529771  0.49632939  -0.00369612  1
  I  I85  1  0.16830892  0.50153305  0.33357930  1
  I  I86  1  0.17111745  0.49518925  0.67103851  1
  I  I87  1  0.16601365  0.83398611  0.00000001  1
  I  I88  1  0.16629667  0.83369122  0.33605742  1
  I  I89  1  0.16630898  0.83370328  0.66394262  1
  I  I90  1  0.49897182  0.16759590  -0.00296099  1
  I  I91  1  0.50347525  0.16542453  0.33495607  1
  I  I92  1  0.50168532  0.17238550  0.66892328  1
  I  I93  1  0.50268533  0.49731459  -0.00000003  1
  I  I94  1  0.50416948  0.50214259  0.33029557  1
  I  I95  1  0.49785731  0.49583065  0.66970443  1
  I  I96  1  0.50367093  0.83470245  0.00369613  1
  I  I97  1  0.50481095  0.82888266  0.32896146  1
  I  I98  1  0.49846647  0.83169110  0.66642070  1
  I  I99  1  0.83099312  0.16900709  -0.00000002  1
  I  I100  1  0.82926647  0.16488871  0.33035730  1
  I  I101  1  0.83511128  0.17073346  0.66964269  1
  I  I102  1  0.83240411  0.50102796  0.00296101  1
  I  I103  1  0.82761434  0.49831466  0.33107662  1
  I  I104  1  0.83457555  0.49652500  0.66504388  1
  I  I105  1  0.83096901  0.82730862  0.00418766  1
  I  I106  1  0.82954667  0.83893112  0.32904285  1
  I  I107  1  0.83520113  0.83233822  0.66632725  1
  I  I108  1  -0.00519611  0.16642005  0.16236164  1
  I  I109  1  -0.00000159  0.16606994  0.50035072  1
  I  I110  1  -0.00017487  0.17126731  0.83912781  1
  I  I111  1  -0.00343223  0.50069788  0.16856835  1
  I  I112  1  -0.00350875  0.49897748  0.49350255  1
  I  I113  1  0.00161377  0.49537070  0.83267254  1
  I  I114  1  -0.00328424  0.83280206  0.16693720  1
  I  I115  1  0.00228141  0.83464881  0.49936822  1
  I  I116  1  -0.00008732  0.83188593  0.83573405  1
  I  I117  1  0.33345533  0.16530004  0.16669225  1
  I  I118  1  0.33694503  0.16732686  0.50327643  1
  I  I119  1  0.33408400  0.17086556  0.82853495  1
  I  I120  1  0.33683074  0.50482863  0.16416508  1
  I  I121  1  0.33336075  0.49989218  0.49742657  1
  I  I122  1  0.33458573  0.49155645  0.83861746  1
  I  I123  1  0.33644142  0.82923155  0.16706584  1
  I  I124  1  0.33091683  0.83282590  0.49945159  1
  I  I125  1  0.33351345  0.83801832  0.83661290  1
  I  I126  1  0.66957490  0.16687413  0.16110636  1
  I  I127  1  0.66396505  0.16692367  0.50617415  1
  I  I128  1  0.66610590  0.17169052  0.83474210  1
  I  I129  1  0.66696209  0.50051928  0.16385413  1
  I  I130  1  0.66941253  0.49907279  0.49982648  1
  I  I131  1  0.66379591  0.49443331  0.83566822  1
  I  I132  1  0.66726590  0.83295040  0.16641709  1
  I  I133  1  0.66660509  0.83357123  0.50125873  1
  I  I134  1  0.66664659  0.83248836  0.82987365  1
