# generated using pymatgen
data_Cs27Sn14Pb13I81
_symmetry_space_group_name_H-M   'P 1'
_cell_length_a   18.97152731
_cell_length_b   18.97601787
_cell_length_c   18.98048544
_cell_angle_alpha   90.00047376
_cell_angle_beta   90.00006567
_cell_angle_gamma   89.99919122
_symmetry_Int_Tables_number   1
_chemical_formula_structural   Cs27Sn14Pb13I81
_chemical_formula_sum   'Cs27 Sn14 Pb13 I81'
_cell_volume   6833.05146171
_cell_formula_units_Z   1
loop_
 _symmetry_equiv_pos_site_id
 _symmetry_equiv_pos_as_xyz
  1  'x, y, z'
loop_
 _atom_site_type_symbol
 _atom_site_label
 _atom_site_symmetry_multiplicity
 _atom_site_fract_x
 _atom_site_fract_y
 _atom_site_fract_z
 _atom_site_occupancy
  Cs  Cs0  1  0.00294201  -0.00142986  0.00002529  1
  Cs  Cs1  1  0.00052744  -0.00149796  0.34044908  1
  Cs  Cs2  1  -0.00080434  0.00158514  0.66005834  1
  Cs  Cs3  1  -0.00052309  0.33357544  -0.00107502  1
  Cs  Cs4  1  0.00009656  0.33244732  0.33402654  1
  Cs  Cs5  1  0.00118630  0.33239457  0.66582056  1
  Cs  Cs6  1  -0.00029011  0.66703060  0.00164890  1
  Cs  Cs7  1  -0.00209842  0.66890835  0.33028954  1
  Cs  Cs8  1  -0.00061152  0.66564917  0.66525705  1
  Cs  Cs9  1  0.33146786  -0.00080959  -0.00109442  1
  Cs  Cs10  1  0.33327906  -0.00013838  0.33397720  1
  Cs  Cs11  1  0.33601833  0.00074288  0.66775443  1
  Cs  Cs12  1  0.33252447  0.33268697  0.00059433  1
  Cs  Cs13  1  0.33757798  0.33459135  0.33489227  1
  Cs  Cs14  1  0.33151199  0.33833408  0.66515182  1
  Cs  Cs15  1  0.33266686  0.66878133  -0.00264385  1
  Cs  Cs16  1  0.33367109  0.66627089  0.33445752  1
  Cs  Cs17  1  0.33454223  0.65687977  0.66894859  1
  Cs  Cs18  1  0.66699019  0.00084027  -0.00070418  1
  Cs  Cs19  1  0.66477173  0.00110721  0.33474397  1
  Cs  Cs20  1  0.66429221  0.00106662  0.66628466  1
  Cs  Cs21  1  0.66783025  0.32960524  0.00548867  1
  Cs  Cs22  1  0.66305780  0.33390034  0.32834312  1
  Cs  Cs23  1  0.66835130  0.33150220  0.66617576  1
  Cs  Cs24  1  0.66791546  0.66806297  -0.00161203  1
  Cs  Cs25  1  0.66869287  0.66600159  0.33347850  1
  Cs  Cs26  1  0.66628275  0.66673699  0.66941151  1
  Sn  Sn27  1  0.16572097  0.83401521  0.83339772  1
  Sn  Sn28  1  0.83350430  0.50066564  0.83374009  1
  Sn  Sn29  1  0.16652509  0.16632799  0.16617854  1
  Sn  Sn30  1  0.83430589  0.50069797  0.16635985  1
  Sn  Sn31  1  0.16745211  0.16570417  0.83389166  1
  Sn  Sn32  1  0.83456320  0.83305511  0.83389515  1
  Sn  Sn33  1  0.83337766  0.50004189  0.49967368  1
  Sn  Sn34  1  0.49974013  0.16612552  0.50096002  1
  Sn  Sn35  1  0.49907719  0.16673414  0.83284148  1
  Sn  Sn36  1  0.16616486  0.50025331  0.16655169  1
  Sn  Sn37  1  0.16657934  0.83354327  0.16622710  1
  Sn  Sn38  1  0.49968021  0.83332069  0.49965958  1
  Sn  Sn39  1  0.83331691  0.83320886  0.16598337  1
  Sn  Sn40  1  0.50006027  0.83339031  0.16741448  1
  Pb  Pb41  1  0.49753038  0.16417883  0.16636422  1
  Pb  Pb42  1  0.16898946  0.16660551  0.50043561  1
  Pb  Pb43  1  0.83416231  0.16582214  0.83349338  1
  Pb  Pb44  1  0.16925126  0.83311961  0.50081365  1
  Pb  Pb45  1  0.50007491  0.50293236  0.16630623  1
  Pb  Pb46  1  0.83047574  0.16927416  0.49972086  1
  Pb  Pb47  1  0.83623134  0.16579118  0.16666327  1
  Pb  Pb48  1  0.16459261  0.50010642  0.83539401  1
  Pb  Pb49  1  0.83122954  0.83194693  0.50026613  1
  Pb  Pb50  1  0.50295685  0.49651799  0.83376883  1
  Pb  Pb51  1  0.50220289  0.50020775  0.50000164  1
  Pb  Pb52  1  0.16404820  0.50023015  0.49682752  1
  Pb  Pb53  1  0.49985708  0.83458094  0.83341102  1
  I  I54  1  0.16765087  -0.00111495  0.16180075  1
  I  I55  1  0.16344139  -0.00015415  0.49476754  1
  I  I56  1  0.16522872  -0.00060863  0.84249374  1
  I  I57  1  0.16154737  0.33332359  0.16269989  1
  I  I58  1  0.16874088  0.33337335  0.49983817  1
  I  I59  1  0.16933562  0.33070552  0.83768243  1
  I  I60  1  0.16545736  0.66782561  0.16352356  1
  I  I61  1  0.17118615  0.66674472  0.50111104  1
  I  I62  1  0.16518049  0.66970699  0.83766656  1
  I  I63  1  0.50146270  -0.00387359  0.16769018  1
  I  I64  1  0.50097789  -0.00022697  0.49940067  1
  I  I65  1  0.50084229  0.00248303  0.83246805  1
  I  I66  1  0.50056468  0.33308808  0.16766543  1
  I  I67  1  0.50114308  0.33048408  0.50435033  1
  I  I68  1  0.49402454  0.32857690  0.82680935  1
  I  I69  1  0.49621057  0.67115976  0.17254696  1
  I  I70  1  0.50103535  0.66952243  0.49454975  1
  I  I71  1  0.49759062  0.66684431  0.83217043  1
  I  I72  1  0.83274107  -0.00396121  0.16072461  1
  I  I73  1  0.83387814  -0.00019148  0.49987437  1
  I  I74  1  0.83331495  -0.00346642  0.83973173  1
  I  I75  1  0.83693323  0.33649622  0.16583635  1
  I  I76  1  0.83225159  0.33748041  0.50006799  1
  I  I77  1  0.83223132  0.33605831  0.83412401  1
  I  I78  1  0.83749617  0.66709486  0.16658526  1
  I  I79  1  0.83027655  0.66398149  0.49912699  1
  I  I80  1  0.83806270  0.66760645  0.83452315  1
  I  I81  1  0.17284648  0.16549484  -0.00019370  1
  I  I82  1  0.16656556  0.16591022  0.33015577  1
  I  I83  1  0.16768238  0.16146324  0.67021990  1
  I  I84  1  0.16054531  0.50032728  0.00346670  1
  I  I85  1  0.16171427  0.50070190  0.32837806  1
  I  I86  1  0.16525169  0.49964055  0.66695285  1
  I  I87  1  0.16805049  0.83395020  0.00114640  1
  I  I88  1  0.16356055  0.83397672  0.32973428  1
  I  I89  1  0.16211547  0.83959450  0.67047946  1
  I  I90  1  0.49850146  0.16556564  -0.00243808  1
  I  I91  1  0.49964606  0.16464288  0.33526409  1
  I  I92  1  0.49601395  0.15971295  0.66693140  1
  I  I93  1  0.50279054  0.49975611  0.00011337  1
  I  I94  1  0.50213753  0.49503134  0.33306584  1
  I  I95  1  0.50203765  0.50517693  0.66683836  1
  I  I96  1  0.50012214  0.83422503  0.00266096  1
  I  I97  1  0.50042432  0.83905334  0.33234815  1
  I  I98  1  0.50171003  0.83681261  0.66471406  1
  I  I99  1  0.82636829  0.17203853  -0.00000412  1
  I  I100  1  0.83358070  0.16682524  0.33305697  1
  I  I101  1  0.83713816  0.16736996  0.66682081  1
  I  I102  1  0.83725456  0.50452581  0.00086894  1
  I  I103  1  0.83687675  0.50439056  0.33165319  1
  I  I104  1  0.83069388  0.50401691  0.66751881  1
  I  I105  1  0.83178361  0.82568144  0.00072787  1
  I  I106  1  0.83593117  0.82913278  0.33012024  1
  I  I107  1  0.83604227  0.82920864  0.66976588  1
  I  I108  1  0.00428227  0.16373382  0.15900445  1
  I  I109  1  0.00014008  0.16803078  0.50058224  1
  I  I110  1  0.00328949  0.16636868  0.83942361  1
  I  I111  1  -0.00075942  0.50464584  0.16675947  1
  I  I112  1  -0.00394749  0.50100738  0.50278130  1
  I  I113  1  -0.00358572  0.49891076  0.83192110  1
  I  I114  1  0.00015726  0.83161645  0.16151981  1
  I  I115  1  -0.00015824  0.83190727  0.49764892  1
  I  I116  1  0.00015835  0.83471271  0.84201643  1
  I  I117  1  0.32952131  0.16713612  0.16552860  1
  I  I118  1  0.33682336  0.16243986  0.50042469  1
  I  I119  1  0.33230278  0.15947792  0.83416515  1
  I  I120  1  0.33011028  0.50036133  0.16629399  1
  I  I121  1  0.33345305  0.49957030  0.49878853  1
  I  I122  1  0.33299997  0.50295935  0.83423034  1
  I  I123  1  0.33212051  0.83376593  0.16639576  1
  I  I124  1  0.33716951  0.83783625  0.49460541  1
  I  I125  1  0.33059448  0.83677193  0.83779258  1
  I  I126  1  0.66639936  0.16756427  0.16683154  1
  I  I127  1  0.66260293  0.16195725  0.50637307  1
  I  I128  1  0.66436484  0.16675256  0.82815746  1
  I  I129  1  0.67033696  0.50384092  0.16715135  1
  I  I130  1  0.67019388  0.50004894  0.49651788  1
  I  I131  1  0.67130484  0.50681079  0.83607583  1
  I  I132  1  0.66769674  0.82814904  0.16628057  1
  I  I133  1  0.66344877  0.83676227  0.49562233  1
  I  I134  1  0.66924830  0.83045288  0.83652295  1
