# generated using pymatgen
data_Cs27Sn13Pb14I81
_symmetry_space_group_name_H-M   'P 1'
_cell_length_a   19.00561300
_cell_length_b   19.01131967
_cell_length_c   19.00112245
_cell_angle_alpha   89.99913618
_cell_angle_beta   89.99869766
_cell_angle_gamma   89.99953417
_symmetry_Int_Tables_number   1
_chemical_formula_structural   Cs27Sn13Pb14I81
_chemical_formula_sum   'Cs27 Sn13 Pb14 I81'
_cell_volume   6865.51946354
_cell_formula_units_Z   1
loop_
 _symmetry_equiv_pos_site_id
 _symmetry_equiv_pos_as_xyz
  1  'x, y, z'
loop_
 _atom_site_type_symbol
 _atom_site_label
 _atom_site_symmetry_multiplicity
 _atom_site_fract_x
 _atom_site_fract_y
 _atom_site_fract_z
 _atom_site_occupancy
  Cs  Cs0  1  -0.00088373  0.00053412  0.00098696  1
  Cs  Cs1  1  0.00157727  0.00371675  0.33079069  1
  Cs  Cs2  1  0.00041909  -0.00187825  0.66882876  1
  Cs  Cs3  1  -0.00129054  0.33449338  -0.00194877  1
  Cs  Cs4  1  -0.00447711  0.32722374  0.33686267  1
  Cs  Cs5  1  0.00224407  0.33491674  0.66594934  1
  Cs  Cs6  1  0.00466446  0.66381774  0.00045608  1
  Cs  Cs7  1  0.00002547  0.66932746  0.33565055  1
  Cs  Cs8  1  0.00049663  0.66663684  0.66345366  1
  Cs  Cs9  1  0.33389292  -0.00145089  0.00080252  1
  Cs  Cs10  1  0.33188025  0.00275693  0.33409782  1
  Cs  Cs11  1  0.33797132  0.00094222  0.66455396  1
  Cs  Cs12  1  0.33251808  0.34012444  -0.00027707  1
  Cs  Cs13  1  0.33926099  0.33195045  0.33685689  1
  Cs  Cs14  1  0.33190111  0.32893367  0.66351284  1
  Cs  Cs15  1  0.32840901  0.66063086  0.00190426  1
  Cs  Cs16  1  0.33440050  0.66379397  0.32973754  1
  Cs  Cs17  1  0.33058280  0.66901591  0.66794914  1
  Cs  Cs18  1  0.66612181  -0.00016564  -0.00303616  1
  Cs  Cs19  1  0.66796374  -0.00172257  0.32952878  1
  Cs  Cs20  1  0.65807098  -0.00995626  0.67742192  1
  Cs  Cs21  1  0.66805419  0.33284514  -0.00058793  1
  Cs  Cs22  1  0.66879650  0.33742475  0.33280314  1
  Cs  Cs23  1  0.66294323  0.33369137  0.66906620  1
  Cs  Cs24  1  0.66614843  0.66572052  -0.00072140  1
  Cs  Cs25  1  0.66653994  0.66412481  0.34072675  1
  Cs  Cs26  1  0.66557536  0.67408610  0.65863694  1
  Sn  Sn27  1  0.83367882  0.50033066  0.16604999  1
  Sn  Sn28  1  0.50139708  0.50019474  0.83310581  1
  Sn  Sn29  1  0.16688471  0.16713968  0.16553389  1
  Sn  Sn30  1  0.50037266  0.16623473  0.16628909  1
  Sn  Sn31  1  0.50092120  0.83367501  0.16648481  1
  Sn  Sn32  1  0.16641984  0.16574436  0.83434417  1
  Sn  Sn33  1  0.83239300  0.16562597  0.50089636  1
  Sn  Sn34  1  0.16656970  0.50069439  0.49947469  1
  Sn  Sn35  1  0.16634550  0.83457411  0.83284780  1
  Sn  Sn36  1  0.16649390  0.83281217  0.50040793  1
  Sn  Sn37  1  0.83257936  0.83313193  0.16647142  1
  Sn  Sn38  1  0.83207858  0.50025560  0.83328366  1
  Sn  Sn39  1  0.83292477  0.16653489  0.16700503  1
  Pb  Pb40  1  0.49731099  0.83351698  0.49704405  1
  Pb  Pb41  1  0.50255785  0.50001332  0.16542346  1
  Pb  Pb42  1  0.49736294  0.83104438  0.83623029  1
  Pb  Pb43  1  0.50399727  0.16634128  0.49771747  1
  Pb  Pb44  1  0.16617582  0.49974527  0.83172213  1
  Pb  Pb45  1  0.49762049  0.49998690  0.50299454  1
  Pb  Pb46  1  0.16531496  0.16605491  0.50011403  1
  Pb  Pb47  1  0.49737455  0.16841988  0.83608804  1
  Pb  Pb48  1  0.83464449  0.49826845  0.50032684  1
  Pb  Pb49  1  0.83548353  0.83073924  0.83583200  1
  Pb  Pb50  1  0.16398781  0.49677554  0.16935395  1
  Pb  Pb51  1  0.83483603  0.16808164  0.83331461  1
  Pb  Pb52  1  0.16667473  0.83506180  0.16670466  1
  Pb  Pb53  1  0.83520168  0.83637421  0.49782522  1
  I  I54  1  0.16132893  0.00296618  0.16793497  1
  I  I55  1  0.16446406  -0.00221595  0.50004416  1
  I  I56  1  0.16520476  0.00028229  0.83193215  1
  I  I57  1  0.16717605  0.32894403  0.16066720  1
  I  I58  1  0.16402120  0.33460783  0.50071238  1
  I  I59  1  0.16604999  0.33115110  0.83649808  1
  I  I60  1  0.16699397  0.66645312  0.16397392  1
  I  I61  1  0.16446068  0.66728191  0.50717673  1
  I  I62  1  0.16682360  0.66862303  0.83126114  1
  I  I63  1  0.50469966  0.00081320  0.16648520  1
  I  I64  1  0.49559327  0.00005385  0.50275404  1
  I  I65  1  0.50013291  -0.00015214  0.83223388  1
  I  I66  1  0.49954893  0.33053800  0.16516385  1
  I  I67  1  0.49487756  0.33317351  0.49735773  1
  I  I68  1  0.50139117  0.33604844  0.83681318  1
  I  I69  1  0.50310092  0.66917075  0.16477568  1
  I  I70  1  0.50256847  0.66669146  0.49618714  1
  I  I71  1  0.50121887  0.66361722  0.83752394  1
  I  I72  1  0.83437303  0.00088425  0.17267214  1
  I  I73  1  0.83900942  0.00370555  0.49082962  1
  I  I74  1  0.83459989  -0.00022602  0.83382930  1
  I  I75  1  0.83464711  0.33247362  0.16693684  1
  I  I76  1  0.83953278  0.33078693  0.49089902  1
  I  I77  1  0.83380685  0.33595116  0.84035354  1
  I  I78  1  0.82934541  0.66668992  0.16081522  1
  I  I79  1  0.83427824  0.66697040  0.49821262  1
  I  I80  1  0.83333607  0.66288441  0.84015684  1
  I  I81  1  0.16332173  0.16077308  0.00079598  1
  I  I82  1  0.16688781  0.16625086  0.33041769  1
  I  I83  1  0.16301887  0.16767058  0.66899110  1
  I  I84  1  0.16810647  0.50233693  0.00024928  1
  I  I85  1  0.16485755  0.50688040  0.33646513  1
  I  I86  1  0.16390148  0.49829595  0.66429416  1
  I  I87  1  0.16651004  0.83564829  -0.00189715  1
  I  I88  1  0.16594585  0.83071845  0.33521313  1
  I  I89  1  0.16541615  0.83499814  0.66709070  1
  I  I90  1  0.50642559  0.16275686  0.00408097  1
  I  I91  1  0.49173799  0.16424891  0.32890182  1
  I  I92  1  0.49856465  0.16932830  0.66700820  1
  I  I93  1  0.49863237  0.49963593  -0.00222799  1
  I  I94  1  0.49940658  0.49971177  0.33324234  1
  I  I95  1  0.50785291  0.49920015  0.67076752  1
  I  I96  1  0.50223967  0.83872349  0.00368888  1
  I  I97  1  0.50217578  0.83673037  0.32901221  1
  I  I98  1  0.50088452  0.83197384  0.66693588  1
  I  I99  1  0.83270659  0.16555302  0.00373207  1
  I  I100  1  0.83751540  0.16912792  0.33040130  1
  I  I101  1  0.84123678  0.17223266  0.66446813  1
  I  I102  1  0.83145751  0.49653455  0.00106163  1
  I  I103  1  0.83576874  0.50017749  0.33026346  1
  I  I104  1  0.83300783  0.49563528  0.66943152  1
  I  I105  1  0.83273260  0.84043909  0.00397888  1
  I  I106  1  0.83242063  0.82836696  0.32932862  1
  I  I107  1  0.83378423  0.83332537  0.66673888  1
  I  I108  1  -0.00063926  0.16631397  0.16747369  1
  I  I109  1  -0.00203878  0.16758764  0.49080235  1
  I  I110  1  0.00283625  0.16635205  0.83995364  1
  I  I111  1  -0.00369020  0.50115055  0.15865887  1
  I  I112  1  0.00245948  0.50267311  0.50258759  1
  I  I113  1  -0.00215570  0.49906525  0.83756081  1
  I  I114  1  -0.00246028  0.83458344  0.16681072  1
  I  I115  1  0.00301667  0.82944330  0.50126319  1
  I  I116  1  0.00334229  0.83499000  0.83266079  1
  I  I117  1  0.33311439  0.16019598  0.16183114  1
  I  I118  1  0.33349728  0.16790724  0.49871839  1
  I  I119  1  0.32929487  0.16618793  0.83774686  1
  I  I120  1  0.33324236  0.50066429  0.16491244  1
  I  I121  1  0.32952707  0.50201856  0.50132105  1
  I  I122  1  0.33473355  0.50001004  0.83268460  1
  I  I123  1  0.33527944  0.83916985  0.16684408  1
  I  I124  1  0.32919213  0.83051015  0.50234873  1
  I  I125  1  0.32956858  0.83473237  0.83192283  1
  I  I126  1  0.66762582  0.16667148  0.17281546  1
  I  I127  1  0.67150803  0.17106836  0.49141177  1
  I  I128  1  0.66649725  0.16751880  0.83324488  1
  I  I129  1  0.67036178  0.49410392  0.16550727  1
  I  I130  1  0.66678773  0.49773531  0.49767950  1
  I  I131  1  0.66767703  0.49697749  0.84062864  1
  I  I132  1  0.66757257  0.83989296  0.16577063  1
  I  I133  1  0.66673769  0.83375605  0.50092303  1
  I  I134  1  0.66660278  0.83437096  0.83239020  1
