# generated using pymatgen
data_Cs27Sn14Pb13I81
_symmetry_space_group_name_H-M   'P 1'
_cell_length_a   18.95679162
_cell_length_b   18.96339344
_cell_length_c   18.96212986
_cell_angle_alpha   90.00038514
_cell_angle_beta   90.00236639
_cell_angle_gamma   90.00166684
_symmetry_Int_Tables_number   1
_chemical_formula_structural   Cs27Sn14Pb13I81
_chemical_formula_sum   'Cs27 Sn14 Pb13 I81'
_cell_volume   6816.60309832
_cell_formula_units_Z   1
loop_
 _symmetry_equiv_pos_site_id
 _symmetry_equiv_pos_as_xyz
  1  'x, y, z'
loop_
 _atom_site_type_symbol
 _atom_site_label
 _atom_site_symmetry_multiplicity
 _atom_site_fract_x
 _atom_site_fract_y
 _atom_site_fract_z
 _atom_site_occupancy
  Cs  Cs0  1  0.00224062  -0.00076202  0.00124156  1
  Cs  Cs1  1  -0.00810977  -0.00136206  0.33173325  1
  Cs  Cs2  1  0.00274315  -0.00066956  0.66817653  1
  Cs  Cs3  1  -0.00395056  0.33130548  -0.00241402  1
  Cs  Cs4  1  -0.00332902  0.33925106  0.33422912  1
  Cs  Cs5  1  0.00169325  0.33812905  0.66750244  1
  Cs  Cs6  1  0.00102002  0.66928367  0.00641532  1
  Cs  Cs7  1  -0.00479244  0.66220840  0.32977340  1
  Cs  Cs8  1  -0.00169708  0.66241578  0.66468223  1
  Cs  Cs9  1  0.33285542  0.00013343  -0.00124214  1
  Cs  Cs10  1  0.33507152  0.00146311  0.33561838  1
  Cs  Cs11  1  0.33399658  0.00001027  0.66685753  1
  Cs  Cs12  1  0.33430632  0.33114210  -0.00037244  1
  Cs  Cs13  1  0.33237551  0.33517251  0.33342444  1
  Cs  Cs14  1  0.33329435  0.33203053  0.66650561  1
  Cs  Cs15  1  0.33344239  0.66833033  0.00234579  1
  Cs  Cs16  1  0.33284437  0.66298970  0.33340354  1
  Cs  Cs17  1  0.33418580  0.66821994  0.66635120  1
  Cs  Cs18  1  0.66478857  0.00035432  -0.00155822  1
  Cs  Cs19  1  0.67225715  0.00081233  0.33548944  1
  Cs  Cs20  1  0.66478270  -0.00021277  0.66584497  1
  Cs  Cs21  1  0.66708215  0.33573600  -0.00082291  1
  Cs  Cs22  1  0.67285605  0.32968533  0.33112524  1
  Cs  Cs23  1  0.66669245  0.33272093  0.66728366  1
  Cs  Cs24  1  0.66432066  0.66232429  -0.00153820  1
  Cs  Cs25  1  0.66881947  0.66868397  0.33077420  1
  Cs  Cs26  1  0.66607753  0.66818824  0.66826870  1
  Sn  Sn27  1  0.83286127  0.83402774  0.83308595  1
  Sn  Sn28  1  0.49910332  0.83258270  0.49966530  1
  Sn  Sn29  1  0.50060702  0.83332550  0.83332777  1
  Sn  Sn30  1  0.16704622  0.83382779  0.49973262  1
  Sn  Sn31  1  0.49866725  0.49994111  0.83230699  1
  Sn  Sn32  1  0.49997281  0.16675973  0.83391673  1
  Sn  Sn33  1  0.16730773  0.16648947  0.16701482  1
  Sn  Sn34  1  0.16781249  0.49968648  0.83363030  1
  Sn  Sn35  1  0.49904220  0.16570305  0.16608686  1
  Sn  Sn36  1  0.16680088  0.16579096  0.49960308  1
  Sn  Sn37  1  0.49956896  0.83446218  0.16687365  1
  Sn  Sn38  1  0.83324152  0.16546850  0.83298962  1
  Sn  Sn39  1  0.50001221  0.50049695  0.50060212  1
  Sn  Sn40  1  0.16665392  0.16735136  0.83329963  1
  Pb  Pb41  1  0.16848062  0.50019484  0.50175939  1
  Pb  Pb42  1  0.83320191  0.16656682  0.16414390  1
  Pb  Pb43  1  0.82951358  0.50013693  0.50035769  1
  Pb  Pb44  1  0.83325684  0.50039345  0.83338915  1
  Pb  Pb45  1  0.16695533  0.49718763  0.16366030  1
  Pb  Pb46  1  0.83709546  0.16664957  0.50300257  1
  Pb  Pb47  1  0.83330493  0.50000611  0.16637546  1
  Pb  Pb48  1  0.49997954  0.49946348  0.16674972  1
  Pb  Pb49  1  0.83322712  0.83334583  0.50233797  1
  Pb  Pb50  1  0.16880438  0.83557643  0.17001834  1
  Pb  Pb51  1  0.16674982  0.83311782  0.83201075  1
  Pb  Pb52  1  0.83027832  0.83354533  0.16355823  1
  Pb  Pb53  1  0.49879965  0.16669012  0.49967573  1
  I  I54  1  0.16949833  0.00386809  0.15912198  1
  I  I55  1  0.17391849  0.00055688  0.50424240  1
  I  I56  1  0.16882443  0.00318637  0.83422858  1
  I  I57  1  0.17467510  0.32855983  0.17039489  1
  I  I58  1  0.16890974  0.33047705  0.50025252  1
  I  I59  1  0.16962584  0.33135424  0.83126751  1
  I  I60  1  0.16774273  0.66686457  0.16581452  1
  I  I61  1  0.17054521  0.66932002  0.50442236  1
  I  I62  1  0.17030455  0.66440599  0.82962613  1
  I  I63  1  0.49592125  0.00051020  0.16198387  1
  I  I64  1  0.49750448  -0.00270831  0.50341228  1
  I  I65  1  0.50017848  0.00024287  0.83345459  1
  I  I66  1  0.49621420  0.32972165  0.16255167  1
  I  I67  1  0.49746655  0.33541754  0.50482135  1
  I  I68  1  0.49945253  0.33237160  0.83325069  1
  I  I69  1  0.50117378  0.66960536  0.16349817  1
  I  I70  1  0.49443629  0.66805142  0.50442403  1
  I  I71  1  0.50074472  0.66736086  0.83280297  1
  I  I72  1  0.83469301  0.00010245  0.16736853  1
  I  I73  1  0.82848249  0.00005506  0.50000385  1
  I  I74  1  0.82967004  0.00066266  0.83295310  1
  I  I75  1  0.83004013  0.33265585  0.16365898  1
  I  I76  1  0.83273788  0.33318458  0.50247582  1
  I  I77  1  0.83155122  0.33026590  0.83405007  1
  I  I78  1  0.83176454  0.66721864  0.16350037  1
  I  I79  1  0.83829595  0.66694072  0.50387780  1
  I  I80  1  0.82851262  0.66962270  0.83241346  1
  I  I81  1  0.16786251  0.17111059  -0.00141951  1
  I  I82  1  0.17487034  0.16137266  0.33330645  1
  I  I83  1  0.16757070  0.16649491  0.66798368  1
  I  I84  1  0.17360782  0.49634200  -0.00478927  1
  I  I85  1  0.16853663  0.49842754  0.33350951  1
  I  I86  1  0.16910493  0.49371529  0.66998723  1
  I  I87  1  0.16681318  0.83327680  0.00000359  1
  I  I88  1  0.17358421  0.83835771  0.33794821  1
  I  I89  1  0.17307384  0.83934107  0.66428620  1
  I  I90  1  0.49611420  0.16400573  -0.00174773  1
  I  I91  1  0.49439426  0.16420561  0.33068916  1
  I  I92  1  0.49908366  0.16484435  0.66983598  1
  I  I93  1  0.49764169  0.50189280  -0.00361984  1
  I  I94  1  0.49912342  0.50350709  0.33623971  1
  I  I95  1  0.49645059  0.50255672  0.66848956  1
  I  I96  1  0.50435704  0.83399434  -0.00123482  1
  I  I97  1  0.49398657  0.83302182  0.33390033  1
  I  I98  1  0.50023425  0.83316895  0.66761808  1
  I  I99  1  0.83678445  0.16333515  -0.00432265  1
  I  I100  1  0.83196660  0.16750409  0.33330198  1
  I  I101  1  0.82974407  0.16311214  0.67140529  1
  I  I102  1  0.83046322  0.49933191  -0.00101361  1
  I  I103  1  0.83262688  0.49935828  0.33359769  1
  I  I104  1  0.83541209  0.49940199  0.66733349  1
  I  I105  1  0.82979774  0.83774187  -0.00462481  1
  I  I106  1  0.83244818  0.83294533  0.33325766  1
  I  I107  1  0.82667279  0.83755379  0.67045088  1
  I  I108  1  0.00317347  0.16743836  0.16476383  1
  I  I109  1  0.00545426  0.16034516  0.49991736  1
  I  I110  1  0.00123420  0.16690329  0.83293554  1
  I  I111  1  0.00056050  0.49877030  0.16457319  1
  I  I112  1  0.00032289  0.49986362  0.50241028  1
  I  I113  1  0.00293827  0.49547309  0.83293751  1
  I  I114  1  0.00011550  0.83430358  0.16584886  1
  I  I115  1  0.00304987  0.83936263  0.50401192  1
  I  I116  1  -0.00197314  0.83713906  0.83019645  1
  I  I117  1  0.33407868  0.16316596  0.16035468  1
  I  I118  1  0.33068770  0.16532607  0.50563801  1
  I  I119  1  0.33371266  0.16707917  0.83385968  1
  I  I120  1  0.33368945  0.50151998  0.16732768  1
  I  I121  1  0.33660799  0.50171769  0.50363748  1
  I  I122  1  0.33481377  0.49622636  0.82980239  1
  I  I123  1  0.33729794  0.83532187  0.15958961  1
  I  I124  1  0.33493818  0.83419036  0.50397625  1
  I  I125  1  0.33671586  0.83546592  0.83406789  1
  I  I126  1  0.66299644  0.16395464  0.16255164  1
  I  I127  1  0.66662231  0.16703105  0.49999105  1
  I  I128  1  0.66501296  0.16657469  0.83769112  1
  I  I129  1  0.66576199  0.49751995  0.16418118  1
  I  I130  1  0.66120026  0.50546072  0.50801091  1
  I  I131  1  0.66294651  0.49790742  0.83051556  1
  I  I132  1  0.66163725  0.83992931  0.17182139  1
  I  I133  1  0.66277081  0.82945913  0.49928813  1
  I  I134  1  0.66421055  0.83638302  0.83158226  1
