# generated using pymatgen
data_Cs27Sn14Pb13I81
_symmetry_space_group_name_H-M   'P 1'
_cell_length_a   19.02395897
_cell_length_b   19.01404247
_cell_length_c   19.01841371
_cell_angle_alpha   89.99807188
_cell_angle_beta   89.99917488
_cell_angle_gamma   90.00026359
_symmetry_Int_Tables_number   1
_chemical_formula_structural   Cs27Sn14Pb13I81
_chemical_formula_sum   'Cs27 Sn14 Pb13 I81'
_cell_volume   6879.38555962
_cell_formula_units_Z   1
loop_
 _symmetry_equiv_pos_site_id
 _symmetry_equiv_pos_as_xyz
  1  'x, y, z'
loop_
 _atom_site_type_symbol
 _atom_site_label
 _atom_site_symmetry_multiplicity
 _atom_site_fract_x
 _atom_site_fract_y
 _atom_site_fract_z
 _atom_site_occupancy
  Cs  Cs0  1  0.00548320  0.00285144  0.00162036  1
  Cs  Cs1  1  -0.00095824  -0.00430204  0.33271486  1
  Cs  Cs2  1  0.00465119  -0.00819056  0.66591274  1
  Cs  Cs3  1  0.01228910  0.34047855  -0.00329277  1
  Cs  Cs4  1  0.00304709  0.33183817  0.33603327  1
  Cs  Cs5  1  -0.00102583  0.33423011  0.66482875  1
  Cs  Cs6  1  -0.01472297  0.65405478  -0.00739843  1
  Cs  Cs7  1  -0.00548522  0.67636211  0.33363709  1
  Cs  Cs8  1  0.00145283  0.67498253  0.67357818  1
  Cs  Cs9  1  0.33147910  -0.00088836  0.00148655  1
  Cs  Cs10  1  0.33416382  -0.00180021  0.33130021  1
  Cs  Cs11  1  0.33460059  -0.00383377  0.66944858  1
  Cs  Cs12  1  0.32383106  0.33625147  0.00266785  1
  Cs  Cs13  1  0.33373109  0.33497042  0.33490049  1
  Cs  Cs14  1  0.33630748  0.33333106  0.66248133  1
  Cs  Cs15  1  0.33126666  0.66706174  0.00146933  1
  Cs  Cs16  1  0.33472103  0.66791719  0.33277473  1
  Cs  Cs17  1  0.33416199  0.67072529  0.66763675  1
  Cs  Cs18  1  0.66498293  0.00053844  -0.00011417  1
  Cs  Cs19  1  0.66603680  0.00234064  0.33205444  1
  Cs  Cs20  1  0.66416108  0.00455997  0.66867092  1
  Cs  Cs21  1  0.66645883  0.33160736  -0.00169260  1
  Cs  Cs22  1  0.66555329  0.33122398  0.33619102  1
  Cs  Cs23  1  0.66573732  0.33153493  0.66467327  1
  Cs  Cs24  1  0.67846885  0.66510012  -0.00039464  1
  Cs  Cs25  1  0.66736573  0.66689008  0.32942326  1
  Cs  Cs26  1  0.66480978  0.66665887  0.67103729  1
  Sn  Sn27  1  0.50032003  0.16804426  0.83394211  1
  Sn  Sn28  1  0.16716399  0.83246303  0.16627621  1
  Sn  Sn29  1  0.83284695  0.16732656  0.16627171  1
  Sn  Sn30  1  0.16623352  0.50006229  0.49969640  1
  Sn  Sn31  1  0.83298688  0.16667886  0.83348243  1
  Sn  Sn32  1  0.50050607  0.16648666  0.16642362  1
  Sn  Sn33  1  0.49969109  0.49876854  0.83298144  1
  Sn  Sn34  1  0.50020376  0.50034902  0.50055095  1
  Sn  Sn35  1  0.49939900  0.83388848  0.16710305  1
  Sn  Sn36  1  0.83345953  0.49949631  0.49990339  1
  Sn  Sn37  1  0.83370427  0.16724664  0.50021766  1
  Sn  Sn38  1  0.49962624  0.16640381  0.49982257  1
  Sn  Sn39  1  0.50052592  0.83335883  0.49899217  1
  Sn  Sn40  1  0.16684311  0.16685426  0.50004222  1
  Pb  Pb41  1  0.16691857  0.16562561  0.16940524  1
  Pb  Pb42  1  0.16928504  0.83311019  0.49873908  1
  Pb  Pb43  1  0.50011103  0.49967573  0.16646595  1
  Pb  Pb44  1  0.50010791  0.83331589  0.83439168  1
  Pb  Pb45  1  0.83073939  0.49662563  0.83002180  1
  Pb  Pb46  1  0.16650886  0.50342365  0.16999892  1
  Pb  Pb47  1  0.83293720  0.83711925  0.83329063  1
  Pb  Pb48  1  0.83313447  0.49584629  0.16961872  1
  Pb  Pb49  1  0.83257994  0.83607894  0.16651608  1
  Pb  Pb50  1  0.16717017  0.16666841  0.83017323  1
  Pb  Pb51  1  0.83000963  0.83382115  0.50020940  1
  Pb  Pb52  1  0.16971984  0.49986836  0.82987302  1
  Pb  Pb53  1  0.16680194  0.83309708  0.83736720  1
  I  I54  1  0.16903645  -0.00190298  0.17161535  1
  I  I55  1  0.16552611  0.00270465  0.49902566  1
  I  I56  1  0.16822754  0.00018733  0.82756641  1
  I  I57  1  0.16644833  0.33355390  0.16437419  1
  I  I58  1  0.17219050  0.33264743  0.49880401  1
  I  I59  1  0.16440638  0.33315933  0.84028103  1
  I  I60  1  0.18012882  0.67085160  0.17076637  1
  I  I61  1  0.16811184  0.66383768  0.49793815  1
  I  I62  1  0.17028273  0.66644603  0.82816370  1
  I  I63  1  0.50032715  0.00138588  0.17153682  1
  I  I64  1  0.49999667  0.00178895  0.50003845  1
  I  I65  1  0.50481527  0.00336026  0.82903449  1
  I  I66  1  0.50589294  0.32988673  0.17072675  1
  I  I67  1  0.49999714  0.33235808  0.50025772  1
  I  I68  1  0.50517281  0.33185521  0.82721435  1
  I  I69  1  0.49332430  0.66938082  0.17256213  1
  I  I70  1  0.49882319  0.66600745  0.50051197  1
  I  I71  1  0.49737538  0.66398886  0.82611010  1
  I  I72  1  0.83099231  0.00409074  0.17221889  1
  I  I73  1  0.83392124  0.00406317  0.49948659  1
  I  I74  1  0.82305842  0.00545165  0.82872894  1
  I  I75  1  0.82281760  0.32818156  0.16581663  1
  I  I76  1  0.82794035  0.33142459  0.49944423  1
  I  I77  1  0.82959918  0.32913436  0.83537453  1
  I  I78  1  0.83338837  0.66651493  0.16811607  1
  I  I79  1  0.83368672  0.66379068  0.49884037  1
  I  I80  1  0.83267700  0.66600024  0.83313949  1
  I  I81  1  0.16601931  0.16306823  0.00001760  1
  I  I82  1  0.16770604  0.17084086  0.33714554  1
  I  I83  1  0.16780436  0.17080760  0.66208457  1
  I  I84  1  0.16827261  0.50151005  -0.00012956  1
  I  I85  1  0.17267298  0.49293538  0.33790877  1
  I  I86  1  0.16430448  0.49397029  0.66198088  1
  I  I87  1  0.17957540  0.83931932  0.00495625  1
  I  I88  1  0.17022045  0.83449355  0.33129053  1
  I  I89  1  0.16687811  0.83349622  0.66652940  1
  I  I90  1  0.50945234  0.16518680  0.00014171  1
  I  I91  1  0.50249255  0.16603773  0.33466655  1
  I  I92  1  0.50256908  0.16676080  0.66515247  1
  I  I93  1  0.50008108  0.49564131  -0.00285289  1
  I  I94  1  0.49962327  0.49688006  0.33698611  1
  I  I95  1  0.50010591  0.49589582  0.66436212  1
  I  I96  1  0.49456982  0.83918209  0.00337628  1
  I  I97  1  0.49622665  0.83761794  0.33385508  1
  I  I98  1  0.50049791  0.83635785  0.66410612  1
  I  I99  1  0.82117074  0.16197377  0.00017269  1
  I  I100  1  0.82890720  0.17020695  0.33441571  1
  I  I101  1  0.82811702  0.17170748  0.66541606  1
  I  I102  1  0.83160029  0.50199780  -0.00039643  1
  I  I103  1  0.82789235  0.49358737  0.33777690  1
  I  I104  1  0.83465822  0.49183990  0.66245641  1
  I  I105  1  0.83043540  0.83311470  0.00018448  1
  I  I106  1  0.83589929  0.83486071  0.33350790  1
  I  I107  1  0.83274806  0.83545691  0.66634444  1
  I  I108  1  -0.00271806  0.16383156  0.16834757  1
  I  I109  1  -0.00076898  0.17538172  0.49926208  1
  I  I110  1  -0.00284164  0.16462563  0.83407767  1
  I  I111  1  -0.00011014  0.50064472  0.16752401  1
  I  I112  1  -0.00021519  0.48771437  0.49639317  1
  I  I113  1  -0.00018388  0.50021154  0.83407613  1
  I  I114  1  0.00220265  0.83685227  0.17032703  1
  I  I115  1  -0.00007002  0.83391983  0.49761791  1
  I  I116  1  0.00001093  0.83523460  0.83259035  1
  I  I117  1  0.33666283  0.16462337  0.16703867  1
  I  I118  1  0.33516866  0.16967324  0.49930829  1
  I  I119  1  0.33701114  0.16957174  0.83324592  1
  I  I120  1  0.33356803  0.49327990  0.16890508  1
  I  I121  1  0.33467676  0.49568722  0.50367855  1
  I  I122  1  0.33753923  0.49159833  0.82699002  1
  I  I123  1  0.33543549  0.84169214  0.17281374  1
  I  I124  1  0.33716699  0.83464357  0.49854113  1
  I  I125  1  0.33393939  0.83682625  0.82859229  1
  I  I126  1  0.66520722  0.16009552  0.17238495  1
  I  I127  1  0.66583839  0.16839534  0.49956599  1
  I  I128  1  0.66514612  0.17006090  0.82779674  1
  I  I129  1  0.66641802  0.50809465  0.16909288  1
  I  I130  1  0.66560609  0.49569543  0.50365810  1
  I  I131  1  0.66319778  0.49923611  0.82608109  1
  I  I132  1  0.66317778  0.83577814  0.17194332  1
  I  I133  1  0.66207964  0.83437976  0.49223380  1
  I  I134  1  0.66608611  0.82915757  0.83533891  1
