# generated using pymatgen
data_Cs27Sn14Pb13I81
_symmetry_space_group_name_H-M   'P 1'
_cell_length_a   18.97172493
_cell_length_b   18.97335068
_cell_length_c   18.97822793
_cell_angle_alpha   90.00158470
_cell_angle_beta   89.99905570
_cell_angle_gamma   89.99827150
_symmetry_Int_Tables_number   1
_chemical_formula_structural   Cs27Sn14Pb13I81
_chemical_formula_sum   'Cs27 Sn14 Pb13 I81'
_cell_volume   6831.34958997
_cell_formula_units_Z   1
loop_
 _symmetry_equiv_pos_site_id
 _symmetry_equiv_pos_as_xyz
  1  'x, y, z'
loop_
 _atom_site_type_symbol
 _atom_site_label
 _atom_site_symmetry_multiplicity
 _atom_site_fract_x
 _atom_site_fract_y
 _atom_site_fract_z
 _atom_site_occupancy
  Cs  Cs0  1  0.00105429  -0.00351412  -0.00300368  1
  Cs  Cs1  1  -0.00033242  -0.00181870  0.33639854  1
  Cs  Cs2  1  -0.00070212  -0.00122869  0.66616255  1
  Cs  Cs3  1  0.00253493  0.33465361  0.00184722  1
  Cs  Cs4  1  -0.00405601  0.33180921  0.33557097  1
  Cs  Cs5  1  0.00098435  0.32924643  0.66168066  1
  Cs  Cs6  1  -0.00041853  0.66953148  -0.00033543  1
  Cs  Cs7  1  0.00166049  0.66852759  0.33213088  1
  Cs  Cs8  1  -0.00105457  0.67202734  0.66882851  1
  Cs  Cs9  1  0.33493443  0.00110536  -0.00104711  1
  Cs  Cs10  1  0.33598005  -0.00176017  0.33284086  1
  Cs  Cs11  1  0.33460103  0.00253354  0.66858470  1
  Cs  Cs12  1  0.33192379  0.33371830  -0.00046462  1
  Cs  Cs13  1  0.32983816  0.33435207  0.33060833  1
  Cs  Cs14  1  0.33354048  0.33137099  0.66801772  1
  Cs  Cs15  1  0.33001297  0.66359046  0.00229261  1
  Cs  Cs16  1  0.33351929  0.66745974  0.33297124  1
  Cs  Cs17  1  0.33501044  0.66519053  0.66474965  1
  Cs  Cs18  1  0.66270610  0.00286625  0.00066456  1
  Cs  Cs19  1  0.66411375  -0.00184264  0.32924919  1
  Cs  Cs20  1  0.66262863  0.00005323  0.66891959  1
  Cs  Cs21  1  0.66993786  0.33324788  0.00142366  1
  Cs  Cs22  1  0.67934402  0.33221700  0.33185247  1
  Cs  Cs23  1  0.66497289  0.33980790  0.66615966  1
  Cs  Cs24  1  0.67110419  0.66286226  -0.00388114  1
  Cs  Cs25  1  0.66521523  0.66924460  0.33850511  1
  Cs  Cs26  1  0.66478642  0.65717820  0.66593288  1
  Sn  Sn27  1  0.50000122  0.16707828  0.49972143  1
  Sn  Sn28  1  0.83344939  0.83364497  0.49972558  1
  Sn  Sn29  1  0.83374002  0.83350691  0.16712597  1
  Sn  Sn30  1  0.16647940  0.83282928  0.49944274  1
  Sn  Sn31  1  0.16680334  0.50082896  0.49999064  1
  Sn  Sn32  1  0.16633273  0.16732461  0.83405248  1
  Sn  Sn33  1  0.16671439  0.16627568  0.16622733  1
  Sn  Sn34  1  0.49996938  0.49979249  0.16704114  1
  Sn  Sn35  1  0.50032057  0.16634681  0.83255954  1
  Sn  Sn36  1  0.16667307  0.49932962  0.83297797  1
  Sn  Sn37  1  0.16630735  0.83369817  0.16740570  1
  Sn  Sn38  1  0.49975569  0.83292441  0.83348055  1
  Sn  Sn39  1  0.16721922  0.49988984  0.16692162  1
  Sn  Sn40  1  0.83345012  0.16670881  0.83322673  1
  Pb  Pb41  1  0.83039346  0.16403511  0.50217063  1
  Pb  Pb42  1  0.83635521  0.50271198  0.50006544  1
  Pb  Pb43  1  0.49790757  0.49912930  0.83513151  1
  Pb  Pb44  1  0.49775834  0.49704638  0.49715819  1
  Pb  Pb45  1  0.83058995  0.83499415  0.83313338  1
  Pb  Pb46  1  0.16788309  0.16614545  0.49989514  1
  Pb  Pb47  1  0.49969630  0.83461413  0.50197441  1
  Pb  Pb48  1  0.49981117  0.83123091  0.16446895  1
  Pb  Pb49  1  0.16830546  0.83348739  0.83321238  1
  Pb  Pb50  1  0.83413444  0.50262185  0.16676760  1
  Pb  Pb51  1  0.49822358  0.16898454  0.16642543  1
  Pb  Pb52  1  0.83638685  0.16395179  0.16467466  1
  Pb  Pb53  1  0.83680498  0.49701190  0.83324351  1
  I  I54  1  0.16276803  -0.00047430  0.16580270  1
  I  I55  1  0.16442710  -0.00284373  0.49718264  1
  I  I56  1  0.16638351  0.00294514  0.83636850  1
  I  I57  1  0.17253679  0.33371929  0.16476054  1
  I  I58  1  0.17022409  0.33549859  0.49832632  1
  I  I59  1  0.16896823  0.33240140  0.83681355  1
  I  I60  1  0.16687744  0.66662564  0.16641538  1
  I  I61  1  0.16402076  0.66706870  0.49720538  1
  I  I62  1  0.16984925  0.66444158  0.83588599  1
  I  I63  1  0.49854093  0.00013369  0.16712096  1
  I  I64  1  0.49639353  0.00252060  0.50254662  1
  I  I65  1  0.49671172  0.00175813  0.83094209  1
  I  I66  1  0.49103795  0.33644926  0.16436884  1
  I  I67  1  0.49655028  0.32970556  0.50929057  1
  I  I68  1  0.50012665  0.32999838  0.83048530  1
  I  I69  1  0.49191625  0.66385988  0.16470184  1
  I  I70  1  0.50158576  0.66644820  0.50185612  1
  I  I71  1  0.49775890  0.66836924  0.83517934  1
  I  I72  1  0.83836499  -0.00379407  0.16997770  1
  I  I73  1  0.84264551  -0.00353897  0.49657172  1
  I  I74  1  0.83945350  0.00280127  0.83369513  1
  I  I75  1  0.83351278  0.33310582  0.16488977  1
  I  I76  1  0.83386639  0.33307835  0.50124513  1
  I  I77  1  0.82724591  0.32903632  0.83392952  1
  I  I78  1  0.83971168  0.67049869  0.16838518  1
  I  I79  1  0.83357121  0.67080866  0.49690654  1
  I  I80  1  0.83260580  0.66682755  0.83364467  1
  I  I81  1  0.16895694  0.16916478  -0.00070565  1
  I  I82  1  0.16982245  0.16873881  0.33077306  1
  I  I83  1  0.16626507  0.16959924  0.66958818  1
  I  I84  1  0.17062242  0.49905177  0.00068686  1
  I  I85  1  0.17128933  0.50093330  0.33251538  1
  I  I86  1  0.16626819  0.49952698  0.66676067  1
  I  I87  1  0.16378411  0.83121643  0.00266135  1
  I  I88  1  0.16376937  0.83089772  0.33269774  1
  I  I89  1  0.16379693  0.83062441  0.66415823  1
  I  I90  1  0.50022327  0.16354025  -0.00310733  1
  I  I91  1  0.49527507  0.16668473  0.33524167  1
  I  I92  1  0.49625194  0.16211658  0.66866922  1
  I  I93  1  0.49174644  0.49939583  0.00267281  1
  I  I94  1  0.49122020  0.50076958  0.32987045  1
  I  I95  1  0.49804411  0.50182365  0.66662800  1
  I  I96  1  0.49879369  0.84115140  -0.00303831  1
  I  I97  1  0.50008683  0.83488881  0.33323513  1
  I  I98  1  0.49848044  0.83633877  0.66977977  1
  I  I99  1  0.82821268  0.16388666  -0.00320624  1
  I  I100  1  0.83289236  0.16786572  0.33328624  1
  I  I101  1  0.84054844  0.16320084  0.67003134  1
  I  I102  1  0.83512585  0.50347467  -0.00000471  1
  I  I103  1  0.83428645  0.49574767  0.33333048  1
  I  I104  1  0.83363579  0.50346539  0.66671435  1
  I  I105  1  0.83876191  0.83376221  0.00242101  1
  I  I106  1  0.83839729  0.83372927  0.33314873  1
  I  I107  1  0.83936856  0.83574063  0.66412501  1
  I  I108  1  0.00474465  0.17225413  0.16233301  1
  I  I109  1  0.00005964  0.16840510  0.50113443  1
  I  I110  1  0.00155055  0.17085848  0.83851439  1
  I  I111  1  0.00422212  0.49810881  0.16620812  1
  I  I112  1  0.00489280  0.49838407  0.49656404  1
  I  I113  1  0.00519465  0.49718710  0.83756428  1
  I  I114  1  0.00207975  0.83163333  0.16906525  1
  I  I115  1  0.00152061  0.83024331  0.49677157  1
  I  I116  1  0.00015004  0.83412714  0.83332232  1
  I  I117  1  0.32964131  0.16251694  0.16125651  1
  I  I118  1  0.33534332  0.16442601  0.50673227  1
  I  I119  1  0.33279908  0.16642841  0.83332388  1
  I  I120  1  0.33038434  0.50220103  0.16570773  1
  I  I121  1  0.32935678  0.50680445  0.50165811  1
  I  I122  1  0.32959462  0.49487543  0.83277928  1
  I  I123  1  0.32982484  0.83439992  0.16972935  1
  I  I124  1  0.33021304  0.83058438  0.49605704  1
  I  I125  1  0.33569352  0.83994124  0.83347267  1
  I  I126  1  0.66681012  0.16713596  0.16575740  1
  I  I127  1  0.66278013  0.16465103  0.50525960  1
  I  I128  1  0.66560183  0.15932201  0.82909443  1
  I  I129  1  0.66438958  0.50068927  0.16441028  1
  I  I130  1  0.66650937  0.50091444  0.49903061  1
  I  I131  1  0.66656420  0.50050245  0.83578080  1
  I  I132  1  0.66906211  0.83210736  0.16989502  1
  I  I133  1  0.66899692  0.83776035  0.49566956  1
  I  I134  1  0.66313262  0.84017954  0.83459633  1
