# generated using pymatgen
data_Cs27Sn14Pb13I81
_symmetry_space_group_name_H-M   'P 1'
_cell_length_a   18.97344805
_cell_length_b   18.97344816
_cell_length_c   18.98375390
_cell_angle_alpha   89.99871484
_cell_angle_beta   89.99871500
_cell_angle_gamma   90.00137279
_symmetry_Int_Tables_number   1
_chemical_formula_structural   Cs27Sn14Pb13I81
_chemical_formula_sum   'Cs27 Sn14 Pb13 I81'
_cell_volume   6833.99445599
_cell_formula_units_Z   1
loop_
 _symmetry_equiv_pos_site_id
 _symmetry_equiv_pos_as_xyz
  1  'x, y, z'
loop_
 _atom_site_type_symbol
 _atom_site_label
 _atom_site_symmetry_multiplicity
 _atom_site_fract_x
 _atom_site_fract_y
 _atom_site_fract_z
 _atom_site_occupancy
  Cs  Cs0  1  0.00917696  0.00917695  0.00684330  1
  Cs  Cs1  1  -0.00571058  -0.00571057  0.32734064  1
  Cs  Cs2  1  0.00252992  0.00252992  0.66621809  1
  Cs  Cs3  1  0.00065571  0.33141859  -0.00009036  1
  Cs  Cs4  1  0.00138643  0.33290482  0.33184406  1
  Cs  Cs5  1  -0.00112645  0.33189340  0.66814619  1
  Cs  Cs6  1  -0.00120399  0.66429778  -0.00005609  1
  Cs  Cs7  1  -0.00044895  0.67248794  0.33670952  1
  Cs  Cs8  1  0.00083298  0.66733895  0.66447532  1
  Cs  Cs9  1  0.33141865  0.00065555  -0.00009030  1
  Cs  Cs10  1  0.33290471  0.00138658  0.33184421  1
  Cs  Cs11  1  0.33189327  -0.00112643  0.66814613  1
  Cs  Cs12  1  0.33411572  0.33411572  0.00084093  1
  Cs  Cs13  1  0.33354869  0.33354881  0.33814504  1
  Cs  Cs14  1  0.33379432  0.33379432  0.65997870  1
  Cs  Cs15  1  0.33600574  0.66633012  -0.00069458  1
  Cs  Cs16  1  0.33231496  0.66533199  0.33613607  1
  Cs  Cs17  1  0.33138253  0.66685023  0.66507257  1
  Cs  Cs18  1  0.66429773  -0.00120406  -0.00005601  1
  Cs  Cs19  1  0.67248802  -0.00044863  0.33670946  1
  Cs  Cs20  1  0.66733887  0.00083309  0.66447534  1
  Cs  Cs21  1  0.66633015  0.33600579  -0.00069472  1
  Cs  Cs22  1  0.66533192  0.33231486  0.33613618  1
  Cs  Cs23  1  0.66685029  0.33138254  0.66507267  1
  Cs  Cs24  1  0.66519555  0.66519554  -0.00197683  1
  Cs  Cs25  1  0.66747588  0.66747597  0.33186499  1
  Cs  Cs26  1  0.66630431  0.66630449  0.67090132  1
  Sn  Sn27  1  0.49965982  0.49965984  0.83359749  1
  Sn  Sn28  1  0.50013836  0.16699859  0.83384252  1
  Sn  Sn29  1  0.16615790  0.16615789  0.49964539  1
  Sn  Sn30  1  0.16704780  0.50032478  0.16602197  1
  Sn  Sn31  1  0.16699862  0.50013837  0.83384253  1
  Sn  Sn32  1  0.49985555  0.49985556  0.16625558  1
  Sn  Sn33  1  0.83320217  0.50010809  0.16678773  1
  Sn  Sn34  1  0.50074270  0.83334282  0.83327435  1
  Sn  Sn35  1  0.49995375  0.83304042  0.50015121  1
  Sn  Sn36  1  0.83329817  0.83329822  0.83409845  1
  Sn  Sn37  1  0.50010808  0.83320219  0.16678778  1
  Sn  Sn38  1  0.83304036  0.49995378  0.50015124  1
  Sn  Sn39  1  0.83334281  0.50074273  0.83327437  1
  Sn  Sn40  1  0.50032478  0.16704779  0.16602199  1
  Pb  Pb41  1  0.83061204  0.16896508  0.16642417  1
  Pb  Pb42  1  0.16916810  0.16916810  0.16850839  1
  Pb  Pb43  1  0.16625893  0.83124652  0.83354343  1
  Pb  Pb44  1  0.50176554  0.50176546  0.50001649  1
  Pb  Pb45  1  0.83608293  0.16846991  0.49999985  1
  Pb  Pb46  1  0.16404409  0.49909007  0.49990250  1
  Pb  Pb47  1  0.49909009  0.16404406  0.49990251  1
  Pb  Pb48  1  0.16950312  0.16950310  0.83199595  1
  Pb  Pb49  1  0.83124649  0.16625888  0.83354343  1
  Pb  Pb50  1  0.83127686  0.83127683  0.50271590  1
  Pb  Pb51  1  0.16896505  0.83061207  0.16642419  1
  Pb  Pb52  1  0.83131679  0.83131679  0.16349881  1
  Pb  Pb53  1  0.16846990  0.83608290  0.49999982  1
  I  I54  1  0.16851806  0.00022643  0.16839515  1
  I  I55  1  0.17006995  0.00359946  0.50203756  1
  I  I56  1  0.16704468  0.00029820  0.83047058  1
  I  I57  1  0.16881058  0.33749198  0.16277530  1
  I  I58  1  0.16978111  0.33172405  0.50028558  1
  I  I59  1  0.16541362  0.33782269  0.83716552  1
  I  I60  1  0.16933616  0.66202376  0.16354582  1
  I  I61  1  0.16680800  0.66657084  0.49994355  1
  I  I62  1  0.17208491  0.66250659  0.83582715  1
  I  I63  1  0.49896685  -0.00032686  0.16281334  1
  I  I64  1  0.49888276  -0.00361675  0.50108172  1
  I  I65  1  0.50475818  -0.00084640  0.83559595  1
  I  I66  1  0.50030517  0.33489737  0.15967884  1
  I  I67  1  0.50017236  0.33333876  0.50027958  1
  I  I68  1  0.50010453  0.33484726  0.84000133  1
  I  I69  1  0.50019401  0.66551268  0.16365219  1
  I  I70  1  0.50038532  0.66954046  0.50052212  1
  I  I71  1  0.50080766  0.66581531  0.83578227  1
  I  I72  1  0.83175300  -0.00035802  0.16674086  1
  I  I73  1  0.83275791  -0.00047762  0.50195351  1
  I  I74  1  0.82485449  -0.00325835  0.83072525  1
  I  I75  1  0.83073749  0.33824040  0.16284280  1
  I  I76  1  0.83055455  0.33724632  0.50327150  1
  I  I77  1  0.83214509  0.33734929  0.83370156  1
  I  I78  1  0.83061694  0.66241067  0.16814756  1
  I  I79  1  0.83395341  0.66307332  0.49773102  1
  I  I80  1  0.82707740  0.66450802  0.83367562  1
  I  I81  1  0.16575635  0.16575655  0.00013477  1
  I  I82  1  0.17168859  0.17168822  0.33568171  1
  I  I83  1  0.17032080  0.17032102  0.66454389  1
  I  I84  1  0.16450491  0.49979237  -0.00025189  1
  I  I85  1  0.16918221  0.49770768  0.33041761  1
  I  I86  1  0.16817944  0.49866098  0.66957120  1
  I  I87  1  0.16944060  0.83621300  -0.00007703  1
  I  I88  1  0.17000958  0.82952300  0.33320678  1
  I  I89  1  0.17099034  0.82989997  0.66689019  1
  I  I90  1  0.49979233  0.16450507  -0.00025189  1
  I  I91  1  0.49770771  0.16918209  0.33041760  1
  I  I92  1  0.49866114  0.16817928  0.66957124  1
  I  I93  1  0.50278250  0.50278240  -0.00020882  1
  I  I94  1  0.49966784  0.49966787  0.32998456  1
  I  I95  1  0.49981746  0.49981762  0.67003823  1
  I  I96  1  0.50366256  0.83178719  -0.00056394  1
  I  I97  1  0.49791150  0.83182962  0.33231024  1
  I  I98  1  0.50337250  0.83279296  0.66836842  1
  I  I99  1  0.83621319  0.16944086  -0.00007701  1
  I  I100  1  0.82952259  0.17000953  0.33320675  1
  I  I101  1  0.82989996  0.17099014  0.66689020  1
  I  I102  1  0.83178716  0.50366233  -0.00056395  1
  I  I103  1  0.83182987  0.49791167  0.33231026  1
  I  I104  1  0.83279300  0.50337251  0.66836845  1
  I  I105  1  0.82481421  0.82481433  -0.00412504  1
  I  I106  1  0.83080173  0.83080163  0.33299470  1
  I  I107  1  0.82508163  0.82508154  0.67045620  1
  I  I108  1  0.00022644  0.16851817  0.16839550  1
  I  I109  1  0.00359952  0.17006976  0.50203722  1
  I  I110  1  0.00029823  0.16704458  0.83047059  1
  I  I111  1  -0.00032685  0.49896704  0.16281347  1
  I  I112  1  -0.00361671  0.49888256  0.50108183  1
  I  I113  1  -0.00084640  0.50475799  0.83559582  1
  I  I114  1  -0.00035805  0.83175265  0.16674085  1
  I  I115  1  -0.00047765  0.83275819  0.50195361  1
  I  I116  1  -0.00325835  0.82485476  0.83072519  1
  I  I117  1  0.33749201  0.16881072  0.16277525  1
  I  I118  1  0.33172404  0.16978096  0.50028578  1
  I  I119  1  0.33782267  0.16541351  0.83716546  1
  I  I120  1  0.33489737  0.50030495  0.15967876  1
  I  I121  1  0.33333875  0.50017241  0.50027951  1
  I  I122  1  0.33484725  0.50010464  0.84000151  1
  I  I123  1  0.33824038  0.83073745  0.16284249  1
  I  I124  1  0.33724629  0.83055458  0.50327151  1
  I  I125  1  0.33734932  0.83214516  0.83370177  1
  I  I126  1  0.66202374  0.16933573  0.16354576  1
  I  I127  1  0.66657084  0.16680820  0.49994352  1
  I  I128  1  0.66250657  0.17208512  0.83582729  1
  I  I129  1  0.66551271  0.50019412  0.16365218  1
  I  I130  1  0.66954045  0.50038541  0.50052211  1
  I  I131  1  0.66581533  0.50080761  0.83578225  1
  I  I132  1  0.66241068  0.83061710  0.16814768  1
  I  I133  1  0.66307331  0.83395300  0.49773102  1
  I  I134  1  0.66450802  0.82707723  0.83367551  1
