# generated using pymatgen
data_Cs27Sn14Pb13I81
_symmetry_space_group_name_H-M   'P 1'
_cell_length_a   18.97234289
_cell_length_b   18.98154146
_cell_length_c   18.97143439
_cell_angle_alpha   89.99964112
_cell_angle_beta   90.00215356
_cell_angle_gamma   90.00039552
_symmetry_Int_Tables_number   1
_chemical_formula_structural   Cs27Sn14Pb13I81
_chemical_formula_sum   'Cs27 Sn14 Pb13 I81'
_cell_volume   6832.07477231
_cell_formula_units_Z   1
loop_
 _symmetry_equiv_pos_site_id
 _symmetry_equiv_pos_as_xyz
  1  'x, y, z'
loop_
 _atom_site_type_symbol
 _atom_site_label
 _atom_site_symmetry_multiplicity
 _atom_site_fract_x
 _atom_site_fract_y
 _atom_site_fract_z
 _atom_site_occupancy
  Cs  Cs0  1  0.00017444  -0.00066449  0.00170732  1
  Cs  Cs1  1  -0.00441147  0.00463805  0.33401470  1
  Cs  Cs2  1  0.00199644  0.00018072  0.66449524  1
  Cs  Cs3  1  0.00331597  0.33520544  -0.00316576  1
  Cs  Cs4  1  0.00326703  0.33023492  0.33725029  1
  Cs  Cs5  1  -0.00107319  0.33066666  0.66922913  1
  Cs  Cs6  1  -0.00010700  0.66503207  -0.00126579  1
  Cs  Cs7  1  0.00069809  0.66443640  0.33218771  1
  Cs  Cs8  1  -0.00426651  0.67066914  0.66937870  1
  Cs  Cs9  1  0.33410162  0.00106800  -0.00187550  1
  Cs  Cs10  1  0.33341251  0.00084101  0.33221025  1
  Cs  Cs11  1  0.33322229  -0.00955751  0.66854584  1
  Cs  Cs12  1  0.33317018  0.33149476  0.00130810  1
  Cs  Cs13  1  0.33236493  0.33553831  0.33349949  1
  Cs  Cs14  1  0.33428809  0.33272856  0.66487836  1
  Cs  Cs15  1  0.33113178  0.66745613  0.00181086  1
  Cs  Cs16  1  0.33332036  0.66320391  0.33737631  1
  Cs  Cs17  1  0.33382807  0.67621754  0.65832047  1
  Cs  Cs18  1  0.66497492  0.00041101  0.00247908  1
  Cs  Cs19  1  0.67060732  0.00285193  0.32976284  1
  Cs  Cs20  1  0.66363581  -0.00072567  0.66900591  1
  Cs  Cs21  1  0.66485571  0.33571281  -0.00167821  1
  Cs  Cs22  1  0.66595240  0.33146819  0.33358908  1
  Cs  Cs23  1  0.66692794  0.33520523  0.66954387  1
  Cs  Cs24  1  0.66897021  0.66236753  0.00172694  1
  Cs  Cs25  1  0.66590690  0.66748583  0.33431206  1
  Cs  Cs26  1  0.66962195  0.66571405  0.66254317  1
  Sn  Sn27  1  0.49792438  0.50059072  0.83344245  1
  Sn  Sn28  1  0.83386568  0.16525419  0.83392328  1
  Sn  Sn29  1  0.83304430  0.49942332  0.16803077  1
  Sn  Sn30  1  0.16627225  0.16719889  0.83395926  1
  Sn  Sn31  1  0.49912323  0.83309715  0.16645733  1
  Sn  Sn32  1  0.16739403  0.16578858  0.16589933  1
  Sn  Sn33  1  0.83300601  0.83484613  0.83312694  1
  Sn  Sn34  1  0.83346624  0.50010275  0.49860447  1
  Sn  Sn35  1  0.49970298  0.16657996  0.49953567  1
  Sn  Sn36  1  0.16877037  0.49992110  0.83298878  1
  Sn  Sn37  1  0.50061488  0.50010324  0.16603077  1
  Sn  Sn38  1  0.49918998  0.16680438  0.16747727  1
  Sn  Sn39  1  0.83322887  0.83302219  0.50041999  1
  Sn  Sn40  1  0.16734588  0.83424121  0.16658542  1
  Pb  Pb41  1  0.50242245  0.83009890  0.83567925  1
  Pb  Pb42  1  0.50158655  0.49857874  0.49979588  1
  Pb  Pb43  1  0.16936312  0.16656596  0.50041632  1
  Pb  Pb44  1  0.16712430  0.49957255  0.16552930  1
  Pb  Pb45  1  0.83137754  0.16670908  0.50261536  1
  Pb  Pb46  1  0.83345170  0.83153598  0.16669966  1
  Pb  Pb47  1  0.83361704  0.16941194  0.16443787  1
  Pb  Pb48  1  0.16389673  0.83346800  0.49646780  1
  Pb  Pb49  1  0.16379365  0.50001588  0.50384706  1
  Pb  Pb50  1  0.50237106  0.83576825  0.49703500  1
  Pb  Pb51  1  0.49923234  0.16799791  0.83371473  1
  Pb  Pb52  1  0.16495787  0.83358607  0.83518249  1
  Pb  Pb53  1  0.83332687  0.49992336  0.83333499  1
  I  I54  1  0.17373901  0.00114810  0.16051827  1
  I  I55  1  0.16439964  0.00006160  0.50441191  1
  I  I56  1  0.16362349  0.00293121  0.83619727  1
  I  I57  1  0.16915930  0.33053535  0.16356149  1
  I  I58  1  0.16378291  0.33325302  0.49509026  1
  I  I59  1  0.16283015  0.33249878  0.84035576  1
  I  I60  1  0.16802034  0.66844875  0.16444745  1
  I  I61  1  0.16945155  0.66671429  0.49908313  1
  I  I62  1  0.16672387  0.66437271  0.83698047  1
  I  I63  1  0.49653546  0.00062686  0.17106404  1
  I  I64  1  0.50252165  0.00340524  0.49587964  1
  I  I65  1  0.49948828  -0.00025058  0.83355014  1
  I  I66  1  0.50071791  0.33334555  0.16619023  1
  I  I67  1  0.50308238  0.33086128  0.49448871  1
  I  I68  1  0.50302404  0.33591895  0.83918909  1
  I  I69  1  0.50137914  0.66597212  0.16057927  1
  I  I70  1  0.50038577  0.66690172  0.49989153  1
  I  I71  1  0.49698517  0.66217793  0.83961148  1
  I  I72  1  0.83107576  0.00022993  0.16811092  1
  I  I73  1  0.83184696  -0.00233936  0.50187482  1
  I  I74  1  0.83848265  0.00025455  0.82871148  1
  I  I75  1  0.82861750  0.33722528  0.16964022  1
  I  I76  1  0.83117929  0.33567025  0.49785448  1
  I  I77  1  0.83419356  0.33155601  0.83396942  1
  I  I78  1  0.82979975  0.66366912  0.16454682  1
  I  I79  1  0.83182025  0.66641750  0.50315589  1
  I  I80  1  0.83321226  0.66830256  0.83297531  1
  I  I81  1  0.16849918  0.16716907  0.00038220  1
  I  I82  1  0.16804713  0.16308295  0.32995835  1
  I  I83  1  0.16266235  0.17242987  0.67016755  1
  I  I84  1  0.16389317  0.49839832  -0.00243719  1
  I  I85  1  0.16751298  0.49971819  0.33333739  1
  I  I86  1  0.17050039  0.49222124  0.67190243  1
  I  I87  1  0.16752983  0.83438198  0.00312556  1
  I  I88  1  0.16893362  0.83863098  0.32838991  1
  I  I89  1  0.16673400  0.83325540  0.66673569  1
  I  I90  1  0.49946014  0.16581591  0.00311396  1
  I  I91  1  0.49639835  0.16908499  0.33072388  1
  I  I92  1  0.50305729  0.17099104  0.66515152  1
  I  I93  1  0.50425413  0.49711013  0.00140112  1
  I  I94  1  0.50309930  0.50129966  0.32989098  1
  I  I95  1  0.49999026  0.49509869  0.66918875  1
  I  I96  1  0.49934105  0.83922950  0.00381539  1
  I  I97  1  0.49855732  0.82755720  0.32888879  1
  I  I98  1  0.49980196  0.83413194  0.66664122  1
  I  I99  1  0.83227161  0.16286555  -0.00338878  1
  I  I100  1  0.83518966  0.16494874  0.33308895  1
  I  I101  1  0.83693732  0.16903958  0.67049280  1
  I  I102  1  0.83132768  0.50054466  0.00192574  1
  I  I103  1  0.82711006  0.50597226  0.33269637  1
  I  I104  1  0.83311126  0.50108945  0.66491374  1
  I  I105  1  0.83357341  0.83458447  -0.00200155  1
  I  I106  1  0.83277342  0.82978960  0.33527052  1
  I  I107  1  0.83369318  0.82943432  0.66701501  1
  I  I108  1  0.00271870  0.16293967  0.16376098  1
  I  I109  1  -0.00013813  0.16680370  0.49765776  1
  I  I110  1  0.00069030  0.17041601  0.83841395  1
  I  I111  1  -0.00211569  0.50156226  0.16716806  1
  I  I112  1  -0.00441506  0.50265509  0.49357105  1
  I  I113  1  0.00182033  0.49843147  0.83448521  1
  I  I114  1  0.00216819  0.83648809  0.16589707  1
  I  I115  1  -0.00407335  0.82979871  0.50271586  1
  I  I116  1  -0.00314977  0.83094832  0.83312776  1
  I  I117  1  0.33382977  0.16803053  0.16435652  1
  I  I118  1  0.33715496  0.16896769  0.49890547  1
  I  I119  1  0.33055908  0.17074935  0.83580787  1
  I  I120  1  0.33636953  0.49961406  0.16316244  1
  I  I121  1  0.33344316  0.49829379  0.49773660  1
  I  I122  1  0.33355437  0.49217689  0.84203516  1
  I  I123  1  0.33398550  0.83226325  0.16475578  1
  I  I124  1  0.33361932  0.83448008  0.50210990  1
  I  I125  1  0.33351253  0.83544855  0.83271134  1
  I  I126  1  0.66388778  0.16437026  0.16862530  1
  I  I127  1  0.66385306  0.16703722  0.49355924  1
  I  I128  1  0.66850703  0.16595155  0.83314243  1
  I  I129  1  0.66545776  0.50057083  0.16304886  1
  I  I130  1  0.66964656  0.50294837  0.50159955  1
  I  I131  1  0.66479252  0.49899803  0.83573058  1
  I  I132  1  0.66415343  0.83542915  0.16644010  1
  I  I133  1  0.67008094  0.82875890  0.50235856  1
  I  I134  1  0.67039200  0.83799676  0.83236888  1
