# generated using pymatgen
data_Cs27Sn13Pb14I81
_symmetry_space_group_name_H-M   'P 1'
_cell_length_a   18.98286492
_cell_length_b   18.97290085
_cell_length_c   18.97822069
_cell_angle_alpha   90.00070551
_cell_angle_beta   89.99908459
_cell_angle_gamma   90.00119911
_symmetry_Int_Tables_number   1
_chemical_formula_structural   Cs27Sn13Pb14I81
_chemical_formula_sum   'Cs27 Sn13 Pb14 I81'
_cell_volume   6835.19622650
_cell_formula_units_Z   1
loop_
 _symmetry_equiv_pos_site_id
 _symmetry_equiv_pos_as_xyz
  1  'x, y, z'
loop_
 _atom_site_type_symbol
 _atom_site_label
 _atom_site_symmetry_multiplicity
 _atom_site_fract_x
 _atom_site_fract_y
 _atom_site_fract_z
 _atom_site_occupancy
  Cs  Cs0  1  0.00061994  -0.00138957  -0.00085122  1
  Cs  Cs1  1  0.00129650  0.00115493  0.33495837  1
  Cs  Cs2  1  0.00319890  0.00128647  0.66578221  1
  Cs  Cs3  1  0.00098144  0.33431342  0.00071106  1
  Cs  Cs4  1  -0.00128098  0.33272906  0.33067106  1
  Cs  Cs5  1  -0.00052345  0.33049548  0.66811613  1
  Cs  Cs6  1  -0.00163456  0.66974081  -0.00265167  1
  Cs  Cs7  1  -0.00004004  0.66716843  0.33321020  1
  Cs  Cs8  1  -0.00091372  0.66985156  0.66997713  1
  Cs  Cs9  1  0.33541088  0.00125432  0.00187774  1
  Cs  Cs10  1  0.33312682  -0.00277530  0.33046081  1
  Cs  Cs11  1  0.33264448  -0.00118717  0.66675850  1
  Cs  Cs12  1  0.33041524  0.33347428  -0.00041376  1
  Cs  Cs13  1  0.33316801  0.33621418  0.33796495  1
  Cs  Cs14  1  0.33470114  0.33407360  0.66337375  1
  Cs  Cs15  1  0.33340929  0.66472954  -0.00037731  1
  Cs  Cs16  1  0.33148427  0.66519698  0.33566419  1
  Cs  Cs17  1  0.33454873  0.66694404  0.66490969  1
  Cs  Cs18  1  0.66384588  0.00041352  0.00354339  1
  Cs  Cs19  1  0.66528910  -0.00144428  0.33251010  1
  Cs  Cs20  1  0.66429374  0.00148362  0.66378624  1
  Cs  Cs21  1  0.66741866  0.33380783  -0.00062129  1
  Cs  Cs22  1  0.66852134  0.33349151  0.33473808  1
  Cs  Cs23  1  0.66586079  0.33104151  0.66519270  1
  Cs  Cs24  1  0.66892405  0.66626675  -0.00141103  1
  Cs  Cs25  1  0.66701557  0.66719887  0.33431749  1
  Cs  Cs26  1  0.66678028  0.66697091  0.66688151  1
  Sn  Sn27  1  0.83379195  0.16674586  0.83435865  1
  Sn  Sn28  1  0.50002906  0.49990910  0.16598200  1
  Sn  Sn29  1  0.50017994  0.83255592  0.83297778  1
  Sn  Sn30  1  0.83396342  0.16742421  0.16542758  1
  Sn  Sn31  1  0.83362665  0.50074954  0.49960091  1
  Sn  Sn32  1  0.83281272  0.83251403  0.50004410  1
  Sn  Sn33  1  0.50077273  0.83301254  0.50069959  1
  Sn  Sn34  1  0.16729571  0.49934919  0.83391254  1
  Sn  Sn35  1  0.83348583  0.49962321  0.16720318  1
  Sn  Sn36  1  0.16580818  0.16772814  0.16570455  1
  Sn  Sn37  1  0.49936016  0.50052274  0.83399742  1
  Sn  Sn38  1  0.16642950  0.49937889  0.16568620  1
  Sn  Sn39  1  0.16590510  0.16779012  0.83428621  1
  Pb  Pb40  1  0.16663911  0.83312244  0.50007461  1
  Pb  Pb41  1  0.49985312  0.16350679  0.49970382  1
  Pb  Pb42  1  0.83094721  0.83665303  0.83126302  1
  Pb  Pb43  1  0.83339404  0.16656969  0.49944349  1
  Pb  Pb44  1  0.83339549  0.49860334  0.83356199  1
  Pb  Pb45  1  0.49940042  0.16722306  0.83344193  1
  Pb  Pb46  1  0.83344267  0.83365104  0.16855368  1
  Pb  Pb47  1  0.16675754  0.16697344  0.49961779  1
  Pb  Pb48  1  0.50002693  0.83035559  0.16653780  1
  Pb  Pb49  1  0.16906933  0.83338517  0.83354655  1
  Pb  Pb50  1  0.49968734  0.16966577  0.16669333  1
  Pb  Pb51  1  0.16646624  0.83316226  0.16635156  1
  Pb  Pb52  1  0.16377764  0.49998917  0.50043174  1
  Pb  Pb53  1  0.50213488  0.50143971  0.50035611  1
  I  I54  1  0.16157515  0.00389997  0.16330658  1
  I  I55  1  0.16518419  0.00006904  0.49998181  1
  I  I56  1  0.16358677  0.00346567  0.83688633  1
  I  I57  1  0.16532569  0.33433719  0.16197203  1
  I  I58  1  0.16538105  0.33369759  0.50095335  1
  I  I59  1  0.16846993  0.33389340  0.83754792  1
  I  I60  1  0.16625434  0.66234171  0.16319319  1
  I  I61  1  0.16731691  0.66626924  0.49891792  1
  I  I62  1  0.16833633  0.66321200  0.83765981  1
  I  I63  1  0.50013883  -0.00001853  0.16750624  1
  I  I64  1  0.50758531  -0.00489321  0.50693543  1
  I  I65  1  0.50094087  -0.00245519  0.82713856  1
  I  I66  1  0.50105248  0.33786418  0.15963253  1
  I  I67  1  0.50176537  0.33389633  0.50095189  1
  I  I68  1  0.49940694  0.33669874  0.83832015  1
  I  I69  1  0.50011220  0.66202544  0.16565336  1
  I  I70  1  0.50314130  0.66932518  0.50146910  1
  I  I71  1  0.49507376  0.66523942  0.83322606  1
  I  I72  1  0.83817954  0.00363034  0.16431915  1
  I  I73  1  0.82808136  -0.00268166  0.50078055  1
  I  I74  1  0.83842578  0.00446349  0.83789449  1
  I  I75  1  0.83364932  0.33436673  0.16930640  1
  I  I76  1  0.83361247  0.33596980  0.49804082  1
  I  I77  1  0.83203033  0.33073530  0.83202893  1
  I  I78  1  0.83366500  0.66312751  0.16909493  1
  I  I79  1  0.82961496  0.66593350  0.49435648  1
  I  I80  1  0.83548134  0.66662379  0.83486793  1
  I  I81  1  0.16205326  0.17151549  -0.00004826  1
  I  I82  1  0.16137662  0.17109091  0.32919511  1
  I  I83  1  0.16233683  0.17009036  0.67043526  1
  I  I84  1  0.16654465  0.49595899  0.00033373  1
  I  I85  1  0.16976980  0.49580667  0.32979241  1
  I  I86  1  0.17096854  0.49604673  0.67031130  1
  I  I87  1  0.16859130  0.83303825  -0.00023777  1
  I  I88  1  0.16976354  0.83402967  0.33325575  1
  I  I89  1  0.16480616  0.83363745  0.66699468  1
  I  I90  1  0.50218438  0.16006901  -0.00003730  1
  I  I91  1  0.50066362  0.16689507  0.33291460  1
  I  I92  1  0.50131044  0.17176146  0.66705443  1
  I  I93  1  0.50143230  0.50576605  -0.00034794  1
  I  I94  1  0.49756957  0.50040808  0.33052214  1
  I  I95  1  0.49669864  0.50167727  0.66971140  1
  I  I96  1  0.49847730  0.83175337  -0.00291793  1
  I  I97  1  0.50466463  0.83326740  0.33616265  1
  I  I98  1  0.50385829  0.82723389  0.66713433  1
  I  I99  1  0.83653634  0.17301674  0.00083515  1
  I  I100  1  0.83788467  0.16827956  0.32987412  1
  I  I101  1  0.83710259  0.16715945  0.66928550  1
  I  I102  1  0.83249318  0.49700709  0.00292631  1
  I  I103  1  0.83256659  0.49797862  0.33168274  1
  I  I104  1  0.83250931  0.50198457  0.66471010  1
  I  I105  1  0.83180350  0.83100520  -0.00021002  1
  I  I106  1  0.82566707  0.83341257  0.33661548  1
  I  I107  1  0.83141430  0.82696537  0.66342478  1
  I  I108  1  -0.00038025  0.17521177  0.16317235  1
  I  I109  1  -0.00022946  0.16328060  0.50146542  1
  I  I110  1  0.00052177  0.17267005  0.83610803  1
  I  I111  1  -0.00007736  0.49558919  0.16768275  1
  I  I112  1  -0.00421503  0.50564252  0.49589092  1
  I  I113  1  0.00258128  0.49721272  0.83552378  1
  I  I114  1  -0.00020747  0.82857268  0.16969032  1
  I  I115  1  -0.00342139  0.83017740  0.49818101  1
  I  I116  1  -0.00014523  0.83098897  0.83129901  1
  I  I117  1  0.32972055  0.16916900  0.16149087  1
  I  I118  1  0.33318703  0.16531384  0.50041681  1
  I  I119  1  0.33000225  0.16705192  0.83842852  1
  I  I120  1  0.33283033  0.49716346  0.16179164  1
  I  I121  1  0.33343808  0.50203267  0.49714639  1
  I  I122  1  0.33319049  0.49871121  0.84059807  1
  I  I123  1  0.33349647  0.83498777  0.16999684  1
  I  I124  1  0.33676801  0.83361759  0.50422926  1
  I  I125  1  0.33703090  0.83331550  0.82613254  1
  I  I126  1  0.66991124  0.17039427  0.16317246  1
  I  I127  1  0.66712148  0.16912903  0.50120745  1
  I  I128  1  0.66918580  0.16702656  0.83659124  1
  I  I129  1  0.66725320  0.49703343  0.16678879  1
  I  I130  1  0.66996461  0.50134363  0.49607795  1
  I  I131  1  0.66433122  0.50236213  0.83608803  1
  I  I132  1  0.66666234  0.83400844  0.16513333  1
  I  I133  1  0.66681179  0.82897353  0.50400326  1
  I  I134  1  0.66321718  0.82701853  0.83184108  1
