# generated using pymatgen
data_Cs27Sn14Pb13I81
_symmetry_space_group_name_H-M   'P 1'
_cell_length_a   18.98022319
_cell_length_b   18.97543038
_cell_length_c   18.97457546
_cell_angle_alpha   89.99822829
_cell_angle_beta   90.00006015
_cell_angle_gamma   89.99996017
_symmetry_Int_Tables_number   1
_chemical_formula_structural   Cs27Sn14Pb13I81
_chemical_formula_sum   'Cs27 Sn14 Pb13 I81'
_cell_volume   6833.84332061
_cell_formula_units_Z   1
loop_
 _symmetry_equiv_pos_site_id
 _symmetry_equiv_pos_as_xyz
  1  'x, y, z'
loop_
 _atom_site_type_symbol
 _atom_site_label
 _atom_site_symmetry_multiplicity
 _atom_site_fract_x
 _atom_site_fract_y
 _atom_site_fract_z
 _atom_site_occupancy
  Cs  Cs0  1  0.00168244  0.00108154  -0.00221483  1
  Cs  Cs1  1  0.00191143  -0.00167734  0.33354577  1
  Cs  Cs2  1  0.00115053  -0.00042584  0.66798981  1
  Cs  Cs3  1  -0.00089314  0.33472969  0.00130100  1
  Cs  Cs4  1  -0.00396971  0.33424694  0.33246351  1
  Cs  Cs5  1  -0.00300897  0.33346394  0.66625205  1
  Cs  Cs6  1  0.00010626  0.66600285  -0.00058963  1
  Cs  Cs7  1  0.00091233  0.66712916  0.33324127  1
  Cs  Cs8  1  0.00034694  0.66814866  0.66833732  1
  Cs  Cs9  1  0.33353454  -0.00040320  -0.00344287  1
  Cs  Cs10  1  0.33379005  0.00193189  0.33289738  1
  Cs  Cs11  1  0.33103672  0.00101205  0.66793643  1
  Cs  Cs12  1  0.33229714  0.33354520  0.00239738  1
  Cs  Cs13  1  0.33222441  0.33022697  0.33177826  1
  Cs  Cs14  1  0.33832329  0.33625567  0.66625980  1
  Cs  Cs15  1  0.33463588  0.66739722  0.00068648  1
  Cs  Cs16  1  0.33181564  0.66620058  0.33296893  1
  Cs  Cs17  1  0.33567139  0.66279950  0.66848606  1
  Cs  Cs18  1  0.66426863  0.00001554  -0.00159091  1
  Cs  Cs19  1  0.66368198  -0.00106392  0.33479976  1
  Cs  Cs20  1  0.66778538  0.00339775  0.66336543  1
  Cs  Cs21  1  0.66826333  0.33094523  -0.00004949  1
  Cs  Cs22  1  0.67329239  0.33275869  0.33269869  1
  Cs  Cs23  1  0.66421369  0.33331039  0.66750844  1
  Cs  Cs24  1  0.66577927  0.66800693  -0.00047248  1
  Cs  Cs25  1  0.66782035  0.66857778  0.33279923  1
  Cs  Cs26  1  0.66599109  0.66393496  0.66828010  1
  Sn  Sn27  1  0.49927570  0.83371175  0.49991722  1
  Sn  Sn28  1  0.16719696  0.83387550  0.49942932  1
  Sn  Sn29  1  0.16599758  0.49997290  0.83396468  1
  Sn  Sn30  1  0.83345768  0.83279903  0.83336148  1
  Sn  Sn31  1  0.16602724  0.83356346  0.16707675  1
  Sn  Sn32  1  0.16725168  0.16643922  0.16744075  1
  Sn  Sn33  1  0.83421412  0.50069119  0.83350860  1
  Sn  Sn34  1  0.16732837  0.16607911  0.49920806  1
  Sn  Sn35  1  0.83419217  0.83357146  0.16640920  1
  Sn  Sn36  1  0.49919266  0.16757308  0.16756479  1
  Sn  Sn37  1  0.16720833  0.50001373  0.16613235  1
  Sn  Sn38  1  0.49950328  0.49907444  0.16720133  1
  Sn  Sn39  1  0.83360225  0.83325535  0.50013146  1
  Sn  Sn40  1  0.49891155  0.16586591  0.49873325  1
  Pb  Pb41  1  0.49988190  0.49928495  0.49693293  1
  Pb  Pb42  1  0.16531464  0.83153911  0.83315020  1
  Pb  Pb43  1  0.83350039  0.16373200  0.16667845  1
  Pb  Pb44  1  0.49962278  0.16657275  0.83330263  1
  Pb  Pb45  1  0.83334213  0.50265944  0.50265800  1
  Pb  Pb46  1  0.83352030  0.16671515  0.83338219  1
  Pb  Pb47  1  0.83348969  0.50232232  0.16509290  1
  Pb  Pb48  1  0.50271999  0.83345761  0.82976376  1
  Pb  Pb49  1  0.16672206  0.16953446  0.83301947  1
  Pb  Pb50  1  0.49932203  0.83378818  0.16819000  1
  Pb  Pb51  1  0.16670951  0.49958392  0.49953862  1
  Pb  Pb52  1  0.50003312  0.49993934  0.83638052  1
  Pb  Pb53  1  0.83370417  0.16451868  0.49980707  1
  I  I54  1  0.16606150  -0.00026264  0.17176836  1
  I  I55  1  0.16645017  -0.00103340  0.49276144  1
  I  I56  1  0.16459211  -0.00006428  0.83569265  1
  I  I57  1  0.17187209  0.33316507  0.16622215  1
  I  I58  1  0.17309393  0.32994142  0.49770311  1
  I  I59  1  0.15974836  0.33743925  0.83781709  1
  I  I60  1  0.16649697  0.66705934  0.16697309  1
  I  I61  1  0.16569171  0.66995868  0.49668887  1
  I  I62  1  0.16441460  0.66364556  0.83745678  1
  I  I63  1  0.49812117  0.00271350  0.16927279  1
  I  I64  1  0.50080010  -0.00013540  0.49341659  1
  I  I65  1  0.50244115  -0.00021196  0.83967755  1
  I  I66  1  0.49165827  0.33259721  0.17112973  1
  I  I67  1  0.49327093  0.32966309  0.49948276  1
  I  I68  1  0.50347514  0.33352025  0.82735407  1
  I  I69  1  0.49708111  0.66494694  0.16712742  1
  I  I70  1  0.50035507  0.66969072  0.49902352  1
  I  I71  1  0.49838189  0.66668323  0.83337483  1
  I  I72  1  0.83683192  -0.00460121  0.16510939  1
  I  I73  1  0.83316440  -0.00419487  0.50236049  1
  I  I74  1  0.83286871  -0.00382157  0.83252170  1
  I  I75  1  0.83490675  0.33339225  0.16359324  1
  I  I76  1  0.83280292  0.33320386  0.50272244  1
  I  I77  1  0.83729543  0.33677451  0.83494974  1
  I  I78  1  0.83663655  0.67044837  0.16964174  1
  I  I79  1  0.83414511  0.67153636  0.49684969  1
  I  I80  1  0.83792355  0.66761608  0.83258001  1
  I  I81  1  0.17074754  0.16322300  0.00368849  1
  I  I82  1  0.17093459  0.16670982  0.33257479  1
  I  I83  1  0.16988403  0.16151516  0.66306634  1
  I  I84  1  0.16628643  0.50044272  0.00173157  1
  I  I85  1  0.17129926  0.50133974  0.32981761  1
  I  I86  1  0.16122048  0.50133937  0.66912935  1
  I  I87  1  0.16213803  0.83555150  0.00326579  1
  I  I88  1  0.16162573  0.83150183  0.33298814  1
  I  I89  1  0.16549468  0.83681531  0.66342813  1
  I  I90  1  0.49619105  0.17078408  0.00386513  1
  I  I91  1  0.49502398  0.16577228  0.33323464  1
  I  I92  1  0.49659905  0.16141831  0.66274460  1
  I  I93  1  0.49831370  0.49482152  0.00428469  1
  I  I94  1  0.49208835  0.50025157  0.32921976  1
  I  I95  1  0.50038734  0.50022831  0.66665151  1
  I  I96  1  0.50106975  0.83345918  0.00017589  1
  I  I97  1  0.50518549  0.83383542  0.33622395  1
  I  I98  1  0.49795439  0.83905996  0.66135604  1
  I  I99  1  0.83255949  0.16243069  0.00031298  1
  I  I100  1  0.83299364  0.16678167  0.33319185  1
  I  I101  1  0.83326668  0.16450373  0.66639541  1
  I  I102  1  0.83465649  0.50772815  -0.00270676  1
  I  I103  1  0.83362302  0.50143739  0.33301740  1
  I  I104  1  0.83997622  0.50550819  0.67075537  1
  I  I105  1  0.83849491  0.82923636  0.00043868  1
  I  I106  1  0.83426246  0.83442396  0.33353267  1
  I  I107  1  0.83313360  0.82915947  0.66606925  1
  I  I108  1  0.00374948  0.16959471  0.17086388  1
  I  I109  1  0.00357733  0.16319891  0.49581893  1
  I  I110  1  0.00035732  0.16512038  0.83304340  1
  I  I111  1  0.00320388  0.49794199  0.16471543  1
  I  I112  1  0.00021484  0.49894945  0.49553735  1
  I  I113  1  0.00036768  0.50433443  0.83946214  1
  I  I114  1  0.00126508  0.83253842  0.17139989  1
  I  I115  1  0.00061260  0.83667414  0.49921070  1
  I  I116  1  -0.00289433  0.83094553  0.82921528  1
  I  I117  1  0.33230153  0.16611707  0.17093618  1
  I  I118  1  0.33294652  0.15716155  0.49541739  1
  I  I119  1  0.33297881  0.16815623  0.83287372  1
  I  I120  1  0.33165652  0.50216646  0.16086053  1
  I  I121  1  0.33315477  0.50698518  0.50641409  1
  I  I122  1  0.33044632  0.49957067  0.83487124  1
  I  I123  1  0.33002375  0.83213869  0.17138429  1
  I  I124  1  0.33228991  0.83698098  0.49344245  1
  I  I125  1  0.33327267  0.83131798  0.83390238  1
  I  I126  1  0.66339008  0.17067395  0.17066365  1
  I  I127  1  0.66350986  0.16206602  0.49604913  1
  I  I128  1  0.66657384  0.16837686  0.83347006  1
  I  I129  1  0.66423401  0.49701753  0.16634974  1
  I  I130  1  0.66653069  0.50059311  0.49971854  1
  I  I131  1  0.66957908  0.50567904  0.83344656  1
  I  I132  1  0.66878657  0.83220256  0.16748842  1
  I  I133  1  0.66675533  0.83681594  0.49979394  1
  I  I134  1  0.67121830  0.82605036  0.83631729  1
