# generated using pymatgen
data_Cs27Sn13Pb14I81
_symmetry_space_group_name_H-M   'P 1'
_cell_length_a   18.97003824
_cell_length_b   18.97483376
_cell_length_c   18.98694406
_cell_angle_alpha   89.99975822
_cell_angle_beta   90.00018432
_cell_angle_gamma   89.99776484
_symmetry_Int_Tables_number   1
_chemical_formula_structural   Cs27Sn13Pb14I81
_chemical_formula_sum   'Cs27 Sn13 Pb14 I81'
_cell_volume   6834.41358452
_cell_formula_units_Z   1
loop_
 _symmetry_equiv_pos_site_id
 _symmetry_equiv_pos_as_xyz
  1  'x, y, z'
loop_
 _atom_site_type_symbol
 _atom_site_label
 _atom_site_symmetry_multiplicity
 _atom_site_fract_x
 _atom_site_fract_y
 _atom_site_fract_z
 _atom_site_occupancy
  Cs  Cs0  1  -0.00528913  -0.00243595  0.00563668  1
  Cs  Cs1  1  0.00059846  -0.00162117  0.32497984  1
  Cs  Cs2  1  0.00067245  0.00100389  0.66842857  1
  Cs  Cs3  1  0.00341896  0.33433604  0.00387761  1
  Cs  Cs4  1  -0.00112334  0.33138222  0.33538224  1
  Cs  Cs5  1  -0.00024366  0.33361122  0.66480469  1
  Cs  Cs6  1  -0.00026365  0.66730318  0.00217248  1
  Cs  Cs7  1  0.00032522  0.66907636  0.33490900  1
  Cs  Cs8  1  -0.00125435  0.66533754  0.66572617  1
  Cs  Cs9  1  0.33623400  0.00147303  -0.00271819  1
  Cs  Cs10  1  0.33255420  -0.00199491  0.33359533  1
  Cs  Cs11  1  0.33327424  -0.00001688  0.66735744  1
  Cs  Cs12  1  0.33157343  0.33710748  -0.00071210  1
  Cs  Cs13  1  0.33341875  0.33277086  0.33104341  1
  Cs  Cs14  1  0.33152830  0.33142613  0.66834629  1
  Cs  Cs15  1  0.33241028  0.65945790  -0.00170458  1
  Cs  Cs16  1  0.33362560  0.67024837  0.33488254  1
  Cs  Cs17  1  0.33441981  0.66864965  0.66594039  1
  Cs  Cs18  1  0.66648603  -0.00205492  -0.00143864  1
  Cs  Cs19  1  0.66550552  0.00245895  0.33107915  1
  Cs  Cs20  1  0.66720603  0.00238589  0.67001393  1
  Cs  Cs21  1  0.66532397  0.33398782  0.00004607  1
  Cs  Cs22  1  0.66735084  0.33461683  0.33463169  1
  Cs  Cs23  1  0.66761294  0.33280171  0.66538712  1
  Cs  Cs24  1  0.66785289  0.66869080  0.00024289  1
  Cs  Cs25  1  0.66560248  0.66358773  0.33711130  1
  Cs  Cs26  1  0.66742111  0.66505116  0.66390328  1
  Sn  Sn27  1  0.16647763  0.49961345  0.50014320  1
  Sn  Sn28  1  0.49977646  0.83352155  0.16589087  1
  Sn  Sn29  1  0.16702599  0.16561004  0.83284551  1
  Sn  Sn30  1  0.83434278  0.50079131  0.50015385  1
  Sn  Sn31  1  0.49916579  0.83366177  0.83401995  1
  Sn  Sn32  1  0.83341127  0.83358281  0.50027955  1
  Sn  Sn33  1  0.83340731  0.49977822  0.83331813  1
  Sn  Sn34  1  0.49974216  0.16612725  0.16625509  1
  Sn  Sn35  1  0.16705299  0.83408186  0.83339390  1
  Sn  Sn36  1  0.16737913  0.16712456  0.50050588  1
  Sn  Sn37  1  0.83335539  0.49994396  0.16693555  1
  Sn  Sn38  1  0.49907421  0.16673950  0.50025908  1
  Sn  Sn39  1  0.49920607  0.16614750  0.83340097  1
  Pb  Pb40  1  0.16437107  0.50013242  0.17002748  1
  Pb  Pb41  1  0.83067601  0.16872321  0.16645163  1
  Pb  Pb42  1  0.50154538  0.50036028  0.16669518  1
  Pb  Pb43  1  0.50180421  0.83590029  0.50054864  1
  Pb  Pb44  1  0.83071718  0.83133369  0.16904299  1
  Pb  Pb45  1  0.16480702  0.83420934  0.50185343  1
  Pb  Pb46  1  0.16908158  0.16649522  0.16631251  1
  Pb  Pb47  1  0.83317734  0.83158142  0.83184920  1
  Pb  Pb48  1  0.16462460  0.49981926  0.83141480  1
  Pb  Pb49  1  0.83415770  0.16646831  0.50000605  1
  Pb  Pb50  1  0.49948329  0.49746792  0.50013660  1
  Pb  Pb51  1  0.50192346  0.50006226  0.83314672  1
  Pb  Pb52  1  0.83391977  0.16875366  0.83352629  1
  Pb  Pb53  1  0.16957345  0.83336701  0.16332266  1
  I  I54  1  0.16251038  0.00000339  0.17322263  1
  I  I55  1  0.16994797  0.00330014  0.50301283  1
  I  I56  1  0.17133774  0.00097078  0.82572737  1
  I  I57  1  0.16914239  0.33328498  0.16215982  1
  I  I58  1  0.16434317  0.33260489  0.50559463  1
  I  I59  1  0.17061132  0.33030047  0.83090388  1
  I  I60  1  0.16959396  0.66673775  0.16623007  1
  I  I61  1  0.16225141  0.66448750  0.50156634  1
  I  I62  1  0.17038113  0.66915570  0.83191028  1
  I  I63  1  0.50101292  0.00075726  0.16606046  1
  I  I64  1  0.49623995  0.00391693  0.50008607  1
  I  I65  1  0.49746391  0.00070116  0.83353677  1
  I  I66  1  0.50199003  0.33009698  0.16623271  1
  I  I67  1  0.50211123  0.32909833  0.50052122  1
  I  I68  1  0.49723087  0.32973940  0.83390827  1
  I  I69  1  0.50226051  0.66983655  0.16131036  1
  I  I70  1  0.49911937  0.66690903  0.49939580  1
  I  I71  1  0.49694637  0.67006308  0.83852686  1
  I  I72  1  0.83441819  -0.00032105  0.16902337  1
  I  I73  1  0.83139579  -0.00231626  0.50191186  1
  I  I74  1  0.83276698  -0.00014012  0.83017015  1
  I  I75  1  0.83113086  0.33693489  0.17027693  1
  I  I76  1  0.83366041  0.33635376  0.49987919  1
  I  I77  1  0.83208935  0.33687896  0.82908224  1
  I  I78  1  0.83036161  0.66335318  0.16510332  1
  I  I79  1  0.83756747  0.66484068  0.50029886  1
  I  I80  1  0.83304726  0.66350039  0.83347120  1
  I  I81  1  0.17027390  0.16398059  -0.00362597  1
  I  I82  1  0.16976915  0.17200865  0.33649690  1
  I  I83  1  0.17448580  0.16744896  0.66660237  1
  I  I84  1  0.16425983  0.49916089  -0.00022246  1
  I  I85  1  0.16153758  0.49375252  0.33813302  1
  I  I86  1  0.15956483  0.49782371  0.66366791  1
  I  I87  1  0.16560350  0.83951772  -0.00480789  1
  I  I88  1  0.16641330  0.83249439  0.33346616  1
  I  I89  1  0.17313677  0.83416376  0.66969358  1
  I  I90  1  0.49788414  0.16303723  -0.00094682  1
  I  I91  1  0.49798427  0.16383829  0.33356104  1
  I  I92  1  0.49695263  0.16357598  0.66728941  1
  I  I93  1  0.50292176  0.49566476  -0.00015175  1
  I  I94  1  0.50337475  0.49957099  0.33352705  1
  I  I95  1  0.50492617  0.50081092  0.66659599  1
  I  I96  1  0.49866458  0.84172648  -0.00101840  1
  I  I97  1  0.50383096  0.83725710  0.33138562  1
  I  I98  1  0.49806652  0.83704469  0.66973789  1
  I  I99  1  0.83361686  0.16943305  -0.00013621  1
  I  I100  1  0.83210198  0.16892996  0.33353732  1
  I  I101  1  0.82747614  0.16972694  0.66660466  1
  I  I102  1  0.83042121  0.49843080  -0.00011838  1
  I  I103  1  0.83587301  0.50343255  0.33462127  1
  I  I104  1  0.83628800  0.50346847  0.66534274  1
  I  I105  1  0.83459230  0.83044567  -0.00000466  1
  I  I106  1  0.83256412  0.82788298  0.33679320  1
  I  I107  1  0.83092060  0.82619649  0.66415590  1
  I  I108  1  0.00018336  0.16833008  0.16726199  1
  I  I109  1  0.00334350  0.16934649  0.50673695  1
  I  I110  1  0.00369629  0.16419206  0.82579132  1
  I  I111  1  -0.00391458  0.50008690  0.16370097  1
  I  I112  1  -0.00090039  0.49720507  0.50054297  1
  I  I113  1  -0.00329908  0.50016891  0.83373203  1
  I  I114  1  -0.00019989  0.83218099  0.16604454  1
  I  I115  1  -0.00299760  0.83164629  0.50290869  1
  I  I116  1  0.00255836  0.83662148  0.82915396  1
  I  I117  1  0.33745823  0.16398971  0.16755810  1
  I  I118  1  0.33320394  0.17220455  0.50117797  1
  I  I119  1  0.33411447  0.16350188  0.83164600  1
  I  I120  1  0.33335855  0.49969489  0.16780329  1
  I  I121  1  0.33020655  0.49757873  0.50155717  1
  I  I122  1  0.33304022  0.50030686  0.83148738  1
  I  I123  1  0.33771327  0.83742382  0.16871311  1
  I  I124  1  0.33336792  0.82959067  0.49807502  1
  I  I125  1  0.33418245  0.83724128  0.83526551  1
  I  I126  1  0.66213724  0.16350632  0.16698256  1
  I  I127  1  0.66388509  0.16670696  0.50078397  1
  I  I128  1  0.66314898  0.16373744  0.83234456  1
  I  I129  1  0.66978939  0.49895892  0.17031318  1
  I  I130  1  0.66982710  0.50226273  0.49962108  1
  I  I131  1  0.67007106  0.49978794  0.82987154  1
  I  I132  1  0.66302112  0.83798688  0.15961967  1
  I  I133  1  0.66951242  0.82668314  0.50151420  1
  I  I134  1  0.66353421  0.83714681  0.83582894  1
