# generated using pymatgen
data_Cs27Sn13Pb14I81
_symmetry_space_group_name_H-M   'P 1'
_cell_length_a   18.98293558
_cell_length_b   18.97495946
_cell_length_c   18.97679846
_cell_angle_alpha   90.00093390
_cell_angle_beta   89.99898754
_cell_angle_gamma   90.00089267
_symmetry_Int_Tables_number   1
_chemical_formula_structural   Cs27Sn13Pb14I81
_chemical_formula_sum   'Cs27 Sn13 Pb14 I81'
_cell_volume   6835.45101884
_cell_formula_units_Z   1
loop_
 _symmetry_equiv_pos_site_id
 _symmetry_equiv_pos_as_xyz
  1  'x, y, z'
loop_
 _atom_site_type_symbol
 _atom_site_label
 _atom_site_symmetry_multiplicity
 _atom_site_fract_x
 _atom_site_fract_y
 _atom_site_fract_z
 _atom_site_occupancy
  Cs  Cs0  1  0.00016624  0.00079614  0.00068648  1
  Cs  Cs1  1  0.00029434  -0.00025738  0.33326716  1
  Cs  Cs2  1  0.00170803  -0.00074412  0.66754152  1
  Cs  Cs3  1  -0.00029468  0.33121025  -0.00080753  1
  Cs  Cs4  1  0.00020236  0.33081794  0.33259336  1
  Cs  Cs5  1  -0.00244470  0.33827720  0.66927448  1
  Cs  Cs6  1  -0.00179263  0.66771531  -0.00051811  1
  Cs  Cs7  1  0.00219927  0.66903234  0.33943324  1
  Cs  Cs8  1  -0.00007130  0.66128460  0.66028527  1
  Cs  Cs9  1  0.33175830  -0.00012339  -0.00062855  1
  Cs  Cs10  1  0.33195482  -0.00106443  0.33199277  1
  Cs  Cs11  1  0.33410521  0.00077658  0.67008147  1
  Cs  Cs12  1  0.33256231  0.33855155  0.00069686  1
  Cs  Cs13  1  0.33463694  0.33962413  0.33245944  1
  Cs  Cs14  1  0.34100849  0.33661628  0.66532184  1
  Cs  Cs15  1  0.33455941  0.66279856  -0.00054383  1
  Cs  Cs16  1  0.33276380  0.66259647  0.33464419  1
  Cs  Cs17  1  0.33313728  0.66096478  0.66580926  1
  Cs  Cs18  1  0.66791192  -0.00139683  0.00095047  1
  Cs  Cs19  1  0.66713238  -0.00046537  0.33269638  1
  Cs  Cs20  1  0.66257177  0.00249364  0.66606525  1
  Cs  Cs21  1  0.66929011  0.33424836  -0.00015248  1
  Cs  Cs22  1  0.66445609  0.33300175  0.33838241  1
  Cs  Cs23  1  0.66054756  0.33839757  0.65733444  1
  Cs  Cs24  1  0.66749877  0.66833672  -0.00089388  1
  Cs  Cs25  1  0.66581939  0.66832179  0.33283903  1
  Cs  Cs26  1  0.66775034  0.65906636  0.66880826  1
  Sn  Sn27  1  0.83308622  0.16658586  0.16611945  1
  Sn  Sn28  1  0.16646048  0.16639421  0.50040189  1
  Sn  Sn29  1  0.83440411  0.83453558  0.83374945  1
  Sn  Sn30  1  0.16707775  0.16584996  0.16645754  1
  Sn  Sn31  1  0.83380122  0.50013032  0.16673945  1
  Sn  Sn32  1  0.83374222  0.83337269  0.16627986  1
  Sn  Sn33  1  0.16560736  0.83376855  0.83409422  1
  Sn  Sn34  1  0.49960237  0.83439175  0.16753749  1
  Sn  Sn35  1  0.16668282  0.83391208  0.16588138  1
  Sn  Sn36  1  0.49986715  0.16582496  0.16623937  1
  Sn  Sn37  1  0.49991302  0.83394641  0.49959376  1
  Sn  Sn38  1  0.16599163  0.16605685  0.83331730  1
  Sn  Sn39  1  0.83354957  0.16572711  0.83369897  1
  Pb  Pb40  1  0.83347319  0.49969377  0.83524479  1
  Pb  Pb41  1  0.49995093  0.50341453  0.49935175  1
  Pb  Pb42  1  0.49733313  0.16460737  0.49714832  1
  Pb  Pb43  1  0.16406543  0.50040380  0.16657023  1
  Pb  Pb44  1  0.16850334  0.83491816  0.50050385  1
  Pb  Pb45  1  0.83528922  0.16629702  0.50063575  1
  Pb  Pb46  1  0.50265782  0.50031525  0.16641141  1
  Pb  Pb47  1  0.49996977  0.83331576  0.83387207  1
  Pb  Pb48  1  0.16655023  0.49635814  0.49981511  1
  Pb  Pb49  1  0.83134740  0.83374540  0.50088496  1
  Pb  Pb50  1  0.50024049  0.16669318  0.83584745  1
  Pb  Pb51  1  0.16639968  0.50000334  0.83369837  1
  Pb  Pb52  1  0.83353666  0.49993806  0.49669932  1
  Pb  Pb53  1  0.50027160  0.49980321  0.83392300  1
  I  I54  1  0.16355462  0.00041384  0.16646822  1
  I  I55  1  0.16687307  0.00282338  0.49799886  1
  I  I56  1  0.16279405  0.00036916  0.83523538  1
  I  I57  1  0.16718309  0.32946191  0.16621521  1
  I  I58  1  0.16637648  0.32805598  0.49741219  1
  I  I59  1  0.16176971  0.32908157  0.83555734  1
  I  I60  1  0.16761941  0.67065843  0.16229418  1
  I  I61  1  0.16838441  0.66691375  0.49954911  1
  I  I62  1  0.16354832  0.67069601  0.83930181  1
  I  I63  1  0.50364947  -0.00066229  0.17010129  1
  I  I64  1  0.50072582  -0.00292915  0.49684718  1
  I  I65  1  0.50015053  -0.00008700  0.83071494  1
  I  I66  1  0.49875043  0.32993252  0.16530526  1
  I  I67  1  0.49902489  0.33315572  0.49941433  1
  I  I68  1  0.49945124  0.33265811  0.83552867  1
  I  I69  1  0.49980437  0.67056234  0.16984999  1
  I  I70  1  0.49853667  0.67116266  0.49174820  1
  I  I71  1  0.50023079  0.66737847  0.83524240  1
  I  I72  1  0.83308476  -0.00001785  0.16356251  1
  I  I73  1  0.83252148  0.00001289  0.49407536  1
  I  I74  1  0.83778467  -0.00005347  0.84269704  1
  I  I75  1  0.83396511  0.33136659  0.16274787  1
  I  I76  1  0.83377469  0.33300413  0.49974949  1
  I  I77  1  0.83946339  0.32951356  0.83981039  1
  I  I78  1  0.83211239  0.66859576  0.16254665  1
  I  I79  1  0.83309865  0.66698205  0.50000853  1
  I  I80  1  0.83597354  0.67021984  0.83840299  1
  I  I81  1  0.16535915  0.16250521  0.00093400  1
  I  I82  1  0.16594238  0.16251020  0.33108442  1
  I  I83  1  0.16122619  0.16108410  0.66816404  1
  I  I84  1  0.16765280  0.49593586  0.00026709  1
  I  I85  1  0.16513870  0.50059031  0.33293958  1
  I  I86  1  0.16601743  0.50227000  0.66675300  1
  I  I87  1  0.16725757  0.84074388  0.00124167  1
  I  I88  1  0.16375480  0.83759311  0.32997135  1
  I  I89  1  0.16381693  0.83857072  0.67000881  1
  I  I90  1  0.49703473  0.15898258  0.00433589  1
  I  I91  1  0.50208714  0.16450371  0.32881678  1
  I  I92  1  0.49986176  0.16573212  0.66646993  1
  I  I93  1  0.49905589  0.50245055  0.00088223  1
  I  I94  1  0.50132751  0.49742290  0.33278592  1
  I  I95  1  0.50095900  0.50108501  0.66621902  1
  I  I96  1  0.50078012  0.83715620  0.00378883  1
  I  I97  1  0.50053509  0.83742569  0.33050614  1
  I  I98  1  0.49930288  0.83317523  0.66443415  1
  I  I99  1  0.83750939  0.16586427  0.00164958  1
  I  I100  1  0.83416467  0.16581148  0.32944032  1
  I  I101  1  0.83891422  0.16039852  0.67059853  1
  I  I102  1  0.83311697  0.49993838  0.00333973  1
  I  I103  1  0.83328760  0.49972559  0.32836756  1
  I  I104  1  0.83256920  0.50046965  0.66689198  1
  I  I105  1  0.83183331  0.83393782  0.00169615  1
  I  I106  1  0.83571541  0.83422285  0.32951685  1
  I  I107  1  0.83685707  0.83895021  0.67066516  1
  I  I108  1  0.00011276  0.16499939  0.16682443  1
  I  I109  1  0.00318060  0.16408308  0.49332113  1
  I  I110  1  0.00028262  0.16280150  0.83903226  1
  I  I111  1  -0.00362992  0.49895078  0.16520056  1
  I  I112  1  0.00006385  0.50252479  0.49992441  1
  I  I113  1  -0.00009490  0.49981836  0.83443403  1
  I  I114  1  -0.00013741  0.83588539  0.16262549  1
  I  I115  1  0.00028947  0.83366198  0.49662664  1
  I  I116  1  -0.00003006  0.83801815  0.84253478  1
  I  I117  1  0.33228077  0.15908660  0.16678399  1
  I  I118  1  0.32961740  0.16428826  0.50109177  1
  I  I119  1  0.32973703  0.16124114  0.83433410  1
  I  I120  1  0.33326443  0.49941190  0.16763532  1
  I  I121  1  0.33337870  0.49993070  0.49885396  1
  I  I122  1  0.33298282  0.50061205  0.83373990  1
  I  I123  1  0.33271163  0.84099387  0.16646981  1
  I  I124  1  0.33605416  0.83586959  0.49394329  1
  I  I125  1  0.32995313  0.83886919  0.83705618  1
  I  I126  1  0.66772982  0.16372444  0.16223477  1
  I  I127  1  0.66626180  0.16698247  0.49986144  1
  I  I128  1  0.67035475  0.16110600  0.84002857  1
  I  I129  1  0.67046579  0.50011408  0.16527501  1
  I  I130  1  0.66657996  0.49844835  0.50042288  1
  I  I131  1  0.66736123  0.50160940  0.83522806  1
  I  I132  1  0.66746343  0.83562505  0.16688673  1
  I  I133  1  0.66363252  0.83469421  0.49323022  1
  I  I134  1  0.67004300  0.83744412  0.83791045  1
