# generated using pymatgen
data_Cs27Sn14Pb13I81
_symmetry_space_group_name_H-M   'P 1'
_cell_length_a   18.97363110
_cell_length_b   18.97382213
_cell_length_c   18.97915049
_cell_angle_alpha   89.99771319
_cell_angle_beta   89.99981702
_cell_angle_gamma   89.99662656
_symmetry_Int_Tables_number   1
_chemical_formula_structural   Cs27Sn14Pb13I81
_chemical_formula_sum   'Cs27 Sn14 Pb13 I81'
_cell_volume   6832.53784302
_cell_formula_units_Z   1
loop_
 _symmetry_equiv_pos_site_id
 _symmetry_equiv_pos_as_xyz
  1  'x, y, z'
loop_
 _atom_site_type_symbol
 _atom_site_label
 _atom_site_symmetry_multiplicity
 _atom_site_fract_x
 _atom_site_fract_y
 _atom_site_fract_z
 _atom_site_occupancy
  Cs  Cs0  1  0.00127958  -0.00051877  0.00454271  1
  Cs  Cs1  1  0.00813527  0.00841585  0.34130298  1
  Cs  Cs2  1  -0.00003716  0.00058476  0.65486714  1
  Cs  Cs3  1  -0.00556743  0.33377771  -0.00217831  1
  Cs  Cs4  1  0.00167819  0.33174461  0.33338582  1
  Cs  Cs5  1  -0.00337839  0.33447312  0.66956222  1
  Cs  Cs6  1  0.00080489  0.66630492  -0.00222163  1
  Cs  Cs7  1  -0.00259811  0.66463166  0.33229882  1
  Cs  Cs8  1  0.00288099  0.66580476  0.67014402  1
  Cs  Cs9  1  0.33490676  -0.00039336  -0.00093811  1
  Cs  Cs10  1  0.32548615  0.00115037  0.33432408  1
  Cs  Cs11  1  0.33244169  0.00134176  0.66805546  1
  Cs  Cs12  1  0.33607847  0.33300072  -0.00130755  1
  Cs  Cs13  1  0.33289839  0.33546723  0.33409749  1
  Cs  Cs14  1  0.33610593  0.33247453  0.66796624  1
  Cs  Cs15  1  0.33207631  0.66794423  -0.00018209  1
  Cs  Cs16  1  0.33375797  0.66407519  0.33467565  1
  Cs  Cs17  1  0.33231229  0.66854167  0.66564440  1
  Cs  Cs18  1  0.66446498  -0.00227234  -0.00051205  1
  Cs  Cs19  1  0.66939169  -0.00319674  0.33419131  1
  Cs  Cs20  1  0.66864712  -0.00212411  0.66639477  1
  Cs  Cs21  1  0.66608187  0.33249577  -0.00036530  1
  Cs  Cs22  1  0.66595898  0.33651685  0.33116748  1
  Cs  Cs23  1  0.66570450  0.33248315  0.66973053  1
  Cs  Cs24  1  0.66724593  0.66920142  0.00216721  1
  Cs  Cs25  1  0.66737082  0.66581127  0.33311384  1
  Cs  Cs26  1  0.66575410  0.66936799  0.66330045  1
  Sn  Sn27  1  0.16566374  0.49989657  0.49967009  1
  Sn  Sn28  1  0.83293022  0.83361587  0.83413984  1
  Sn  Sn29  1  0.50065026  0.83315686  0.83404103  1
  Sn  Sn30  1  0.83407112  0.49999845  0.49947779  1
  Sn  Sn31  1  0.50016933  0.16624479  0.16716875  1
  Sn  Sn32  1  0.50034076  0.83323699  0.16626370  1
  Sn  Sn33  1  0.16660147  0.49993215  0.16682841  1
  Sn  Sn34  1  0.16660717  0.16658789  0.83378173  1
  Sn  Sn35  1  0.83329914  0.50062388  0.16709982  1
  Sn  Sn36  1  0.83315941  0.83307630  0.16622274  1
  Sn  Sn37  1  0.49956427  0.16635584  0.83337274  1
  Sn  Sn38  1  0.50014104  0.50062574  0.83409357  1
  Sn  Sn39  1  0.50000870  0.50034065  0.16570228  1
  Sn  Sn40  1  0.50050467  0.16633796  0.49967175  1
  Pb  Pb41  1  0.83304247  0.16331761  0.83350829  1
  Pb  Pb42  1  0.83332633  0.83103953  0.49910495  1
  Pb  Pb43  1  0.50016956  0.49866397  0.49984610  1
  Pb  Pb44  1  0.16652197  0.83601989  0.83347182  1
  Pb  Pb45  1  0.16640812  0.83114184  0.16672316  1
  Pb  Pb46  1  0.16903144  0.49832331  0.83361398  1
  Pb  Pb47  1  0.83068051  0.50207056  0.83379224  1
  Pb  Pb48  1  0.16912393  0.16948236  0.16452283  1
  Pb  Pb49  1  0.16893826  0.16960258  0.50231029  1
  Pb  Pb50  1  0.49982007  0.83615042  0.49934423  1
  Pb  Pb51  1  0.16671659  0.83027410  0.49983838  1
  Pb  Pb52  1  0.83130546  0.16610379  0.16667088  1
  Pb  Pb53  1  0.83078409  0.16975420  0.49982354  1
  I  I54  1  0.16681009  0.00032967  0.16542224  1
  I  I55  1  0.16724495  0.00072830  0.50093236  1
  I  I56  1  0.17545956  0.00350481  0.83410092  1
  I  I57  1  0.16696281  0.33766628  0.17057497  1
  I  I58  1  0.16385267  0.33712161  0.49474733  1
  I  I59  1  0.17541290  0.33073677  0.83338644  1
  I  I60  1  0.17260988  0.66270190  0.16931284  1
  I  I61  1  0.16574680  0.66188206  0.49744078  1
  I  I62  1  0.16865004  0.66650905  0.83203561  1
  I  I63  1  0.50547428  -0.00039720  0.16281967  1
  I  I64  1  0.49978642  0.00413031  0.50114146  1
  I  I65  1  0.49969719  0.00003348  0.83623696  1
  I  I66  1  0.49976412  0.33413057  0.16403463  1
  I  I67  1  0.49993446  0.33079684  0.50110200  1
  I  I68  1  0.49567056  0.33311572  0.83541420  1
  I  I69  1  0.50029062  0.66592170  0.16011108  1
  I  I70  1  0.49945109  0.66653274  0.50144194  1
  I  I71  1  0.50378654  0.66691322  0.83975874  1
  I  I72  1  0.82614997  -0.00365271  0.16014896  1
  I  I73  1  0.83222772  -0.00004073  0.50049308  1
  I  I74  1  0.82586906  -0.00437884  0.84061318  1
  I  I75  1  0.83194209  0.33672894  0.17073617  1
  I  I76  1  0.83655771  0.33780604  0.49365590  1
  I  I77  1  0.83184645  0.33346187  0.83281807  1
  I  I78  1  0.82757965  0.66562592  0.16715992  1
  I  I79  1  0.83443302  0.66295175  0.49800878  1
  I  I80  1  0.82723991  0.66975039  0.83435523  1
  I  I81  1  0.17463149  0.16858996  -0.00295571  1
  I  I82  1  0.16870578  0.16538702  0.33329701  1
  I  I83  1  0.17501652  0.16841725  0.66979651  1
  I  I84  1  0.16550788  0.49913779  0.00289290  1
  I  I85  1  0.16960007  0.49993108  0.33224607  1
  I  I86  1  0.16346248  0.49797115  0.66446345  1
  I  I87  1  0.16691534  0.83016261  0.00005192  1
  I  I88  1  0.16838091  0.83694119  0.33297368  1
  I  I89  1  0.16753116  0.83062499  0.66699145  1
  I  I90  1  0.49633082  0.16771920  -0.00013632  1
  I  I91  1  0.50215796  0.16957124  0.33211713  1
  I  I92  1  0.49604166  0.16874253  0.66813942  1
  I  I93  1  0.49974546  0.49556607  0.00123147  1
  I  I94  1  0.50001511  0.49960182  0.33002020  1
  I  I95  1  0.49978180  0.49875235  0.66921590  1
  I  I96  1  0.50354996  0.83616175  0.00012058  1
  I  I97  1  0.50502597  0.83093035  0.32935495  1
  I  I98  1  0.50383686  0.83232665  0.67007885  1
  I  I99  1  0.83209700  0.17366240  0.00001728  1
  I  I100  1  0.83036169  0.16217600  0.33319202  1
  I  I101  1  0.83007210  0.16736745  0.66681136  1
  I  I102  1  0.83528722  0.50133268  0.00324966  1
  I  I103  1  0.83046895  0.50539043  0.33145449  1
  I  I104  1  0.83643316  0.50057487  0.66464446  1
  I  I105  1  0.82732132  0.82662714  0.00097614  1
  I  I106  1  0.82544980  0.82901885  0.32950238  1
  I  I107  1  0.82734888  0.83286131  0.66931432  1
  I  I108  1  0.00030119  0.16672934  0.16452619  1
  I  I109  1  0.00027409  0.16510598  0.50239870  1
  I  I110  1  0.00244063  0.16828576  0.83312521  1
  I  I111  1  -0.00074204  0.50508912  0.17151252  1
  I  I112  1  -0.00018565  0.50027690  0.49148247  1
  I  I113  1  -0.00015274  0.49909222  0.83498078  1
  I  I114  1  -0.00359858  0.82630297  0.16055562  1
  I  I115  1  -0.00030598  0.83645136  0.50151589  1
  I  I116  1  -0.00316685  0.83239324  0.83857192  1
  I  I117  1  0.33800687  0.16627556  0.16799720  1
  I  I118  1  0.33684590  0.17011334  0.49795724  1
  I  I119  1  0.33649927  0.16582732  0.83336638  1
  I  I120  1  0.33479459  0.49936047  0.16727535  1
  I  I121  1  0.33151629  0.49763855  0.49664691  1
  I  I122  1  0.33744013  0.50341473  0.83673086  1
  I  I123  1  0.33695315  0.83282640  0.16148633  1
  I  I124  1  0.33370930  0.83019750  0.50071149  1
  I  I125  1  0.33706286  0.83178613  0.83788240  1
  I  I126  1  0.66220501  0.17254120  0.16255276  1
  I  I127  1  0.66263454  0.16935307  0.50371206  1
  I  I128  1  0.66265475  0.16938310  0.83382446  1
  I  I129  1  0.66586138  0.49996938  0.16755295  1
  I  I130  1  0.66879452  0.49864609  0.49637900  1
  I  I131  1  0.66247082  0.49373058  0.83611894  1
  I  I132  1  0.66544301  0.82828979  0.16227816  1
  I  I133  1  0.66648793  0.83081763  0.50112462  1
  I  I134  1  0.66476579  0.83486740  0.83733606  1
