# generated using pymatgen
data_Cs27Sn13Pb14I81
_symmetry_space_group_name_H-M   'P 1'
_cell_length_a   19.00102002
_cell_length_b   18.99593455
_cell_length_c   18.97914973
_cell_angle_alpha   89.99967008
_cell_angle_beta   90.00039114
_cell_angle_gamma   90.00067864
_symmetry_Int_Tables_number   1
_chemical_formula_structural   Cs27Sn13Pb14I81
_chemical_formula_sum   'Cs27 Sn13 Pb14 I81'
_cell_volume   6850.37478050
_cell_formula_units_Z   1
loop_
 _symmetry_equiv_pos_site_id
 _symmetry_equiv_pos_as_xyz
  1  'x, y, z'
loop_
 _atom_site_type_symbol
 _atom_site_label
 _atom_site_symmetry_multiplicity
 _atom_site_fract_x
 _atom_site_fract_y
 _atom_site_fract_z
 _atom_site_occupancy
  Cs  Cs0  1  -0.00169324  0.00184332  0.00161615  1
  Cs  Cs1  1  0.00324319  0.00160716  0.32860214  1
  Cs  Cs2  1  0.00095509  -0.00217444  0.66768710  1
  Cs  Cs3  1  -0.01187731  0.34093040  0.00524574  1
  Cs  Cs4  1  0.01167811  0.33379870  0.33044958  1
  Cs  Cs5  1  0.00227982  0.33310506  0.66685217  1
  Cs  Cs6  1  -0.00011190  0.65968529  0.00998321  1
  Cs  Cs7  1  -0.00006444  0.66497919  0.32741369  1
  Cs  Cs8  1  0.00141580  0.67159309  0.66616676  1
  Cs  Cs9  1  0.33436461  -0.00062931  0.00020037  1
  Cs  Cs10  1  0.33369204  0.00319735  0.32657022  1
  Cs  Cs11  1  0.33309077  -0.00084528  0.66790779  1
  Cs  Cs12  1  0.33285342  0.33493085  -0.00229612  1
  Cs  Cs13  1  0.32840060  0.33101195  0.33274526  1
  Cs  Cs14  1  0.33194102  0.33298247  0.66686223  1
  Cs  Cs15  1  0.33161088  0.66534558  -0.00211421  1
  Cs  Cs16  1  0.33461691  0.66624434  0.33187595  1
  Cs  Cs17  1  0.33396951  0.66836977  0.66842696  1
  Cs  Cs18  1  0.66686864  0.00304118  0.00562430  1
  Cs  Cs19  1  0.66451691  0.00009392  0.33247038  1
  Cs  Cs20  1  0.66658076  -0.00080444  0.66592634  1
  Cs  Cs21  1  0.67600650  0.33348981  -0.00085964  1
  Cs  Cs22  1  0.66406592  0.33431236  0.33553770  1
  Cs  Cs23  1  0.66646978  0.33180749  0.66665108  1
  Cs  Cs24  1  0.66780126  0.66316909  0.00270516  1
  Cs  Cs25  1  0.66565376  0.66621594  0.33581237  1
  Cs  Cs26  1  0.66537887  0.66846427  0.66425443  1
  Sn  Sn27  1  0.16698124  0.83351876  0.50013270  1
  Sn  Sn28  1  0.50045432  0.16628120  0.50090458  1
  Sn  Sn29  1  0.83354546  0.83367841  0.50034723  1
  Sn  Sn30  1  0.83297945  0.49977637  0.50053602  1
  Sn  Sn31  1  0.49955795  0.83379745  0.50045100  1
  Sn  Sn32  1  0.83315616  0.16651330  0.50024529  1
  Sn  Sn33  1  0.49951293  0.16576138  0.83240642  1
  Sn  Sn34  1  0.16641887  0.83414140  0.83275739  1
  Sn  Sn35  1  0.49995438  0.49971583  0.16746758  1
  Sn  Sn36  1  0.50047595  0.49986579  0.49939103  1
  Sn  Sn37  1  0.50054482  0.83432905  0.83268726  1
  Sn  Sn38  1  0.16681510  0.16611058  0.83320713  1
  Sn  Sn39  1  0.83316629  0.83318357  0.83296916  1
  Pb  Pb40  1  0.50005053  0.83156097  0.16622950  1
  Pb  Pb41  1  0.83323880  0.50323471  0.83002276  1
  Pb  Pb42  1  0.16984177  0.50000473  0.16674183  1
  Pb  Pb43  1  0.16702018  0.16407509  0.50163484  1
  Pb  Pb44  1  0.83306091  0.16659614  0.17073155  1
  Pb  Pb45  1  0.50005971  0.16918809  0.16615953  1
  Pb  Pb46  1  0.83073793  0.50002111  0.17051318  1
  Pb  Pb47  1  0.16695772  0.83351103  0.16588907  1
  Pb  Pb48  1  0.83301258  0.83350526  0.16708958  1
  Pb  Pb49  1  0.50008856  0.49972749  0.83252327  1
  Pb  Pb50  1  0.16637892  0.50014120  0.83306171  1
  Pb  Pb51  1  0.16702475  0.50284293  0.50034680  1
  Pb  Pb52  1  0.83312622  0.16449499  0.83123911  1
  Pb  Pb53  1  0.16684363  0.16652546  0.16199786  1
  I  I54  1  0.16800687  -0.00003394  0.17100681  1
  I  I55  1  0.16601783  -0.00386742  0.50311634  1
  I  I56  1  0.16850968  -0.00148566  0.82774305  1
  I  I57  1  0.16759835  0.33323085  0.16790596  1
  I  I58  1  0.16598093  0.33302079  0.50109398  1
  I  I59  1  0.17508177  0.32982905  0.83183485  1
  I  I60  1  0.16631061  0.66679790  0.16466379  1
  I  I61  1  0.16743341  0.67109829  0.50747950  1
  I  I62  1  0.16939520  0.67091290  0.82847951  1
  I  I63  1  0.49942528  0.00025061  0.16945898  1
  I  I64  1  0.50345467  -0.00048787  0.50513277  1
  I  I65  1  0.49876788  -0.00091037  0.82486281  1
  I  I66  1  0.49991081  0.33665316  0.17323562  1
  I  I67  1  0.50754160  0.33285869  0.50053553  1
  I  I68  1  0.49392996  0.33000849  0.82946843  1
  I  I69  1  0.50100103  0.66392818  0.17264692  1
  I  I70  1  0.50253633  0.66766297  0.49997673  1
  I  I71  1  0.49871642  0.67007723  0.82985579  1
  I  I72  1  0.83265606  -0.00006053  0.16887416  1
  I  I73  1  0.82954330  -0.00093179  0.50455381  1
  I  I74  1  0.83331899  -0.00354355  0.82550382  1
  I  I75  1  0.83194302  0.33351895  0.16397373  1
  I  I76  1  0.82331665  0.33317455  0.49989560  1
  I  I77  1  0.83333924  0.33313172  0.83267333  1
  I  I78  1  0.83308555  0.66661509  0.16714740  1
  I  I79  1  0.82947581  0.66764680  0.50394539  1
  I  I80  1  0.83184235  0.67164767  0.82670528  1
  I  I81  1  0.17582484  0.15703315  -0.00589356  1
  I  I82  1  0.16618947  0.16553303  0.33340491  1
  I  I83  1  0.16904944  0.16380422  0.66951581  1
  I  I84  1  0.16962066  0.50304428  -0.00000716  1
  I  I85  1  0.16374680  0.50218459  0.33385057  1
  I  I86  1  0.17006774  0.49859288  0.66637280  1
  I  I87  1  0.16849010  0.83730596  -0.00434369  1
  I  I88  1  0.16617853  0.83202152  0.33666550  1
  I  I89  1  0.16674451  0.83584427  0.66669844  1
  I  I90  1  0.49480345  0.16190808  -0.00375129  1
  I  I91  1  0.50482249  0.16312163  0.33699724  1
  I  I92  1  0.50026852  0.16778187  0.66557066  1
  I  I93  1  0.49730509  0.50192828  0.00200480  1
  I  I94  1  0.50500772  0.50168961  0.33615446  1
  I  I95  1  0.50401912  0.50112808  0.66293873  1
  I  I96  1  0.49908863  0.83629689  -0.00395705  1
  I  I97  1  0.50096940  0.83561707  0.33729326  1
  I  I98  1  0.50007605  0.83121694  0.66551783  1
  I  I99  1  0.83300068  0.16497651  -0.00038260  1
  I  I100  1  0.82538202  0.16222758  0.33932041  1
  I  I101  1  0.83053444  0.16849185  0.66291227  1
  I  I102  1  0.83265572  0.50137050  0.00020748  1
  I  I103  1  0.83064319  0.50505022  0.33840403  1
  I  I104  1  0.82422364  0.49849271  0.66216246  1
  I  I105  1  0.83294445  0.83452547  -0.00346696  1
  I  I106  1  0.83245263  0.83242433  0.33815283  1
  I  I107  1  0.83289225  0.83260866  0.66518190  1
  I  I108  1  0.00004243  0.16727464  0.16771353  1
  I  I109  1  -0.00249839  0.16676017  0.50176560  1
  I  I110  1  0.00227172  0.16044362  0.83039171  1
  I  I111  1  -0.00032812  0.50022038  0.16655052  1
  I  I112  1  -0.00305000  0.50007849  0.50243545  1
  I  I113  1  -0.00027450  0.49894748  0.83147737  1
  I  I114  1  -0.00000490  0.83155042  0.16776619  1
  I  I115  1  -0.00067492  0.83298558  0.50702097  1
  I  I116  1  0.00019435  0.83780645  0.82370780  1
  I  I117  1  0.33359663  0.16805797  0.17306855  1
  I  I118  1  0.33667558  0.16793792  0.50155763  1
  I  I119  1  0.33474849  0.15860105  0.82694120  1
  I  I120  1  0.33751698  0.50115457  0.17517803  1
  I  I121  1  0.33700102  0.49995797  0.49633800  1
  I  I122  1  0.33363909  0.50480351  0.83194965  1
  I  I123  1  0.33353373  0.83088735  0.16830203  1
  I  I124  1  0.33449032  0.83175706  0.50617023  1
  I  I125  1  0.33393197  0.83648374  0.82657787  1
  I  I126  1  0.66635768  0.16660137  0.16099036  1
  I  I127  1  0.66524749  0.16347868  0.50521072  1
  I  I128  1  0.66360788  0.16318522  0.83091075  1
  I  I129  1  0.66335628  0.50112915  0.16835132  1
  I  I130  1  0.66562127  0.50468392  0.49660088  1
  I  I131  1  0.66651208  0.49952602  0.83667994  1
  I  I132  1  0.66649905  0.83252735  0.16636894  1
  I  I133  1  0.66628782  0.83227503  0.50510476  1
  I  I134  1  0.66584534  0.83605454  0.82557549  1
