# generated using pymatgen
data_Cs27Sn14Pb13I81
_symmetry_space_group_name_H-M   'P 1'
_cell_length_a   19.05377852
_cell_length_b   19.06072588
_cell_length_c   19.06208166
_cell_angle_alpha   90.00332516
_cell_angle_beta   89.99929230
_cell_angle_gamma   89.99831337
_symmetry_Int_Tables_number   1
_chemical_formula_structural   Cs27Sn14Pb13I81
_chemical_formula_sum   'Cs27 Sn14 Pb13 I81'
_cell_volume   6922.94486794
_cell_formula_units_Z   1
loop_
 _symmetry_equiv_pos_site_id
 _symmetry_equiv_pos_as_xyz
  1  'x, y, z'
loop_
 _atom_site_type_symbol
 _atom_site_label
 _atom_site_symmetry_multiplicity
 _atom_site_fract_x
 _atom_site_fract_y
 _atom_site_fract_z
 _atom_site_occupancy
  Cs  Cs0  1  -0.00349116  -0.00205359  0.00160506  1
  Cs  Cs1  1  0.00175679  -0.00663284  0.33179707  1
  Cs  Cs2  1  0.00112243  0.00066003  0.66549792  1
  Cs  Cs3  1  0.00250785  0.33152016  0.00621515  1
  Cs  Cs4  1  -0.00054786  0.33463266  0.32973937  1
  Cs  Cs5  1  -0.00438577  0.33147456  0.66568734  1
  Cs  Cs6  1  0.00026762  0.67429849  0.00690964  1
  Cs  Cs7  1  -0.00066189  0.66827023  0.33336014  1
  Cs  Cs8  1  0.00191402  0.66834017  0.65879651  1
  Cs  Cs9  1  0.33444315  0.00709315  0.00226958  1
  Cs  Cs10  1  0.34671176  0.00003271  0.33305512  1
  Cs  Cs11  1  0.33093055  0.00180443  0.66586916  1
  Cs  Cs12  1  0.33200730  0.33330777  -0.00133676  1
  Cs  Cs13  1  0.33362068  0.33688966  0.33128919  1
  Cs  Cs14  1  0.33015643  0.33415306  0.67188685  1
  Cs  Cs15  1  0.33398734  0.66431804  -0.00274971  1
  Cs  Cs16  1  0.33287655  0.66099859  0.33422990  1
  Cs  Cs17  1  0.33363526  0.66642375  0.66547680  1
  Cs  Cs18  1  0.66821730  -0.01506322  -0.00035031  1
  Cs  Cs19  1  0.64346138  -0.00017972  0.33602190  1
  Cs  Cs20  1  0.66731695  0.00097328  0.66243345  1
  Cs  Cs21  1  0.66758514  0.33560948  0.00156313  1
  Cs  Cs22  1  0.66764193  0.33140032  0.33268772  1
  Cs  Cs23  1  0.68840929  0.33232495  0.66893975  1
  Cs  Cs24  1  0.66760292  0.67656924  -0.01647593  1
  Cs  Cs25  1  0.66597931  0.66472379  0.33311380  1
  Cs  Cs26  1  0.66527333  0.66664852  0.68272176  1
  Sn  Sn27  1  0.83297445  0.49974698  0.16668093  1
  Sn  Sn28  1  0.16696302  0.16672017  0.83335402  1
  Sn  Sn29  1  0.16663599  0.16705223  0.49909877  1
  Sn  Sn30  1  0.16662628  0.49920227  0.16665272  1
  Sn  Sn31  1  0.16580010  0.16720560  0.16754032  1
  Sn  Sn32  1  0.16697509  0.83357864  0.83241277  1
  Sn  Sn33  1  0.16599027  0.49996614  0.83316446  1
  Sn  Sn34  1  0.50008577  0.49910100  0.50062337  1
  Sn  Sn35  1  0.83358394  0.16646377  0.16725245  1
  Sn  Sn36  1  0.16719429  0.49913001  0.50008104  1
  Sn  Sn37  1  0.50042336  0.49999479  0.16688039  1
  Sn  Sn38  1  0.50022486  0.16782844  0.83296920  1
  Sn  Sn39  1  0.83340887  0.83339320  0.49887118  1
  Sn  Sn40  1  0.16648412  0.83371304  0.50038757  1
  Pb  Pb41  1  0.49582473  0.83660081  0.83275730  1
  Pb  Pb42  1  0.83607241  0.16396803  0.49642908  1
  Pb  Pb43  1  0.50017744  0.16920936  0.16439794  1
  Pb  Pb44  1  0.49919369  0.83014209  0.50053339  1
  Pb  Pb45  1  0.49728148  0.17068264  0.50305523  1
  Pb  Pb46  1  0.83702127  0.83358659  0.83017673  1
  Pb  Pb47  1  0.49965463  0.82930493  0.16629829  1
  Pb  Pb48  1  0.83404162  0.16651974  0.83620778  1
  Pb  Pb49  1  0.83321188  0.50179545  0.49791428  1
  Pb  Pb50  1  0.83745780  0.49997799  0.83653681  1
  Pb  Pb51  1  0.83328444  0.83392548  0.16975523  1
  Pb  Pb52  1  0.49783119  0.49736120  0.83262965  1
  Pb  Pb53  1  0.16719061  0.83387747  0.16734242  1
  I  I54  1  0.15819140  0.00335993  0.16436160  1
  I  I55  1  0.15804670  0.00027751  0.50519297  1
  I  I56  1  0.17159417  0.00069875  0.82896739  1
  I  I57  1  0.16653149  0.33433277  0.16616445  1
  I  I58  1  0.17379075  0.33367741  0.50228106  1
  I  I59  1  0.17248572  0.33324117  0.83197111  1
  I  I60  1  0.16604396  0.66344069  0.16565418  1
  I  I61  1  0.16634036  0.66591767  0.50344380  1
  I  I62  1  0.16488961  0.66598104  0.83061243  1
  I  I63  1  0.50101405  0.00026664  0.16542075  1
  I  I64  1  0.50131474  0.00018843  0.50060541  1
  I  I65  1  0.49089787  0.00392997  0.83560389  1
  I  I66  1  0.49758780  0.33651914  0.17178367  1
  I  I67  1  0.49115919  0.33737872  0.49186210  1
  I  I68  1  0.48673555  0.33066345  0.83481230  1
  I  I69  1  0.49602253  0.66113642  0.17244330  1
  I  I70  1  0.48976725  0.66288219  0.49320473  1
  I  I71  1  0.50183832  0.66649630  0.83510971  1
  I  I72  1  0.84565218  0.00310425  0.16409775  1
  I  I73  1  0.84481941  -0.00317580  0.50012143  1
  I  I74  1  0.83486921  0.00003834  0.83956264  1
  I  I75  1  0.83689821  0.33404766  0.16760796  1
  I  I76  1  0.83166705  0.33318059  0.50395442  1
  I  I77  1  0.83481134  0.33324599  0.82504672  1
  I  I78  1  0.83695466  0.66386502  0.16898853  1
  I  I79  1  0.84504138  0.66873339  0.49542566  1
  I  I80  1  0.83071597  0.66672737  0.83858073  1
  I  I81  1  0.16734216  0.17072414  0.00021199  1
  I  I82  1  0.15863711  0.17132428  0.33321005  1
  I  I83  1  0.17408165  0.16894665  0.66668267  1
  I  I84  1  0.16671870  0.49646687  0.00053064  1
  I  I85  1  0.16699803  0.49795991  0.33294282  1
  I  I86  1  0.17460188  0.49855204  0.66614676  1
  I  I87  1  0.16851709  0.83147649  -0.00233854  1
  I  I88  1  0.16037456  0.83149544  0.33649872  1
  I  I89  1  0.16137258  0.83258064  0.66608185  1
  I  I90  1  0.48771977  0.17070764  -0.00238384  1
  I  I91  1  0.50109894  0.16159589  0.33355733  1
  I  I92  1  0.48790509  0.16695046  0.66988638  1
  I  I93  1  0.49790083  0.49704883  0.00237284  1
  I  I94  1  0.49071848  0.50028054  0.33297998  1
  I  I95  1  0.48988771  0.50197419  0.66395713  1
  I  I96  1  0.50112492  0.82969927  -0.00062154  1
  I  I97  1  0.49690914  0.84163541  0.33377740  1
  I  I98  1  0.50594949  0.82773011  0.66658233  1
  I  I99  1  0.84362018  0.17342058  0.00355672  1
  I  I100  1  0.84162714  0.17467856  0.32948251  1
  I  I101  1  0.83151760  0.16466630  0.66650121  1
  I  I102  1  0.83148570  0.49424076  0.00424598  1
  I  I103  1  0.84133595  0.49643101  0.33035545  1
  I  I104  1  0.83009605  0.50252337  0.66687274  1
  I  I105  1  0.83159867  0.83252282  0.00022282  1
  I  I106  1  0.84885732  0.83116860  0.33648985  1
  I  I107  1  0.83618568  0.83144571  0.66288277  1
  I  I108  1  0.00232000  0.17840854  0.16385859  1
  I  I109  1  0.00454222  0.17536124  0.50913435  1
  I  I110  1  0.00417356  0.16671437  0.82969305  1
  I  I111  1  0.00170155  0.49496408  0.16572642  1
  I  I112  1  0.00395810  0.49784121  0.50104294  1
  I  I113  1  0.00540822  0.49430283  0.82871867  1
  I  I114  1  0.00057883  0.82643320  0.16223209  1
  I  I115  1  0.00296891  0.82947694  0.50503363  1
  I  I116  1  0.00451200  0.83741788  0.83402965  1
  I  I117  1  0.32987326  0.16975013  0.16855849  1
  I  I118  1  0.32879924  0.15729117  0.49142314  1
  I  I119  1  0.32918257  0.16616416  0.83705029  1
  I  I120  1  0.33131501  0.49579804  0.16764555  1
  I  I121  1  0.33024735  0.50333713  0.49274972  1
  I  I122  1  0.32928864  0.50330898  0.83997337  1
  I  I123  1  0.33303231  0.83648849  0.17010919  1
  I  I124  1  0.32967919  0.83637271  0.50593961  1
  I  I125  1  0.32864857  0.82760645  0.82295606  1
  I  I126  1  0.66926445  0.17397459  0.16425348  1
  I  I127  1  0.66652313  0.16416600  0.50174893  1
  I  I128  1  0.66431505  0.17030964  0.83514599  1
  I  I129  1  0.66668269  0.49256529  0.17794279  1
  I  I130  1  0.66392008  0.50291998  0.49116969  1
  I  I131  1  0.66691740  0.49837250  0.83186205  1
  I  I132  1  0.66693517  0.83728556  0.17073927  1
  I  I133  1  0.66885583  0.83223677  0.49376544  1
  I  I134  1  0.66654115  0.83414493  0.83367496  1
