# generated using pymatgen
data_Cs27Sn14Pb13I81
_symmetry_space_group_name_H-M   'P 1'
_cell_length_a   18.98230608
_cell_length_b   18.97225199
_cell_length_c   18.97283193
_cell_angle_alpha   90.00200208
_cell_angle_beta   90.00005663
_cell_angle_gamma   89.99780466
_symmetry_Int_Tables_number   1
_chemical_formula_structural   Cs27Sn14Pb13I81
_chemical_formula_sum   'Cs27 Sn14 Pb13 I81'
_cell_volume   6832.82055522
_cell_formula_units_Z   1
loop_
 _symmetry_equiv_pos_site_id
 _symmetry_equiv_pos_as_xyz
  1  'x, y, z'
loop_
 _atom_site_type_symbol
 _atom_site_label
 _atom_site_symmetry_multiplicity
 _atom_site_fract_x
 _atom_site_fract_y
 _atom_site_fract_z
 _atom_site_occupancy
  Cs  Cs0  1  0.00200046  0.00093395  0.00301513  1
  Cs  Cs1  1  -0.00115869  -0.00106973  0.33311652  1
  Cs  Cs2  1  -0.00036034  -0.00072300  0.66611594  1
  Cs  Cs3  1  0.00180054  0.33352431  0.00180331  1
  Cs  Cs4  1  0.00138187  0.33245413  0.33610791  1
  Cs  Cs5  1  0.00158493  0.33185384  0.66169334  1
  Cs  Cs6  1  -0.00020885  0.66648540  -0.00050076  1
  Cs  Cs7  1  -0.00054424  0.66738702  0.33250819  1
  Cs  Cs8  1  -0.00311614  0.66846095  0.66730814  1
  Cs  Cs9  1  0.33127517  -0.00074025  0.00381357  1
  Cs  Cs10  1  0.33378353  -0.00480241  0.32363298  1
  Cs  Cs11  1  0.33345970  0.00103769  0.66809550  1
  Cs  Cs12  1  0.33563753  0.33712211  -0.00245620  1
  Cs  Cs13  1  0.32935141  0.33495922  0.33711389  1
  Cs  Cs14  1  0.33148687  0.33133833  0.66731759  1
  Cs  Cs15  1  0.33186199  0.66471763  0.00044044  1
  Cs  Cs16  1  0.33654979  0.66927987  0.33431583  1
  Cs  Cs17  1  0.33466703  0.66855174  0.66684431  1
  Cs  Cs18  1  0.66654626  0.00376275  -0.00068497  1
  Cs  Cs19  1  0.66656916  0.00100542  0.33371112  1
  Cs  Cs20  1  0.66725737  0.00065954  0.66693221  1
  Cs  Cs21  1  0.66490264  0.33287524  0.00082982  1
  Cs  Cs22  1  0.66807915  0.33130236  0.33268685  1
  Cs  Cs23  1  0.66712591  0.33089741  0.66659828  1
  Cs  Cs24  1  0.66940064  0.66414463  -0.00296846  1
  Cs  Cs25  1  0.66539902  0.66736354  0.33637327  1
  Cs  Cs26  1  0.66837735  0.66588761  0.66657409  1
  Sn  Sn27  1  0.16681166  0.50037303  0.16608681  1
  Sn  Sn28  1  0.50069381  0.16656988  0.83269232  1
  Sn  Sn29  1  0.50005121  0.50001559  0.16640563  1
  Sn  Sn30  1  0.83282764  0.83261940  0.16721558  1
  Sn  Sn31  1  0.49955149  0.50025770  0.83357999  1
  Sn  Sn32  1  0.49939496  0.83327538  0.83339497  1
  Sn  Sn33  1  0.83313571  0.16680470  0.83273861  1
  Sn  Sn34  1  0.83322797  0.50083662  0.16682233  1
  Sn  Sn35  1  0.83381387  0.83385299  0.49935056  1
  Sn  Sn36  1  0.16741815  0.83253349  0.83258665  1
  Sn  Sn37  1  0.50025913  0.16632637  0.50041307  1
  Sn  Sn38  1  0.16634987  0.83341738  0.50069012  1
  Sn  Sn39  1  0.83246895  0.16565544  0.50111750  1
  Sn  Sn40  1  0.16706485  0.50094048  0.83351270  1
  Pb  Pb41  1  0.83375700  0.49737660  0.83502009  1
  Pb  Pb42  1  0.16687546  0.16989771  0.16662799  1
  Pb  Pb43  1  0.83364090  0.83518217  0.83332323  1
  Pb  Pb44  1  0.49980169  0.16911158  0.16650785  1
  Pb  Pb45  1  0.50000328  0.49744676  0.50083113  1
  Pb  Pb46  1  0.83327866  0.49990408  0.49753742  1
  Pb  Pb47  1  0.16478571  0.83118730  0.16616646  1
  Pb  Pb48  1  0.83332169  0.16662052  0.16701311  1
  Pb  Pb49  1  0.50027987  0.83562570  0.50203823  1
  Pb  Pb50  1  0.16702514  0.16344682  0.49998171  1
  Pb  Pb51  1  0.16706485  0.16669900  0.83338151  1
  Pb  Pb52  1  0.16677810  0.50291558  0.50083625  1
  Pb  Pb53  1  0.50275288  0.83081809  0.16369633  1
  I  I54  1  0.16400259  -0.00073482  0.16617546  1
  I  I55  1  0.16410962  -0.00422975  0.50789489  1
  I  I56  1  0.16896438  -0.00308059  0.82849762  1
  I  I57  1  0.16357252  0.33865488  0.15991813  1
  I  I58  1  0.16548271  0.33327892  0.49893292  1
  I  I59  1  0.16947964  0.33644946  0.83930405  1
  I  I60  1  0.16828247  0.66314686  0.16462346  1
  I  I61  1  0.15999047  0.67066850  0.50168553  1
  I  I62  1  0.17406569  0.66658387  0.83373545  1
  I  I63  1  0.50227212  -0.00029127  0.16569643  1
  I  I64  1  0.50216252  0.00342949  0.50711832  1
  I  I65  1  0.50073322  0.00029899  0.82758749  1
  I  I66  1  0.50296380  0.33735814  0.16042406  1
  I  I67  1  0.50718845  0.32953921  0.50486216  1
  I  I68  1  0.50012657  0.33369815  0.83445603  1
  I  I69  1  0.49751291  0.66272781  0.16171943  1
  I  I70  1  0.50044617  0.66698525  0.50052351  1
  I  I71  1  0.49532735  0.66619999  0.83828833  1
  I  I72  1  0.83428068  -0.00265573  0.16746175  1
  I  I73  1  0.83368358  -0.00023342  0.49790510  1
  I  I74  1  0.82889167  0.00294982  0.83411790  1
  I  I75  1  0.83335238  0.33635073  0.16526886  1
  I  I76  1  0.82911477  0.33006718  0.50272580  1
  I  I77  1  0.82904153  0.32959707  0.82931111  1
  I  I78  1  0.83365153  0.66634059  0.17125804  1
  I  I79  1  0.83763504  0.66988572  0.49797277  1
  I  I80  1  0.83060042  0.66665094  0.83144208  1
  I  I81  1  0.16450336  0.16043542  -0.00043601  1
  I  I82  1  0.16608647  0.16740456  0.33366335  1
  I  I83  1  0.16572980  0.17250687  0.66674570  1
  I  I84  1  0.16736203  0.50564368  -0.00080921  1
  I  I85  1  0.16672075  0.49971256  0.33040617  1
  I  I86  1  0.17274734  0.50083275  0.67029061  1
  I  I87  1  0.16917911  0.83167993  -0.00304378  1
  I  I88  1  0.16331482  0.83325640  0.33551751  1
  I  I89  1  0.16389990  0.82753196  0.66776614  1
  I  I90  1  0.50506086  0.16571626  -0.00368682  1
  I  I91  1  0.50588658  0.16806365  0.33622602  1
  I  I92  1  0.50500127  0.16906520  0.66823292  1
  I  I93  1  0.49947677  0.49778264  -0.00117318  1
  I  I94  1  0.49953750  0.49815801  0.33041885  1
  I  I95  1  0.49482042  0.50134576  0.67063413  1
  I  I96  1  0.49484186  0.83893220  -0.00442767  1
  I  I97  1  0.49741178  0.83360172  0.33323239  1
  I  I98  1  0.50106966  0.82797263  0.67033258  1
  I  I99  1  0.82841291  0.16661932  -0.00255931  1
  I  I100  1  0.82885131  0.16589441  0.33649895  1
  I  I101  1  0.82899636  0.16140351  0.66613805  1
  I  I102  1  0.83325135  0.50496259  0.00312425  1
  I  I103  1  0.83369470  0.49896513  0.32907765  1
  I  I104  1  0.83304517  0.50214054  0.66681391  1
  I  I105  1  0.83315464  0.83022265  0.00198749  1
  I  I106  1  0.83935897  0.83514465  0.33430060  1
  I  I107  1  0.83463479  0.83672049  0.66432531  1
  I  I108  1  -0.00038112  0.16953891  0.16544641  1
  I  I109  1  -0.00319726  0.16553844  0.50415530  1
  I  I110  1  -0.00264877  0.16645851  0.82948280  1
  I  I111  1  0.00011686  0.50390547  0.16214689  1
  I  I112  1  -0.00001800  0.49480627  0.50017083  1
  I  I113  1  0.00279982  0.50399456  0.83798108  1
  I  I114  1  -0.00303039  0.82778394  0.16551645  1
  I  I115  1  -0.00092476  0.83835406  0.50207825  1
  I  I116  1  0.00246581  0.82951180  0.83275555  1
  I  I117  1  0.33364987  0.16557551  0.16742007  1
  I  I118  1  0.33637005  0.16868050  0.50633923  1
  I  I119  1  0.33675305  0.16783338  0.82875151  1
  I  I120  1  0.33339108  0.49793118  0.16071509  1
  I  I121  1  0.33338187  0.49927155  0.49415460  1
  I  I122  1  0.33396521  0.49850684  0.84144982  1
  I  I123  1  0.33343058  0.83296111  0.17018796  1
  I  I124  1  0.33109606  0.83322240  0.50294107  1
  I  I125  1  0.33311388  0.83406747  0.82748246  1
  I  I126  1  0.66669260  0.17003541  0.16575265  1
  I  I127  1  0.66764900  0.16148182  0.50451190  1
  I  I128  1  0.66560993  0.16649344  0.82973321  1
  I  I129  1  0.66648045  0.50300785  0.16199643  1
  I  I130  1  0.66668242  0.50497156  0.49968830  1
  I  I131  1  0.66381795  0.50218517  0.83777190  1
  I  I132  1  0.67041874  0.82780844  0.17187165  1
  I  I133  1  0.66956610  0.83559037  0.49704503  1
  I  I134  1  0.66421923  0.83075295  0.83404433  1
