# generated using pymatgen
data_Cs27Sn14Pb13I81
_symmetry_space_group_name_H-M   'P 1'
_cell_length_a   18.97579573
_cell_length_b   18.97988157
_cell_length_c   18.96976093
_cell_angle_alpha   89.99868812
_cell_angle_beta   89.99731506
_cell_angle_gamma   89.99988047
_symmetry_Int_Tables_number   1
_chemical_formula_structural   Cs27Sn14Pb13I81
_chemical_formula_sum   'Cs27 Sn14 Pb13 I81'
_cell_volume   6832.11789452
_cell_formula_units_Z   1
loop_
 _symmetry_equiv_pos_site_id
 _symmetry_equiv_pos_as_xyz
  1  'x, y, z'
loop_
 _atom_site_type_symbol
 _atom_site_label
 _atom_site_symmetry_multiplicity
 _atom_site_fract_x
 _atom_site_fract_y
 _atom_site_fract_z
 _atom_site_occupancy
  Cs  Cs0  1  0.00044008  -0.00091376  -0.00064849  1
  Cs  Cs1  1  -0.00097237  -0.00189150  0.33651002  1
  Cs  Cs2  1  -0.00217851  0.00168783  0.66357246  1
  Cs  Cs3  1  0.00032433  0.33440952  -0.00259310  1
  Cs  Cs4  1  0.00049456  0.33419485  0.33262660  1
  Cs  Cs5  1  0.00030671  0.33164689  0.66907318  1
  Cs  Cs6  1  0.00041033  0.66641018  0.00162966  1
  Cs  Cs7  1  0.00212344  0.66773850  0.33224592  1
  Cs  Cs8  1  0.00112201  0.66792689  0.66645554  1
  Cs  Cs9  1  0.33815146  0.00382542  -0.00362656  1
  Cs  Cs10  1  0.33347321  0.00076571  0.33414010  1
  Cs  Cs11  1  0.33258189  -0.00027000  0.66906655  1
  Cs  Cs12  1  0.33128914  0.32375920  0.00135815  1
  Cs  Cs13  1  0.33371246  0.33264842  0.33518592  1
  Cs  Cs14  1  0.33167616  0.33593137  0.66311378  1
  Cs  Cs15  1  0.33000762  0.66861786  0.00099438  1
  Cs  Cs16  1  0.33120908  0.66652211  0.33269860  1
  Cs  Cs17  1  0.33663727  0.66542977  0.66687105  1
  Cs  Cs18  1  0.66086312  -0.00326306  0.00287328  1
  Cs  Cs19  1  0.66742840  0.00039660  0.33292839  1
  Cs  Cs20  1  0.67037367  -0.00007846  0.66460004  1
  Cs  Cs21  1  0.66724483  0.33211760  -0.00185654  1
  Cs  Cs22  1  0.66529868  0.33413197  0.33231212  1
  Cs  Cs23  1  0.67118871  0.33992676  0.67231053  1
  Cs  Cs24  1  0.66929267  0.66904713  -0.00071115  1
  Cs  Cs25  1  0.66659700  0.66557470  0.33270160  1
  Cs  Cs26  1  0.66125798  0.66267141  0.67049440  1
  Sn  Sn27  1  0.16556170  0.49963219  0.50053211  1
  Sn  Sn28  1  0.16684632  0.50086690  0.83262823  1
  Sn  Sn29  1  0.83423843  0.50031598  0.49931739  1
  Sn  Sn30  1  0.83434844  0.16662624  0.16682095  1
  Sn  Sn31  1  0.50002816  0.83418375  0.49909236  1
  Sn  Sn32  1  0.16569341  0.83260726  0.83324952  1
  Sn  Sn33  1  0.16717923  0.16722561  0.49893427  1
  Sn  Sn34  1  0.50047916  0.50075081  0.16643562  1
  Sn  Sn35  1  0.83261107  0.49996622  0.16736660  1
  Sn  Sn36  1  0.83305771  0.83329768  0.16636382  1
  Sn  Sn37  1  0.83434248  0.83328825  0.83388598  1
  Sn  Sn38  1  0.16547860  0.16634130  0.16779880  1
  Sn  Sn39  1  0.50047837  0.83210475  0.16788431  1
  Sn  Sn40  1  0.49985861  0.16610616  0.50008676  1
  Pb  Pb41  1  0.83104643  0.83065028  0.49976081  1
  Pb  Pb42  1  0.16871536  0.83334155  0.50209859  1
  Pb  Pb43  1  0.16659299  0.49821269  0.16678246  1
  Pb  Pb44  1  0.16697387  0.83605946  0.16486933  1
  Pb  Pb45  1  0.83321768  0.16365514  0.83649541  1
  Pb  Pb46  1  0.49676755  0.49992983  0.83735089  1
  Pb  Pb47  1  0.50023178  0.83330282  0.83357091  1
  Pb  Pb48  1  0.49988067  0.49989997  0.49834361  1
  Pb  Pb49  1  0.50026473  0.16692537  0.82903150  1
  Pb  Pb50  1  0.83330704  0.16910789  0.49806889  1
  Pb  Pb51  1  0.50033922  0.16650243  0.16819262  1
  Pb  Pb52  1  0.83528897  0.50206389  0.83390022  1
  Pb  Pb53  1  0.16657689  0.16656600  0.83253484  1
  I  I54  1  0.16307731  0.00375406  0.17145722  1
  I  I55  1  0.16924166  0.00261167  0.49729838  1
  I  I56  1  0.16361178  -0.00266565  0.83460461  1
  I  I57  1  0.16414532  0.33040550  0.16589537  1
  I  I58  1  0.16949619  0.33352510  0.50152510  1
  I  I59  1  0.16701079  0.33587025  0.83262608  1
  I  I60  1  0.16546296  0.66676184  0.16820276  1
  I  I61  1  0.16472383  0.66390821  0.50186901  1
  I  I62  1  0.16322207  0.66648957  0.82889657  1
  I  I63  1  0.50312032  -0.00263307  0.16811941  1
  I  I64  1  0.49471490  -0.00014087  0.49353610  1
  I  I65  1  0.49659359  -0.00029812  0.83920457  1
  I  I66  1  0.50250209  0.33539424  0.16855336  1
  I  I67  1  0.49716333  0.33130062  0.49659690  1
  I  I68  1  0.49841408  0.33365760  0.83498669  1
  I  I69  1  0.50723183  0.66756787  0.17266735  1
  I  I70  1  0.50036332  0.66875004  0.49781666  1
  I  I71  1  0.50045357  0.66665493  0.82719518  1
  I  I72  1  0.83278603  -0.00072634  0.16179240  1
  I  I73  1  0.83513789  -0.00016285  0.49989127  1
  I  I74  1  0.84003025  -0.00452240  0.83642884  1
  I  I75  1  0.83290341  0.33411373  0.17271741  1
  I  I76  1  0.83251442  0.33695502  0.49413171  1
  I  I77  1  0.83451051  0.33364039  0.83360991  1
  I  I78  1  0.82816946  0.66670298  0.16612732  1
  I  I79  1  0.83845497  0.66303568  0.49382111  1
  I  I80  1  0.83543316  0.66975453  0.83963270  1
  I  I81  1  0.16313045  0.16765650  0.00252403  1
  I  I82  1  0.16721018  0.17260696  0.33406747  1
  I  I83  1  0.17210852  0.16810748  0.66326461  1
  I  I84  1  0.16684409  0.50278772  -0.00191493  1
  I  I85  1  0.16605471  0.49685638  0.33581269  1
  I  I86  1  0.16152257  0.49745262  0.66522524  1
  I  I87  1  0.16663332  0.82780115  -0.00288936  1
  I  I88  1  0.16501648  0.83131106  0.33334925  1
  I  I89  1  0.16191897  0.83396835  0.66993421  1
  I  I90  1  0.49822258  0.16597583  0.00051235  1
  I  I91  1  0.49742181  0.16540305  0.33588119  1
  I  I92  1  0.49186836  0.15994607  0.66094103  1
  I  I93  1  0.50653683  0.50686639  0.00523580  1
  I  I94  1  0.49970965  0.50142383  0.33039545  1
  I  I95  1  0.50264521  0.50001400  0.66656287  1
  I  I96  1  0.50153250  0.82949823  0.00330425  1
  I  I97  1  0.50520450  0.83342667  0.33217149  1
  I  I98  1  0.49924655  0.83791573  0.66397453  1
  I  I99  1  0.83970912  0.17327521  0.00512290  1
  I  I100  1  0.83472147  0.16151566  0.32978521  1
  I  I101  1  0.83322395  0.16658488  0.66641268  1
  I  I102  1  0.83095935  0.49850998  0.00348126  1
  I  I103  1  0.83571839  0.50204059  0.33203823  1
  I  I104  1  0.83477857  0.50090557  0.66426649  1
  I  I105  1  0.83159006  0.83144203  0.00184851  1
  I  I106  1  0.83052228  0.83478980  0.33004240  1
  I  I107  1  0.83597600  0.83142621  0.66882969  1
  I  I108  1  -0.00027367  0.16719070  0.17223610  1
  I  I109  1  0.00279319  0.16930223  0.49799967  1
  I  I110  1  -0.00000630  0.16749559  0.82972666  1
  I  I111  1  -0.00277815  0.50256305  0.16752897  1
  I  I112  1  0.00075139  0.49515421  0.49747131  1
  I  I113  1  0.00315642  0.50198429  0.83419886  1
  I  I114  1  -0.00286814  0.83043591  0.16391283  1
  I  I115  1  -0.00011363  0.83512931  0.49834083  1
  I  I116  1  -0.00022621  0.82925987  0.83980223  1
  I  I117  1  0.33126561  0.16789765  0.16792947  1
  I  I118  1  0.33207697  0.16896206  0.49322532  1
  I  I119  1  0.33292845  0.16366798  0.84103444  1
  I  I120  1  0.33550955  0.50374237  0.16714822  1
  I  I121  1  0.33068321  0.49859630  0.50225507  1
  I  I122  1  0.32888381  0.50668597  0.82678585  1
  I  I123  1  0.33614687  0.82942094  0.16911830  1
  I  I124  1  0.33653079  0.83232702  0.49473677  1
  I  I125  1  0.33074473  0.83004308  0.83310460  1
  I  I126  1  0.66934729  0.16652439  0.16821338  1
  I  I127  1  0.66430734  0.16283643  0.49693728  1
  I  I128  1  0.66691580  0.16511157  0.83417450  1
  I  I129  1  0.66811985  0.49876385  0.17340461  1
  I  I130  1  0.66883821  0.50044596  0.49651663  1
  I  I131  1  0.66684372  0.50166954  0.82935116  1
  I  I132  1  0.66744961  0.83492431  0.16420275  1
  I  I133  1  0.66330083  0.83852983  0.49966456  1
  I  I134  1  0.66939816  0.83362883  0.83587290  1
