# generated using pymatgen
data_Cs27Sn14Pb13I81
_symmetry_space_group_name_H-M   'P 1'
_cell_length_a   18.97855116
_cell_length_b   18.97150964
_cell_length_c   18.97855120
_cell_angle_alpha   90.00134224
_cell_angle_beta   89.99925148
_cell_angle_gamma   90.00134228
_symmetry_Int_Tables_number   1
_chemical_formula_structural   Cs27Sn14Pb13I81
_chemical_formula_sum   'Cs27 Sn14 Pb13 I81'
_cell_volume   6833.26087821
_cell_formula_units_Z   1
loop_
 _symmetry_equiv_pos_site_id
 _symmetry_equiv_pos_as_xyz
  1  'x, y, z'
loop_
 _atom_site_type_symbol
 _atom_site_label
 _atom_site_symmetry_multiplicity
 _atom_site_fract_x
 _atom_site_fract_y
 _atom_site_fract_z
 _atom_site_occupancy
  Cs  Cs0  1  0.00131649  -0.00235409  0.00131646  1
  Cs  Cs1  1  -0.00382122  -0.00024232  0.33252215  1
  Cs  Cs2  1  -0.00055767  0.00182994  0.66576758  1
  Cs  Cs3  1  -0.00142718  0.33353942  -0.00142712  1
  Cs  Cs4  1  0.00084146  0.33151628  0.33563769  1
  Cs  Cs5  1  0.00429474  0.33424335  0.66740979  1
  Cs  Cs6  1  -0.00012935  0.66716029  -0.00012935  1
  Cs  Cs7  1  0.00214429  0.66749867  0.33218804  1
  Cs  Cs8  1  -0.00127383  0.66500749  0.66787841  1
  Cs  Cs9  1  0.33252242  -0.00024223  -0.00382102  1
  Cs  Cs10  1  0.33415059  -0.00223174  0.33415048  1
  Cs  Cs11  1  0.34139849  0.00697275  0.66716285  1
  Cs  Cs12  1  0.33563750  0.33151627  0.00084139  1
  Cs  Cs13  1  0.33461794  0.33223331  0.33461799  1
  Cs  Cs14  1  0.32817534  0.32805171  0.66491052  1
  Cs  Cs15  1  0.33218813  0.66749854  0.00214429  1
  Cs  Cs16  1  0.32976604  0.66604657  0.32976599  1
  Cs  Cs17  1  0.33400429  0.66621294  0.66618456  1
  Cs  Cs18  1  0.66576738  0.00183019  -0.00055754  1
  Cs  Cs19  1  0.66716299  0.00697261  0.34139847  1
  Cs  Cs20  1  0.65813497  -0.00280607  0.65813528  1
  Cs  Cs21  1  0.66740984  0.33424344  0.00429468  1
  Cs  Cs22  1  0.66491068  0.32805161  0.32817535  1
  Cs  Cs23  1  0.66795596  0.33901180  0.66795603  1
  Cs  Cs24  1  0.66787847  0.66500728  -0.00127394  1
  Cs  Cs25  1  0.66618458  0.66621283  0.33400438  1
  Cs  Cs26  1  0.66646240  0.66750676  0.66646240  1
  Sn  Sn27  1  0.83370651  0.83371874  0.83370652  1
  Sn  Sn28  1  0.16574519  0.49864990  0.16574518  1
  Sn  Sn29  1  0.83435884  0.50082561  0.16700237  1
  Sn  Sn30  1  0.83261643  0.50028552  0.49951532  1
  Sn  Sn31  1  0.16632876  0.16794665  0.16632877  1
  Sn  Sn32  1  0.50196105  0.83317139  0.16642657  1
  Sn  Sn33  1  0.49951530  0.50028556  0.83261643  1
  Sn  Sn34  1  0.16700239  0.50082560  0.83435883  1
  Sn  Sn35  1  0.83346652  0.50022637  0.83346651  1
  Sn  Sn36  1  0.50055274  0.50054625  0.50055277  1
  Sn  Sn37  1  0.83304507  0.16594858  0.83304506  1
  Sn  Sn38  1  0.83174010  0.83271900  0.16616777  1
  Sn  Sn39  1  0.16642657  0.83317141  0.50196102  1
  Sn  Sn40  1  0.16616781  0.83271903  0.83174012  1
  Pb  Pb41  1  0.50323923  0.16993760  0.83348204  1
  Pb  Pb42  1  0.49765963  0.83075705  0.49765963  1
  Pb  Pb43  1  0.49738829  0.16321588  0.16636207  1
  Pb  Pb44  1  0.83480472  0.16643951  0.16485489  1
  Pb  Pb45  1  0.16485491  0.16643949  0.83480466  1
  Pb  Pb46  1  0.16636206  0.16321583  0.49738832  1
  Pb  Pb47  1  0.50017288  0.83130510  0.83475379  1
  Pb  Pb48  1  0.16583290  0.83294600  0.16583286  1
  Pb  Pb49  1  0.83475373  0.83130509  0.50017285  1
  Pb  Pb50  1  0.50005834  0.50113492  0.16655311  1
  Pb  Pb51  1  0.50006961  0.17030032  0.50006956  1
  Pb  Pb52  1  0.83348207  0.16993759  0.50323924  1
  Pb  Pb53  1  0.16655312  0.50113492  0.50005835  1
  I  I54  1  0.16690874  0.00133084  0.16690874  1
  I  I55  1  0.16554756  -0.00471995  0.50372191  1
  I  I56  1  0.16103042  -0.00319795  0.83350960  1
  I  I57  1  0.16116094  0.33606744  0.16116083  1
  I  I58  1  0.16726495  0.33346464  0.50162506  1
  I  I59  1  0.16519635  0.33684505  0.83526395  1
  I  I60  1  0.16576490  0.66404706  0.16576497  1
  I  I61  1  0.16621145  0.66876331  0.49813590  1
  I  I62  1  0.16170871  0.66554612  0.83613162  1
  I  I63  1  0.50372174  -0.00471993  0.16554777  1
  I  I64  1  0.49823870  -0.00034931  0.49823899  1
  I  I65  1  0.49886720  -0.00015813  0.83585416  1
  I  I66  1  0.50162524  0.33346464  0.16726465  1
  I  I67  1  0.50275114  0.33850725  0.50275096  1
  I  I68  1  0.49862058  0.33857254  0.83075024  1
  I  I69  1  0.49813563  0.66876335  0.16621132  1
  I  I70  1  0.50449075  0.66312694  0.50449076  1
  I  I71  1  0.50437008  0.66301141  0.83092134  1
  I  I72  1  0.83350961  -0.00319792  0.16103070  1
  I  I73  1  0.83585476  -0.00015809  0.49886723  1
  I  I74  1  0.84114131  -0.00170639  0.84114089  1
  I  I75  1  0.83526369  0.33684505  0.16519619  1
  I  I76  1  0.83074963  0.33857249  0.49862020  1
  I  I77  1  0.83340222  0.33582727  0.83340261  1
  I  I78  1  0.83613187  0.66554613  0.16170878  1
  I  I79  1  0.83092121  0.66301142  0.50437005  1
  I  I80  1  0.83450099  0.66558463  0.83450099  1
  I  I81  1  0.16517705  0.16619554  0.00262431  1
  I  I82  1  0.16536494  0.17278241  0.32944071  1
  I  I83  1  0.16525542  0.16966328  0.66685092  1
  I  I84  1  0.16356981  0.50293794  -0.00071221  1
  I  I85  1  0.16393691  0.50002505  0.33060983  1
  I  I86  1  0.16364223  0.50275631  0.66980309  1
  I  I87  1  0.16532228  0.83153139  -0.00270741  1
  I  I88  1  0.16736272  0.83192001  0.33444494  1
  I  I89  1  0.16011531  0.82509407  0.66889357  1
  I  I90  1  0.49941642  0.17010349  -0.00004730  1
  I  I91  1  0.50009287  0.16890982  0.33304122  1
  I  I92  1  0.49883594  0.16243308  0.66694792  1
  I  I93  1  0.50222721  0.50184386  -0.00261431  1
  I  I94  1  0.50253575  0.50290419  0.33533877  1
  I  I95  1  0.50466067  0.50179310  0.66769228  1
  I  I96  1  0.49800406  0.82886404  0.00254449  1
  I  I97  1  0.50251403  0.82941620  0.32987195  1
  I  I98  1  0.50161586  0.83356728  0.66666406  1
  I  I99  1  0.83506799  0.17240167  -0.00287695  1
  I  I100  1  0.83463372  0.16642865  0.33329914  1
  I  I101  1  0.83600570  0.16677279  0.67125512  1
  I  I102  1  0.83392552  0.50063906  -0.00075431  1
  I  I103  1  0.83431250  0.50617987  0.33209622  1
  I  I104  1  0.83297319  0.49993195  0.66836487  1
  I  I105  1  0.83630236  0.82757308  -0.00066268  1
  I  I106  1  0.83363009  0.82743605  0.33042351  1
  I  I107  1  0.83687743  0.83085260  0.67011927  1
  I  I108  1  0.00262431  0.16619562  0.16517725  1
  I  I109  1  -0.00004734  0.17010423  0.49941589  1
  I  I110  1  -0.00287690  0.17240207  0.83506844  1
  I  I111  1  -0.00071219  0.50293779  0.16356921  1
  I  I112  1  -0.00261431  0.50184369  0.50222721  1
  I  I113  1  -0.00075432  0.50063892  0.83392604  1
  I  I114  1  -0.00270742  0.83153154  0.16532245  1
  I  I115  1  0.00254448  0.82886361  0.49800434  1
  I  I116  1  -0.00066269  0.82757295  0.83630201  1
  I  I117  1  0.32944073  0.17278234  0.16536444  1
  I  I118  1  0.33304126  0.16890974  0.50009318  1
  I  I119  1  0.33329910  0.16642867  0.83463397  1
  I  I120  1  0.33060984  0.50002503  0.16393730  1
  I  I121  1  0.33533878  0.50290412  0.50253579  1
  I  I122  1  0.33209623  0.50617982  0.83431226  1
  I  I123  1  0.33444498  0.83192009  0.16736299  1
  I  I124  1  0.32987199  0.82941615  0.50251376  1
  I  I125  1  0.33042348  0.82743597  0.83363011  1
  I  I126  1  0.66685099  0.16966315  0.16525566  1
  I  I127  1  0.66694789  0.16243251  0.49883617  1
  I  I128  1  0.67125517  0.16677241  0.83600497  1
  I  I129  1  0.66980312  0.50275668  0.16364254  1
  I  I130  1  0.66769227  0.50179324  0.50466074  1
  I  I131  1  0.66836483  0.49993216  0.83297298  1
  I  I132  1  0.66889356  0.82509399  0.16011510  1
  I  I133  1  0.66666408  0.83356761  0.50161571  1
  I  I134  1  0.67011926  0.83085271  0.83687765  1
