# generated using pymatgen
data_Cs27Sn14Pb13I81
_symmetry_space_group_name_H-M   'P 1'
_cell_length_a   18.97981027
_cell_length_b   18.97274759
_cell_length_c   18.97543896
_cell_angle_alpha   90.00057830
_cell_angle_beta   89.99931773
_cell_angle_gamma   90.00018618
_symmetry_Int_Tables_number   1
_chemical_formula_structural   Cs27Sn14Pb13I81
_chemical_formula_sum   'Cs27 Sn14 Pb13 I81'
_cell_volume   6833.03943361
_cell_formula_units_Z   1
loop_
 _symmetry_equiv_pos_site_id
 _symmetry_equiv_pos_as_xyz
  1  'x, y, z'
loop_
 _atom_site_type_symbol
 _atom_site_label
 _atom_site_symmetry_multiplicity
 _atom_site_fract_x
 _atom_site_fract_y
 _atom_site_fract_z
 _atom_site_occupancy
  Cs  Cs0  1  -0.00230788  -0.00080040  -0.00104150  1
  Cs  Cs1  1  0.00179026  0.00197544  0.33321309  1
  Cs  Cs2  1  0.00261154  0.00305934  0.66822059  1
  Cs  Cs3  1  0.00171002  0.33386644  -0.00040913  1
  Cs  Cs4  1  0.00208575  0.32455291  0.33395962  1
  Cs  Cs5  1  -0.00036801  0.33381450  0.66598456  1
  Cs  Cs6  1  -0.00097994  0.66658916  -0.00048527  1
  Cs  Cs7  1  -0.00171827  0.66731459  0.33224036  1
  Cs  Cs8  1  0.00032823  0.66508274  0.66820345  1
  Cs  Cs9  1  0.33592572  -0.00165081  -0.00587782  1
  Cs  Cs10  1  0.33307904  -0.00010324  0.33604670  1
  Cs  Cs11  1  0.33214116  -0.00184760  0.66645730  1
  Cs  Cs12  1  0.33854333  0.33565916  0.00800616  1
  Cs  Cs13  1  0.33118530  0.33251608  0.32718522  1
  Cs  Cs14  1  0.33103030  0.33532480  0.66627402  1
  Cs  Cs15  1  0.33454313  0.66391210  -0.00259788  1
  Cs  Cs16  1  0.33323680  0.66662234  0.33398859  1
  Cs  Cs17  1  0.33230295  0.66670382  0.66771757  1
  Cs  Cs18  1  0.66709028  0.00736924  -0.00068900  1
  Cs  Cs19  1  0.66541788  -0.00513955  0.33215375  1
  Cs  Cs20  1  0.66479773  0.00209378  0.66846847  1
  Cs  Cs21  1  0.65908621  0.32584157  -0.00064296  1
  Cs  Cs22  1  0.66833286  0.33001253  0.33520283  1
  Cs  Cs23  1  0.66908364  0.33190125  0.66701451  1
  Cs  Cs24  1  0.67004895  0.66573061  0.00074869  1
  Cs  Cs25  1  0.66864751  0.66940229  0.33473494  1
  Cs  Cs26  1  0.66720879  0.66492506  0.66501070  1
  Sn  Sn27  1  0.83314605  0.83259338  0.83322892  1
  Sn  Sn28  1  0.83378276  0.50071021  0.83462908  1
  Sn  Sn29  1  0.83339410  0.83270248  0.16643235  1
  Sn  Sn30  1  0.83380383  0.83315797  0.50043896  1
  Sn  Sn31  1  0.16610832  0.49900787  0.83301758  1
  Sn  Sn32  1  0.49973284  0.16688947  0.50003399  1
  Sn  Sn33  1  0.83344593  0.50024579  0.16584628  1
  Sn  Sn34  1  0.49915672  0.49997845  0.49997349  1
  Sn  Sn35  1  0.16645926  0.83231892  0.49930894  1
  Sn  Sn36  1  0.49989971  0.83278273  0.16697203  1
  Sn  Sn37  1  0.49975500  0.83287415  0.49950375  1
  Sn  Sn38  1  0.16679434  0.83291460  0.16718907  1
  Sn  Sn39  1  0.16711814  0.50082753  0.50015018  1
  Sn  Sn40  1  0.16693585  0.16833576  0.83358987  1
  Pb  Pb41  1  0.16681938  0.16339191  0.16368515  1
  Pb  Pb42  1  0.83513437  0.16758576  0.83329582  1
  Pb  Pb43  1  0.83095965  0.16319435  0.50007692  1
  Pb  Pb44  1  0.16859536  0.16676485  0.50127522  1
  Pb  Pb45  1  0.83345164  0.16678944  0.16664384  1
  Pb  Pb46  1  0.49980742  0.16373076  0.16929983  1
  Pb  Pb47  1  0.50291712  0.50237892  0.16952384  1
  Pb  Pb48  1  0.16472251  0.50199633  0.16697338  1
  Pb  Pb49  1  0.16483125  0.83235189  0.83320087  1
  Pb  Pb50  1  0.50321610  0.83305193  0.83325634  1
  Pb  Pb51  1  0.83397282  0.50142625  0.49980967  1
  Pb  Pb52  1  0.49696578  0.16689601  0.83092843  1
  Pb  Pb53  1  0.50034053  0.50017332  0.83138055  1
  I  I54  1  0.16341911  -0.00518676  0.17268443  1
  I  I55  1  0.16689741  -0.00345360  0.49833348  1
  I  I56  1  0.16524842  0.00106715  0.83302199  1
  I  I57  1  0.16371340  0.33357181  0.16990734  1
  I  I58  1  0.17033269  0.33652231  0.50289196  1
  I  I59  1  0.15966733  0.33536609  0.82498765  1
  I  I60  1  0.16754994  0.67048589  0.16684452  1
  I  I61  1  0.17123677  0.66762882  0.50288150  1
  I  I62  1  0.16402227  0.66389630  0.83103006  1
  I  I63  1  0.50331131  -0.00480579  0.17251198  1
  I  I64  1  0.50078189  -0.00203693  0.49611688  1
  I  I65  1  0.49926536  -0.00028941  0.83086335  1
  I  I66  1  0.50209934  0.33358784  0.16804564  1
  I  I67  1  0.49528039  0.33421226  0.50301858  1
  I  I68  1  0.50579854  0.33354058  0.83020003  1
  I  I69  1  0.49866944  0.67061652  0.17351936  1
  I  I70  1  0.49961458  0.66798670  0.49682653  1
  I  I71  1  0.49438899  0.66682273  0.82982650  1
  I  I72  1  0.83262693  -0.00448012  0.16662317  1
  I  I73  1  0.83474128  -0.00578176  0.49922710  1
  I  I74  1  0.83459762  -0.00305966  0.83368174  1
  I  I75  1  0.83413891  0.33678651  0.16200418  1
  I  I76  1  0.83249136  0.33345418  0.50033298  1
  I  I77  1  0.83553860  0.33721868  0.83664776  1
  I  I78  1  0.83329683  0.66879509  0.16595402  1
  I  I79  1  0.82903686  0.67008025  0.49972803  1
  I  I80  1  0.83946474  0.66693136  0.83365691  1
  I  I81  1  0.16490647  0.17161734  -0.00405547  1
  I  I82  1  0.16742365  0.16847392  0.33334934  1
  I  I83  1  0.16713982  0.16468678  0.66911096  1
  I  I84  1  0.16297307  0.49860196  -0.00265149  1
  I  I85  1  0.16974079  0.50375832  0.33640934  1
  I  I86  1  0.16485604  0.50260089  0.66615532  1
  I  I87  1  0.16599854  0.83434476  0.00247121  1
  I  I88  1  0.16304931  0.82860202  0.33478053  1
  I  I89  1  0.16741808  0.83313906  0.66366926  1
  I  I90  1  0.50017334  0.16438280  0.00012277  1
  I  I91  1  0.49839830  0.16789819  0.33729431  1
  I  I92  1  0.50094772  0.16128516  0.66291570  1
  I  I93  1  0.49737698  0.50197286  0.00040627  1
  I  I94  1  0.49444935  0.49942077  0.33770875  1
  I  I95  1  0.50114389  0.50478837  0.66271453  1
  I  I96  1  0.49847546  0.83325472  0.00309137  1
  I  I97  1  0.50449312  0.83336440  0.33481569  1
  I  I98  1  0.49928696  0.83371626  0.66281214  1
  I  I99  1  0.83355475  0.15988460  -0.00014816  1
  I  I100  1  0.83468780  0.16858346  0.33352784  1
  I  I101  1  0.83238329  0.16537186  0.66662375  1
  I  I102  1  0.84055098  0.51130898  -0.00086139  1
  I  I103  1  0.83177810  0.50676537  0.33119858  1
  I  I104  1  0.83408935  0.50515599  0.66892597  1
  I  I105  1  0.83489019  0.82911969  0.00052407  1
  I  I106  1  0.83228719  0.82945359  0.33323435  1
  I  I107  1  0.83333883  0.82924962  0.66626464  1
  I  I108  1  0.00022539  0.16275986  0.16880349  1
  I  I109  1  0.00032208  0.16633212  0.50100950  1
  I  I110  1  0.00284749  0.16630072  0.83029087  1
  I  I111  1  -0.00306638  0.50871945  0.16728136  1
  I  I112  1  0.00285368  0.50626182  0.50203389  1
  I  I113  1  0.00012233  0.50113624  0.82993472  1
  I  I114  1  -0.00068838  0.83004592  0.16966692  1
  I  I115  1  0.00042909  0.82789401  0.49753687  1
  I  I116  1  -0.00320139  0.83235077  0.83305838  1
  I  I117  1  0.33330238  0.16619340  0.16582086  1
  I  I118  1  0.33625354  0.15977536  0.50234874  1
  I  I119  1  0.32926420  0.17013215  0.83232298  1
  I  I120  1  0.33338082  0.50184940  0.16379243  1
  I  I121  1  0.33252775  0.50601410  0.50627157  1
  I  I122  1  0.33012803  0.49716395  0.83000803  1
  I  I123  1  0.33328509  0.83474500  0.17531554  1
  I  I124  1  0.33334358  0.83338438  0.49377928  1
  I  I125  1  0.33322225  0.83410817  0.83377506  1
  I  I126  1  0.66654429  0.16440505  0.16639305  1
  I  I127  1  0.66287055  0.16820867  0.50033349  1
  I  I128  1  0.66651286  0.16575174  0.83265829  1
  I  I129  1  0.67064112  0.50790486  0.16198243  1
  I  I130  1  0.66451036  0.50207114  0.49975151  1
  I  I131  1  0.67013311  0.50648496  0.83471166  1
  I  I132  1  0.66726676  0.82964175  0.17141590  1
  I  I133  1  0.66638805  0.83306567  0.49735044  1
  I  I134  1  0.67141967  0.82722139  0.83182301  1
