# generated using pymatgen
data_Cs27Sn13Pb14I81
_symmetry_space_group_name_H-M   'P 1'
_cell_length_a   19.09446779
_cell_length_b   19.08235018
_cell_length_c   19.08376634
_cell_angle_alpha   90.00338053
_cell_angle_beta   89.99878670
_cell_angle_gamma   90.00048537
_symmetry_Int_Tables_number   1
_chemical_formula_structural   Cs27Sn13Pb14I81
_chemical_formula_sum   'Cs27 Sn13 Pb14 I81'
_cell_volume   6953.50080044
_cell_formula_units_Z   1
loop_
 _symmetry_equiv_pos_site_id
 _symmetry_equiv_pos_as_xyz
  1  'x, y, z'
loop_
 _atom_site_type_symbol
 _atom_site_label
 _atom_site_symmetry_multiplicity
 _atom_site_fract_x
 _atom_site_fract_y
 _atom_site_fract_z
 _atom_site_occupancy
  Cs  Cs0  1  -0.00089415  -0.00223680  0.00829297  1
  Cs  Cs1  1  0.00489183  0.00030963  0.33429932  1
  Cs  Cs2  1  0.00342136  -0.00062468  0.65999535  1
  Cs  Cs3  1  -0.01689164  0.33172722  0.01278587  1
  Cs  Cs4  1  -0.00099823  0.33430736  0.31267348  1
  Cs  Cs5  1  0.00008811  0.33201017  0.66848284  1
  Cs  Cs6  1  -0.00174092  0.67022938  -0.00367118  1
  Cs  Cs7  1  0.01511666  0.65963992  0.35188043  1
  Cs  Cs8  1  -0.00417567  0.66494055  0.65876983  1
  Cs  Cs9  1  0.33560072  -0.00174601  0.00159331  1
  Cs  Cs10  1  0.33744434  -0.00023932  0.33230145  1
  Cs  Cs11  1  0.33589934  0.00467409  0.66658592  1
  Cs  Cs12  1  0.33126680  0.33795558  -0.00440807  1
  Cs  Cs13  1  0.33619869  0.34518270  0.33180947  1
  Cs  Cs14  1  0.33117178  0.32835198  0.66919966  1
  Cs  Cs15  1  0.33247164  0.66771260  -0.00714201  1
  Cs  Cs16  1  0.32489102  0.64957448  0.33292102  1
  Cs  Cs17  1  0.33257840  0.66327972  0.67557812  1
  Cs  Cs18  1  0.66518119  -0.00340993  0.00197439  1
  Cs  Cs19  1  0.66068909  -0.00191731  0.33522519  1
  Cs  Cs20  1  0.66335379  0.00304937  0.66321964  1
  Cs  Cs21  1  0.68638628  0.33153546  -0.00031699  1
  Cs  Cs22  1  0.66334694  0.34642136  0.33121702  1
  Cs  Cs23  1  0.67589430  0.32961638  0.66972142  1
  Cs  Cs24  1  0.66496210  0.67474190  0.00109911  1
  Cs  Cs25  1  0.66560841  0.65778068  0.33433042  1
  Cs  Cs26  1  0.67066673  0.66698945  0.66356542  1
  Sn  Sn27  1  0.16621061  0.83439853  0.83293392  1
  Sn  Sn28  1  0.50023399  0.83315244  0.83253314  1
  Sn  Sn29  1  0.83262749  0.83325660  0.16802025  1
  Sn  Sn30  1  0.50012430  0.83348678  0.16777631  1
  Sn  Sn31  1  0.83339881  0.16610985  0.49921632  1
  Sn  Sn32  1  0.16713947  0.16676946  0.50003134  1
  Sn  Sn33  1  0.49938868  0.16652321  0.16738731  1
  Sn  Sn34  1  0.16647343  0.16625425  0.83380268  1
  Sn  Sn35  1  0.49988392  0.16647915  0.49822268  1
  Sn  Sn36  1  0.49933081  0.83315602  0.49957948  1
  Sn  Sn37  1  0.16663562  0.49924426  0.83355566  1
  Sn  Sn38  1  0.83328353  0.83462319  0.83324032  1
  Sn  Sn39  1  0.50053344  0.50003186  0.83340881  1
  Pb  Pb40  1  0.83343933  0.50301777  0.83339879  1
  Pb  Pb41  1  0.83314205  0.50543370  0.16672707  1
  Pb  Pb42  1  0.49894489  0.16694592  0.83381575  1
  Pb  Pb43  1  0.83084720  0.83512205  0.49896231  1
  Pb  Pb44  1  0.50019610  0.50029885  0.16284941  1
  Pb  Pb45  1  0.49984728  0.49953031  0.50354543  1
  Pb  Pb46  1  0.16999470  0.16618255  0.16655007  1
  Pb  Pb47  1  0.16646215  0.50035907  0.16239079  1
  Pb  Pb48  1  0.83360846  0.49649033  0.49998040  1
  Pb  Pb49  1  0.16676563  0.49588604  0.50359019  1
  Pb  Pb50  1  0.17036536  0.83566440  0.50245264  1
  Pb  Pb51  1  0.16724515  0.83320578  0.16509940  1
  Pb  Pb52  1  0.82991213  0.16316183  0.17005157  1
  Pb  Pb53  1  0.83656791  0.16305624  0.83136632  1
  I  I54  1  0.16186360  -0.00012134  0.16062947  1
  I  I55  1  0.16324110  0.00314505  0.50990178  1
  I  I56  1  0.16839654  -0.00020179  0.82701206  1
  I  I57  1  0.16875408  0.33290494  0.16569951  1
  I  I58  1  0.17306097  0.32865312  0.51022301  1
  I  I59  1  0.17999597  0.33321597  0.82426482  1
  I  I60  1  0.17001849  0.66685828  0.16731725  1
  I  I61  1  0.16651583  0.66612162  0.49672248  1
  I  I62  1  0.17026242  0.66764415  0.83815752  1
  I  I63  1  0.50395324  -0.00114488  0.16274240  1
  I  I64  1  0.50012642  0.00009636  0.50480104  1
  I  I65  1  0.49952515  -0.00329400  0.83326108  1
  I  I66  1  0.49548027  0.33094002  0.17654480  1
  I  I67  1  0.49897348  0.33005949  0.49275373  1
  I  I68  1  0.48891226  0.33574840  0.83199378  1
  I  I69  1  0.50778634  0.67001354  0.17014811  1
  I  I70  1  0.50334457  0.66965505  0.49597839  1
  I  I71  1  0.49223906  0.66917052  0.83400273  1
  I  I72  1  0.83186414  -0.00338548  0.15620887  1
  I  I73  1  0.83738508  0.00257745  0.50292965  1
  I  I74  1  0.82782371  -0.00380040  0.83864951  1
  I  I75  1  0.83399679  0.33329379  0.16804257  1
  I  I76  1  0.82600341  0.32830507  0.50486158  1
  I  I77  1  0.83119577  0.33325429  0.83083649  1
  I  I78  1  0.81868164  0.67189584  0.15698788  1
  I  I79  1  0.83153063  0.66674082  0.50019807  1
  I  I80  1  0.83938614  0.67072285  0.83816035  1
  I  I81  1  0.17177217  0.16621346  -0.00329073  1
  I  I82  1  0.16151349  0.16337990  0.33641653  1
  I  I83  1  0.17198583  0.16575924  0.66718541  1
  I  I84  1  0.17643355  0.49762327  -0.00524818  1
  I  I85  1  0.16436428  0.49982133  0.33352720  1
  I  I86  1  0.17327367  0.50651049  0.67055538  1
  I  I87  1  0.17438948  0.83688835  -0.00415208  1
  I  I88  1  0.16252545  0.83653356  0.33372588  1
  I  I89  1  0.16452353  0.82892878  0.67074440  1
  I  I90  1  0.49508468  0.16096296  0.00231800  1
  I  I91  1  0.49743830  0.15173645  0.33443210  1
  I  I92  1  0.50173291  0.16245725  0.66411469  1
  I  I93  1  0.49047466  0.50639740  -0.00404877  1
  I  I94  1  0.50139247  0.50302241  0.33323134  1
  I  I95  1  0.49351676  0.50734003  0.67053434  1
  I  I96  1  0.49991286  0.83347652  -0.00072716  1
  I  I97  1  0.51023181  0.84548883  0.33345124  1
  I  I98  1  0.49893577  0.83442113  0.66733812  1
  I  I99  1  0.83433599  0.17354610  0.00056891  1
  I  I100  1  0.84582070  0.16214212  0.33672543  1
  I  I101  1  0.82197548  0.16363182  0.66440297  1
  I  I102  1  0.83497220  0.48869910  -0.00026031  1
  I  I103  1  0.83226801  0.50231940  0.33323430  1
  I  I104  1  0.83215684  0.50502055  0.66715759  1
  I  I105  1  0.82627267  0.83390847  -0.00124689  1
  I  I106  1  0.82252823  0.83804580  0.33019505  1
  I  I107  1  0.83352357  0.83292556  0.66914373  1
  I  I108  1  -0.00011413  0.16845438  0.16641256  1
  I  I109  1  0.00040542  0.16643635  0.51418388  1
  I  I110  1  0.00403805  0.16901898  0.82364468  1
  I  I111  1  -0.00031447  0.49626585  0.16308711  1
  I  I112  1  0.00039172  0.50515634  0.50546834  1
  I  I113  1  0.00294708  0.50051014  0.83129617  1
  I  I114  1  -0.00273256  0.83396347  0.15512137  1
  I  I115  1  0.00038029  0.83408291  0.49956583  1
  I  I116  1  0.00025193  0.83459357  0.84266499  1
  I  I117  1  0.33705166  0.15456818  0.17302300  1
  I  I118  1  0.33390900  0.15959159  0.50283233  1
  I  I119  1  0.33132560  0.16017988  0.82589489  1
  I  I120  1  0.33375405  0.50248370  0.17288204  1
  I  I121  1  0.33346763  0.49894042  0.49420920  1
  I  I122  1  0.33350445  0.50897892  0.83308128  1
  I  I123  1  0.33698988  0.84034629  0.16477174  1
  I  I124  1  0.33756664  0.84346740  0.49932984  1
  I  I125  1  0.33373506  0.83200562  0.83263151  1
  I  I126  1  0.66267248  0.16494447  0.17057099  1
  I  I127  1  0.66524439  0.15867967  0.49521860  1
  I  I128  1  0.66712250  0.17045259  0.83271212  1
  I  I129  1  0.66638615  0.49165809  0.16317883  1
  I  I130  1  0.66620437  0.49715976  0.50367281  1
  I  I131  1  0.66395327  0.50603479  0.83307709  1
  I  I132  1  0.66487973  0.84006235  0.15567165  1
  I  I133  1  0.66310069  0.84264784  0.51001219  1
  I  I134  1  0.66517534  0.82535108  0.83425574  1
