# generated using pymatgen
data_Cs27Sn13Pb14I81
_symmetry_space_group_name_H-M   'P 1'
_cell_length_a   18.97562270
_cell_length_b   18.98449146
_cell_length_c   18.97466290
_cell_angle_alpha   90.00109091
_cell_angle_beta   90.00151747
_cell_angle_gamma   90.00156915
_symmetry_Int_Tables_number   1
_chemical_formula_structural   Cs27Sn13Pb14I81
_chemical_formula_sum   'Cs27 Sn13 Pb14 I81'
_cell_volume   6835.48088938
_cell_formula_units_Z   1
loop_
 _symmetry_equiv_pos_site_id
 _symmetry_equiv_pos_as_xyz
  1  'x, y, z'
loop_
 _atom_site_type_symbol
 _atom_site_label
 _atom_site_symmetry_multiplicity
 _atom_site_fract_x
 _atom_site_fract_y
 _atom_site_fract_z
 _atom_site_occupancy
  Cs  Cs0  1  0.00093392  0.00056735  -0.00279958  1
  Cs  Cs1  1  0.00090221  -0.00010262  0.33352163  1
  Cs  Cs2  1  0.00031248  0.00065080  0.66765260  1
  Cs  Cs3  1  0.00390640  0.33472063  0.00511030  1
  Cs  Cs4  1  0.00028547  0.33524843  0.33258401  1
  Cs  Cs5  1  -0.00305946  0.33080297  0.66381421  1
  Cs  Cs6  1  0.00273909  0.66474487  0.00219771  1
  Cs  Cs7  1  -0.00435729  0.66537339  0.33052684  1
  Cs  Cs8  1  -0.00047889  0.66782044  0.66672480  1
  Cs  Cs9  1  0.33275059  0.00719717  0.00198420  1
  Cs  Cs10  1  0.33516330  -0.00180394  0.33232684  1
  Cs  Cs11  1  0.33039493  -0.00091114  0.66599004  1
  Cs  Cs12  1  0.33143470  0.33070704  -0.00127234  1
  Cs  Cs13  1  0.33327263  0.33408377  0.33400023  1
  Cs  Cs14  1  0.33681185  0.33560345  0.66654993  1
  Cs  Cs15  1  0.32980049  0.66263221  -0.00469894  1
  Cs  Cs16  1  0.33501785  0.66752789  0.33394274  1
  Cs  Cs17  1  0.33277341  0.66562773  0.66789039  1
  Cs  Cs18  1  0.66572961  -0.00055052  0.00206780  1
  Cs  Cs19  1  0.66398397  -0.00625324  0.33037816  1
  Cs  Cs20  1  0.66789581  -0.00145789  0.66667860  1
  Cs  Cs21  1  0.66399720  0.33180442  -0.00347763  1
  Cs  Cs22  1  0.66624842  0.33495206  0.33414305  1
  Cs  Cs23  1  0.66636958  0.33367547  0.66756956  1
  Cs  Cs24  1  0.66724816  0.66831591  -0.00003045  1
  Cs  Cs25  1  0.66937286  0.67141702  0.33018137  1
  Cs  Cs26  1  0.66745368  0.66828954  0.66677913  1
  Sn  Sn27  1  0.16639079  0.83302325  0.49895211  1
  Sn  Sn28  1  0.83306346  0.16670818  0.16695793  1
  Sn  Sn29  1  0.83332250  0.16692542  0.83379706  1
  Sn  Sn30  1  0.49986712  0.49980935  0.49897479  1
  Sn  Sn31  1  0.16703924  0.50006176  0.49998933  1
  Sn  Sn32  1  0.50023232  0.16695433  0.49997246  1
  Sn  Sn33  1  0.83275256  0.16641215  0.49930708  1
  Sn  Sn34  1  0.50003341  0.49992692  0.16703224  1
  Sn  Sn35  1  0.50009423  0.83362605  0.83327757  1
  Sn  Sn36  1  0.16698403  0.16683439  0.49994470  1
  Sn  Sn37  1  0.16685597  0.83334165  0.16727435  1
  Sn  Sn38  1  0.83363110  0.49983015  0.83331541  1
  Sn  Sn39  1  0.83257849  0.83327662  0.83318593  1
  Pb  Pb40  1  0.83115356  0.49786839  0.16431624  1
  Pb  Pb41  1  0.50169129  0.50146900  0.83278096  1
  Pb  Pb42  1  0.83565928  0.83568480  0.50162046  1
  Pb  Pb43  1  0.49762451  0.83118938  0.16400930  1
  Pb  Pb44  1  0.16875370  0.50171723  0.16923110  1
  Pb  Pb45  1  0.83278341  0.49840787  0.50118880  1
  Pb  Pb46  1  0.50193537  0.16849711  0.16915719  1
  Pb  Pb47  1  0.49808103  0.83296043  0.50142197  1
  Pb  Pb48  1  0.16417581  0.49960798  0.83073585  1
  Pb  Pb49  1  0.16666029  0.83347236  0.83340143  1
  Pb  Pb50  1  0.83526109  0.83532490  0.16406782  1
  Pb  Pb51  1  0.16491333  0.16511049  0.16927310  1
  Pb  Pb52  1  0.50194375  0.16468357  0.83101747  1
  Pb  Pb53  1  0.16455464  0.16706241  0.83112640  1
  I  I54  1  0.16629396  -0.00275757  0.17198082  1
  I  I55  1  0.16537817  0.00046328  0.49753077  1
  I  I56  1  0.16413238  -0.00002493  0.82983600  1
  I  I57  1  0.16549287  0.33337232  0.16725675  1
  I  I58  1  0.16620701  0.33291861  0.50223455  1
  I  I59  1  0.16537386  0.33337195  0.83243819  1
  I  I60  1  0.16556499  0.66955675  0.17189790  1
  I  I61  1  0.17226660  0.66648468  0.49797997  1
  I  I62  1  0.16340488  0.66677151  0.83022863  1
  I  I63  1  0.50025108  0.00000187  0.16691815  1
  I  I64  1  0.50016279  0.00269304  0.50314297  1
  I  I65  1  0.50539514  -0.00305728  0.83132412  1
  I  I66  1  0.50064269  0.33631443  0.16779751  1
  I  I67  1  0.49576941  0.33319200  0.49801714  1
  I  I68  1  0.50254248  0.33328335  0.83358820  1
  I  I69  1  0.50109966  0.66361935  0.17475544  1
  I  I70  1  0.49463822  0.66376338  0.49932099  1
  I  I71  1  0.50645742  0.66924158  0.83079707  1
  I  I72  1  0.83341788  0.00331693  0.16647286  1
  I  I73  1  0.83297829  0.00425093  0.50300250  1
  I  I74  1  0.83030344  0.00049081  0.83171827  1
  I  I75  1  0.83430808  0.32988486  0.16583805  1
  I  I76  1  0.83765954  0.32981147  0.50335374  1
  I  I77  1  0.83384705  0.33230419  0.83086133  1
  I  I78  1  0.83386046  0.66667309  0.16464844  1
  I  I79  1  0.83412436  0.66679982  0.50350757  1
  I  I80  1  0.82934554  0.66713978  0.83167905  1
  I  I81  1  0.16447627  0.16338494  0.00038381  1
  I  I82  1  0.16324734  0.16868728  0.33783966  1
  I  I83  1  0.16397082  0.16285247  0.66208468  1
  I  I84  1  0.16731127  0.50327511  0.00029032  1
  I  I85  1  0.16654377  0.49674911  0.33760349  1
  I  I86  1  0.17324750  0.50259228  0.66215861  1
  I  I87  1  0.16508959  0.83274968  0.00236098  1
  I  I88  1  0.16730348  0.83468467  0.33503162  1
  I  I89  1  0.16600518  0.83433876  0.66360860  1
  I  I90  1  0.50214786  0.16751186  0.00002672  1
  I  I91  1  0.50194704  0.16704145  0.33766723  1
  I  I92  1  0.50132484  0.17295230  0.66257424  1
  I  I93  1  0.50374012  0.50340684  0.00194492  1
  I  I94  1  0.49612649  0.49560464  0.33523186  1
  I  I95  1  0.49703050  0.49685034  0.66339596  1
  I  I96  1  0.50401320  0.83138510  -0.00355951  1
  I  I97  1  0.50021842  0.83497885  0.33337993  1
  I  I98  1  0.50298451  0.83196890  0.66915607  1
  I  I99  1  0.83284682  0.16560059  -0.00091877  1
  I  I100  1  0.83494911  0.16780513  0.33456020  1
  I  I101  1  0.83448855  0.16657061  0.66635086  1
  I  I102  1  0.83095009  0.49855099  -0.00374559  1
  I  I103  1  0.83530648  0.49742928  0.33333280  1
  I  I104  1  0.83215370  0.49775999  0.66932464  1
  I  I105  1  0.83197791  0.83593456  -0.00399058  1
  I  I106  1  0.83282103  0.83512004  0.33325332  1
  I  I107  1  0.83235407  0.83569438  0.66980317  1
  I  I108  1  -0.00334091  0.16661593  0.16728918  1
  I  I109  1  -0.00023664  0.16612319  0.50183170  1
  I  I110  1  -0.00449073  0.16253849  0.82997624  1
  I  I111  1  -0.00001003  0.50016198  0.16635561  1
  I  I112  1  0.00253943  0.49909113  0.50337890  1
  I  I113  1  -0.00416537  0.50245255  0.83173193  1
  I  I114  1  0.00294707  0.83317825  0.17041363  1
  I  I115  1  0.00381556  0.83277332  0.49951315  1
  I  I116  1  -0.00297928  0.83506578  0.83198550  1
  I  I117  1  0.33341710  0.16588464  0.16768633  1
  I  I118  1  0.33314407  0.16707590  0.50002426  1
  I  I119  1  0.33361465  0.16374409  0.83184561  1
  I  I120  1  0.33655260  0.50037273  0.16770162  1
  I  I121  1  0.33342441  0.49498070  0.49757421  1
  I  I122  1  0.33355833  0.50393118  0.83405223  1
  I  I123  1  0.33009680  0.83412204  0.17047918  1
  I  I124  1  0.33003589  0.83829695  0.50019975  1
  I  I125  1  0.33557103  0.83104740  0.83127237  1
  I  I126  1  0.67010787  0.16632202  0.16781627  1
  I  I127  1  0.66695239  0.17280113  0.50214299  1
  I  I128  1  0.67058500  0.16855955  0.82971317  1
  I  I129  1  0.66362215  0.50050143  0.17492678  1
  I  I130  1  0.66372135  0.49417293  0.49938333  1
  I  I131  1  0.66978202  0.49730532  0.83019855  1
  I  I132  1  0.66662997  0.83356354  0.16696635  1
  I  I133  1  0.66674160  0.83373349  0.50069857  1
  I  I134  1  0.66793021  0.83375463  0.83190209  1
