# generated using pymatgen
data_Cs27Sn14Pb13I81
_symmetry_space_group_name_H-M   'P 1'
_cell_length_a   18.97882445
_cell_length_b   18.98150445
_cell_length_c   18.96625715
_cell_angle_alpha   89.99943929
_cell_angle_beta   89.99818955
_cell_angle_gamma   90.00031365
_symmetry_Int_Tables_number   1
_chemical_formula_structural   Cs27Sn14Pb13I81
_chemical_formula_sum   'Cs27 Sn14 Pb13 I81'
_cell_volume   6832.53041961
_cell_formula_units_Z   1
loop_
 _symmetry_equiv_pos_site_id
 _symmetry_equiv_pos_as_xyz
  1  'x, y, z'
loop_
 _atom_site_type_symbol
 _atom_site_label
 _atom_site_symmetry_multiplicity
 _atom_site_fract_x
 _atom_site_fract_y
 _atom_site_fract_z
 _atom_site_occupancy
  Cs  Cs0  1  -0.00192553  -0.00076362  -0.01099031  1
  Cs  Cs1  1  -0.00099675  -0.00106995  0.33421143  1
  Cs  Cs2  1  0.00069042  0.00044892  0.67034108  1
  Cs  Cs3  1  0.00283489  0.33182882  0.00078286  1
  Cs  Cs4  1  0.00022828  0.33316934  0.33437697  1
  Cs  Cs5  1  -0.00205036  0.33530183  0.66350850  1
  Cs  Cs6  1  -0.00146713  0.66863369  -0.00013353  1
  Cs  Cs7  1  0.00036442  0.66766760  0.33544378  1
  Cs  Cs8  1  0.00187608  0.66410686  0.66253869  1
  Cs  Cs9  1  0.32694812  0.00081538  -0.00422249  1
  Cs  Cs10  1  0.33543860  -0.00138478  0.33522047  1
  Cs  Cs11  1  0.33964243  -0.00137704  0.66965241  1
  Cs  Cs12  1  0.33098731  0.33314140  0.00207957  1
  Cs  Cs13  1  0.33180693  0.33291881  0.33084048  1
  Cs  Cs14  1  0.33754126  0.33447793  0.66744803  1
  Cs  Cs15  1  0.33457803  0.66458964  -0.00058631  1
  Cs  Cs16  1  0.33235943  0.66750657  0.33282048  1
  Cs  Cs17  1  0.33385770  0.66710315  0.66882985  1
  Cs  Cs18  1  0.67493475  -0.00070474  0.00028939  1
  Cs  Cs19  1  0.66496101  0.00070988  0.33221323  1
  Cs  Cs20  1  0.65884019  0.00245023  0.67163155  1
  Cs  Cs21  1  0.66616650  0.33488778  0.00038879  1
  Cs  Cs22  1  0.66814653  0.33277150  0.33327540  1
  Cs  Cs23  1  0.66563839  0.33355336  0.67010530  1
  Cs  Cs24  1  0.66723619  0.66725719  0.00107674  1
  Cs  Cs25  1  0.66806800  0.66627674  0.33162293  1
  Cs  Cs26  1  0.66100295  0.66361849  0.66758459  1
  Sn  Sn27  1  0.50067407  0.49983053  0.16773763  1
  Sn  Sn28  1  0.16701138  0.83358199  0.16725473  1
  Sn  Sn29  1  0.83303378  0.49929223  0.16600178  1
  Sn  Sn30  1  0.83338842  0.83485674  0.50002361  1
  Sn  Sn31  1  0.49884791  0.49992938  0.49864053  1
  Sn  Sn32  1  0.83443678  0.50006639  0.83460490  1
  Sn  Sn33  1  0.50051881  0.16661157  0.16702667  1
  Sn  Sn34  1  0.16560899  0.49996187  0.83250522  1
  Sn  Sn35  1  0.16633623  0.16627951  0.49969412  1
  Sn  Sn36  1  0.83323314  0.16741814  0.16760950  1
  Sn  Sn37  1  0.16606898  0.83398696  0.49934416  1
  Sn  Sn38  1  0.83380960  0.16506635  0.49940273  1
  Sn  Sn39  1  0.16792437  0.49981842  0.50052634  1
  Sn  Sn40  1  0.49889426  0.83352218  0.16695612  1
  Pb  Pb41  1  0.83341981  0.16904118  0.83304059  1
  Pb  Pb42  1  0.49998741  0.83126045  0.49836355  1
  Pb  Pb43  1  0.83336020  0.83035808  0.82912663  1
  Pb  Pb44  1  0.50010832  0.16676926  0.83745444  1
  Pb  Pb45  1  0.16662863  0.16960790  0.82962926  1
  Pb  Pb46  1  0.16625784  0.50158799  0.16708055  1
  Pb  Pb47  1  0.49985227  0.49995030  0.83408102  1
  Pb  Pb48  1  0.83322982  0.49972609  0.49957820  1
  Pb  Pb49  1  0.50010504  0.83334687  0.83731330  1
  Pb  Pb50  1  0.83368082  0.83366691  0.16812513  1
  Pb  Pb51  1  0.50031369  0.16894165  0.49821938  1
  Pb  Pb52  1  0.16658332  0.83096118  0.83252406  1
  Pb  Pb53  1  0.16581204  0.16372837  0.16852498  1
  I  I54  1  0.17132872  -0.00387426  0.17372065  1
  I  I55  1  0.16086139  -0.00045113  0.49229407  1
  I  I56  1  0.16699670  0.00000898  0.83450955  1
  I  I57  1  0.16917988  0.33322898  0.16699435  1
  I  I58  1  0.16533357  0.33390234  0.50395027  1
  I  I59  1  0.16300349  0.33769389  0.83026631  1
  I  I60  1  0.16991524  0.66930496  0.17235188  1
  I  I61  1  0.16540015  0.66649933  0.49968894  1
  I  I62  1  0.16301283  0.66305104  0.82741648  1
  I  I63  1  0.50081706  0.00011735  0.16819489  1
  I  I64  1  0.49767558  0.00007221  0.49807387  1
  I  I65  1  0.49915936  0.00004902  0.83034302  1
  I  I66  1  0.50516005  0.33417654  0.17078786  1
  I  I67  1  0.49648542  0.33695340  0.49417209  1
  I  I68  1  0.49996384  0.33385213  0.83350337  1
  I  I69  1  0.50044731  0.66568731  0.17080150  1
  I  I70  1  0.49774149  0.66315940  0.49430453  1
  I  I71  1  0.50045152  0.66615182  0.83435716  1
  I  I72  1  0.82918453  0.00259309  0.17078819  1
  I  I73  1  0.84224644  0.00080344  0.49157597  1
  I  I74  1  0.83326168  0.00001374  0.83703299  1
  I  I75  1  0.82584805  0.33371305  0.16910065  1
  I  I76  1  0.83659734  0.33122921  0.49840086  1
  I  I77  1  0.83676591  0.33710035  0.83202922  1
  I  I78  1  0.83010845  0.66416881  0.16515062  1
  I  I79  1  0.83702556  0.66819410  0.49905047  1
  I  I80  1  0.83684097  0.66239140  0.83964122  1
  I  I81  1  0.16757565  0.16654322  0.00015818  1
  I  I82  1  0.16518904  0.17355691  0.33666131  1
  I  I83  1  0.15958335  0.16224993  0.66123972  1
  I  I84  1  0.16614392  0.50289411  -0.00169163  1
  I  I85  1  0.16728834  0.49916991  0.33636721  1
  I  I86  1  0.16550069  0.50188375  0.66482442  1
  I  I87  1  0.17201496  0.83108965  0.00277149  1
  I  I88  1  0.16686253  0.82914221  0.33465698  1
  I  I89  1  0.16114492  0.83369386  0.66271466  1
  I  I90  1  0.50596144  0.17105401  0.00591787  1
  I  I91  1  0.50151943  0.16603611  0.32999565  1
  I  I92  1  0.50046873  0.16946022  0.66630084  1
  I  I93  1  0.50080648  0.50016687  0.00382117  1
  I  I94  1  0.50021328  0.50029897  0.33207033  1
  I  I95  1  0.49997133  0.50053751  0.66398801  1
  I  I96  1  0.49434123  0.82827894  0.00588250  1
  I  I97  1  0.49857429  0.83361936  0.33008664  1
  I  I98  1  0.50006280  0.83008689  0.66635553  1
  I  I99  1  0.82765121  0.16868199  0.00339221  1
  I  I100  1  0.83315699  0.17048886  0.33311621  1
  I  I101  1  0.83924029  0.16515835  0.66308453  1
  I  I102  1  0.83261831  0.49523576  0.00167358  1
  I  I103  1  0.83179428  0.49923373  0.33079329  1
  I  I104  1  0.83450626  0.50092064  0.66811025  1
  I  I105  1  0.83313749  0.83515150  0.00006776  1
  I  I106  1  0.83548345  0.83051085  0.33604628  1
  I  I107  1  0.84171674  0.83694156  0.66117038  1
  I  I108  1  -0.00311587  0.17254879  0.16997104  1
  I  I109  1  -0.00026029  0.16958512  0.49343920  1
  I  I110  1  0.00006071  0.16631756  0.83976007  1
  I  I111  1  -0.00272290  0.49701436  0.16670813  1
  I  I112  1  0.00242084  0.50053335  0.50055368  1
  I  I113  1  0.00009678  0.50011194  0.83215220  1
  I  I114  1  0.00236171  0.83062127  0.17064828  1
  I  I115  1  0.00129338  0.82993926  0.49303292  1
  I  I116  1  -0.00004648  0.83348134  0.84047420  1
  I  I117  1  0.33569046  0.17062491  0.16844225  1
  I  I118  1  0.33068865  0.16562908  0.49802854  1
  I  I119  1  0.33316023  0.16979722  0.83370344  1
  I  I120  1  0.33580826  0.49797419  0.16760238  1
  I  I121  1  0.33213891  0.50024973  0.50001335  1
  I  I122  1  0.33063770  0.50082429  0.83129956  1
  I  I123  1  0.33346584  0.83156639  0.17351973  1
  I  I124  1  0.33026162  0.83435986  0.49711474  1
  I  I125  1  0.33317227  0.82997199  0.82930059  1
  I  I126  1  0.66725798  0.16663086  0.17320503  1
  I  I127  1  0.66967753  0.16430059  0.49695295  1
  I  I128  1  0.66693691  0.17023391  0.82690143  1
  I  I129  1  0.66637208  0.50187573  0.16744585  1
  I  I130  1  0.66470813  0.50069067  0.49869044  1
  I  I131  1  0.66923567  0.49967326  0.83341186  1
  I  I132  1  0.66447587  0.83185627  0.16890939  1
  I  I133  1  0.66912385  0.83485738  0.49720254  1
  I  I134  1  0.66692570  0.82975107  0.83270081  1
