# generated using pymatgen
data_Cs27Sn13Pb14I81
_symmetry_space_group_name_H-M   'P 1'
_cell_length_a   18.96964130
_cell_length_b   18.97442215
_cell_length_c   18.98706863
_cell_angle_alpha   89.99959626
_cell_angle_beta   89.99884248
_cell_angle_gamma   89.99924871
_symmetry_Int_Tables_number   1
_chemical_formula_structural   Cs27Sn13Pb14I81
_chemical_formula_sum   'Cs27 Sn13 Pb14 I81'
_cell_volume   6834.16716630
_cell_formula_units_Z   1
loop_
 _symmetry_equiv_pos_site_id
 _symmetry_equiv_pos_as_xyz
  1  'x, y, z'
loop_
 _atom_site_type_symbol
 _atom_site_label
 _atom_site_symmetry_multiplicity
 _atom_site_fract_x
 _atom_site_fract_y
 _atom_site_fract_z
 _atom_site_occupancy
  Cs  Cs0  1  0.00225054  -0.00199350  0.00178395  1
  Cs  Cs1  1  -0.00250001  0.00156320  0.33099565  1
  Cs  Cs2  1  0.00063138  -0.00097570  0.66706711  1
  Cs  Cs3  1  0.00174959  0.33495140  0.00036698  1
  Cs  Cs4  1  0.00069970  0.33330970  0.33476817  1
  Cs  Cs5  1  -0.00390280  0.33641647  0.66465308  1
  Cs  Cs6  1  -0.00110938  0.66736729  0.00034592  1
  Cs  Cs7  1  0.00048252  0.66510589  0.33321851  1
  Cs  Cs8  1  0.00013781  0.66403122  0.66472165  1
  Cs  Cs9  1  0.33117515  0.00039988  0.00011288  1
  Cs  Cs10  1  0.33488513  -0.00628076  0.33595378  1
  Cs  Cs11  1  0.33351273  0.00030338  0.66602381  1
  Cs  Cs12  1  0.33357035  0.33404465  -0.00077708  1
  Cs  Cs13  1  0.33175065  0.33448798  0.33447921  1
  Cs  Cs14  1  0.33315220  0.33310241  0.66637610  1
  Cs  Cs15  1  0.33345174  0.66533163  0.00046642  1
  Cs  Cs16  1  0.33673410  0.67259525  0.33572814  1
  Cs  Cs17  1  0.33404547  0.66646131  0.66598517  1
  Cs  Cs18  1  0.66618797  0.00757630  -0.00154024  1
  Cs  Cs19  1  0.66788520  -0.00062174  0.33247247  1
  Cs  Cs20  1  0.66611815  -0.00010904  0.66754911  1
  Cs  Cs21  1  0.66492285  0.32624591  -0.00086719  1
  Cs  Cs22  1  0.66586485  0.33028326  0.33171977  1
  Cs  Cs23  1  0.67019883  0.33314107  0.66799144  1
  Cs  Cs24  1  0.66814786  0.66545930  -0.00112267  1
  Cs  Cs25  1  0.66362077  0.66936327  0.33075563  1
  Cs  Cs26  1  0.66680534  0.66658280  0.66839233  1
  Sn  Sn27  1  0.50002717  0.49921620  0.50068783  1
  Sn  Sn28  1  0.83354198  0.83298457  0.50013510  1
  Sn  Sn29  1  0.83327072  0.83249656  0.16625092  1
  Sn  Sn30  1  0.16694621  0.16744120  0.16684742  1
  Sn  Sn31  1  0.16660705  0.16779838  0.83309214  1
  Sn  Sn32  1  0.49942858  0.16762717  0.50008796  1
  Sn  Sn33  1  0.50056928  0.83271477  0.83361877  1
  Sn  Sn34  1  0.83250400  0.83307109  0.83344141  1
  Sn  Sn35  1  0.16727541  0.16687035  0.50002688  1
  Sn  Sn36  1  0.16725797  0.49923260  0.83376483  1
  Sn  Sn37  1  0.49949422  0.50046466  0.83260182  1
  Sn  Sn38  1  0.83365950  0.50025886  0.16642245  1
  Sn  Sn39  1  0.16620646  0.49961089  0.16620265  1
  Pb  Pb40  1  0.49964970  0.49993629  0.16623683  1
  Pb  Pb41  1  0.83552778  0.16718315  0.16653576  1
  Pb  Pb42  1  0.49785655  0.16706993  0.83149804  1
  Pb  Pb43  1  0.83327672  0.50152994  0.83519952  1
  Pb  Pb44  1  0.50196532  0.83339944  0.50213762  1
  Pb  Pb45  1  0.16682632  0.83245024  0.83329760  1
  Pb  Pb46  1  0.16492781  0.83255458  0.16674995  1
  Pb  Pb47  1  0.50283705  0.83344869  0.16330271  1
  Pb  Pb48  1  0.49668274  0.16665688  0.16957623  1
  Pb  Pb49  1  0.83649437  0.16413625  0.83328160  1
  Pb  Pb50  1  0.83319386  0.16491025  0.50011640  1
  Pb  Pb51  1  0.16430782  0.83594560  0.50000479  1
  Pb  Pb52  1  0.83036405  0.50195168  0.49730627  1
  Pb  Pb53  1  0.16840931  0.49843829  0.49981946  1
  I  I54  1  0.16533306  0.00296591  0.16559555  1
  I  I55  1  0.17329352  0.00453548  0.50050297  1
  I  I56  1  0.16580819  0.00272347  0.83384703  1
  I  I57  1  0.16037655  0.33389772  0.16563889  1
  I  I58  1  0.16786380  0.33013815  0.49982529  1
  I  I59  1  0.17266489  0.33410974  0.83503014  1
  I  I60  1  0.16409614  0.66304849  0.16039352  1
  I  I61  1  0.16770262  0.66640356  0.50011444  1
  I  I62  1  0.16750963  0.66317334  0.83893215  1
  I  I63  1  0.49994561  0.00002532  0.16702486  1
  I  I64  1  0.49633141  0.00244138  0.50107375  1
  I  I65  1  0.50336432  -0.00224000  0.83184951  1
  I  I66  1  0.50651096  0.33345313  0.16258450  1
  I  I67  1  0.49587681  0.33354693  0.50524524  1
  I  I68  1  0.49697757  0.33636368  0.83173750  1
  I  I69  1  0.49499442  0.66655979  0.17209728  1
  I  I70  1  0.50156869  0.66420229  0.50186005  1
  I  I71  1  0.49792676  0.66561003  0.82755224  1
  I  I72  1  0.83464436  -0.00296946  0.16706625  1
  I  I73  1  0.83246924  -0.00338575  0.49762248  1
  I  I74  1  0.82806774  -0.00437312  0.83580604  1
  I  I75  1  0.83569483  0.33643821  0.16669092  1
  I  I76  1  0.83455231  0.33359092  0.49804958  1
  I  I77  1  0.83075844  0.33357239  0.83532387  1
  I  I78  1  0.83993410  0.66685738  0.16641161  1
  I  I79  1  0.83192940  0.66994090  0.50259319  1
  I  I80  1  0.83425461  0.66983454  0.83211051  1
  I  I81  1  0.16456905  0.17004455  -0.00012397  1
  I  I82  1  0.16925003  0.17058400  0.33316260  1
  I  I83  1  0.17078044  0.16867306  0.66677593  1
  I  I84  1  0.16818365  0.49276385  -0.00041835  1
  I  I85  1  0.16316608  0.49561854  0.33057215  1
  I  I86  1  0.16880281  0.49681106  0.66952146  1
  I  I87  1  0.16463745  0.83887458  -0.00014330  1
  I  I88  1  0.16516304  0.83324646  0.33332788  1
  I  I89  1  0.16276295  0.83401562  0.66685952  1
  I  I90  1  0.49969270  0.16635859  -0.00026264  1
  I  I91  1  0.49583426  0.17234163  0.33760090  1
  I  I92  1  0.49324939  0.16665304  0.66380768  1
  I  I93  1  0.49833623  0.50527098  -0.00327008  1
  I  I94  1  0.50051443  0.49576452  0.33595066  1
  I  I95  1  0.49406597  0.50097703  0.66776590  1
  I  I96  1  0.50358661  0.82686047  -0.00464706  1
  I  I97  1  0.50121727  0.83300500  0.33352091  1
  I  I98  1  0.50602170  0.83207524  0.66978732  1
  I  I99  1  0.83353969  0.16350409  -0.00004206  1
  I  I100  1  0.83529092  0.16319175  0.33331351  1
  I  I101  1  0.83679658  0.16415918  0.66667367  1
  I  I102  1  0.83430141  0.50673912  0.00297714  1
  I  I103  1  0.83936710  0.50550632  0.32962291  1
  I  I104  1  0.83611511  0.50231318  0.66669456  1
  I  I105  1  0.83066851  0.82882550  -0.00002603  1
  I  I106  1  0.83543249  0.83042976  0.33277793  1
  I  I107  1  0.82936279  0.83553685  0.66741897  1
  I  I108  1  0.00387701  0.16681249  0.16909743  1
  I  I109  1  0.00334194  0.16403855  0.49953298  1
  I  I110  1  0.00483194  0.17119830  0.83074136  1
  I  I111  1  0.00107720  0.50046494  0.16124075  1
  I  I112  1  -0.00007755  0.49978663  0.50225486  1
  I  I113  1  0.00292949  0.49755917  0.83582846  1
  I  I114  1  -0.00348336  0.83303390  0.16324363  1
  I  I115  1  -0.00390490  0.83437635  0.50304948  1
  I  I116  1  -0.00291555  0.83484877  0.83416061  1
  I  I117  1  0.32852888  0.17391876  0.16293261  1
  I  I118  1  0.33272691  0.17008573  0.50009719  1
  I  I119  1  0.32972269  0.16527466  0.83560715  1
  I  I120  1  0.33002745  0.49401766  0.16458738  1
  I  I121  1  0.33639879  0.49936532  0.49980686  1
  I  I122  1  0.33303238  0.50218749  0.83551338  1
  I  I123  1  0.33341493  0.83331532  0.16595983  1
  I  I124  1  0.33374572  0.83247135  0.50137005  1
  I  I125  1  0.33596844  0.83250797  0.83146548  1
  I  I126  1  0.66660157  0.16654015  0.16838549  1
  I  I127  1  0.66357287  0.16895367  0.50109801  1
  I  I128  1  0.66641571  0.16818621  0.83155583  1
  I  I129  1  0.66927926  0.50690257  0.16773731  1
  I  I130  1  0.66258286  0.49382992  0.50596308  1
  I  I131  1  0.66387472  0.50367070  0.83059993  1
  I  I132  1  0.67114541  0.82632170  0.17002675  1
  I  I133  1  0.66983408  0.83519233  0.49755497  1
  I  I134  1  0.66671587  0.82698959  0.83294864  1
