# generated using pymatgen
data_Cs27Sn13Pb14I81
_symmetry_space_group_name_H-M   'P 1'
_cell_length_a   18.97732899
_cell_length_b   18.97183409
_cell_length_c   18.98147449
_cell_angle_alpha   89.99874322
_cell_angle_beta   90.00061392
_cell_angle_gamma   90.00157518
_symmetry_Int_Tables_number   1
_chemical_formula_structural   Cs27Sn13Pb14I81
_chemical_formula_sum   'Cs27 Sn13 Pb14 I81'
_cell_volume   6833.99016946
_cell_formula_units_Z   1
loop_
 _symmetry_equiv_pos_site_id
 _symmetry_equiv_pos_as_xyz
  1  'x, y, z'
loop_
 _atom_site_type_symbol
 _atom_site_label
 _atom_site_symmetry_multiplicity
 _atom_site_fract_x
 _atom_site_fract_y
 _atom_site_fract_z
 _atom_site_occupancy
  Cs  Cs0  1  -0.00023580  0.00318491  -0.00197762  1
  Cs  Cs1  1  -0.00216513  -0.00033766  0.33316324  1
  Cs  Cs2  1  0.00476306  -0.00307304  0.67028678  1
  Cs  Cs3  1  0.00148500  0.33104903  -0.00071944  1
  Cs  Cs4  1  -0.00179479  0.33183710  0.33291715  1
  Cs  Cs5  1  0.00110483  0.33563299  0.66795982  1
  Cs  Cs6  1  -0.00227571  0.66902990  -0.00083131  1
  Cs  Cs7  1  0.00011625  0.66916787  0.33273381  1
  Cs  Cs8  1  -0.00227157  0.66640761  0.66891280  1
  Cs  Cs9  1  0.33732998  -0.00373382  -0.00118821  1
  Cs  Cs10  1  0.33189999  -0.00152635  0.33445809  1
  Cs  Cs11  1  0.33465155  0.00000764  0.66787694  1
  Cs  Cs12  1  0.33184527  0.33450401  -0.00005928  1
  Cs  Cs13  1  0.33267772  0.33526833  0.33269739  1
  Cs  Cs14  1  0.33351377  0.33269909  0.66697021  1
  Cs  Cs15  1  0.33593779  0.66916805  0.00948757  1
  Cs  Cs16  1  0.33424498  0.66664885  0.32929085  1
  Cs  Cs17  1  0.33278810  0.66354264  0.66374823  1
  Cs  Cs18  1  0.66390476  -0.00155768  -0.00199990  1
  Cs  Cs19  1  0.67031683  0.00176973  0.33456864  1
  Cs  Cs20  1  0.65998415  0.00067784  0.66674632  1
  Cs  Cs21  1  0.66720952  0.33300317  0.00112750  1
  Cs  Cs22  1  0.67071661  0.32993356  0.33496701  1
  Cs  Cs23  1  0.66483448  0.33505864  0.66347609  1
  Cs  Cs24  1  0.66707378  0.66952689  0.00003145  1
  Cs  Cs25  1  0.66614691  0.66728003  0.33339393  1
  Cs  Cs26  1  0.67003822  0.66437193  0.66620866  1
  Sn  Sn27  1  0.83264631  0.83331244  0.49981333  1
  Sn  Sn28  1  0.16660392  0.16750231  0.50016589  1
  Sn  Sn29  1  0.16780597  0.49969830  0.83304177  1
  Sn  Sn30  1  0.83339996  0.83255891  0.16717723  1
  Sn  Sn31  1  0.16717977  0.49924237  0.50043175  1
  Sn  Sn32  1  0.49906868  0.16693102  0.16690503  1
  Sn  Sn33  1  0.16619619  0.16745216  0.83321220  1
  Sn  Sn34  1  0.16782967  0.16672145  0.16659507  1
  Sn  Sn35  1  0.49909207  0.50000332  0.83316516  1
  Sn  Sn36  1  0.83350207  0.50063397  0.16668991  1
  Sn  Sn37  1  0.49938231  0.50060885  0.50048193  1
  Sn  Sn38  1  0.83328868  0.16695144  0.83259859  1
  Sn  Sn39  1  0.50073253  0.83247242  0.49996035  1
  Pb  Pb40  1  0.16716038  0.83230876  0.83348387  1
  Pb  Pb41  1  0.16469118  0.49836164  0.16662511  1
  Pb  Pb42  1  0.83376738  0.50158623  0.49831576  1
  Pb  Pb43  1  0.16424432  0.83637155  0.16657036  1
  Pb  Pb44  1  0.50199788  0.49841566  0.16722812  1
  Pb  Pb45  1  0.16681123  0.83252105  0.50009814  1
  Pb  Pb46  1  0.83351917  0.49825377  0.83521861  1
  Pb  Pb47  1  0.49918439  0.16878368  0.83499557  1
  Pb  Pb48  1  0.83605331  0.16416582  0.50291386  1
  Pb  Pb49  1  0.83319167  0.83594614  0.83298479  1
  Pb  Pb50  1  0.50223965  0.83579739  0.16918188  1
  Pb  Pb51  1  0.49974821  0.82971104  0.83068694  1
  Pb  Pb52  1  0.49775633  0.16717054  0.49824415  1
  Pb  Pb53  1  0.83360345  0.16614184  0.16517088  1
  I  I54  1  0.16799499  0.00495890  0.16731521  1
  I  I55  1  0.16589222  0.00287655  0.50002638  1
  I  I56  1  0.16133226  0.00364252  0.83278821  1
  I  I57  1  0.16637365  0.33005756  0.16657127  1
  I  I58  1  0.17187477  0.33370223  0.50072860  1
  I  I59  1  0.16595403  0.33277243  0.83245606  1
  I  I60  1  0.16649128  0.66648423  0.16688972  1
  I  I61  1  0.16689552  0.66306416  0.50544163  1
  I  I62  1  0.16886170  0.66229999  0.82623883  1
  I  I63  1  0.49736715  0.00358774  0.16673779  1
  I  I64  1  0.50304828  -0.00204531  0.49666318  1
  I  I65  1  0.50067235  0.00012862  0.83348957  1
  I  I66  1  0.49923708  0.33065766  0.16820570  1
  I  I67  1  0.49759888  0.33642812  0.50263642  1
  I  I68  1  0.49919485  0.33655359  0.82684841  1
  I  I69  1  0.50036322  0.66664250  0.16471732  1
  I  I70  1  0.49814329  0.66554025  0.50349037  1
  I  I71  1  0.49491416  0.66169355  0.83370889  1
  I  I72  1  0.83392212  -0.00231598  0.17015746  1
  I  I73  1  0.82835627  -0.00348589  0.49224293  1
  I  I74  1  0.84068461  0.00381945  0.83607917  1
  I  I75  1  0.83328762  0.33475114  0.16481359  1
  I  I76  1  0.83066614  0.33323776  0.49763420  1
  I  I77  1  0.83625624  0.33055010  0.83709541  1
  I  I78  1  0.83298931  0.66698336  0.16962145  1
  I  I79  1  0.83425070  0.66956868  0.49839815  1
  I  I80  1  0.83415574  0.66656620  0.83337560  1
  I  I81  1  0.16473641  0.17092288  -0.00067625  1
  I  I82  1  0.17103813  0.17037996  0.33357703  1
  I  I83  1  0.16123495  0.17032030  0.66697146  1
  I  I84  1  0.16917058  0.49438739  -0.00290719  1
  I  I85  1  0.16973376  0.49574168  0.33628476  1
  I  I86  1  0.16982837  0.49186395  0.66633730  1
  I  I87  1  0.16393614  0.83307475  0.00016898  1
  I  I88  1  0.16736435  0.83413455  0.33348986  1
  I  I89  1  0.16340365  0.83938346  0.66642756  1
  I  I90  1  0.49635258  0.16886911  0.00279473  1
  I  I91  1  0.49596944  0.16852373  0.33053202  1
  I  I92  1  0.50045978  0.16437617  0.66648721  1
  I  I93  1  0.49665966  0.49567912  -0.00228654  1
  I  I94  1  0.49589182  0.50292589  0.33658120  1
  I  I95  1  0.49690303  0.50232899  0.66586066  1
  I  I96  1  0.50160349  0.83345643  0.00026749  1
  I  I97  1  0.50083566  0.82661290  0.33690064  1
  I  I98  1  0.50654446  0.83489692  0.66255831  1
  I  I99  1  0.83937792  0.16622498  -0.00233473  1
  I  I100  1  0.83447974  0.16760204  0.33354308  1
  I  I101  1  0.83802029  0.16705703  0.67032593  1
  I  I102  1  0.83321259  0.50457913  0.00297899  1
  I  I103  1  0.83319479  0.49960774  0.33051655  1
  I  I104  1  0.83331076  0.50075011  0.66660301  1
  I  I105  1  0.83479589  0.83092719  0.00270778  1
  I  I106  1  0.83006078  0.83068486  0.33342698  1
  I  I107  1  0.83044097  0.83447827  0.66359676  1
  I  I108  1  0.00276819  0.16685345  0.16744821  1
  I  I109  1  0.00409148  0.17151520  0.49451733  1
  I  I110  1  0.00193896  0.17127785  0.83614963  1
  I  I111  1  -0.00298457  0.50090122  0.16689873  1
  I  I112  1  0.00311716  0.49688457  0.50326717  1
  I  I113  1  0.00314106  0.49680651  0.82959031  1
  I  I114  1  -0.00381337  0.83112444  0.17396663  1
  I  I115  1  -0.00252770  0.83468438  0.49537327  1
  I  I116  1  -0.00011741  0.83023409  0.83092895  1
  I  I117  1  0.33210535  0.16871062  0.16513197  1
  I  I118  1  0.32961852  0.16554974  0.50454761  1
  I  I119  1  0.32984833  0.16910983  0.83181357  1
  I  I120  1  0.33324968  0.49943091  0.16650933  1
  I  I121  1  0.33321772  0.50141730  0.50339457  1
  I  I122  1  0.33240260  0.49265776  0.82863844  1
  I  I123  1  0.33362274  0.83291740  0.16786587  1
  I  I124  1  0.33599114  0.83269526  0.50104141  1
  I  I125  1  0.33358510  0.84052528  0.83118099  1
  I  I126  1  0.66503432  0.16723295  0.16486222  1
  I  I127  1  0.66664823  0.16863284  0.49878024  1
  I  I128  1  0.66832881  0.16740534  0.83783692  1
  I  I129  1  0.66963144  0.49982009  0.16625504  1
  I  I130  1  0.66399651  0.50239248  0.50320133  1
  I  I131  1  0.66420342  0.49781361  0.82972091  1
  I  I132  1  0.67005672  0.83253719  0.16845057  1
  I  I133  1  0.66639074  0.82811489  0.49602009  1
  I  I134  1  0.66657919  0.83507985  0.83530058  1
