# generated using pymatgen
data_Cs27Sn14Pb13I81
_symmetry_space_group_name_H-M   'P 1'
_cell_length_a   18.97298875
_cell_length_b   18.98629321
_cell_length_c   18.96774763
_cell_angle_alpha   90.00154776
_cell_angle_beta   89.99659686
_cell_angle_gamma   89.99989455
_symmetry_Int_Tables_number   1
_chemical_formula_structural   Cs27Sn14Pb13I81
_chemical_formula_sum   'Cs27 Sn14 Pb13 I81'
_cell_volume   6832.68964349
_cell_formula_units_Z   1
loop_
 _symmetry_equiv_pos_site_id
 _symmetry_equiv_pos_as_xyz
  1  'x, y, z'
loop_
 _atom_site_type_symbol
 _atom_site_label
 _atom_site_symmetry_multiplicity
 _atom_site_fract_x
 _atom_site_fract_y
 _atom_site_fract_z
 _atom_site_occupancy
  Cs  Cs0  1  -0.00277234  0.00073885  -0.00134501  1
  Cs  Cs1  1  0.00187087  -0.00131006  0.33455154  1
  Cs  Cs2  1  0.00138127  -0.00008836  0.66501823  1
  Cs  Cs3  1  -0.00090316  0.33225464  -0.00214345  1
  Cs  Cs4  1  -0.00030262  0.33355113  0.33419313  1
  Cs  Cs5  1  -0.00106550  0.33162900  0.66901311  1
  Cs  Cs6  1  -0.00471341  0.66887670  0.00107319  1
  Cs  Cs7  1  -0.00000981  0.66784982  0.33197557  1
  Cs  Cs8  1  0.00353664  0.67049865  0.66734860  1
  Cs  Cs9  1  0.33374002  0.00085111  0.00259851  1
  Cs  Cs10  1  0.33244022  0.00017110  0.33118247  1
  Cs  Cs11  1  0.33307995  -0.00645176  0.66834804  1
  Cs  Cs12  1  0.33554064  0.33437473  -0.00021103  1
  Cs  Cs13  1  0.33335796  0.33276954  0.33074145  1
  Cs  Cs14  1  0.33163160  0.33670408  0.67134572  1
  Cs  Cs15  1  0.33403790  0.66346868  0.00198418  1
  Cs  Cs16  1  0.33102286  0.66709782  0.33222617  1
  Cs  Cs17  1  0.33600701  0.66897809  0.66705176  1
  Cs  Cs18  1  0.66883480  0.00121646  -0.00140261  1
  Cs  Cs19  1  0.66294165  0.00558664  0.33555201  1
  Cs  Cs20  1  0.66405950  -0.00173686  0.66590970  1
  Cs  Cs21  1  0.66524657  0.33289188  -0.00077108  1
  Cs  Cs22  1  0.66804314  0.33195295  0.34255075  1
  Cs  Cs23  1  0.66889808  0.33368084  0.66522396  1
  Cs  Cs24  1  0.67004405  0.66686376  0.00015119  1
  Cs  Cs25  1  0.67000568  0.66264878  0.33360856  1
  Cs  Cs26  1  0.65991798  0.66707626  0.66687645  1
  Sn  Sn27  1  0.83267798  0.49964011  0.83340637  1
  Sn  Sn28  1  0.16711350  0.83321661  0.16687723  1
  Sn  Sn29  1  0.16668256  0.49992345  0.49924449  1
  Sn  Sn30  1  0.83389826  0.16700832  0.16654945  1
  Sn  Sn31  1  0.83354309  0.83322145  0.49977728  1
  Sn  Sn32  1  0.49989672  0.50065613  0.16642786  1
  Sn  Sn33  1  0.49981894  0.83225355  0.16673087  1
  Sn  Sn34  1  0.50062243  0.16728689  0.83333426  1
  Sn  Sn35  1  0.16559826  0.16687438  0.16720667  1
  Sn  Sn36  1  0.50111240  0.49900146  0.83436816  1
  Sn  Sn37  1  0.83233900  0.16746595  0.83388095  1
  Sn  Sn38  1  0.16683570  0.49993318  0.16719745  1
  Sn  Sn39  1  0.16694962  0.16682657  0.49938095  1
  Sn  Sn40  1  0.16582847  0.83328271  0.49886381  1
  Pb  Pb41  1  0.16669879  0.50017710  0.83406182  1
  Pb  Pb42  1  0.49652400  0.16680924  0.50351770  1
  Pb  Pb43  1  0.83312530  0.83578470  0.16862366  1
  Pb  Pb44  1  0.16668823  0.83327316  0.83420540  1
  Pb  Pb45  1  0.83317660  0.83359947  0.83075854  1
  Pb  Pb46  1  0.83532987  0.16508587  0.50044845  1
  Pb  Pb47  1  0.49756825  0.49983745  0.49970677  1
  Pb  Pb48  1  0.49995001  0.16731888  0.16542762  1
  Pb  Pb49  1  0.50002670  0.83291562  0.83634695  1
  Pb  Pb50  1  0.49946636  0.83321513  0.49678000  1
  Pb  Pb51  1  0.16667516  0.16654631  0.83374644  1
  Pb  Pb52  1  0.83320917  0.49768240  0.16532228  1
  Pb  Pb53  1  0.83612343  0.50218581  0.50293527  1
  I  I54  1  0.16753218  0.00002367  0.17189222  1
  I  I55  1  0.16247292  -0.00033298  0.49443698  1
  I  I56  1  0.16686261  0.00023923  0.83267169  1
  I  I57  1  0.16734365  0.33345036  0.17230674  1
  I  I58  1  0.16809972  0.33331382  0.49382324  1
  I  I59  1  0.16667940  0.33334799  0.83167396  1
  I  I60  1  0.17223007  0.66650352  0.17232037  1
  I  I61  1  0.16263058  0.66703869  0.49457409  1
  I  I62  1  0.16625212  0.66641671  0.83164250  1
  I  I63  1  0.49595334  -0.00168818  0.16595995  1
  I  I64  1  0.49821949  0.00000381  0.50022625  1
  I  I65  1  0.50375348  0.00271011  0.83411866  1
  I  I66  1  0.49468674  0.33614532  0.16277552  1
  I  I67  1  0.49843401  0.33330493  0.49449253  1
  I  I68  1  0.50269444  0.33419980  0.83991958  1
  I  I69  1  0.49083623  0.66569369  0.16095528  1
  I  I70  1  0.49832875  0.66658180  0.50630115  1
  I  I71  1  0.50355809  0.66324522  0.83459359  1
  I  I72  1  0.83749499  0.00355268  0.16032610  1
  I  I73  1  0.84093911  -0.00252287  0.50094934  1
  I  I74  1  0.82998907  0.00338547  0.83678070  1
  I  I75  1  0.83840432  0.32982935  0.16494592  1
  I  I76  1  0.83517835  0.33332251  0.49889503  1
  I  I77  1  0.82987481  0.33252787  0.83674713  1
  I  I78  1  0.83564238  0.66659881  0.16510487  1
  I  I79  1  0.84022781  0.66972399  0.49971896  1
  I  I80  1  0.82978345  0.66381882  0.83271665  1
  I  I81  1  0.16602764  0.16692705  0.00344803  1
  I  I82  1  0.16124613  0.16625065  0.33197526  1
  I  I83  1  0.16684679  0.16619879  0.66383575  1
  I  I84  1  0.16831090  0.49924096  0.00361656  1
  I  I85  1  0.17192932  0.50005654  0.33208583  1
  I  I86  1  0.16595608  0.49983195  0.66398605  1
  I  I87  1  0.17088721  0.83351510  0.00445963  1
  I  I88  1  0.16677379  0.83363035  0.33281890  1
  I  I89  1  0.16245351  0.83413837  0.66312955  1
  I  I90  1  0.49870559  0.16794678  -0.00253279  1
  I  I91  1  0.50325948  0.16661617  0.33319574  1
  I  I92  1  0.50574480  0.17287209  0.67146849  1
  I  I93  1  0.49602208  0.49988779  0.00040231  1
  I  I94  1  0.49668015  0.50455488  0.32981342  1
  I  I95  1  0.50210608  0.49549746  0.66983693  1
  I  I96  1  0.49253540  0.83261630  0.00407468  1
  I  I97  1  0.49696124  0.82813080  0.32894792  1
  I  I98  1  0.49886888  0.83361677  0.66658053  1
  I  I99  1  0.83681823  0.16867555  -0.00026577  1
  I  I100  1  0.83593945  0.16473438  0.33094344  1
  I  I101  1  0.83137603  0.16940771  0.66967120  1
  I  I102  1  0.83509413  0.49876824  -0.00282248  1
  I  I103  1  0.83035180  0.49875699  0.33341716  1
  I  I104  1  0.82870673  0.49273883  0.67074593  1
  I  I105  1  0.83444699  0.83276519  0.00020778  1
  I  I106  1  0.83726183  0.83459118  0.33615684  1
  I  I107  1  0.84233850  0.83518459  0.66308785  1
  I  I108  1  0.00141398  0.16630816  0.16402521  1
  I  I109  1  0.00366286  0.16811631  0.50063862  1
  I  I110  1  -0.00275492  0.17138058  0.83449600  1
  I  I111  1  0.00318788  0.50264014  0.16900972  1
  I  I112  1  0.00424203  0.49788692  0.49445818  1
  I  I113  1  -0.00246864  0.49445029  0.83258695  1
  I  I114  1  0.00319670  0.83062348  0.16892824  1
  I  I115  1  0.00241393  0.83356316  0.49495084  1
  I  I116  1  -0.00023886  0.83272660  0.83741563  1
  I  I117  1  0.33029649  0.16594637  0.16897870  1
  I  I118  1  0.32834965  0.16331535  0.49289033  1
  I  I119  1  0.33587316  0.17197820  0.83348306  1
  I  I120  1  0.33243274  0.49896676  0.16424984  1
  I  I121  1  0.32911017  0.50313533  0.50147208  1
  I  I122  1  0.33618095  0.49501591  0.83450382  1
  I  I123  1  0.33165009  0.83526784  0.17158681  1
  I  I124  1  0.32952385  0.83356873  0.49893884  1
  I  I125  1  0.33351940  0.83426650  0.82743395  1
  I  I126  1  0.66890881  0.16497942  0.16290606  1
  I  I127  1  0.66677284  0.16401211  0.49672454  1
  I  I128  1  0.66744717  0.17030769  0.84030913  1
  I  I129  1  0.66382522  0.50451345  0.16251516  1
  I  I130  1  0.66684823  0.50189994  0.49746440  1
  I  I131  1  0.66579660  0.49599835  0.83937913  1
  I  I132  1  0.66412700  0.82966184  0.16702255  1
  I  I133  1  0.66896112  0.83482798  0.50025081  1
  I  I134  1  0.66662034  0.83389060  0.83244989  1
