# generated using pymatgen
data_Cs27Sn14Pb13I81
_symmetry_space_group_name_H-M   'P 1'
_cell_length_a   18.95623811
_cell_length_b   18.95786177
_cell_length_c   18.97050236
_cell_angle_alpha   89.99807976
_cell_angle_beta   89.99938788
_cell_angle_gamma   90.00187173
_symmetry_Int_Tables_number   1
_chemical_formula_structural   Cs27Sn14Pb13I81
_chemical_formula_sum   'Cs27 Sn14 Pb13 I81'
_cell_volume   6817.42452738
_cell_formula_units_Z   1
loop_
 _symmetry_equiv_pos_site_id
 _symmetry_equiv_pos_as_xyz
  1  'x, y, z'
loop_
 _atom_site_type_symbol
 _atom_site_label
 _atom_site_symmetry_multiplicity
 _atom_site_fract_x
 _atom_site_fract_y
 _atom_site_fract_z
 _atom_site_occupancy
  Cs  Cs0  1  -0.00044457  0.00151999  0.00038999  1
  Cs  Cs1  1  -0.00004310  0.00025499  0.33312468  1
  Cs  Cs2  1  0.00134124  -0.00028229  0.66640105  1
  Cs  Cs3  1  0.00033554  0.33303702  0.00061438  1
  Cs  Cs4  1  -0.00007935  0.33227061  0.33105839  1
  Cs  Cs5  1  -0.00173406  0.32996448  0.66911630  1
  Cs  Cs6  1  -0.00170166  0.66493347  0.00217273  1
  Cs  Cs7  1  0.00006625  0.66719253  0.33260700  1
  Cs  Cs8  1  0.00015115  0.66979905  0.66423699  1
  Cs  Cs9  1  0.33639160  -0.00108644  0.00059571  1
  Cs  Cs10  1  0.33489178  0.00008120  0.33140252  1
  Cs  Cs11  1  0.32843908  -0.00156986  0.66857998  1
  Cs  Cs12  1  0.32928701  0.33472224  -0.00161595  1
  Cs  Cs13  1  0.33448415  0.33681682  0.33669508  1
  Cs  Cs14  1  0.33790660  0.33750124  0.66517398  1
  Cs  Cs15  1  0.33665006  0.66578140  -0.00573205  1
  Cs  Cs16  1  0.33081055  0.66388558  0.33546395  1
  Cs  Cs17  1  0.33084206  0.66228344  0.66926439  1
  Cs  Cs18  1  0.66357396  -0.00108424  0.00223117  1
  Cs  Cs19  1  0.66359172  0.00294577  0.33287022  1
  Cs  Cs20  1  0.66783040  0.00021634  0.66490145  1
  Cs  Cs21  1  0.66797392  0.33352152  0.00069612  1
  Cs  Cs22  1  0.66452028  0.32877459  0.33457411  1
  Cs  Cs23  1  0.66443101  0.33386530  0.66472935  1
  Cs  Cs24  1  0.66691982  0.66752315  0.00136226  1
  Cs  Cs25  1  0.66742522  0.66813499  0.33244438  1
  Cs  Cs26  1  0.66764040  0.66571547  0.66560433  1
  Sn  Sn27  1  0.16616625  0.83387641  0.16634925  1
  Sn  Sn28  1  0.16643538  0.16576369  0.16689868  1
  Sn  Sn29  1  0.83339296  0.50020334  0.83319655  1
  Sn  Sn30  1  0.83383277  0.83308879  0.16683554  1
  Sn  Sn31  1  0.83214705  0.50045330  0.16714088  1
  Sn  Sn32  1  0.83280539  0.16641472  0.83353483  1
  Sn  Sn33  1  0.16659520  0.16685629  0.49988704  1
  Sn  Sn34  1  0.83238988  0.83291775  0.49960657  1
  Sn  Sn35  1  0.83345115  0.50034803  0.49958929  1
  Sn  Sn36  1  0.50014168  0.16641448  0.83343132  1
  Sn  Sn37  1  0.50086639  0.50016171  0.16661438  1
  Sn  Sn38  1  0.83339497  0.83338766  0.83352088  1
  Sn  Sn39  1  0.50012290  0.83317085  0.50021802  1
  Sn  Sn40  1  0.16711602  0.16656182  0.83326009  1
  Pb  Pb41  1  0.50248347  0.50222256  0.49813796  1
  Pb  Pb42  1  0.83459552  0.16629105  0.50201719  1
  Pb  Pb43  1  0.83454790  0.16656463  0.16473978  1
  Pb  Pb44  1  0.16415477  0.49789281  0.83310669  1
  Pb  Pb45  1  0.16626530  0.83478523  0.49808666  1
  Pb  Pb46  1  0.16380621  0.49764381  0.50018089  1
  Pb  Pb47  1  0.50000697  0.83152044  0.16824647  1
  Pb  Pb48  1  0.50259128  0.49814081  0.83509773  1
  Pb  Pb49  1  0.50232876  0.83496211  0.83105713  1
  Pb  Pb50  1  0.16634322  0.50049473  0.16654818  1
  Pb  Pb51  1  0.16454259  0.83505018  0.83579009  1
  Pb  Pb52  1  0.49741665  0.16450994  0.50220067  1
  Pb  Pb53  1  0.49706045  0.16902678  0.16483070  1
  I  I54  1  0.16016932  0.00024457  0.16625429  1
  I  I55  1  0.16327550  0.00296898  0.50267059  1
  I  I56  1  0.16283976  0.00378521  0.83152418  1
  I  I57  1  0.16562045  0.33044814  0.16503930  1
  I  I58  1  0.16501699  0.32921518  0.49787569  1
  I  I59  1  0.16314525  0.32886561  0.83726570  1
  I  I60  1  0.16327348  0.66957370  0.16867641  1
  I  I61  1  0.16781869  0.66688570  0.49710063  1
  I  I62  1  0.16569463  0.66690526  0.83518770  1
  I  I63  1  0.50175771  -0.00001845  0.16663970  1
  I  I64  1  0.50878451  -0.00306508  0.49843746  1
  I  I65  1  0.50195892  0.00326672  0.83421480  1
  I  I66  1  0.50733389  0.33661413  0.16663899  1
  I  I67  1  0.50004451  0.33338207  0.49997336  1
  I  I68  1  0.50122969  0.32988281  0.83347940  1
  I  I69  1  0.50133621  0.66377912  0.16663691  1
  I  I70  1  0.50209520  0.67004757  0.49951907  1
  I  I71  1  0.50106721  0.66661841  0.83381099  1
  I  I72  1  0.83641724  -0.00297118  0.16673891  1
  I  I73  1  0.83202388  -0.00316261  0.50004313  1
  I  I74  1  0.83465887  0.00004798  0.83292622  1
  I  I75  1  0.83214020  0.33607996  0.16615237  1
  I  I76  1  0.83642932  0.33587776  0.49989160  1
  I  I77  1  0.83483932  0.33312555  0.83386464  1
  I  I78  1  0.83555712  0.66712857  0.16283851  1
  I  I79  1  0.83067217  0.66739489  0.50391768  1
  I  I80  1  0.83292546  0.66687585  0.83393916  1
  I  I81  1  0.16498314  0.16362570  -0.00032787  1
  I  I82  1  0.16454452  0.16277175  0.33256246  1
  I  I83  1  0.16429172  0.16684493  0.66767231  1
  I  I84  1  0.16401884  0.49682987  0.00011122  1
  I  I85  1  0.16440943  0.49598203  0.33313614  1
  I  I86  1  0.16540752  0.49841802  0.66662743  1
  I  I87  1  0.16132928  0.83863286  0.00386774  1
  I  I88  1  0.16030069  0.83964794  0.33014570  1
  I  I89  1  0.16473405  0.83671271  0.66673460  1
  I  I90  1  0.50016480  0.16598453  -0.00317549  1
  I  I91  1  0.49838001  0.16709112  0.33337180  1
  I  I92  1  0.50014345  0.16702115  0.67016379  1
  I  I93  1  0.50566988  0.50067028  0.00296240  1
  I  I94  1  0.50551263  0.49923817  0.33029741  1
  I  I95  1  0.50120206  0.49883848  0.66663821  1
  I  I96  1  0.50040687  0.83367771  -0.00002595  1
  I  I97  1  0.50652645  0.83385363  0.33591957  1
  I  I98  1  0.50609350  0.83479891  0.66334477  1
  I  I99  1  0.83641013  0.16702940  -0.00371564  1
  I  I100  1  0.83656845  0.16729804  0.33329501  1
  I  I101  1  0.83650720  0.16672889  0.67050027  1
  I  I102  1  0.83054961  0.50178854  0.00022891  1
  I  I103  1  0.83110441  0.50721987  0.33270123  1
  I  I104  1  0.83535838  0.50167126  0.66699127  1
  I  I105  1  0.83835301  0.83143446  0.00029086  1
  I  I106  1  0.83448481  0.82640705  0.33305650  1
  I  I107  1  0.82924838  0.83164811  0.66664859  1
  I  I108  1  0.00280986  0.16751766  0.16395752  1
  I  I109  1  0.00262099  0.16513891  0.50225856  1
  I  I110  1  -0.00039992  0.16723170  0.83341593  1
  I  I111  1  -0.00365823  0.50064194  0.16590953  1
  I  I112  1  -0.00474647  0.50676602  0.49720285  1
  I  I113  1  -0.00482634  0.49770509  0.83731676  1
  I  I114  1  -0.00188883  0.83201272  0.16819711  1
  I  I115  1  -0.00358444  0.83102733  0.50172709  1
  I  I116  1  -0.00440013  0.83529243  0.82860781  1
  I  I117  1  0.32895602  0.16151494  0.16405951  1
  I  I118  1  0.32945961  0.16419232  0.50115083  1
  I  I119  1  0.33235765  0.16593132  0.83422353  1
  I  I120  1  0.33563898  0.49839787  0.16701898  1
  I  I121  1  0.33360629  0.50061934  0.49739886  1
  I  I122  1  0.33366038  0.49766090  0.83588454  1
  I  I123  1  0.33075618  0.83709100  0.16943441  1
  I  I124  1  0.33529071  0.83762976  0.49687185  1
  I  I125  1  0.33330334  0.83632759  0.83335637  1
  I  I126  1  0.66656378  0.16466815  0.16436713  1
  I  I127  1  0.66668891  0.16812179  0.50230862  1
  I  I128  1  0.66802477  0.16701245  0.83325456  1
  I  I129  1  0.66937868  0.50559677  0.16537660  1
  I  I130  1  0.67100806  0.50027604  0.50284454  1
  I  I131  1  0.67128155  0.49740908  0.83174457  1
  I  I132  1  0.67016695  0.83067660  0.16451846  1
  I  I133  1  0.66933517  0.83064183  0.49864976  1
  I  I134  1  0.67126566  0.83579437  0.83857713  1
