# generated using pymatgen
data_Cs27Sn14Pb13I81
_symmetry_space_group_name_H-M   'P 1'
_cell_length_a   18.96511140
_cell_length_b   18.99181699
_cell_length_c   18.97632062
_cell_angle_alpha   90.00040903
_cell_angle_beta   90.00033141
_cell_angle_gamma   90.00051965
_symmetry_Int_Tables_number   1
_chemical_formula_structural   Cs27Sn14Pb13I81
_chemical_formula_sum   'Cs27 Sn14 Pb13 I81'
_cell_volume   6834.92768864
_cell_formula_units_Z   1
loop_
 _symmetry_equiv_pos_site_id
 _symmetry_equiv_pos_as_xyz
  1  'x, y, z'
loop_
 _atom_site_type_symbol
 _atom_site_label
 _atom_site_symmetry_multiplicity
 _atom_site_fract_x
 _atom_site_fract_y
 _atom_site_fract_z
 _atom_site_occupancy
  Cs  Cs0  1  0.00152316  0.00035632  0.00166241  1
  Cs  Cs1  1  -0.00028789  0.00037664  0.33360026  1
  Cs  Cs2  1  -0.00136830  -0.00132599  0.66469718  1
  Cs  Cs3  1  0.00015509  0.33433156  0.00221269  1
  Cs  Cs4  1  -0.00048330  0.33565794  0.33212832  1
  Cs  Cs5  1  -0.00039329  0.33382341  0.66619148  1
  Cs  Cs6  1  0.00089750  0.66515720  0.00095038  1
  Cs  Cs7  1  -0.00017153  0.66378535  0.33313802  1
  Cs  Cs8  1  -0.00026414  0.66726357  0.66615716  1
  Cs  Cs9  1  0.33260903  -0.00083240  0.00115458  1
  Cs  Cs10  1  0.33302580  -0.00092638  0.33187115  1
  Cs  Cs11  1  0.33164640  0.00244476  0.66784086  1
  Cs  Cs12  1  0.33142195  0.33214346  0.00282978  1
  Cs  Cs13  1  0.33324238  0.33435667  0.33225901  1
  Cs  Cs14  1  0.33700910  0.33409055  0.66538687  1
  Cs  Cs15  1  0.33193335  0.66958628  0.00169849  1
  Cs  Cs16  1  0.33467255  0.66628389  0.33330383  1
  Cs  Cs17  1  0.33520955  0.66373300  0.66470089  1
  Cs  Cs18  1  0.66307435  -0.00180053  -0.00201501  1
  Cs  Cs19  1  0.66734709  -0.00217926  0.33700448  1
  Cs  Cs20  1  0.66887697  0.00174425  0.66613173  1
  Cs  Cs21  1  0.66799003  0.33387991  -0.00243686  1
  Cs  Cs22  1  0.66718124  0.33357180  0.33303013  1
  Cs  Cs23  1  0.65722523  0.32848646  0.67370702  1
  Cs  Cs24  1  0.66532028  0.66762580  -0.00532899  1
  Cs  Cs25  1  0.66504908  0.66721969  0.33406131  1
  Cs  Cs26  1  0.66012794  0.67042520  0.67442691  1
  Sn  Sn27  1  0.16578912  0.49987814  0.50098524  1
  Sn  Sn28  1  0.16630207  0.83323015  0.83321585  1
  Sn  Sn29  1  0.83429835  0.83313201  0.16668580  1
  Sn  Sn30  1  0.50155295  0.49934387  0.16680750  1
  Sn  Sn31  1  0.83199457  0.50028737  0.16738153  1
  Sn  Sn32  1  0.16637404  0.16697464  0.49973278  1
  Sn  Sn33  1  0.16639118  0.83312034  0.49975190  1
  Sn  Sn34  1  0.16626706  0.49984579  0.83201130  1
  Sn  Sn35  1  0.50022526  0.16757121  0.16702601  1
  Sn  Sn36  1  0.16631258  0.16572950  0.16693474  1
  Sn  Sn37  1  0.83308717  0.16641767  0.16674336  1
  Sn  Sn38  1  0.16620433  0.16693094  0.83330236  1
  Sn  Sn39  1  0.16563430  0.83425874  0.16702828  1
  Sn  Sn40  1  0.83329852  0.49985018  0.50017525  1
  Pb  Pb41  1  0.83559495  0.83341916  0.83543985  1
  Pb  Pb42  1  0.16641894  0.50016274  0.16693179  1
  Pb  Pb43  1  0.83512931  0.16908993  0.49831488  1
  Pb  Pb44  1  0.49800384  0.83343861  0.49998643  1
  Pb  Pb45  1  0.49763642  0.16648038  0.83584665  1
  Pb  Pb46  1  0.49743835  0.83370824  0.83321078  1
  Pb  Pb47  1  0.83518267  0.83082685  0.49819313  1
  Pb  Pb48  1  0.50028915  0.83356546  0.16684125  1
  Pb  Pb49  1  0.50071606  0.50000130  0.49804631  1
  Pb  Pb50  1  0.83554265  0.16668117  0.83535978  1
  Pb  Pb51  1  0.49804430  0.16658909  0.49759074  1
  Pb  Pb52  1  0.49688239  0.49995157  0.83646550  1
  Pb  Pb53  1  0.83520228  0.49987959  0.83271508  1
  I  I54  1  0.16504608  0.00078487  0.16634071  1
  I  I55  1  0.16839114  0.00013775  0.50046127  1
  I  I56  1  0.16714699  0.00013584  0.83341687  1
  I  I57  1  0.16530120  0.33075197  0.16608006  1
  I  I58  1  0.16344804  0.33350938  0.50063593  1
  I  I59  1  0.16630371  0.33310526  0.83341267  1
  I  I60  1  0.16473292  0.66905513  0.16587092  1
  I  I61  1  0.16309774  0.66633344  0.50126208  1
  I  I62  1  0.16612149  0.66673709  0.83310576  1
  I  I63  1  0.49895211  0.00297222  0.16611246  1
  I  I64  1  0.49706392  0.00013649  0.49523443  1
  I  I65  1  0.49576047  0.00024801  0.83845975  1
  I  I66  1  0.49959563  0.33291798  0.16713260  1
  I  I67  1  0.49457790  0.33338875  0.49920050  1
  I  I68  1  0.49591247  0.33332213  0.83293125  1
  I  I69  1  0.50059287  0.66409266  0.16726525  1
  I  I70  1  0.49476461  0.66636846  0.49498102  1
  I  I71  1  0.49659661  0.66649997  0.83699989  1
  I  I72  1  0.83688254  0.00026648  0.16515827  1
  I  I73  1  0.83588460  0.00001550  0.49728248  1
  I  I74  1  0.83721387  0.00004368  0.83542902  1
  I  I75  1  0.83511375  0.33337451  0.16996513  1
  I  I76  1  0.84350541  0.33690677  0.49058947  1
  I  I77  1  0.83928824  0.33341965  0.83817825  1
  I  I78  1  0.83609651  0.66630239  0.17042593  1
  I  I79  1  0.84327707  0.66297715  0.49053160  1
  I  I80  1  0.83844770  0.66651988  0.83835442  1
  I  I81  1  0.16700307  0.16472866  0.00143247  1
  I  I82  1  0.16688464  0.16458337  0.33209836  1
  I  I83  1  0.16659935  0.16408016  0.66646322  1
  I  I84  1  0.16742581  0.49998733  -0.00163176  1
  I  I85  1  0.16649669  0.49987125  0.33559040  1
  I  I86  1  0.16119386  0.50027017  0.66572089  1
  I  I87  1  0.16358682  0.83540383  0.00093123  1
  I  I88  1  0.16339830  0.83591735  0.33255415  1
  I  I89  1  0.16856332  0.83577965  0.66646983  1
  I  I90  1  0.49652209  0.17069061  0.00450687  1
  I  I91  1  0.49546888  0.17095053  0.32885867  1
  I  I92  1  0.49740530  0.16727898  0.66677349  1
  I  I93  1  0.50425362  0.49585295  0.00446497  1
  I  I94  1  0.49648425  0.49608263  0.32976305  1
  I  I95  1  0.50127874  0.50076063  0.66684274  1
  I  I96  1  0.49584347  0.83249707  0.00058161  1
  I  I97  1  0.49444068  0.83284258  0.33271331  1
  I  I98  1  0.49780802  0.83134937  0.66673164  1
  I  I99  1  0.83735674  0.17028694  0.00499848  1
  I  I100  1  0.83768967  0.16520612  0.32902073  1
  I  I101  1  0.83642366  0.16892714  0.66641087  1
  I  I102  1  0.83209895  0.49946475  0.00364508  1
  I  I103  1  0.83829248  0.49951328  0.33157880  1
  I  I104  1  0.84113778  0.50050977  0.66337261  1
  I  I105  1  0.84047761  0.83061616  0.00468719  1
  I  I106  1  0.84093069  0.83554935  0.32931159  1
  I  I107  1  0.83602800  0.83051049  0.66640706  1
  I  I108  1  0.00132719  0.16658693  0.16625092  1
  I  I109  1  0.00455705  0.16463793  0.49670389  1
  I  I110  1  0.00498007  0.16665415  0.83722213  1
  I  I111  1  -0.00212466  0.49799228  0.16684915  1
  I  I112  1  0.00198591  0.49989790  0.49550382  1
  I  I113  1  0.00417056  0.49996394  0.83652450  1
  I  I114  1  0.00172040  0.83587986  0.16630037  1
  I  I115  1  0.00455288  0.83567366  0.50106467  1
  I  I116  1  0.00492108  0.83346576  0.83247781  1
  I  I117  1  0.33150103  0.16747155  0.16616783  1
  I  I118  1  0.32816202  0.16926138  0.49747625  1
  I  I119  1  0.32825523  0.16630988  0.83626866  1
  I  I120  1  0.33470201  0.49671370  0.16574999  1
  I  I121  1  0.32970259  0.50033899  0.50216785  1
  I  I122  1  0.32830589  0.50008272  0.82886357  1
  I  I123  1  0.32973773  0.83577982  0.16591923  1
  I  I124  1  0.32755196  0.83006399  0.49532566  1
  I  I125  1  0.32764429  0.83347959  0.83885805  1
  I  I126  1  0.66724888  0.16821458  0.16714730  1
  I  I127  1  0.66696040  0.16889554  0.49735633  1
  I  I128  1  0.66654726  0.16789831  0.83502859  1
  I  I129  1  0.66806732  0.49671073  0.17307048  1
  I  I130  1  0.67005296  0.50011648  0.49249478  1
  I  I131  1  0.66650182  0.50024454  0.83139788  1
  I  I132  1  0.66999784  0.83547324  0.16750545  1
  I  I133  1  0.66740855  0.83094687  0.49575967  1
  I  I134  1  0.66697127  0.83176740  0.83634150  1
