# generated using pymatgen
data_Cs27Sn13Pb14I81
_symmetry_space_group_name_H-M   'P 1'
_cell_length_a   18.98092680
_cell_length_b   18.99159776
_cell_length_c   19.00151805
_cell_angle_alpha   89.99861320
_cell_angle_beta   89.99970303
_cell_angle_gamma   90.00271352
_symmetry_Int_Tables_number   1
_chemical_formula_structural   Cs27Sn13Pb14I81
_chemical_formula_sum   'Cs27 Sn13 Pb14 I81'
_cell_volume   6849.63162420
_cell_formula_units_Z   1
loop_
 _symmetry_equiv_pos_site_id
 _symmetry_equiv_pos_as_xyz
  1  'x, y, z'
loop_
 _atom_site_type_symbol
 _atom_site_label
 _atom_site_symmetry_multiplicity
 _atom_site_fract_x
 _atom_site_fract_y
 _atom_site_fract_z
 _atom_site_occupancy
  Cs  Cs0  1  0.00144945  -0.00892471  -0.00240816  1
  Cs  Cs1  1  0.00396436  -0.00069269  0.32878314  1
  Cs  Cs2  1  -0.00211748  -0.00079048  0.67319981  1
  Cs  Cs3  1  -0.00600695  0.33226805  0.00088468  1
  Cs  Cs4  1  0.00618184  0.33379473  0.33518195  1
  Cs  Cs5  1  0.00034832  0.33538690  0.66373693  1
  Cs  Cs6  1  0.00688200  0.67605110  -0.00108686  1
  Cs  Cs7  1  -0.00469157  0.66757027  0.33521152  1
  Cs  Cs8  1  0.00067636  0.66526047  0.66488409  1
  Cs  Cs9  1  0.33369725  0.00027595  -0.00086608  1
  Cs  Cs10  1  0.33482573  0.00121186  0.33589220  1
  Cs  Cs11  1  0.33569785  0.00027866  0.66484103  1
  Cs  Cs12  1  0.33174185  0.34064059  0.00038398  1
  Cs  Cs13  1  0.32585308  0.33266562  0.33231755  1
  Cs  Cs14  1  0.33117045  0.33349497  0.66703232  1
  Cs  Cs15  1  0.32720293  0.65824370  -0.00219673  1
  Cs  Cs16  1  0.33446063  0.66654649  0.33194435  1
  Cs  Cs17  1  0.33297236  0.66821782  0.66965267  1
  Cs  Cs18  1  0.66739798  0.00242162  -0.00041350  1
  Cs  Cs19  1  0.66426200  0.00073341  0.33274200  1
  Cs  Cs20  1  0.66524395  0.00235547  0.66754921  1
  Cs  Cs21  1  0.66818465  0.33424677  0.00082840  1
  Cs  Cs22  1  0.66685667  0.33193237  0.33112239  1
  Cs  Cs23  1  0.66719521  0.33122701  0.66768039  1
  Cs  Cs24  1  0.66540145  0.66046461  0.00284832  1
  Cs  Cs25  1  0.66869430  0.66716263  0.33526015  1
  Cs  Cs26  1  0.66695558  0.66609991  0.66173529  1
  Sn  Sn27  1  0.50049396  0.16730197  0.49973435  1
  Sn  Sn28  1  0.16762653  0.16693445  0.83358488  1
  Sn  Sn29  1  0.50030471  0.16626708  0.16660820  1
  Sn  Sn30  1  0.50049542  0.83357538  0.83388760  1
  Sn  Sn31  1  0.49991108  0.49932485  0.49987767  1
  Sn  Sn32  1  0.49882488  0.16637433  0.83369433  1
  Sn  Sn33  1  0.49930655  0.83331182  0.50002628  1
  Sn  Sn34  1  0.16732310  0.83374217  0.49992103  1
  Sn  Sn35  1  0.83289056  0.16629752  0.49877023  1
  Sn  Sn36  1  0.83328593  0.49943229  0.16593885  1
  Sn  Sn37  1  0.50013262  0.83376387  0.16609354  1
  Sn  Sn38  1  0.83316060  0.50038070  0.83410326  1
  Sn  Sn39  1  0.83276764  0.16715967  0.16774595  1
  Pb  Pb40  1  0.16660354  0.16475430  0.50184697  1
  Pb  Pb41  1  0.83287129  0.16759398  0.83375467  1
  Pb  Pb42  1  0.83282265  0.83650762  0.49997567  1
  Pb  Pb43  1  0.50147074  0.49960065  0.83133940  1
  Pb  Pb44  1  0.16356357  0.49742336  0.83326769  1
  Pb  Pb45  1  0.16960542  0.83531494  0.83120818  1
  Pb  Pb46  1  0.17026055  0.83357130  0.16908300  1
  Pb  Pb47  1  0.83092443  0.83390338  0.16662772  1
  Pb  Pb48  1  0.16961305  0.50284880  0.50008631  1
  Pb  Pb49  1  0.16672682  0.16659587  0.16404247  1
  Pb  Pb50  1  0.83149412  0.49750901  0.49946569  1
  Pb  Pb51  1  0.16272210  0.50002132  0.16678774  1
  Pb  Pb52  1  0.83019826  0.83026530  0.83329131  1
  Pb  Pb53  1  0.50131950  0.49948838  0.16900118  1
  I  I54  1  0.16036601  0.00013982  0.16598223  1
  I  I55  1  0.17511519  -0.00263168  0.50052688  1
  I  I56  1  0.16642351  0.00311515  0.83273052  1
  I  I57  1  0.17289850  0.33300775  0.16773144  1
  I  I58  1  0.16719087  0.33309844  0.50135286  1
  I  I59  1  0.17614166  0.32969952  0.83137788  1
  I  I60  1  0.16782502  0.66691128  0.16587149  1
  I  I61  1  0.17282847  0.67067100  0.50121752  1
  I  I62  1  0.16679208  0.66685269  0.83255304  1
  I  I63  1  0.50559973  0.00116373  0.17074383  1
  I  I64  1  0.49992505  0.00041165  0.50015444  1
  I  I65  1  0.49748633  0.00104375  0.82869246  1
  I  I66  1  0.50301562  0.32986865  0.16607929  1
  I  I67  1  0.50641588  0.33173682  0.50125917  1
  I  I68  1  0.49847658  0.32990958  0.83264119  1
  I  I69  1  0.50202336  0.66920064  0.16839952  1
  I  I70  1  0.49620938  0.66775772  0.50049300  1
  I  I71  1  0.50346296  0.66934635  0.83160251  1
  I  I72  1  0.83031426  0.00363745  0.17148008  1
  I  I73  1  0.82601938  0.00437539  0.49548715  1
  I  I74  1  0.83564162  0.00012357  0.83297503  1
  I  I75  1  0.82545423  0.33185195  0.16567600  1
  I  I76  1  0.82655386  0.32972234  0.50026781  1
  I  I77  1  0.83000628  0.33515802  0.83422329  1
  I  I78  1  0.83068221  0.66400387  0.16304388  1
  I  I79  1  0.83183184  0.66671818  0.49992067  1
  I  I80  1  0.83077497  0.66253352  0.83874101  1
  I  I81  1  0.17150304  0.16605741  -0.00354297  1
  I  I82  1  0.16825420  0.16573091  0.33335230  1
  I  I83  1  0.17122975  0.16522414  0.66937104  1
  I  I84  1  0.17191601  0.50044961  -0.00019539  1
  I  I85  1  0.16549280  0.49843791  0.33370543  1
  I  I86  1  0.16292271  0.49943516  0.66662438  1
  I  I87  1  0.16636602  0.83409908  -0.00020697  1
  I  I88  1  0.17347055  0.83564670  0.33677823  1
  I  I89  1  0.17448825  0.83470769  0.66370291  1
  I  I90  1  0.50124761  0.15884163  0.00017951  1
  I  I91  1  0.50594144  0.16331386  0.33369865  1
  I  I92  1  0.50107397  0.16387117  0.66610535  1
  I  I93  1  0.50030942  0.50090413  0.00015098  1
  I  I94  1  0.50368375  0.50118591  0.33663178  1
  I  I95  1  0.50404363  0.50003559  0.66362271  1
  I  I96  1  0.50358901  0.84278080  0.00000206  1
  I  I97  1  0.49671493  0.83660931  0.33398676  1
  I  I98  1  0.49665593  0.83647567  0.66601015  1
  I  I99  1  0.82871107  0.17019997  0.00275172  1
  I  I100  1  0.82338253  0.17207280  0.33293311  1
  I  I101  1  0.82909935  0.16783498  0.66467497  1
  I  I102  1  0.82954915  0.49128546  0.00079675  1
  I  I103  1  0.83034491  0.49793173  0.33071628  1
  I  I104  1  0.83089472  0.49769532  0.66823580  1
  I  I105  1  0.83205572  0.83870205  -0.00001001  1
  I  I106  1  0.83134823  0.82773915  0.33339407  1
  I  I107  1  0.83045246  0.83371773  0.66652528  1
  I  I108  1  -0.00345664  0.17286106  0.17141509  1
  I  I109  1  -0.00279942  0.16593604  0.49747542  1
  I  I110  1  0.00163301  0.17005878  0.83114593  1
  I  I111  1  -0.00550905  0.49119848  0.16465144  1
  I  I112  1  -0.00019911  0.50023184  0.50030009  1
  I  I113  1  -0.00426666  0.49619387  0.83603473  1
  I  I114  1  0.00007370  0.83312469  0.16839193  1
  I  I115  1  0.00245784  0.83519362  0.50069678  1
  I  I116  1  0.00027123  0.83500375  0.83140248  1
  I  I117  1  0.33713086  0.16137991  0.17082218  1
  I  I118  1  0.33718272  0.16744678  0.49767555  1
  I  I119  1  0.33611050  0.16225492  0.83143609  1
  I  I120  1  0.33361263  0.49998076  0.16797825  1
  I  I121  1  0.33794234  0.49357223  0.50056362  1
  I  I122  1  0.33347396  0.50192554  0.83155193  1
  I  I123  1  0.33863947  0.84105423  0.16577658  1
  I  I124  1  0.33659603  0.83606542  0.50009195  1
  I  I125  1  0.33792934  0.83454611  0.83433060  1
  I  I126  1  0.66534012  0.16646914  0.16579524  1
  I  I127  1  0.66446500  0.16465842  0.50215943  1
  I  I128  1  0.66329613  0.16392062  0.83204019  1
  I  I129  1  0.66913373  0.49768585  0.16317974  1
  I  I130  1  0.66355600  0.50546855  0.50058215  1
  I  I131  1  0.66901232  0.49673123  0.83678625  1
  I  I132  1  0.66250664  0.83529988  0.17112894  1
  I  I133  1  0.66249786  0.83157878  0.49998874  1
  I  I134  1  0.66193361  0.84233907  0.82887439  1
