# generated using pymatgen
data_Cs27Sn13Pb14I81
_symmetry_space_group_name_H-M   'P 1'
_cell_length_a   18.97531082
_cell_length_b   18.97159679
_cell_length_c   18.98410179
_cell_angle_alpha   89.99864293
_cell_angle_beta   90.00079088
_cell_angle_gamma   90.00067058
_symmetry_Int_Tables_number   1
_chemical_formula_structural   Cs27Sn13Pb14I81
_chemical_formula_sum   'Cs27 Sn13 Pb14 I81'
_cell_volume   6834.12373941
_cell_formula_units_Z   1
loop_
 _symmetry_equiv_pos_site_id
 _symmetry_equiv_pos_as_xyz
  1  'x, y, z'
loop_
 _atom_site_type_symbol
 _atom_site_label
 _atom_site_symmetry_multiplicity
 _atom_site_fract_x
 _atom_site_fract_y
 _atom_site_fract_z
 _atom_site_occupancy
  Cs  Cs0  1  0.00421883  -0.00094072  -0.00155085  1
  Cs  Cs1  1  -0.00286433  0.00135977  0.33441079  1
  Cs  Cs2  1  0.00175280  -0.00508113  0.66693217  1
  Cs  Cs3  1  0.00118583  0.33520704  -0.00002928  1
  Cs  Cs4  1  -0.00003462  0.32998972  0.33599014  1
  Cs  Cs5  1  -0.00377235  0.33260302  0.66412903  1
  Cs  Cs6  1  -0.00475775  0.66510387  -0.00102225  1
  Cs  Cs7  1  0.00240603  0.67088930  0.33246779  1
  Cs  Cs8  1  0.00240112  0.67424811  0.66843505  1
  Cs  Cs9  1  0.33223152  0.00395755  -0.00026092  1
  Cs  Cs10  1  0.33424666  -0.00026124  0.33039339  1
  Cs  Cs11  1  0.33457955  -0.00091545  0.67026267  1
  Cs  Cs12  1  0.33254824  0.32874161  0.00096251  1
  Cs  Cs13  1  0.33407873  0.33724450  0.33194240  1
  Cs  Cs14  1  0.33319090  0.33652267  0.66702976  1
  Cs  Cs15  1  0.33278915  0.66686011  -0.00001770  1
  Cs  Cs16  1  0.33291278  0.66398090  0.33332729  1
  Cs  Cs17  1  0.33216618  0.66508687  0.66619510  1
  Cs  Cs18  1  0.66387472  0.00015281  0.00039533  1
  Cs  Cs19  1  0.66849484  -0.00042699  0.33597990  1
  Cs  Cs20  1  0.66533227  0.00186569  0.66385104  1
  Cs  Cs21  1  0.66620447  0.33553667  0.00149843  1
  Cs  Cs22  1  0.66640677  0.33478842  0.33402089  1
  Cs  Cs23  1  0.66931080  0.33113267  0.66579866  1
  Cs  Cs24  1  0.67222442  0.66454193  -0.00009226  1
  Cs  Cs25  1  0.66597919  0.66618568  0.32854864  1
  Cs  Cs26  1  0.66500160  0.66718695  0.67070185  1
  Sn  Sn27  1  0.83319877  0.16677005  0.16638972  1
  Sn  Sn28  1  0.83346825  0.50044321  0.50006699  1
  Sn  Sn29  1  0.16706015  0.49980782  0.83379867  1
  Sn  Sn30  1  0.49942897  0.50030614  0.83342093  1
  Sn  Sn31  1  0.16732258  0.83264160  0.16666545  1
  Sn  Sn32  1  0.83342971  0.16645876  0.83340362  1
  Sn  Sn33  1  0.83349207  0.16728782  0.50022403  1
  Sn  Sn34  1  0.49989982  0.83361967  0.49973686  1
  Sn  Sn35  1  0.49933536  0.16643857  0.49991305  1
  Sn  Sn36  1  0.49985469  0.83257001  0.83369430  1
  Sn  Sn37  1  0.49929400  0.83329421  0.16653477  1
  Sn  Sn38  1  0.16666758  0.50050123  0.16607621  1
  Sn  Sn39  1  0.16710014  0.16667944  0.50027001  1
  Pb  Pb40  1  0.16895324  0.83120274  0.83563438  1
  Pb  Pb41  1  0.16500620  0.16665143  0.16839745  1
  Pb  Pb42  1  0.50196295  0.16469203  0.16911437  1
  Pb  Pb43  1  0.50185262  0.50023520  0.50179404  1
  Pb  Pb44  1  0.83080524  0.83604123  0.83336341  1
  Pb  Pb45  1  0.49815057  0.50207786  0.16413027  1
  Pb  Pb46  1  0.16943546  0.83566342  0.49787800  1
  Pb  Pb47  1  0.83354163  0.49843770  0.83146274  1
  Pb  Pb48  1  0.16457916  0.49862097  0.50016279  1
  Pb  Pb49  1  0.83112016  0.83329348  0.50004767  1
  Pb  Pb50  1  0.83346762  0.83547049  0.16655062  1
  Pb  Pb51  1  0.16455787  0.16899922  0.83094830  1
  Pb  Pb52  1  0.50146525  0.16692094  0.83146592  1
  Pb  Pb53  1  0.83592192  0.49795454  0.16899573  1
  I  I54  1  0.16965282  -0.00247537  0.16923393  1
  I  I55  1  0.16015171  0.00371770  0.49822453  1
  I  I56  1  0.16666742  0.00004846  0.83409483  1
  I  I57  1  0.16377960  0.33577870  0.16430712  1
  I  I58  1  0.16973091  0.33030709  0.49776321  1
  I  I59  1  0.17373537  0.33679640  0.83995375  1
  I  I60  1  0.17082034  0.66671230  0.16453505  1
  I  I61  1  0.16550361  0.66678472  0.50111040  1
  I  I62  1  0.16698533  0.66319131  0.83251865  1
  I  I63  1  0.49371895  -0.00357882  0.16163693  1
  I  I64  1  0.50280064  0.00039452  0.50170811  1
  I  I65  1  0.50299307  -0.00267426  0.83408185  1
  I  I66  1  0.49938852  0.33336330  0.16677040  1
  I  I67  1  0.50042550  0.33058539  0.50249555  1
  I  I68  1  0.49805608  0.33587652  0.83033828  1
  I  I69  1  0.49921420  0.67042659  0.17312532  1
  I  I70  1  0.50219406  0.66953680  0.49869664  1
  I  I71  1  0.49664488  0.66715630  0.82998603  1
  I  I72  1  0.83446657  0.00358322  0.17149330  1
  I  I73  1  0.83402706  0.00365052  0.49941961  1
  I  I74  1  0.83203384  0.00420131  0.82903179  1
  I  I75  1  0.83477364  0.32984261  0.16643486  1
  I  I76  1  0.83111588  0.33085816  0.50022268  1
  I  I77  1  0.83074326  0.33032539  0.83281701  1
  I  I78  1  0.83163902  0.66654698  0.16895567  1
  I  I79  1  0.83210891  0.66403871  0.50063687  1
  I  I80  1  0.83423110  0.66652915  0.83096411  1
  I  I81  1  0.16387297  0.16524616  -0.00003710  1
  I  I82  1  0.16382736  0.16822917  0.33639819  1
  I  I83  1  0.16458008  0.16850641  0.66297294  1
  I  I84  1  0.16994378  0.50292128  0.00001243  1
  I  I85  1  0.16459642  0.50232553  0.33094165  1
  I  I86  1  0.16967614  0.49663116  0.66911066  1
  I  I87  1  0.17224604  0.83464574  0.00347451  1
  I  I88  1  0.17202740  0.82716087  0.33009581  1
  I  I89  1  0.16723154  0.83285926  0.66671890  1
  I  I90  1  0.50304607  0.16553396  0.00000117  1
  I  I91  1  0.50281550  0.16201181  0.33737887  1
  I  I92  1  0.50324913  0.16153057  0.66323739  1
  I  I93  1  0.50063662  0.50411112  -0.00383381  1
  I  I94  1  0.49956988  0.50030405  0.33330089  1
  I  I95  1  0.49459557  0.50493082  0.66958666  1
  I  I96  1  0.49673157  0.82926993  0.00003143  1
  I  I97  1  0.49725853  0.83949067  0.33340423  1
  I  I98  1  0.50255034  0.83443336  0.66657260  1
  I  I99  1  0.83293670  0.16550679  -0.00005789  1
  I  I100  1  0.83361150  0.16954119  0.33488874  1
  I  I101  1  0.83206400  0.17133278  0.66513282  1
  I  I102  1  0.83177762  0.49707479  0.00000210  1
  I  I103  1  0.83308921  0.49255765  0.33663000  1
  I  I104  1  0.83371845  0.49143979  0.66385268  1
  I  I105  1  0.83045589  0.83566765  0.00001477  1
  I  I106  1  0.83064240  0.83600159  0.33335511  1
  I  I107  1  0.83198230  0.83557900  0.66661721  1
  I  I108  1  -0.00295227  0.16512264  0.17061763  1
  I  I109  1  -0.00129467  0.17245086  0.49918328  1
  I  I110  1  -0.00345453  0.16923146  0.83074685  1
  I  I111  1  0.00370566  0.50631320  0.16020869  1
  I  I112  1  -0.00307701  0.49098864  0.50092195  1
  I  I113  1  0.00257021  0.49636047  0.83642677  1
  I  I114  1  0.00304959  0.83085056  0.16745626  1
  I  I115  1  0.00030019  0.83463199  0.49806045  1
  I  I116  1  0.00032589  0.83276720  0.83450470  1
  I  I117  1  0.33332374  0.16777112  0.16928773  1
  I  I118  1  0.33411509  0.16195067  0.49989002  1
  I  I119  1  0.33334138  0.16543466  0.83094057  1
  I  I120  1  0.33010853  0.49978657  0.16754545  1
  I  I121  1  0.33332192  0.49762082  0.49916341  1
  I  I122  1  0.33357885  0.50338181  0.83479924  1
  I  I123  1  0.33399279  0.83063212  0.16781193  1
  I  I124  1  0.33752550  0.83836107  0.50237887  1
  I  I125  1  0.33718272  0.83347730  0.83012931  1
  I  I126  1  0.66995352  0.16512317  0.16926428  1
  I  I127  1  0.66725420  0.16567961  0.50045170  1
  I  I128  1  0.66945907  0.16795679  0.82991835  1
  I  I129  1  0.66675471  0.50062429  0.16604619  1
  I  I130  1  0.66947639  0.49269890  0.50202140  1
  I  I131  1  0.66418048  0.50315280  0.83048533  1
  I  I132  1  0.66338537  0.83631748  0.16744380  1
  I  I133  1  0.66278079  0.83964201  0.49791206  1
  I  I134  1  0.66227623  0.82666493  0.83558445  1
