# generated using pymatgen
data_Cs27Sn13Pb14I81
_symmetry_space_group_name_H-M   'P 1'
_cell_length_a   18.97785449
_cell_length_b   18.97314652
_cell_length_c   18.97920193
_cell_angle_alpha   89.99989658
_cell_angle_beta   89.99913693
_cell_angle_gamma   89.99895313
_symmetry_Int_Tables_number   1
_chemical_formula_structural   Cs27Sn13Pb14I81
_chemical_formula_sum   'Cs27 Sn13 Pb14 I81'
_cell_volume   6833.83390872
_cell_formula_units_Z   1
loop_
 _symmetry_equiv_pos_site_id
 _symmetry_equiv_pos_as_xyz
  1  'x, y, z'
loop_
 _atom_site_type_symbol
 _atom_site_label
 _atom_site_symmetry_multiplicity
 _atom_site_fract_x
 _atom_site_fract_y
 _atom_site_fract_z
 _atom_site_occupancy
  Cs  Cs0  1  -0.01047281  0.00689543  -0.00561050  1
  Cs  Cs1  1  0.00000261  0.00127257  0.32934999  1
  Cs  Cs2  1  0.00046108  0.00716228  0.67552589  1
  Cs  Cs3  1  0.00876107  0.32936939  0.00051529  1
  Cs  Cs4  1  -0.00035973  0.32590799  0.33249995  1
  Cs  Cs5  1  -0.00323507  0.32584897  0.66704741  1
  Cs  Cs6  1  0.00124847  0.66611284  -0.00178117  1
  Cs  Cs7  1  0.00151068  0.66802284  0.33627309  1
  Cs  Cs8  1  0.00296203  0.66661017  0.66279366  1
  Cs  Cs9  1  0.33501392  -0.00190178  -0.00190665  1
  Cs  Cs10  1  0.33428171  -0.00281953  0.33587742  1
  Cs  Cs11  1  0.33215219  -0.00119047  0.66549441  1
  Cs  Cs12  1  0.33171830  0.33546611  0.00142266  1
  Cs  Cs13  1  0.33356477  0.33119048  0.33145071  1
  Cs  Cs14  1  0.33404597  0.33127659  0.66646871  1
  Cs  Cs15  1  0.33265200  0.66500332  -0.00074625  1
  Cs  Cs16  1  0.33345587  0.66794913  0.33420348  1
  Cs  Cs17  1  0.33301477  0.66851655  0.66560714  1
  Cs  Cs18  1  0.67186351  -0.00114233  -0.00058130  1
  Cs  Cs19  1  0.66642209  0.00007576  0.33134395  1
  Cs  Cs20  1  0.66671514  0.00207830  0.66991766  1
  Cs  Cs21  1  0.66382711  0.33621078  -0.00060789  1
  Cs  Cs22  1  0.66634267  0.33548264  0.33594565  1
  Cs  Cs23  1  0.66740893  0.33532783  0.66522407  1
  Cs  Cs24  1  0.66566898  0.66617072  0.00062541  1
  Cs  Cs25  1  0.66691455  0.66607557  0.33300371  1
  Cs  Cs26  1  0.66628566  0.66477543  0.66632142  1
  Sn  Sn27  1  0.50039036  0.49939485  0.83331622  1
  Sn  Sn28  1  0.83333050  0.50026550  0.16588477  1
  Sn  Sn29  1  0.50046288  0.83239787  0.49930499  1
  Sn  Sn30  1  0.49993868  0.16755377  0.83429708  1
  Sn  Sn31  1  0.16634260  0.83272445  0.49915517  1
  Sn  Sn32  1  0.50047185  0.50021918  0.16681720  1
  Sn  Sn33  1  0.49888588  0.50086104  0.49982669  1
  Sn  Sn34  1  0.49930207  0.83329257  0.16730653  1
  Sn  Sn35  1  0.16690388  0.83322705  0.16666513  1
  Sn  Sn36  1  0.83339752  0.83352925  0.50023517  1
  Sn  Sn37  1  0.83304772  0.50053720  0.83447179  1
  Sn  Sn38  1  0.16737114  0.49991264  0.49968420  1
  Sn  Sn39  1  0.50003112  0.16650135  0.16578980  1
  Pb  Pb40  1  0.83358607  0.50098562  0.49980398  1
  Pb  Pb41  1  0.83046891  0.17000028  0.16674654  1
  Pb  Pb42  1  0.83303794  0.16292924  0.49979899  1
  Pb  Pb43  1  0.16691980  0.16605915  0.49978461  1
  Pb  Pb44  1  0.17002544  0.16682346  0.83360046  1
  Pb  Pb45  1  0.83031037  0.17013024  0.83357876  1
  Pb  Pb46  1  0.83334453  0.83127048  0.16806199  1
  Pb  Pb47  1  0.16680456  0.50003415  0.83047808  1
  Pb  Pb48  1  0.16939176  0.16294869  0.16666933  1
  Pb  Pb49  1  0.50010264  0.16659376  0.49987618  1
  Pb  Pb50  1  0.49999929  0.83289664  0.83357453  1
  Pb  Pb51  1  0.16651491  0.83324189  0.83371830  1
  Pb  Pb52  1  0.83324108  0.83036094  0.83065105  1
  Pb  Pb53  1  0.16671710  0.50168864  0.16888337  1
  I  I54  1  0.17256787  -0.00513104  0.17594579  1
  I  I55  1  0.16980030  -0.00434445  0.49603192  1
  I  I56  1  0.16915423  0.00000185  0.82964824  1
  I  I57  1  0.16690689  0.33335349  0.16832230  1
  I  I58  1  0.17276930  0.33649138  0.50072248  1
  I  I59  1  0.16494670  0.33378597  0.83123152  1
  I  I60  1  0.17343130  0.66968340  0.16987498  1
  I  I61  1  0.16849850  0.66747362  0.49714561  1
  I  I62  1  0.17005894  0.66639138  0.83403651  1
  I  I63  1  0.49470786  -0.00105566  0.16790240  1
  I  I64  1  0.49879869  -0.00362653  0.49732958  1
  I  I65  1  0.49856112  0.00246167  0.83550601  1
  I  I66  1  0.50468423  0.33467621  0.16678207  1
  I  I67  1  0.49653046  0.33687482  0.49793556  1
  I  I68  1  0.50349002  0.33501538  0.83553861  1
  I  I69  1  0.50040669  0.66620887  0.16762981  1
  I  I70  1  0.49945587  0.66640932  0.49775205  1
  I  I71  1  0.50340703  0.66316831  0.83465218  1
  I  I72  1  0.83267783  -0.00012458  0.16934321  1
  I  I73  1  0.83110356  -0.00536740  0.49794709  1
  I  I74  1  0.83286690  0.00029269  0.83102139  1
  I  I75  1  0.82776995  0.33824812  0.16536072  1
  I  I76  1  0.83294773  0.33362627  0.50068779  1
  I  I77  1  0.83011253  0.33791708  0.83414030  1
  I  I78  1  0.82533829  0.66337483  0.16410845  1
  I  I79  1  0.83225625  0.66896850  0.49984924  1
  I  I80  1  0.82425957  0.66259255  0.83702692  1
  I  I81  1  0.16633836  0.16612938  0.00035497  1
  I  I82  1  0.16952354  0.16942379  0.33315842  1
  I  I83  1  0.16882782  0.16479708  0.66657243  1
  I  I84  1  0.16890011  0.50205173  0.00023635  1
  I  I85  1  0.17124987  0.50379528  0.33686707  1
  I  I86  1  0.17139125  0.50817769  0.66240128  1
  I  I87  1  0.17516926  0.83154002  0.00363961  1
  I  I88  1  0.16925467  0.82876918  0.33441116  1
  I  I89  1  0.16935672  0.82869788  0.66265800  1
  I  I90  1  0.49946792  0.17038907  0.00066255  1
  I  I91  1  0.49981757  0.16885980  0.33028796  1
  I  I92  1  0.50070154  0.17031700  0.66928954  1
  I  I93  1  0.50450316  0.50007965  0.00064964  1
  I  I94  1  0.50106123  0.50061702  0.33302910  1
  I  I95  1  0.50083919  0.50010166  0.66626006  1
  I  I96  1  0.49528230  0.83066718  0.00353519  1
  I  I97  1  0.49936267  0.83053307  0.33347080  1
  I  I98  1  0.49866706  0.83023200  0.66326756  1
  I  I99  1  0.83408383  0.16137963  0.00011236  1
  I  I100  1  0.83033613  0.17105728  0.33309617  1
  I  I101  1  0.83065504  0.16880715  0.66688812  1
  I  I102  1  0.82266510  0.50171121  0.00031285  1
  I  I103  1  0.82788115  0.50231272  0.33098649  1
  I  I104  1  0.82840776  0.50234605  0.66868708  1
  I  I105  1  0.83298626  0.83400577  0.00010044  1
  I  I106  1  0.83188643  0.82837221  0.33612711  1
  I  I107  1  0.83149835  0.82981436  0.66235366  1
  I  I108  1  -0.00004022  0.16705297  0.16762787  1
  I  I109  1  0.00007792  0.16983314  0.50056673  1
  I  I110  1  -0.00037706  0.16701574  0.83192872  1
  I  I111  1  -0.00243335  0.50402250  0.16375602  1
  I  I112  1  0.00234137  0.50662392  0.49998975  1
  I  I113  1  -0.00297057  0.50313979  0.83674198  1
  I  I114  1  0.00250061  0.82879258  0.17354096  1
  I  I115  1  0.00110485  0.82601393  0.49545175  1
  I  I116  1  -0.00015180  0.83072725  0.83295322  1
  I  I117  1  0.33792732  0.17321824  0.16360103  1
  I  I118  1  0.33382436  0.16353896  0.50119279  1
  I  I119  1  0.33817965  0.17375811  0.83643873  1
  I  I120  1  0.33700421  0.49845855  0.16429875  1
  I  I121  1  0.33541410  0.50757209  0.50029391  1
  I  I122  1  0.33710847  0.49668632  0.83595146  1
  I  I123  1  0.33533539  0.83170455  0.17465309  1
  I  I124  1  0.33429092  0.82905143  0.49585504  1
  I  I125  1  0.33371908  0.83200817  0.82916283  1
  I  I126  1  0.66193886  0.16057198  0.16338941  1
  I  I127  1  0.66605359  0.16755931  0.50009195  1
  I  I128  1  0.66249952  0.16755654  0.83681929  1
  I  I129  1  0.66408195  0.50201100  0.16826421  1
  I  I130  1  0.66342539  0.50399603  0.49996833  1
  I  I131  1  0.66458845  0.49687759  0.83147665  1
  I  I132  1  0.66315776  0.83426775  0.17118578  1
  I  I133  1  0.66491794  0.82824730  0.49619883  1
  I  I134  1  0.66629139  0.83521586  0.83205336  1
