# generated using pymatgen
data_Cs27Sn14Pb13I81
_symmetry_space_group_name_H-M   'P 1'
_cell_length_a   18.97305809
_cell_length_b   18.97290773
_cell_length_c   18.98241752
_cell_angle_alpha   89.99988573
_cell_angle_beta   90.00037538
_cell_angle_gamma   90.00096318
_symmetry_Int_Tables_number   1
_chemical_formula_structural   Cs27Sn14Pb13I81
_chemical_formula_sum   'Cs27 Sn14 Pb13 I81'
_cell_volume   6833.17828915
_cell_formula_units_Z   1
loop_
 _symmetry_equiv_pos_site_id
 _symmetry_equiv_pos_as_xyz
  1  'x, y, z'
loop_
 _atom_site_type_symbol
 _atom_site_label
 _atom_site_symmetry_multiplicity
 _atom_site_fract_x
 _atom_site_fract_y
 _atom_site_fract_z
 _atom_site_occupancy
  Cs  Cs0  1  -0.00034533  -0.00118495  0.00062312  1
  Cs  Cs1  1  0.00165986  -0.00053264  0.33272951  1
  Cs  Cs2  1  -0.00291433  0.00018238  0.66812352  1
  Cs  Cs3  1  0.00151387  0.34217674  -0.00759604  1
  Cs  Cs4  1  -0.00285560  0.33703870  0.33503365  1
  Cs  Cs5  1  -0.00756258  0.33965663  0.67394589  1
  Cs  Cs6  1  0.00148304  0.66239767  0.00099178  1
  Cs  Cs7  1  0.00934493  0.66200694  0.33385338  1
  Cs  Cs8  1  0.00392032  0.66344020  0.66567284  1
  Cs  Cs9  1  0.33363129  0.00130062  -0.00126435  1
  Cs  Cs10  1  0.33189001  0.00195477  0.33283062  1
  Cs  Cs11  1  0.33392132  0.00043986  0.66855149  1
  Cs  Cs12  1  0.33209374  0.33063744  -0.00230754  1
  Cs  Cs13  1  0.33694992  0.32856305  0.33295384  1
  Cs  Cs14  1  0.33184686  0.33204092  0.66841329  1
  Cs  Cs15  1  0.33352063  0.66668254  0.00071687  1
  Cs  Cs16  1  0.33049826  0.66736217  0.33466878  1
  Cs  Cs17  1  0.33400453  0.66656254  0.66418568  1
  Cs  Cs18  1  0.66634072  -0.00210778  0.00104938  1
  Cs  Cs19  1  0.66693874  0.00007236  0.33253816  1
  Cs  Cs20  1  0.66834228  -0.00187368  0.66808424  1
  Cs  Cs21  1  0.66744806  0.33466141  0.00152377  1
  Cs  Cs22  1  0.66503819  0.33272260  0.33338569  1
  Cs  Cs23  1  0.67371778  0.33183000  0.66529439  1
  Cs  Cs24  1  0.66611605  0.66926212  0.00031929  1
  Cs  Cs25  1  0.66575317  0.66755511  0.33263329  1
  Cs  Cs26  1  0.66429060  0.67059209  0.66639317  1
  Sn  Sn27  1  0.16603411  0.16672299  0.16730710  1
  Sn  Sn28  1  0.50052183  0.83380195  0.49890922  1
  Sn  Sn29  1  0.16649945  0.16680557  0.49987403  1
  Sn  Sn30  1  0.50028715  0.49969092  0.83311911  1
  Sn  Sn31  1  0.50002741  0.50015759  0.16661559  1
  Sn  Sn32  1  0.83370185  0.16630456  0.16655780  1
  Sn  Sn33  1  0.83319234  0.83329848  0.49894926  1
  Sn  Sn34  1  0.50034525  0.83345204  0.16765522  1
  Sn  Sn35  1  0.50009017  0.49971215  0.50018085  1
  Sn  Sn36  1  0.50017211  0.16634862  0.16726936  1
  Sn  Sn37  1  0.83319178  0.83378192  0.16744526  1
  Sn  Sn38  1  0.83466675  0.83333682  0.83366088  1
  Sn  Sn39  1  0.16585887  0.83369472  0.83338429  1
  Sn  Sn40  1  0.49949481  0.16631055  0.49956638  1
  Pb  Pb41  1  0.83086645  0.50317216  0.49968413  1
  Pb  Pb42  1  0.83059258  0.50325268  0.83336188  1
  Pb  Pb43  1  0.83134917  0.50051887  0.16685930  1
  Pb  Pb44  1  0.83329114  0.16477127  0.49797628  1
  Pb  Pb45  1  0.16927108  0.50274258  0.83323539  1
  Pb  Pb46  1  0.16654538  0.16506595  0.83294539  1
  Pb  Pb47  1  0.16696218  0.83546570  0.50169303  1
  Pb  Pb48  1  0.83317329  0.16448514  0.83656468  1
  Pb  Pb49  1  0.16674284  0.83509091  0.16522049  1
  Pb  Pb50  1  0.16967317  0.49644789  0.16691568  1
  Pb  Pb51  1  0.16920161  0.49623508  0.49997106  1
  Pb  Pb52  1  0.50024790  0.83202119  0.83339678  1
  Pb  Pb53  1  0.50026792  0.16909982  0.83300852  1
  I  I54  1  0.17251541  0.00307194  0.16930585  1
  I  I55  1  0.17427328  0.00303222  0.49594821  1
  I  I56  1  0.16523862  -0.00291394  0.83385986  1
  I  I57  1  0.16684446  0.32823020  0.17002509  1
  I  I58  1  0.17361027  0.32834698  0.49462081  1
  I  I59  1  0.16864885  0.33349262  0.83420122  1
  I  I60  1  0.16708139  0.66661789  0.16413102  1
  I  I61  1  0.16734669  0.66675855  0.50244199  1
  I  I62  1  0.16212667  0.67058068  0.83366184  1
  I  I63  1  0.50074493  0.00007647  0.17235054  1
  I  I64  1  0.49985744  -0.00024176  0.49340271  1
  I  I65  1  0.49998087  -0.00020378  0.83354845  1
  I  I66  1  0.49984242  0.33235223  0.16910093  1
  I  I67  1  0.49436645  0.33275211  0.49630834  1
  I  I68  1  0.49829316  0.33707922  0.83486744  1
  I  I69  1  0.50539520  0.66763293  0.16805147  1
  I  I70  1  0.50539436  0.66741576  0.49817574  1
  I  I71  1  0.50047098  0.66415835  0.83390228  1
  I  I72  1  0.82716200  -0.00093713  0.16605047  1
  I  I73  1  0.82641248  -0.00351460  0.50231537  1
  I  I74  1  0.83400506  -0.00404053  0.83101734  1
  I  I75  1  0.83093410  0.33026381  0.16802566  1
  I  I76  1  0.83244122  0.33316474  0.49869274  1
  I  I77  1  0.83296445  0.33366027  0.83408744  1
  I  I78  1  0.82667610  0.67060288  0.16514864  1
  I  I79  1  0.82689630  0.67176706  0.49790247  1
  I  I80  1  0.83607723  0.67143714  0.83701556  1
  I  I81  1  0.16975925  0.16423149  0.00321660  1
  I  I82  1  0.17060409  0.16389542  0.33262591  1
  I  I83  1  0.17564823  0.16367362  0.66344629  1
  I  I84  1  0.17051738  0.49776579  0.00011332  1
  I  I85  1  0.16767670  0.50609542  0.33338493  1
  I  I86  1  0.17096798  0.49845485  0.66658172  1
  I  I87  1  0.16476668  0.83626281  -0.00252950  1
  I  I88  1  0.16498665  0.83248451  0.33336044  1
  I  I89  1  0.16440165  0.83605604  0.66939578  1
  I  I90  1  0.49907652  0.16542382  0.00382600  1
  I  I91  1  0.49961954  0.16956620  0.33247581  1
  I  I92  1  0.49432425  0.16525196  0.66290918  1
  I  I93  1  0.50041994  0.50128455  0.00127792  1
  I  I94  1  0.50071637  0.49967228  0.33322361  1
  I  I95  1  0.49930500  0.50275556  0.66549089  1
  I  I96  1  0.50238616  0.83357251  0.00304953  1
  I  I97  1  0.50681980  0.83030782  0.33305896  1
  I  I98  1  0.50235133  0.83304404  0.66379252  1
  I  I99  1  0.83054299  0.16028687  0.00498177  1
  I  I100  1  0.83138350  0.16009182  0.32983288  1
  I  I101  1  0.83258165  0.16462354  0.66642155  1
  I  I102  1  0.82905291  0.50101858  0.00014970  1
  I  I103  1  0.83077263  0.50170585  0.33324380  1
  I  I104  1  0.82955895  0.50011490  0.66656832  1
  I  I105  1  0.83113364  0.83799917  0.00114267  1
  I  I106  1  0.82520051  0.83847516  0.33252493  1
  I  I107  1  0.83074764  0.83285523  0.66618668  1
  I  I108  1  -0.00026333  0.15732813  0.17107259  1
  I  I109  1  0.00230659  0.16135637  0.49433807  1
  I  I110  1  -0.00013524  0.16730203  0.83253835  1
  I  I111  1  0.00016887  0.50068532  0.16504534  1
  I  I112  1  0.00004295  0.50048475  0.50100904  1
  I  I113  1  -0.00012760  0.49859838  0.83362027  1
  I  I114  1  -0.00311252  0.83941904  0.16805699  1
  I  I115  1  -0.00277392  0.83701591  0.49799014  1
  I  I116  1  -0.00122593  0.83603694  0.83376360  1
  I  I117  1  0.33491894  0.16682837  0.17043924  1
  I  I118  1  0.33541451  0.16476658  0.49199026  1
  I  I119  1  0.33354026  0.16308222  0.83805335  1
  I  I120  1  0.33851774  0.50284890  0.16713247  1
  I  I121  1  0.33818576  0.50717207  0.49910040  1
  I  I122  1  0.33730451  0.50303586  0.83397348  1
  I  I123  1  0.33689744  0.83342880  0.16905412  1
  I  I124  1  0.33699380  0.83109893  0.49736768  1
  I  I125  1  0.33182912  0.83173228  0.83350409  1
  I  I126  1  0.66526612  0.16576841  0.16985074  1
  I  I127  1  0.66321582  0.16883508  0.49604280  1
  I  I128  1  0.66657469  0.16422081  0.83273465  1
  I  I129  1  0.66228977  0.49596535  0.16722739  1
  I  I130  1  0.66184693  0.49422847  0.49906124  1
  I  I131  1  0.66267175  0.50223926  0.83405652  1
  I  I132  1  0.66570681  0.83738500  0.16452013  1
  I  I133  1  0.66518602  0.83495494  0.50212474  1
  I  I134  1  0.66898290  0.83134177  0.83374600  1
