# generated using pymatgen
data_Cs27Sn13Pb14I81
_symmetry_space_group_name_H-M   'P 1'
_cell_length_a   18.98496911
_cell_length_b   18.98912831
_cell_length_c   19.00007124
_cell_angle_alpha   90.00200748
_cell_angle_beta   90.00155088
_cell_angle_gamma   89.99811411
_symmetry_Int_Tables_number   1
_chemical_formula_structural   Cs27Sn13Pb14I81
_chemical_formula_sum   'Cs27 Sn13 Pb14 I81'
_cell_volume   6849.67794622
_cell_formula_units_Z   1
loop_
 _symmetry_equiv_pos_site_id
 _symmetry_equiv_pos_as_xyz
  1  'x, y, z'
loop_
 _atom_site_type_symbol
 _atom_site_label
 _atom_site_symmetry_multiplicity
 _atom_site_fract_x
 _atom_site_fract_y
 _atom_site_fract_z
 _atom_site_occupancy
  Cs  Cs0  1  0.00116672  0.00020289  -0.00243214  1
  Cs  Cs1  1  -0.00008845  0.00413483  0.33778455  1
  Cs  Cs2  1  0.00111676  0.00151282  0.66597023  1
  Cs  Cs3  1  -0.00289761  0.33885094  0.00189223  1
  Cs  Cs4  1  -0.00240155  0.32946541  0.33302772  1
  Cs  Cs5  1  0.00165009  0.33044987  0.66438135  1
  Cs  Cs6  1  0.00637905  0.65831433  0.00022767  1
  Cs  Cs7  1  0.00624976  0.66541311  0.33188357  1
  Cs  Cs8  1  0.00272891  0.66577118  0.66940127  1
  Cs  Cs9  1  0.33380311  0.00279293  -0.00008602  1
  Cs  Cs10  1  0.33451215  0.00007919  0.33167419  1
  Cs  Cs11  1  0.33255105  0.00037475  0.66745867  1
  Cs  Cs12  1  0.33570688  0.32758714  -0.00229760  1
  Cs  Cs13  1  0.33376247  0.33424620  0.33536378  1
  Cs  Cs14  1  0.33693138  0.34139339  0.66561244  1
  Cs  Cs15  1  0.32340305  0.66698323  0.00261784  1
  Cs  Cs16  1  0.33010374  0.66335981  0.33321833  1
  Cs  Cs17  1  0.32598542  0.65802513  0.66550721  1
  Cs  Cs18  1  0.66570902  -0.00125415  -0.00051467  1
  Cs  Cs19  1  0.66662965  -0.00141648  0.33333195  1
  Cs  Cs20  1  0.66684246  -0.00220366  0.66806524  1
  Cs  Cs21  1  0.66823100  0.33654904  -0.00141192  1
  Cs  Cs22  1  0.66876379  0.33243565  0.33174480  1
  Cs  Cs23  1  0.66271830  0.33858050  0.67010386  1
  Cs  Cs24  1  0.66842204  0.67059764  0.00061467  1
  Cs  Cs25  1  0.66524689  0.66961894  0.33606320  1
  Cs  Cs26  1  0.66763791  0.66803906  0.66353611  1
  Sn  Sn27  1  0.50000061  0.83313113  0.83307889  1
  Sn  Sn28  1  0.83293383  0.83243002  0.49992718  1
  Sn  Sn29  1  0.50050153  0.83301673  0.16660600  1
  Sn  Sn30  1  0.16695321  0.16607756  0.16597765  1
  Sn  Sn31  1  0.16574136  0.16632452  0.83403068  1
  Sn  Sn32  1  0.49979543  0.16667452  0.16745454  1
  Sn  Sn33  1  0.83376212  0.16600994  0.83344059  1
  Sn  Sn34  1  0.50055779  0.16585856  0.49953409  1
  Sn  Sn35  1  0.50057145  0.50036857  0.16621958  1
  Sn  Sn36  1  0.49994444  0.83399402  0.50028215  1
  Sn  Sn37  1  0.83286478  0.83396377  0.83362841  1
  Sn  Sn38  1  0.83334132  0.83357918  0.16658370  1
  Sn  Sn39  1  0.83307133  0.50113121  0.49977586  1
  Pb  Pb40  1  0.16642532  0.83515564  0.83333500  1
  Pb  Pb41  1  0.16981122  0.16643874  0.50023414  1
  Pb  Pb42  1  0.50030208  0.50434488  0.83634750  1
  Pb  Pb43  1  0.50157227  0.50068412  0.49795086  1
  Pb  Pb44  1  0.83120360  0.50310864  0.16886467  1
  Pb  Pb45  1  0.83269441  0.16457825  0.16465718  1
  Pb  Pb46  1  0.16663185  0.83584862  0.16680308  1
  Pb  Pb47  1  0.83306844  0.50090211  0.83130665  1
  Pb  Pb48  1  0.16686583  0.83351587  0.49999225  1
  Pb  Pb49  1  0.16939123  0.49630067  0.16676796  1
  Pb  Pb50  1  0.50033010  0.16509427  0.83326793  1
  Pb  Pb51  1  0.83057018  0.16607793  0.50247935  1
  Pb  Pb52  1  0.16308416  0.49980025  0.49961597  1
  Pb  Pb53  1  0.16665717  0.49605872  0.83349424  1
  I  I54  1  0.17396616  0.00342194  0.16284324  1
  I  I55  1  0.16167655  0.00031086  0.49976549  1
  I  I56  1  0.16564253  0.00301093  0.83780534  1
  I  I57  1  0.17161768  0.32851152  0.16192168  1
  I  I58  1  0.16684207  0.33293151  0.50077476  1
  I  I59  1  0.16086675  0.32799569  0.83829399  1
  I  I60  1  0.16708378  0.66655844  0.16690462  1
  I  I61  1  0.17254776  0.66661532  0.49979010  1
  I  I62  1  0.16684399  0.66655878  0.83287386  1
  I  I63  1  0.49943556  -0.00050904  0.16753628  1
  I  I64  1  0.50520511  -0.00122845  0.49500090  1
  I  I65  1  0.50180839  -0.00299613  0.83741262  1
  I  I66  1  0.49441226  0.33196120  0.17224833  1
  I  I67  1  0.50105603  0.33095805  0.49571876  1
  I  I68  1  0.49948771  0.33337547  0.83258816  1
  I  I69  1  0.50677571  0.66845382  0.16699794  1
  I  I70  1  0.50330533  0.67027298  0.49914208  1
  I  I71  1  0.50917462  0.67234404  0.83089307  1
  I  I72  1  0.82707228  -0.00348723  0.17141486  1
  I  I73  1  0.83086860  -0.00341873  0.49836660  1
  I  I74  1  0.83295405  -0.00136289  0.83120520  1
  I  I75  1  0.83246834  0.33324010  0.16684128  1
  I  I76  1  0.83153898  0.33491978  0.50170020  1
  I  I77  1  0.83776250  0.33052069  0.83207831  1
  I  I78  1  0.82666909  0.67139428  0.16131050  1
  I  I79  1  0.82551338  0.66924509  0.50164161  1
  I  I80  1  0.82699018  0.67077061  0.83466591  1
  I  I81  1  0.17101911  0.16447653  0.00040730  1
  I  I82  1  0.16974373  0.16623711  0.33044385  1
  I  I83  1  0.16224541  0.16479043  0.66962737  1
  I  I84  1  0.16552453  0.50335634  0.00034501  1
  I  I85  1  0.16717072  0.49813327  0.33298700  1
  I  I86  1  0.16891144  0.49815840  0.66658114  1
  I  I87  1  0.16762012  0.83333564  0.00011684  1
  I  I88  1  0.16581531  0.83663589  0.33325875  1
  I  I89  1  0.16774279  0.83717941  0.66673158  1
  I  I90  1  0.49834042  0.16513250  0.00276831  1
  I  I91  1  0.49510117  0.16183344  0.33200708  1
  I  I92  1  0.50114204  0.16107875  0.66445367  1
  I  I93  1  0.50123053  0.49592464  0.00408212  1
  I  I94  1  0.50143457  0.50339602  0.33036119  1
  I  I95  1  0.50033008  0.49769389  0.66656278  1
  I  I96  1  0.50704444  0.83478523  0.00072844  1
  I  I97  1  0.50639015  0.83538255  0.33296440  1
  I  I98  1  0.50791481  0.84135807  0.66612386  1
  I  I99  1  0.83173438  0.16021425  -0.00308914  1
  I  I100  1  0.83643890  0.16627922  0.33338133  1
  I  I101  1  0.83802046  0.16069986  0.67002303  1
  I  I102  1  0.83297443  0.50014351  0.00020941  1
  I  I103  1  0.83116269  0.50441716  0.33647014  1
  I  I104  1  0.83060023  0.50572904  0.66363003  1
  I  I105  1  0.82458560  0.84019810  -0.00016734  1
  I  I106  1  0.82561359  0.82947949  0.33346281  1
  I  I107  1  0.82622504  0.83374870  0.66669961  1
  I  I108  1  0.00200164  0.16377445  0.16419587  1
  I  I109  1  -0.00025602  0.16713852  0.49773706  1
  I  I110  1  -0.00055577  0.15971368  0.83774544  1
  I  I111  1  -0.00009213  0.50027958  0.16779601  1
  I  I112  1  -0.00484717  0.50741180  0.50005417  1
  I  I113  1  -0.00020310  0.50509253  0.83341550  1
  I  I114  1  -0.00325038  0.83562460  0.16698299  1
  I  I115  1  -0.00397340  0.82945241  0.50029020  1
  I  I116  1  -0.00367275  0.83614426  0.83214089  1
  I  I117  1  0.33515024  0.16419512  0.16383753  1
  I  I118  1  0.33785115  0.16008310  0.49997567  1
  I  I119  1  0.33174984  0.16408671  0.83567675  1
  I  I120  1  0.33741083  0.50789672  0.16868007  1
  I  I121  1  0.33360857  0.49939245  0.49984021  1
  I  I122  1  0.33365737  0.50011063  0.83144839  1
  I  I123  1  0.33725010  0.83182289  0.16659183  1
  I  I124  1  0.33748511  0.83894265  0.49893595  1
  I  I125  1  0.33657688  0.83591236  0.83480522  1
  I  I126  1  0.66316060  0.16704549  0.16951394  1
  I  I127  1  0.66293183  0.16400291  0.49362267  1
  I  I128  1  0.66896127  0.16344623  0.83284013  1
  I  I129  1  0.66338123  0.49364721  0.16690946  1
  I  I130  1  0.66916038  0.50263735  0.49986950  1
  I  I131  1  0.66657569  0.49163770  0.83365794  1
  I  I132  1  0.66534987  0.83607490  0.16660206  1
  I  I133  1  0.66631107  0.83370910  0.49967157  1
  I  I134  1  0.66710388  0.84018646  0.83386213  1
