# generated using pymatgen
data_Cs27Sn14Pb13I81
_symmetry_space_group_name_H-M   'P 1'
_cell_length_a   18.97245479
_cell_length_b   18.97581641
_cell_length_c   18.97639916
_cell_angle_alpha   90.00070769
_cell_angle_beta   90.00017900
_cell_angle_gamma   89.99776436
_symmetry_Int_Tables_number   1
_chemical_formula_structural   Cs27Sn14Pb13I81
_chemical_formula_sum   'Cs27 Sn14 Pb13 I81'
_cell_volume   6831.84183063
_cell_formula_units_Z   1
loop_
 _symmetry_equiv_pos_site_id
 _symmetry_equiv_pos_as_xyz
  1  'x, y, z'
loop_
 _atom_site_type_symbol
 _atom_site_label
 _atom_site_symmetry_multiplicity
 _atom_site_fract_x
 _atom_site_fract_y
 _atom_site_fract_z
 _atom_site_occupancy
  Cs  Cs0  1  -0.00029502  0.00062643  0.00097174  1
  Cs  Cs1  1  0.00109717  0.00022548  0.33336686  1
  Cs  Cs2  1  -0.00027802  -0.00286641  0.66390510  1
  Cs  Cs3  1  0.00307181  0.33222809  0.00018376  1
  Cs  Cs4  1  -0.00084176  0.33241002  0.33016470  1
  Cs  Cs5  1  0.00212274  0.33435883  0.66857909  1
  Cs  Cs6  1  -0.00161704  0.66770515  -0.00088548  1
  Cs  Cs7  1  0.00072765  0.66814104  0.34377222  1
  Cs  Cs8  1  0.00098646  0.67009560  0.65600117  1
  Cs  Cs9  1  0.33244947  -0.00137448  -0.00033521  1
  Cs  Cs10  1  0.33421858  -0.00085851  0.33528762  1
  Cs  Cs11  1  0.33534567  -0.00029266  0.66616437  1
  Cs  Cs12  1  0.32328771  0.33447364  -0.00147913  1
  Cs  Cs13  1  0.33452450  0.34133626  0.33362821  1
  Cs  Cs14  1  0.33491564  0.33521979  0.66796124  1
  Cs  Cs15  1  0.33545548  0.66707273  0.00172070  1
  Cs  Cs16  1  0.33421018  0.66032652  0.33179341  1
  Cs  Cs17  1  0.32902196  0.66920486  0.66693463  1
  Cs  Cs18  1  0.66776383  -0.00045411  -0.00057724  1
  Cs  Cs19  1  0.66441723  0.00390950  0.32931438  1
  Cs  Cs20  1  0.66521186  0.00086195  0.66860084  1
  Cs  Cs21  1  0.66934482  0.33198499  -0.00203171  1
  Cs  Cs22  1  0.66673719  0.33185595  0.33671141  1
  Cs  Cs23  1  0.66507925  0.33151108  0.66694743  1
  Cs  Cs24  1  0.66587497  0.66662336  -0.00009251  1
  Cs  Cs25  1  0.66438995  0.66062204  0.33076618  1
  Cs  Cs26  1  0.67025054  0.66694624  0.66897541  1
  Sn  Sn27  1  0.50062841  0.83313447  0.50041343  1
  Sn  Sn28  1  0.50003604  0.16689587  0.16534208  1
  Sn  Sn29  1  0.50060706  0.49977049  0.83369276  1
  Sn  Sn30  1  0.50033335  0.16707039  0.83477950  1
  Sn  Sn31  1  0.83436095  0.16632962  0.50035147  1
  Sn  Sn32  1  0.83351834  0.49982663  0.16582551  1
  Sn  Sn33  1  0.83415746  0.83312716  0.16670063  1
  Sn  Sn34  1  0.83292020  0.49938876  0.83402654  1
  Sn  Sn35  1  0.16643911  0.16684935  0.49999193  1
  Sn  Sn36  1  0.16587601  0.83350092  0.16613069  1
  Sn  Sn37  1  0.83299670  0.16721978  0.83324436  1
  Sn  Sn38  1  0.83273960  0.16675362  0.16633227  1
  Sn  Sn39  1  0.16693502  0.83362776  0.83410845  1
  Sn  Sn40  1  0.49929009  0.83328118  0.83252412  1
  Pb  Pb41  1  0.16647304  0.16455498  0.83164191  1
  Pb  Pb42  1  0.50011265  0.16570485  0.50021174  1
  Pb  Pb43  1  0.16667409  0.49665701  0.50011371  1
  Pb  Pb44  1  0.16567339  0.50307956  0.83336025  1
  Pb  Pb45  1  0.16329361  0.50326009  0.16649425  1
  Pb  Pb46  1  0.50014314  0.83474904  0.16619933  1
  Pb  Pb47  1  0.83320187  0.83326086  0.83467361  1
  Pb  Pb48  1  0.50218650  0.49653775  0.16386003  1
  Pb  Pb49  1  0.16879373  0.83488560  0.49955082  1
  Pb  Pb50  1  0.83320879  0.49724123  0.50057021  1
  Pb  Pb51  1  0.83040007  0.83582139  0.49672175  1
  Pb  Pb52  1  0.16687313  0.16499048  0.16846029  1
  Pb  Pb53  1  0.50036014  0.50310565  0.50318885  1
  I  I54  1  0.16083090  -0.00279510  0.16314138  1
  I  I55  1  0.16227461  0.00245078  0.50004656  1
  I  I56  1  0.17075572  -0.00319748  0.83647484  1
  I  I57  1  0.16694092  0.33329711  0.16875098  1
  I  I58  1  0.16301392  0.32862481  0.50032408  1
  I  I59  1  0.16936571  0.33316865  0.83081711  1
  I  I60  1  0.16435181  0.67139137  0.16258237  1
  I  I61  1  0.16759730  0.66706158  0.50042781  1
  I  I62  1  0.17129252  0.67102155  0.83706709  1
  I  I63  1  0.50649880  0.00268617  0.16191775  1
  I  I64  1  0.50023138  -0.00197864  0.50609716  1
  I  I65  1  0.50080568  0.00043106  0.83286622  1
  I  I66  1  0.50554392  0.32845609  0.16479690  1
  I  I67  1  0.49950808  0.33330755  0.49972204  1
  I  I68  1  0.50597767  0.33218696  0.83706337  1
  I  I69  1  0.50100260  0.66643316  0.16706854  1
  I  I70  1  0.49875020  0.67106525  0.50296178  1
  I  I71  1  0.50088141  0.66716727  0.82833094  1
  I  I72  1  0.83309415  0.00109656  0.16615912  1
  I  I73  1  0.83621634  0.00386556  0.50187936  1
  I  I74  1  0.83018895  0.00292994  0.83447926  1
  I  I75  1  0.82788062  0.33207361  0.16672212  1
  I  I76  1  0.83515190  0.32896184  0.49539799  1
  I  I77  1  0.82544110  0.33213860  0.83728146  1
  I  I78  1  0.83688473  0.66671611  0.15991584  1
  I  I79  1  0.83283072  0.66691853  0.50032666  1
  I  I80  1  0.82940795  0.66435348  0.83966303  1
  I  I81  1  0.16511395  0.16629886  -0.00007850  1
  I  I82  1  0.16235371  0.16216938  0.33603776  1
  I  I83  1  0.16233188  0.16259374  0.66404926  1
  I  I84  1  0.16836379  0.49654966  -0.00011196  1
  I  I85  1  0.16594622  0.50289454  0.33309198  1
  I  I86  1  0.16417168  0.50339626  0.66707007  1
  I  I87  1  0.16911384  0.83553303  -0.00021878  1
  I  I88  1  0.16278849  0.83619613  0.33070899  1
  I  I89  1  0.16968766  0.83457662  0.66905156  1
  I  I90  1  0.50878553  0.16274182  -0.00127116  1
  I  I91  1  0.50436163  0.16150894  0.33106653  1
  I  I92  1  0.50333503  0.16720714  0.66999950  1
  I  I93  1  0.50257168  0.50704019  -0.00401693  1
  I  I94  1  0.50057627  0.50047583  0.33296130  1
  I  I95  1  0.50698319  0.49306141  0.67148010  1
  I  I96  1  0.49916263  0.83269224  -0.00306636  1
  I  I97  1  0.50074404  0.83919384  0.33469534  1
  I  I98  1  0.49452117  0.83668833  0.66911880  1
  I  I99  1  0.82809737  0.16638420  0.00007380  1
  I  I100  1  0.83262353  0.16544209  0.33200996  1
  I  I101  1  0.83204219  0.17086342  0.66802887  1
  I  I102  1  0.82922509  0.49555963  -0.00039068  1
  I  I103  1  0.83431160  0.49975691  0.33029616  1
  I  I104  1  0.82882925  0.49553780  0.67037978  1
  I  I105  1  0.83219718  0.83851456  0.00277011  1
  I  I106  1  0.83861691  0.83358005  0.32868581  1
  I  I107  1  0.83590202  0.83338875  0.66659399  1
  I  I108  1  -0.00353843  0.16790091  0.16436517  1
  I  I109  1  -0.00161682  0.16477304  0.49951142  1
  I  I110  1  -0.00341371  0.16973418  0.83638138  1
  I  I111  1  -0.00486508  0.49230693  0.15894180  1
  I  I112  1  -0.00040660  0.50439699  0.50299242  1
  I  I113  1  -0.00385021  0.49427791  0.83826569  1
  I  I114  1  -0.00079306  0.83663029  0.15999792  1
  I  I115  1  -0.00026126  0.83287177  0.50254643  1
  I  I116  1  0.00193569  0.83470355  0.83673267  1
  I  I117  1  0.33608732  0.16224863  0.16326725  1
  I  I118  1  0.33161474  0.16226856  0.50036194  1
  I  I119  1  0.33655895  0.16810730  0.83581041  1
  I  I120  1  0.33344416  0.49980971  0.16643797  1
  I  I121  1  0.33372544  0.49693743  0.50084361  1
  I  I122  1  0.33630925  0.49659054  0.83191801  1
  I  I123  1  0.33150822  0.83785546  0.16548518  1
  I  I124  1  0.33628026  0.83885417  0.50086334  1
  I  I125  1  0.33465091  0.83451789  0.83516120  1
  I  I126  1  0.66837432  0.16315878  0.16805196  1
  I  I127  1  0.66936566  0.16508859  0.49919465  1
  I  I128  1  0.66690105  0.16444061  0.83204845  1
  I  I129  1  0.67036302  0.50615734  0.16493473  1
  I  I130  1  0.66678243  0.49803178  0.49728339  1
  I  I131  1  0.66698154  0.50138683  0.83695029  1
  I  I132  1  0.66945540  0.83373621  0.16635544  1
  I  I133  1  0.66330184  0.83669274  0.50783848  1
  I  I134  1  0.66392246  0.83432620  0.83130207  1
