# generated using pymatgen
data_Cs27Sn13Pb14I81
_symmetry_space_group_name_H-M   'P 1'
_cell_length_a   18.97345741
_cell_length_b   18.97817921
_cell_length_c   18.97833128
_cell_angle_alpha   89.99978648
_cell_angle_beta   90.00169413
_cell_angle_gamma   90.00050161
_symmetry_Int_Tables_number   1
_chemical_formula_structural   Cs27Sn13Pb14I81
_chemical_formula_sum   'Cs27 Sn13 Pb14 I81'
_cell_volume   6833.74931218
_cell_formula_units_Z   1
loop_
 _symmetry_equiv_pos_site_id
 _symmetry_equiv_pos_as_xyz
  1  'x, y, z'
loop_
 _atom_site_type_symbol
 _atom_site_label
 _atom_site_symmetry_multiplicity
 _atom_site_fract_x
 _atom_site_fract_y
 _atom_site_fract_z
 _atom_site_occupancy
  Cs  Cs0  1  0.00409163  0.00141812  0.00160300  1
  Cs  Cs1  1  -0.00156856  -0.00293019  0.33203988  1
  Cs  Cs2  1  0.00162620  -0.00001264  0.66668456  1
  Cs  Cs3  1  0.00265913  0.33395436  -0.00449263  1
  Cs  Cs4  1  -0.00333665  0.33627604  0.33721230  1
  Cs  Cs5  1  -0.00097368  0.33471217  0.66643540  1
  Cs  Cs6  1  -0.00067835  0.66358977  -0.00984552  1
  Cs  Cs7  1  0.00197329  0.66821078  0.33298014  1
  Cs  Cs8  1  0.00058117  0.66547802  0.67625627  1
  Cs  Cs9  1  0.32513765  0.00239424  0.00173088  1
  Cs  Cs10  1  0.33115379  -0.00065545  0.33246487  1
  Cs  Cs11  1  0.33517225  -0.00075055  0.66578615  1
  Cs  Cs12  1  0.33221557  0.33038021  0.00205243  1
  Cs  Cs13  1  0.33470251  0.33461786  0.33228860  1
  Cs  Cs14  1  0.33457761  0.33376273  0.66551704  1
  Cs  Cs15  1  0.33223411  0.66796233  -0.00352982  1
  Cs  Cs16  1  0.33197988  0.66585982  0.33515996  1
  Cs  Cs17  1  0.33497477  0.66631241  0.66474212  1
  Cs  Cs18  1  0.66716578  -0.00100334  -0.00009502  1
  Cs  Cs19  1  0.66790659  -0.00061242  0.33300835  1
  Cs  Cs20  1  0.66589789  0.00136535  0.66726666  1
  Cs  Cs21  1  0.66516029  0.33284077  0.00437374  1
  Cs  Cs22  1  0.66739821  0.33517607  0.33216056  1
  Cs  Cs23  1  0.66594192  0.33012682  0.66393106  1
  Cs  Cs24  1  0.66942463  0.66845745  0.00071244  1
  Cs  Cs25  1  0.66643748  0.66770558  0.33127420  1
  Cs  Cs26  1  0.66478767  0.66858408  0.66925244  1
  Sn  Sn27  1  0.83262917  0.83403926  0.16740090  1
  Sn  Sn28  1  0.16727661  0.49914069  0.49908222  1
  Sn  Sn29  1  0.50072594  0.16750065  0.83306265  1
  Sn  Sn30  1  0.49936531  0.16673485  0.50008721  1
  Sn  Sn31  1  0.50100783  0.83344304  0.49888887  1
  Sn  Sn32  1  0.50018395  0.83359216  0.16730405  1
  Sn  Sn33  1  0.16746528  0.16740054  0.49966550  1
  Sn  Sn34  1  0.49976336  0.49979250  0.50036409  1
  Sn  Sn35  1  0.16659555  0.50009809  0.16740418  1
  Sn  Sn36  1  0.83304789  0.16639302  0.16595185  1
  Sn  Sn37  1  0.83240238  0.16655887  0.83438061  1
  Sn  Sn38  1  0.50028500  0.49888174  0.83288483  1
  Sn  Sn39  1  0.83263154  0.83293727  0.49970910  1
  Pb  Pb40  1  0.83309614  0.50324917  0.50007903  1
  Pb  Pb41  1  0.82991401  0.49684321  0.83316208  1
  Pb  Pb42  1  0.50135741  0.16459396  0.16686447  1
  Pb  Pb43  1  0.16609028  0.83089416  0.16674005  1
  Pb  Pb44  1  0.16725816  0.16680015  0.83056295  1
  Pb  Pb45  1  0.83585562  0.50055659  0.16668372  1
  Pb  Pb46  1  0.16961594  0.49962528  0.83240786  1
  Pb  Pb47  1  0.16680107  0.83358233  0.83329087  1
  Pb  Pb48  1  0.16676110  0.83284922  0.50015236  1
  Pb  Pb49  1  0.83312178  0.16490839  0.49988906  1
  Pb  Pb50  1  0.83311410  0.83595164  0.83364645  1
  Pb  Pb51  1  0.49851521  0.50235157  0.16663273  1
  Pb  Pb52  1  0.49987985  0.83410812  0.83347141  1
  Pb  Pb53  1  0.16369896  0.16889161  0.16960711  1
  I  I54  1  0.16805874  0.00011729  0.16720023  1
  I  I55  1  0.16995642  0.00256303  0.50177296  1
  I  I56  1  0.16942848  0.00075698  0.83161300  1
  I  I57  1  0.16741701  0.33642857  0.16896425  1
  I  I58  1  0.17411240  0.33369456  0.49656776  1
  I  I59  1  0.16355340  0.33324265  0.83565177  1
  I  I60  1  0.16704869  0.66337595  0.17514700  1
  I  I61  1  0.17083875  0.66345071  0.49592454  1
  I  I62  1  0.16766845  0.66603835  0.83162833  1
  I  I63  1  0.50198637  -0.00335550  0.17120994  1
  I  I64  1  0.49993643  0.00036680  0.50111044  1
  I  I65  1  0.50460528  0.00347459  0.82837107  1
  I  I66  1  0.50124545  0.33327817  0.16866157  1
  I  I67  1  0.49519346  0.33313466  0.50517859  1
  I  I68  1  0.50358494  0.33260594  0.82484889  1
  I  I69  1  0.50575748  0.67020764  0.17092185  1
  I  I70  1  0.49917686  0.66643859  0.50059478  1
  I  I71  1  0.49723336  0.66423776  0.82941400  1
  I  I72  1  0.82928559  -0.00055376  0.16739255  1
  I  I73  1  0.82913873  -0.00285264  0.49883136  1
  I  I74  1  0.82512000  0.00364120  0.83299014  1
  I  I75  1  0.83408445  0.33050657  0.16309954  1
  I  I76  1  0.83181276  0.33317779  0.49946315  1
  I  I77  1  0.83247507  0.32892913  0.83816819  1
  I  I78  1  0.82978850  0.67021359  0.17219682  1
  I  I79  1  0.82923780  0.67117923  0.49265866  1
  I  I80  1  0.83391098  0.66669362  0.83378562  1
  I  I81  1  0.16882618  0.16746222  0.00021428  1
  I  I82  1  0.17260934  0.16788223  0.33732301  1
  I  I83  1  0.16556791  0.17261463  0.66259128  1
  I  I84  1  0.16672495  0.50248349  0.00210226  1
  I  I85  1  0.17278253  0.49683452  0.33525136  1
  I  I86  1  0.16877872  0.49670192  0.66302882  1
  I  I87  1  0.16815543  0.83111628  0.00058346  1
  I  I88  1  0.16660963  0.83493010  0.33357866  1
  I  I89  1  0.16589674  0.83150664  0.66590544  1
  I  I90  1  0.50333760  0.17019204  -0.00259358  1
  I  I91  1  0.49806989  0.16899473  0.33665344  1
  I  I92  1  0.50223192  0.16564588  0.66552855  1
  I  I93  1  0.49855780  0.49650065  -0.00250000  1
  I  I94  1  0.49762452  0.49776367  0.33661841  1
  I  I95  1  0.49457463  0.50171979  0.66484242  1
  I  I96  1  0.50500134  0.83173537  0.00294237  1
  I  I97  1  0.50421302  0.83317224  0.33494064  1
  I  I98  1  0.50343167  0.83310855  0.66315479  1
  I  I99  1  0.82725734  0.16137750  0.00006153  1
  I  I100  1  0.83392193  0.16343018  0.33121909  1
  I  I101  1  0.83175946  0.16536531  0.66849796  1
  I  I102  1  0.83424108  0.50464141  -0.00006499  1
  I  I103  1  0.82947730  0.49456196  0.33346811  1
  I  I104  1  0.83875522  0.50066363  0.66650532  1
  I  I105  1  0.82807026  0.83480573  0.00339794  1
  I  I106  1  0.82885522  0.83985546  0.33301074  1
  I  I107  1  0.82886013  0.83431326  0.66381228  1
  I  I108  1  -0.00407033  0.15947919  0.16210021  1
  I  I109  1  0.00210724  0.16977548  0.49974551  1
  I  I110  1  -0.00271801  0.16398078  0.83602123  1
  I  I111  1  0.00362868  0.50062050  0.17486765  1
  I  I112  1  0.00308002  0.49562737  0.49535213  1
  I  I113  1  0.00009015  0.50065197  0.83306470  1
  I  I114  1  -0.00362101  0.83743297  0.17247732  1
  I  I115  1  -0.00284551  0.83552816  0.49496110  1
  I  I116  1  -0.00060242  0.83416369  0.83194351  1
  I  I117  1  0.33324699  0.16492991  0.16392963  1
  I  I118  1  0.33516715  0.16501472  0.50535684  1
  I  I119  1  0.33700594  0.17007971  0.83068217  1
  I  I120  1  0.33083426  0.50132498  0.16929647  1
  I  I121  1  0.33461128  0.50136572  0.50015282  1
  I  I122  1  0.33737076  0.49405848  0.83151679  1
  I  I123  1  0.33615395  0.83194763  0.17148214  1
  I  I124  1  0.33695089  0.83346694  0.49653105  1
  I  I125  1  0.33416240  0.83517738  0.83361154  1
  I  I126  1  0.66944492  0.16542984  0.16799119  1
  I  I127  1  0.66355274  0.16858400  0.50144184  1
  I  I128  1  0.66550263  0.16996331  0.82983212  1
  I  I129  1  0.66658021  0.49917851  0.16703780  1
  I  I130  1  0.66291148  0.49669347  0.50367575  1
  I  I131  1  0.66209924  0.49982936  0.82661240  1
  I  I132  1  0.66691577  0.83573353  0.17171656  1
  I  I133  1  0.66510534  0.83404555  0.49613165  1
  I  I134  1  0.66638538  0.83060749  0.83268104  1
