# generated using pymatgen
data_Cs27Sn13Pb14I81
_symmetry_space_group_name_H-M   'P 1'
_cell_length_a   18.97602105
_cell_length_b   18.97867075
_cell_length_c   18.97602094
_cell_angle_alpha   90.00219660
_cell_angle_beta   89.99801862
_cell_angle_gamma   89.99780362
_symmetry_Int_Tables_number   1
_chemical_formula_structural   Cs27Sn13Pb14I81
_chemical_formula_sum   'Cs27 Sn13 Pb14 I81'
_cell_volume   6834.01763190
_cell_formula_units_Z   1
loop_
 _symmetry_equiv_pos_site_id
 _symmetry_equiv_pos_as_xyz
  1  'x, y, z'
loop_
 _atom_site_type_symbol
 _atom_site_label
 _atom_site_symmetry_multiplicity
 _atom_site_fract_x
 _atom_site_fract_y
 _atom_site_fract_z
 _atom_site_occupancy
  Cs  Cs0  1  0.00278187  -0.00215631  -0.00130626  1
  Cs  Cs1  1  -0.00163527  0.00058964  0.33496887  1
  Cs  Cs2  1  -0.00100955  0.00145354  0.66606696  1
  Cs  Cs3  1  -0.00096152  0.33490831  -0.00140873  1
  Cs  Cs4  1  -0.00016876  0.33231760  0.33350202  1
  Cs  Cs5  1  0.00766964  0.33197155  0.66684585  1
  Cs  Cs6  1  -0.00004063  0.66921620  0.00450576  1
  Cs  Cs7  1  0.00376900  0.66713684  0.32956419  1
  Cs  Cs8  1  -0.00368077  0.66708485  0.66627276  1
  Cs  Cs9  1  0.33150178  -0.00099446  0.00183158  1
  Cs  Cs10  1  0.33463965  -0.00215623  0.33055145  1
  Cs  Cs11  1  0.33492459  0.00067968  0.66714921  1
  Cs  Cs12  1  0.33373298  0.33889953  -0.00039974  1
  Cs  Cs13  1  0.33474206  0.33490847  0.33429480  1
  Cs  Cs14  1  0.32546031  0.33288063  0.66644464  1
  Cs  Cs15  1  0.33361612  0.66173815  -0.00028301  1
  Cs  Cs16  1  0.32882775  0.66921601  0.33337403  1
  Cs  Cs17  1  0.33627398  0.66554850  0.66730071  1
  Cs  Cs18  1  0.66618428  0.00067970  -0.00159116  1
  Cs  Cs19  1  0.66726622  0.00145364  0.33434297  1
  Cs  Cs20  1  0.66694986  -0.00074545  0.66638334  1
  Cs  Cs21  1  0.66688877  0.33288068  0.00787311  1
  Cs  Cs22  1  0.66648748  0.33197155  0.32566371  1
  Cs  Cs23  1  0.66660344  0.33462141  0.66672982  1
  Cs  Cs24  1  0.66603274  0.66554856  -0.00294081  1
  Cs  Cs25  1  0.66706046  0.66708465  0.33701410  1
  Cs  Cs26  1  0.66654456  0.66692798  0.66678875  1
  Sn  Sn27  1  0.16628200  0.83326650  0.83230108  1
  Sn  Sn28  1  0.49935455  0.83343024  0.49935881  1
  Sn  Sn29  1  0.83199726  0.83362143  0.16600732  1
  Sn  Sn30  1  0.50095444  0.49982208  0.50022293  1
  Sn  Sn31  1  0.83248929  0.16680277  0.83299567  1
  Sn  Sn32  1  0.50103226  0.83326650  0.16705130  1
  Sn  Sn33  1  0.50054362  0.16666051  0.83278974  1
  Sn  Sn34  1  0.83397450  0.83343023  0.83397874  1
  Sn  Sn35  1  0.16670442  0.16677601  0.16662893  1
  Sn  Sn36  1  0.83270761  0.49987930  0.50062575  1
  Sn  Sn37  1  0.50033772  0.16680280  0.50084402  1
  Sn  Sn38  1  0.16732610  0.83362133  0.50133607  1
  Sn  Sn39  1  0.83311035  0.49982209  0.83237888  1
  Pb  Pb40  1  0.16656502  0.50245135  0.50011182  1
  Pb  Pb41  1  0.16685696  0.16472874  0.83472105  1
  Pb  Pb42  1  0.16379221  0.50314841  0.83327885  1
  Pb  Pb43  1  0.16918516  0.16414017  0.49811085  1
  Pb  Pb44  1  0.83125219  0.16950344  0.50208112  1
  Pb  Pb45  1  0.50018222  0.83458522  0.83315113  1
  Pb  Pb46  1  0.50220080  0.49686823  0.83113255  1
  Pb  Pb47  1  0.83522253  0.16414015  0.16414818  1
  Pb  Pb48  1  0.83322151  0.50245131  0.16676828  1
  Pb  Pb49  1  0.16676141  0.83420583  0.16657196  1
  Pb  Pb50  1  0.50005443  0.50314846  0.16954105  1
  Pb  Pb51  1  0.16660588  0.49650634  0.16672745  1
  Pb  Pb52  1  0.83308918  0.83203883  0.50024413  1
  Pb  Pb53  1  0.49861224  0.16472881  0.16647637  1
  I  I54  1  0.16726956  0.00142459  0.16606362  1
  I  I55  1  0.17087529  -0.00391055  0.50308893  1
  I  I56  1  0.16071357  -0.00323061  0.83055039  1
  I  I57  1  0.16750247  0.32888340  0.16583097  1
  I  I58  1  0.16729574  0.33316780  0.49811145  1
  I  I59  1  0.16614977  0.33324055  0.83537137  1
  I  I60  1  0.16618855  0.66705463  0.16714479  1
  I  I61  1  0.17210109  0.67068937  0.50202556  1
  I  I62  1  0.16326059  0.67144622  0.83095104  1
  I  I63  1  0.50278304  -0.00323055  0.17262000  1
  I  I64  1  0.49530437  -0.00074621  0.49998915  1
  I  I65  1  0.50529774  0.00232025  0.82803519  1
  I  I66  1  0.49796195  0.33324050  0.16718353  1
  I  I67  1  0.50506080  0.33314068  0.50516739  1
  I  I68  1  0.50388151  0.32884198  0.82945203  1
  I  I69  1  0.50238207  0.67144623  0.17007281  1
  I  I70  1  0.50030466  0.66750999  0.49529815  1
  I  I71  1  0.50029474  0.66659514  0.83303878  1
  I  I72  1  0.83024434  -0.00391055  0.16245754  1
  I  I73  1  0.83278262  -0.00000252  0.50055082  1
  I  I74  1  0.83334434  -0.00074621  0.83802921  1
  I  I75  1  0.83522187  0.33316777  0.16603794  1
  I  I76  1  0.82872687  0.33745578  0.50460619  1
  I  I77  1  0.82816588  0.33314064  0.82827242  1
  I  I78  1  0.83130792  0.67068938  0.16123219  1
  I  I79  1  0.82758830  0.66437269  0.50574504  1
  I  I80  1  0.83803494  0.66751001  0.83302873  1
  I  I81  1  0.16815846  0.16064982  0.00206057  1
  I  I82  1  0.16798487  0.16227754  0.33070559  1
  I  I83  1  0.16560816  0.16639648  0.66663843  1
  I  I84  1  0.16553154  0.50357400  -0.00028010  1
  I  I85  1  0.16402688  0.50402976  0.33374708  1
  I  I86  1  0.16815795  0.49758008  0.66668518  1
  I  I87  1  0.16457146  0.83601893  -0.00233152  1
  I  I88  1  0.16822934  0.83436229  0.33561294  1
  I  I89  1  0.16641098  0.83437022  0.66668723  1
  I  I90  1  0.50309452  0.16272860  -0.00273891  1
  I  I91  1  0.49737012  0.16733530  0.33632016  1
  I  I92  1  0.50386377  0.16245627  0.66613232  1
  I  I93  1  0.50067799  0.50017725  -0.00016687  1
  I  I94  1  0.50718065  0.49453232  0.33798322  1
  I  I95  1  0.50268121  0.50726180  0.66301321  1
  I  I96  1  0.50071778  0.83741235  0.00191413  1
  I  I97  1  0.49954489  0.83529132  0.33475070  1
  I  I98  1  0.49931969  0.83223086  0.66373572  1
  I  I99  1  0.82662048  0.17060159  -0.00418355  1
  I  I100  1  0.83324846  0.16613261  0.33331376  1
  I  I101  1  0.83242583  0.15946984  0.67038765  1
  I  I102  1  0.83456656  0.49883168  -0.00338682  1
  I  I103  1  0.82908027  0.50288215  0.33645513  1
  I  I104  1  0.82854384  0.50436298  0.66728544  1
  I  I105  1  0.83420828  0.83184022  -0.00144252  1
  I  I106  1  0.83301973  0.83116975  0.33142489  1
  I  I107  1  0.83413482  0.83448743  0.66957693  1
  I  I108  1  0.00262774  0.16227771  0.16534839  1
  I  I109  1  0.00001960  0.16613293  0.50008455  1
  I  I110  1  -0.00298682  0.16733534  0.83596359  1
  I  I111  1  -0.00041376  0.50402977  0.16930620  1
  I  I112  1  -0.00312179  0.50288196  0.50425342  1
  I  I113  1  -0.00464989  0.49453237  0.82615270  1
  I  I114  1  -0.00227961  0.83436220  0.16510349  1
  I  I115  1  0.00190839  0.83116960  0.50031403  1
  I  I116  1  -0.00141732  0.83529133  0.83378848  1
  I  I117  1  0.33127279  0.16064964  0.16517511  1
  I  I118  1  0.33751689  0.17060124  0.50671279  1
  I  I119  1  0.33607221  0.16272887  0.83023870  1
  I  I120  1  0.33361342  0.50357387  0.16780190  1
  I  I121  1  0.33672018  0.49883196  0.49876632  1
  I  I122  1  0.33350016  0.50017737  0.83265584  1
  I  I123  1  0.33566488  0.83601915  0.16876210  1
  I  I124  1  0.33477581  0.83184043  0.49912492  1
  I  I125  1  0.33141923  0.83741210  0.83261531  1
  I  I126  1  0.66669492  0.16639649  0.16772491  1
  I  I127  1  0.66294575  0.15946989  0.50090797  1
  I  I128  1  0.66720104  0.16245599  0.82946938  1
  I  I129  1  0.66664822  0.49758022  0.16517597  1
  I  I130  1  0.66604783  0.50436303  0.50478965  1
  I  I131  1  0.67032006  0.50726180  0.83065165  1
  I  I132  1  0.66664604  0.83437014  0.16692231  1
  I  I133  1  0.66375644  0.83448745  0.49919839  1
  I  I134  1  0.66959761  0.83223104  0.83401376  1
