# generated using pymatgen
data_Cs27Sn14Pb13I81
_symmetry_space_group_name_H-M   'P 1'
_cell_length_a   18.98413179
_cell_length_b   18.96422095
_cell_length_c   18.98115878
_cell_angle_alpha   90.00184183
_cell_angle_beta   89.99925303
_cell_angle_gamma   89.99997983
_symmetry_Int_Tables_number   1
_chemical_formula_structural   Cs27Sn14Pb13I81
_chemical_formula_sum   'Cs27 Sn14 Pb13 I81'
_cell_volume   6833.58292022
_cell_formula_units_Z   1
loop_
 _symmetry_equiv_pos_site_id
 _symmetry_equiv_pos_as_xyz
  1  'x, y, z'
loop_
 _atom_site_type_symbol
 _atom_site_label
 _atom_site_symmetry_multiplicity
 _atom_site_fract_x
 _atom_site_fract_y
 _atom_site_fract_z
 _atom_site_occupancy
  Cs  Cs0  1  0.00013857  0.00077296  -0.00026225  1
  Cs  Cs1  1  -0.00061514  0.00005066  0.33262779  1
  Cs  Cs2  1  0.00019585  0.00021569  0.66827282  1
  Cs  Cs3  1  0.00022042  0.33239320  0.00098474  1
  Cs  Cs4  1  -0.00600224  0.33116048  0.33387171  1
  Cs  Cs5  1  0.00153529  0.33462577  0.66464083  1
  Cs  Cs6  1  0.00070645  0.66615286  -0.00449745  1
  Cs  Cs7  1  0.00453870  0.66973319  0.33378364  1
  Cs  Cs8  1  -0.00039572  0.66631313  0.66917433  1
  Cs  Cs9  1  0.33421693  0.00040570  0.00047713  1
  Cs  Cs10  1  0.33339710  -0.00143057  0.33197043  1
  Cs  Cs11  1  0.33425380  0.00113270  0.66721756  1
  Cs  Cs12  1  0.33213991  0.33201793  -0.00152524  1
  Cs  Cs13  1  0.33373128  0.33306578  0.33537052  1
  Cs  Cs14  1  0.33354212  0.33293671  0.66615874  1
  Cs  Cs15  1  0.33234314  0.66484251  0.00138375  1
  Cs  Cs16  1  0.33082206  0.66870364  0.33164386  1
  Cs  Cs17  1  0.33177659  0.66653901  0.66718931  1
  Cs  Cs18  1  0.66495515  0.00038400  -0.00193825  1
  Cs  Cs19  1  0.66711921  -0.00021600  0.33210461  1
  Cs  Cs20  1  0.66377375  -0.00242693  0.67068411  1
  Cs  Cs21  1  0.66662881  0.33562875  0.00546956  1
  Cs  Cs22  1  0.67578055  0.34229682  0.33804878  1
  Cs  Cs23  1  0.66534897  0.34099917  0.65595348  1
  Cs  Cs24  1  0.66838871  0.66109942  -0.00031938  1
  Cs  Cs25  1  0.66622546  0.66400600  0.33279197  1
  Cs  Cs26  1  0.67107124  0.66558111  0.66743437  1
  Sn  Sn27  1  0.83243405  0.16685588  0.83296703  1
  Sn  Sn28  1  0.16743616  0.16749400  0.16623943  1
  Sn  Sn29  1  0.83208260  0.83368608  0.16689415  1
  Sn  Sn30  1  0.16673749  0.83306046  0.50122829  1
  Sn  Sn31  1  0.16689786  0.49836548  0.16759343  1
  Sn  Sn32  1  0.50002728  0.83364369  0.50006522  1
  Sn  Sn33  1  0.50044405  0.16645555  0.83400210  1
  Sn  Sn34  1  0.16669413  0.16560836  0.83413600  1
  Sn  Sn35  1  0.16767047  0.83434940  0.83256032  1
  Sn  Sn36  1  0.49901305  0.83331777  0.83374530  1
  Sn  Sn37  1  0.50115077  0.83400172  0.16622135  1
  Sn  Sn38  1  0.49970279  0.16629997  0.16662662  1
  Sn  Sn39  1  0.83340662  0.83394228  0.49912346  1
  Sn  Sn40  1  0.16704512  0.50070818  0.49881575  1
  Pb  Pb41  1  0.49783833  0.49943348  0.16672247  1
  Pb  Pb42  1  0.16672775  0.16620460  0.49971615  1
  Pb  Pb43  1  0.83641887  0.50324057  0.49998519  1
  Pb  Pb44  1  0.83308199  0.16392194  0.50271581  1
  Pb  Pb45  1  0.83326300  0.49591709  0.83341462  1
  Pb  Pb46  1  0.83271571  0.16477109  0.16519576  1
  Pb  Pb47  1  0.49994009  0.49951076  0.83347283  1
  Pb  Pb48  1  0.83309319  0.83441154  0.83355053  1
  Pb  Pb49  1  0.16701061  0.83398201  0.16616158  1
  Pb  Pb50  1  0.16682936  0.49967797  0.83329776  1
  Pb  Pb51  1  0.49722859  0.50320698  0.49986241  1
  Pb  Pb52  1  0.50016320  0.16485254  0.49938398  1
  Pb  Pb53  1  0.83660705  0.50320973  0.16654735  1
  I  I54  1  0.16736301  0.00249050  0.16526370  1
  I  I55  1  0.16703280  -0.00367813  0.50117654  1
  I  I56  1  0.16738000  -0.00006294  0.83321887  1
  I  I57  1  0.17243906  0.33179944  0.16517426  1
  I  I58  1  0.16658781  0.33569639  0.50007868  1
  I  I59  1  0.16744094  0.32971160  0.83403000  1
  I  I60  1  0.16612907  0.66543228  0.16783916  1
  I  I61  1  0.16691649  0.66870852  0.49890903  1
  I  I62  1  0.17051203  0.66991226  0.83313506  1
  I  I63  1  0.49654835  -0.00099531  0.16568969  1
  I  I64  1  0.49528638  -0.00424078  0.50047372  1
  I  I65  1  0.49840176  -0.00074290  0.83351402  1
  I  I66  1  0.49604878  0.32954200  0.15846679  1
  I  I67  1  0.49817312  0.33349445  0.50153279  1
  I  I68  1  0.49743069  0.32891245  0.83961942  1
  I  I69  1  0.50176107  0.67031643  0.16673703  1
  I  I70  1  0.50220032  0.67210270  0.49997801  1
  I  I71  1  0.49424759  0.67090035  0.83366327  1
  I  I72  1  0.83561949  -0.00335475  0.17072941  1
  I  I73  1  0.83812199  -0.00450886  0.49550809  1
  I  I74  1  0.83484124  0.00220614  0.83317931  1
  I  I75  1  0.83137937  0.33323050  0.16439244  1
  I  I76  1  0.83460165  0.33358925  0.50177411  1
  I  I77  1  0.83634681  0.32777618  0.83591088  1
  I  I78  1  0.82805697  0.67143927  0.16972406  1
  I  I79  1  0.83019220  0.67151071  0.49784349  1
  I  I80  1  0.83457983  0.66698348  0.83294488  1
  I  I81  1  0.16715526  0.16585541  -0.00056751  1
  I  I82  1  0.17160404  0.16608093  0.33013717  1
  I  I83  1  0.16776851  0.16517419  0.66989911  1
  I  I84  1  0.16691859  0.50016221  0.00257171  1
  I  I85  1  0.16787624  0.50330137  0.33346741  1
  I  I86  1  0.16615357  0.50279468  0.66412136  1
  I  I87  1  0.16844941  0.83392535  -0.00262814  1
  I  I88  1  0.16846937  0.83229883  0.33532724  1
  I  I89  1  0.16864567  0.83286635  0.66676024  1
  I  I90  1  0.49767244  0.15713690  -0.00031888  1
  I  I91  1  0.49216079  0.16001502  0.32961823  1
  I  I92  1  0.49751907  0.16152717  0.67013867  1
  I  I93  1  0.49687702  0.50660247  0.00019985  1
  I  I94  1  0.49927600  0.49995037  0.33329392  1
  I  I95  1  0.49697612  0.49854299  0.66656540  1
  I  I96  1  0.49900378  0.83805328  -0.00010399  1
  I  I97  1  0.49909365  0.83707282  0.33293464  1
  I  I98  1  0.49851100  0.83758819  0.66719644  1
  I  I99  1  0.83517780  0.16102138  -0.00275714  1
  I  I100  1  0.83467801  0.16670286  0.33322146  1
  I  I101  1  0.83576417  0.16281673  0.67096409  1
  I  I102  1  0.83666410  0.50571926  0.00023376  1
  I  I103  1  0.83230143  0.49635578  0.33331161  1
  I  I104  1  0.83606395  0.50263331  0.66644572  1
  I  I105  1  0.83188417  0.83550804  0.00227624  1
  I  I106  1  0.83201104  0.83408288  0.33357977  1
  I  I107  1  0.83230305  0.83515136  0.66430874  1
  I  I108  1  0.00271978  0.16814723  0.16225914  1
  I  I109  1  0.00022507  0.16348778  0.50047366  1
  I  I110  1  0.00175920  0.16135390  0.83687226  1
  I  I111  1  0.00457519  0.49500607  0.17047228  1
  I  I112  1  0.00415661  0.50602577  0.49670756  1
  I  I113  1  0.00048236  0.50286292  0.83349319  1
  I  I114  1  -0.00139508  0.83311187  0.16990986  1
  I  I115  1  0.00092708  0.82932287  0.49966155  1
  I  I116  1  0.00271667  0.83701689  0.83100882  1
  I  I117  1  0.33315191  0.16349570  0.15890341  1
  I  I118  1  0.33323589  0.16455391  0.50386011  1
  I  I119  1  0.33307616  0.16164246  0.83778752  1
  I  I120  1  0.32978590  0.50261593  0.16996294  1
  I  I121  1  0.32937135  0.50629349  0.49684221  1
  I  I122  1  0.33306941  0.49778517  0.83276483  1
  I  I123  1  0.33581949  0.83386071  0.16888508  1
  I  I124  1  0.33306329  0.82947734  0.50046628  1
  I  I125  1  0.33312719  0.84012716  0.83043745  1
  I  I126  1  0.66340143  0.16110408  0.16056250  1
  I  I127  1  0.66655491  0.16401272  0.50070739  1
  I  I128  1  0.66506320  0.15839092  0.83795189  1
  I  I129  1  0.66678321  0.49784201  0.16636403  1
  I  I130  1  0.66682176  0.49956280  0.50071378  1
  I  I131  1  0.66657969  0.50353464  0.83303027  1
  I  I132  1  0.66509502  0.83961900  0.16949749  1
  I  I133  1  0.66605038  0.83705147  0.50014814  1
  I  I134  1  0.66366868  0.83847104  0.83059620  1
