# generated using pymatgen
data_Cs27Sn14Pb13I81
_symmetry_space_group_name_H-M   'P 1'
_cell_length_a   18.96304180
_cell_length_b   18.95451287
_cell_length_c   18.96304188
_cell_angle_alpha   89.99960216
_cell_angle_beta   90.00047786
_cell_angle_gamma   89.99960201
_symmetry_Int_Tables_number   1
_chemical_formula_structural   Cs27Sn14Pb13I81
_chemical_formula_sum   'Cs27 Sn14 Pb13 I81'
_cell_volume   6815.98512358
_cell_formula_units_Z   1
loop_
 _symmetry_equiv_pos_site_id
 _symmetry_equiv_pos_as_xyz
  1  'x, y, z'
loop_
 _atom_site_type_symbol
 _atom_site_label
 _atom_site_symmetry_multiplicity
 _atom_site_fract_x
 _atom_site_fract_y
 _atom_site_fract_z
 _atom_site_occupancy
  Cs  Cs0  1  -0.00132493  0.00199412  -0.00072652  1
  Cs  Cs1  1  0.00586793  0.00025590  0.33920098  1
  Cs  Cs2  1  0.00473532  -0.00094725  0.66368616  1
  Cs  Cs3  1  0.00171366  0.33184173  0.00103342  1
  Cs  Cs4  1  -0.00560524  0.33506419  0.32772800  1
  Cs  Cs5  1  -0.00464578  0.33334314  0.66917853  1
  Cs  Cs6  1  -0.00117608  0.66732873  0.00189214  1
  Cs  Cs7  1  -0.00178094  0.66463682  0.33155224  1
  Cs  Cs8  1  0.00242140  0.66725086  0.66689967  1
  Cs  Cs9  1  0.33375668  0.00036066  0.00059963  1
  Cs  Cs10  1  0.33035283  -0.00094724  0.33806874  1
  Cs  Cs11  1  0.32880631  0.00042897  0.66213950  1
  Cs  Cs12  1  0.33297859  0.33335701  -0.00018926  1
  Cs  Cs13  1  0.33584529  0.33334327  0.32868757  1
  Cs  Cs14  1  0.33653560  0.33686713  0.66986900  1
  Cs  Cs15  1  0.33450417  0.66667765  -0.00029177  1
  Cs  Cs16  1  0.33356632  0.66725069  0.33575480  1
  Cs  Cs17  1  0.33283084  0.66579945  0.66616413  1
  Cs  Cs18  1  0.66727483  -0.00316260  0.00060814  1
  Cs  Cs19  1  0.66594031  0.00199434  0.33200836  1
  Cs  Cs20  1  0.66726633  0.00036063  0.66708999  1
  Cs  Cs21  1  0.66487800  0.33138793  -0.00178865  1
  Cs  Cs22  1  0.66770003  0.33184165  0.33504700  1
  Cs  Cs23  1  0.66647736  0.33335705  0.66631195  1
  Cs  Cs24  1  0.66691710  0.67454700  0.00025043  1
  Cs  Cs25  1  0.66855886  0.66732869  0.33215717  1
  Cs  Cs26  1  0.66637489  0.66667768  0.66783749  1
  Sn  Sn27  1  0.49946394  0.50082513  0.49989855  1
  Sn  Sn28  1  0.83235648  0.16725905  0.83410047  1
  Sn  Sn29  1  0.50076713  0.16725907  0.16568983  1
  Sn  Sn30  1  0.16691397  0.83260302  0.83467394  1
  Sn  Sn31  1  0.50134063  0.83260297  0.50024729  1
  Sn  Sn32  1  0.16656524  0.50082509  0.83279726  1
  Sn  Sn33  1  0.50038093  0.49982928  0.83371429  1
  Sn  Sn34  1  0.50067705  0.16700400  0.83401041  1
  Sn  Sn35  1  0.16684753  0.83316366  0.16548038  1
  Sn  Sn36  1  0.83214706  0.83316361  0.50018090  1
  Sn  Sn37  1  0.50031306  0.49980234  0.16631077  1
  Sn  Sn38  1  0.83260273  0.16648244  0.16593600  1
  Sn  Sn39  1  0.16698799  0.49970953  0.50032135  1
  Sn  Sn40  1  0.83297743  0.49980239  0.83364632  1
  Pb  Pb41  1  0.83563430  0.83621419  0.16896761  1
  Pb  Pb42  1  0.49851090  0.83384833  0.16884731  1
  Pb  Pb43  1  0.83042653  0.49826413  0.16375994  1
  Pb  Pb44  1  0.49796842  0.83386687  0.83130178  1
  Pb  Pb45  1  0.16690271  0.16739538  0.83314148  1
  Pb  Pb46  1  0.16861462  0.50154006  0.16626611  1
  Pb  Pb47  1  0.16713726  0.16452578  0.16660091  1
  Pb  Pb48  1  0.83551389  0.83384836  0.83184422  1
  Pb  Pb49  1  0.16690011  0.83122202  0.50023347  1
  Pb  Pb50  1  0.83293275  0.50154004  0.50194793  1
  Pb  Pb51  1  0.16672586  0.17166531  0.50005921  1
  Pb  Pb52  1  0.49980817  0.16739539  0.50023609  1
  Pb  Pb53  1  0.83326757  0.16452581  0.50047056  1
  I  I54  1  0.16829349  -0.00347503  0.16182075  1
  I  I55  1  0.16706736  -0.00038664  0.50040084  1
  I  I56  1  0.16661371  -0.00245789  0.83624440  1
  I  I57  1  0.16571828  0.33349475  0.16755301  1
  I  I58  1  0.17377750  0.33922854  0.50711094  1
  I  I59  1  0.16743191  0.33697340  0.82874475  1
  I  I60  1  0.16879008  0.66931637  0.16569795  1
  I  I61  1  0.16930699  0.66353107  0.50264003  1
  I  I62  1  0.16723377  0.66511332  0.83242486  1
  I  I63  1  0.50237612  0.00310403  0.16287229  1
  I  I64  1  0.50291133  -0.00245786  0.49994699  1
  I  I65  1  0.50349488  0.00300344  0.83682826  1
  I  I66  1  0.50154115  0.33358504  0.16819236  1
  I  I67  1  0.49541137  0.33697343  0.50076501  1
  I  I68  1  0.49840910  0.33468116  0.83174237  1
  I  I69  1  0.49700488  0.66394871  0.16430757  1
  I  I70  1  0.49909121  0.66511330  0.50056736  1
  I  I71  1  0.50166226  0.66344297  0.83499567  1
  I  I72  1  0.82598987  0.00397989  0.15932330  1
  I  I73  1  0.82848699  -0.00347505  0.50162691  1
  I  I74  1  0.82953899  0.00310400  0.83570938  1
  I  I75  1  0.83361224  0.33006453  0.16694544  1
  I  I76  1  0.83421976  0.33349476  0.49905152  1
  I  I77  1  0.83485883  0.33358502  0.83487468  1
  I  I78  1  0.83291987  0.66674244  0.16625316  1
  I  I79  1  0.83236459  0.66931640  0.50212367  1
  I  I80  1  0.83097451  0.66394867  0.83033800  1
  I  I81  1  0.16684125  0.16939021  -0.00021902  1
  I  I82  1  0.16692639  0.16306871  0.33315328  1
  I  I83  1  0.16649722  0.15917654  0.66701603  1
  I  I84  1  0.16796443  0.50192749  -0.00330913  1
  I  I85  1  0.17202885  0.50286755  0.33571853  1
  I  I86  1  0.17174435  0.50617908  0.66809310  1
  I  I87  1  0.16724170  0.82757526  -0.00114075  1
  I  I88  1  0.16721598  0.83336684  0.33185553  1
  I  I89  1  0.16655908  0.83122894  0.66889184  1
  I  I90  1  0.50310784  0.17447720  -0.00050196  1
  I  I91  1  0.50377165  0.16973388  0.33037792  1
  I  I92  1  0.50391674  0.17008323  0.66999199  1
  I  I93  1  0.49839806  0.49479623  -0.00109158  1
  I  I94  1  0.49418743  0.49995458  0.33383868  1
  I  I95  1  0.49862831  0.49977095  0.66754688  1
  I  I96  1  0.49914120  0.83083100  -0.00013152  1
  I  I97  1  0.49993762  0.82931194  0.33676203  1
  I  I98  1  0.50048545  0.82925785  0.66343031  1
  I  I99  1  0.82949238  0.16986106  -0.00107021  1
  I  I100  1  0.82890124  0.16502162  0.33050431  1
  I  I101  1  0.82893536  0.17028329  0.67034089  1
  I  I102  1  0.83588634  0.49957217  -0.00453840  1
  I  I103  1  0.83455496  0.49927434  0.33311430  1
  I  I104  1  0.83004255  0.49453577  0.67033653  1
  I  I105  1  0.83381086  0.83194366  -0.00007730  1
  I  I106  1  0.83173453  0.83319088  0.33664822  1
  I  I107  1  0.83187194  0.83436264  0.66408090  1
  I  I108  1  -0.00282903  0.16502161  0.16223413  1
  I  I109  1  -0.00018002  0.16306851  0.50026015  1
  I  I110  1  -0.00295543  0.16973402  0.83710506  1
  I  I111  1  -0.00021903  0.49927423  0.16788786  1
  I  I112  1  0.00238520  0.50286772  0.50536238  1
  I  I113  1  0.00050535  0.49995433  0.82752103  1
  I  I114  1  0.00331488  0.83319099  0.16506839  1
  I  I115  1  -0.00147781  0.83336683  0.50054899  1
  I  I116  1  0.00342868  0.82931217  0.83327097  1
  I  I117  1  0.33700758  0.17028322  0.16226875  1
  I  I118  1  0.33368267  0.15917627  0.49983039  1
  I  I119  1  0.33665868  0.17008328  0.83725013  1
  I  I120  1  0.33700320  0.49453606  0.16337591  1
  I  I121  1  0.33475978  0.50617883  0.50507778  1
  I  I122  1  0.33421357  0.49977106  0.83196144  1
  I  I123  1  0.33074754  0.83436255  0.16520484  1
  I  I124  1  0.33555850  0.83122936  0.49989246  1
  I  I125  1  0.33009700  0.82925770  0.83381911  1
  I  I126  1  0.66559645  0.16986127  0.16282605  1
  I  I127  1  0.66644764  0.16939040  0.50017430  1
  I  I128  1  0.66616468  0.17447712  0.83644107  1
  I  I129  1  0.66212822  0.49957196  0.16922004  1
  I  I130  1  0.66335753  0.50192753  0.50129744  1
  I  I131  1  0.66557507  0.49479643  0.83173135  1
  I  I132  1  0.66658930  0.83194369  0.16714414  1
  I  I133  1  0.66552590  0.82757497  0.50057549  1
  I  I134  1  0.66653516  0.83083084  0.83247429  1
