# generated using pymatgen
data_Cs27Sn13Pb14I81
_symmetry_space_group_name_H-M   'P 1'
_cell_length_a   19.00143743
_cell_length_b   18.98773133
_cell_length_c   18.98773132
_cell_angle_alpha   90.00012392
_cell_angle_beta   90.00006447
_cell_angle_gamma   90.00006449
_symmetry_Int_Tables_number   1
_chemical_formula_structural   Cs27Sn13Pb14I81
_chemical_formula_sum   'Cs27 Sn13 Pb14 I81'
_cell_volume   6850.66311858
_cell_formula_units_Z   1
loop_
 _symmetry_equiv_pos_site_id
 _symmetry_equiv_pos_as_xyz
  1  'x, y, z'
loop_
 _atom_site_type_symbol
 _atom_site_label
 _atom_site_symmetry_multiplicity
 _atom_site_fract_x
 _atom_site_fract_y
 _atom_site_fract_z
 _atom_site_occupancy
  Cs  Cs0  1  -0.00010432  0.00050912  0.00061269  1
  Cs  Cs1  1  0.00025706  0.00069172  0.33402498  1
  Cs  Cs2  1  0.00029208  -0.00204403  0.66480139  1
  Cs  Cs3  1  0.00036281  0.33181429  -0.00191515  1
  Cs  Cs4  1  0.00029212  0.33146791  0.33128937  1
  Cs  Cs5  1  0.00183772  0.34230857  0.67564204  1
  Cs  Cs6  1  -0.00020747  0.66868027  0.00201372  1
  Cs  Cs7  1  -0.00010433  0.66727947  0.33384243  1
  Cs  Cs8  1  0.00036275  0.66475156  0.66514745  1
  Cs  Cs9  1  0.33484756  -0.00308125  -0.00138790  1
  Cs  Cs10  1  0.33059034  0.00115076  0.33448402  1
  Cs  Cs11  1  0.33514420  0.00148928  0.66530095  1
  Cs  Cs12  1  0.33069244  0.33458512  -0.00467838  1
  Cs  Cs13  1  0.33514422  0.33196770  0.33482252  1
  Cs  Cs14  1  0.33741110  0.34001343  0.67334656  1
  Cs  Cs15  1  0.34559152  0.66981815  0.00315170  1
  Cs  Cs16  1  0.33484743  0.66527880  0.33025211  1
  Cs  Cs17  1  0.33069238  0.66198816  0.66791843  1
  Cs  Cs18  1  0.66748521  0.00001207  -0.00300794  1
  Cs  Cs19  1  0.66993713  0.00327569  0.33660911  1
  Cs  Cs20  1  0.66420455  0.00028283  0.66474574  1
  Cs  Cs21  1  0.66787852  0.33455395  -0.00271750  1
  Cs  Cs22  1  0.66420447  0.33141229  0.33361609  1
  Cs  Cs23  1  0.66005391  0.34032270  0.67365595  1
  Cs  Cs24  1  0.65753579  0.66713134  0.00046472  1
  Cs  Cs25  1  0.66748527  0.66365869  0.33334558  1
  Cs  Cs26  1  0.66787862  0.66394936  0.66788726  1
  Sn  Sn27  1  0.83338598  0.16679382  0.16741320  1
  Sn  Sn28  1  0.83449744  0.16683254  0.50016589  1
  Sn  Sn29  1  0.16663199  0.83406295  0.50063359  1
  Sn  Sn30  1  0.83443242  0.83380693  0.83303395  1
  Sn  Sn31  1  0.16663201  0.16730025  0.16739626  1
  Sn  Sn32  1  0.83443244  0.49970055  0.16714027  1
  Sn  Sn33  1  0.16577831  0.83361915  0.83255032  1
  Sn  Sn34  1  0.16577830  0.49921696  0.16695253  1
  Sn  Sn35  1  0.16540775  0.16667714  0.50001050  1
  Sn  Sn36  1  0.83340952  0.83337371  0.16670706  1
  Sn  Sn37  1  0.49987476  0.16609801  0.16651506  1
  Sn  Sn38  1  0.83338603  0.83407984  0.50012713  1
  Sn  Sn39  1  0.49987472  0.83318168  0.49943134  1
  Pb  Pb40  1  0.50005740  0.49696126  0.16701310  1
  Pb  Pb41  1  0.49996629  0.50264219  0.49953774  1
  Pb  Pb42  1  0.16522179  0.83363502  0.16696828  1
  Pb  Pb43  1  0.83354813  0.49886101  0.49796901  1
  Pb  Pb44  1  0.16639104  0.16443809  0.83263028  1
  Pb  Pb45  1  0.49994490  0.16543185  0.49876518  1
  Pb  Pb46  1  0.83354814  0.16463569  0.83219437  1
  Pb  Pb47  1  0.83354000  0.50335261  0.83668590  1
  Pb  Pb48  1  0.50005744  0.83367973  0.83029455  1
  Pb  Pb49  1  0.16639103  0.49929702  0.49777141  1
  Pb  Pb50  1  0.50333485  0.83595196  0.16928524  1
  Pb  Pb51  1  0.49996620  0.16620440  0.83597550  1
  Pb  Pb52  1  0.49996698  0.50023907  0.83357240  1
  Pb  Pb53  1  0.16645700  0.50375581  0.83708912  1
  I  I54  1  0.16548503  0.00292868  0.16739312  1
  I  I55  1  0.16559035  -0.00074537  0.49648041  1
  I  I56  1  0.16197201  -0.00352987  0.83543947  1
  I  I57  1  0.16176334  0.33162325  0.17250776  1
  I  I58  1  0.16099425  0.32937638  0.49483319  1
  I  I59  1  0.16816878  0.33365716  0.83099431  1
  I  I60  1  0.16036448  0.66501068  0.16674450  1
  I  I61  1  0.16551523  0.67016429  0.50249989  1
  I  I62  1  0.16097713  0.67144771  0.82623305  1
  I  I63  1  0.49774237  0.00332594  0.16734726  1
  I  I64  1  0.50107415  -0.00285557  0.49850100  1
  I  I65  1  0.50022385  -0.00057063  0.83535118  1
  I  I66  1  0.50534472  0.32936109  0.16936831  1
  I  I67  1  0.50046821  0.33286125  0.49816222  1
  I  I68  1  0.50012703  0.33321220  0.83229246  1
  I  I69  1  0.49943434  0.66688572  0.16662188  1
  I  I70  1  0.50115592  0.67157108  0.49873341  1
  I  I71  1  0.50010823  0.66751981  0.83570594  1
  I  I72  1  0.83382260  0.00022753  0.16732211  1
  I  I73  1  0.83403879  -0.00123396  0.49433001  1
  I  I74  1  0.83699214  -0.00373876  0.83943048  1
  I  I75  1  0.83348475  0.33189431  0.17244146  1
  I  I76  1  0.83859254  0.32923012  0.49188463  1
  I  I77  1  0.83209337  0.33356637  0.83330648  1
  I  I78  1  0.83944297  0.66740274  0.16718396  1
  I  I79  1  0.83371683  0.67028007  0.49883915  1
  I  I80  1  0.83773962  0.67165000  0.83059252  1
  I  I81  1  0.16551515  0.16916609  0.00349762  1
  I  I82  1  0.16559041  0.16314747  0.33258797  1
  I  I83  1  0.16099410  0.16149979  0.66270967  1
  I  I84  1  0.16097727  0.49290012  0.00478100  1
  I  I85  1  0.16197207  0.50210599  0.32980346  1
  I  I86  1  0.16816875  0.49766040  0.66699043  1
  I  I87  1  0.16036435  0.83341109  -0.00165600  1
  I  I88  1  0.16548497  0.83405929  0.33626206  1
  I  I89  1  0.16176346  0.83917491  0.66495655  1
  I  I90  1  0.50115580  0.16540051  0.00490442  1
  I  I91  1  0.50107404  0.16516739  0.33047776  1
  I  I92  1  0.50046876  0.16482878  0.66619455  1
  I  I93  1  0.50010826  0.50237251  0.00085316  1
  I  I94  1  0.50022394  0.50201769  0.33276269  1
  I  I95  1  0.50012692  0.49895922  0.66654554  1
  I  I96  1  0.49943407  0.83328846  0.00021907  1
  I  I97  1  0.49774221  0.83401436  0.33665924  1
  I  I98  1  0.50534515  0.83603471  0.66269442  1
  I  I99  1  0.83371700  0.16550594  0.00361345  1
  I  I100  1  0.83403884  0.16099661  0.33209934  1
  I  I101  1  0.83859224  0.15855131  0.66256348  1
  I  I102  1  0.83773950  0.49725859  0.00498339  1
  I  I103  1  0.83699212  0.50609753  0.32959456  1
  I  I104  1  0.83209347  0.49997360  0.66689971  1
  I  I105  1  0.83944330  0.83385109  0.00073603  1
  I  I106  1  0.83382269  0.83398866  0.33356085  1
  I  I107  1  0.83348434  0.83910775  0.66522759  1
  I  I108  1  -0.00051624  0.16673137  0.17038784  1
  I  I109  1  -0.00020194  0.15534638  0.48867971  1
  I  I110  1  -0.00004837  0.16676888  0.83990466  1
  I  I111  1  -0.00080547  0.49602319  0.16763275  1
  I  I112  1  -0.00004835  0.50657155  0.50010212  1
  I  I113  1  0.00002658  0.49880274  0.83213628  1
  I  I114  1  -0.00311886  0.83677273  0.17010617  1
  I  I115  1  -0.00051623  0.83705440  0.50006491  1
  I  I116  1  -0.00080544  0.83429956  0.82935618  1
  I  I117  1  0.33182438  0.17106592  0.17155103  1
  I  I118  1  0.33013960  0.15963749  0.49297106  1
  I  I119  1  0.33303502  0.16266004  0.83410368  1
  I  I120  1  0.33023617  0.49689884  0.16714772  1
  I  I121  1  0.33303501  0.50077066  0.49599343  1
  I  I122  1  0.33276779  0.50268613  0.83601941  1
  I  I123  1  0.33349542  0.83240859  0.16574194  1
  I  I124  1  0.33182440  0.83821771  0.50439937  1
  I  I125  1  0.33023612  0.83381441  0.83023205  1
  I  I126  1  0.66866995  0.16526197  0.17104401  1
  I  I127  1  0.66996851  0.15943293  0.49276602  1
  I  I128  1  0.66695637  0.16305023  0.83386552  1
  I  I129  1  0.66996828  0.50136746  0.16692542  1
  I  I130  1  0.66695637  0.50053176  0.49638377  1
  I  I131  1  0.66715475  0.50236029  0.83569357  1
  I  I132  1  0.67173576  0.83200278  0.16533595  1
  I  I133  1  0.66866995  0.83771060  0.49859491  1
  I  I134  1  0.66996830  0.83359208  0.83470123  1
