# generated using pymatgen
data_Cs27Sn13Pb14I81
_symmetry_space_group_name_H-M   'P 1'
_cell_length_a   19.04634669
_cell_length_b   19.04472542
_cell_length_c   19.05162664
_cell_angle_alpha   89.99938510
_cell_angle_beta   89.99809177
_cell_angle_gamma   90.00556210
_symmetry_Int_Tables_number   1
_chemical_formula_structural   Cs27Sn13Pb14I81
_chemical_formula_sum   'Cs27 Sn13 Pb14 I81'
_cell_volume   6910.64303735
_cell_formula_units_Z   1
loop_
 _symmetry_equiv_pos_site_id
 _symmetry_equiv_pos_as_xyz
  1  'x, y, z'
loop_
 _atom_site_type_symbol
 _atom_site_label
 _atom_site_symmetry_multiplicity
 _atom_site_fract_x
 _atom_site_fract_y
 _atom_site_fract_z
 _atom_site_occupancy
  Cs  Cs0  1  0.00155512  -0.00275430  0.00109590  1
  Cs  Cs1  1  -0.00196295  -0.00066420  0.33190243  1
  Cs  Cs2  1  -0.00420692  -0.00295159  0.66756128  1
  Cs  Cs3  1  -0.00227478  0.33135657  -0.00876222  1
  Cs  Cs4  1  0.00170213  0.33396156  0.33039124  1
  Cs  Cs5  1  0.00380153  0.33756536  0.68704948  1
  Cs  Cs6  1  -0.00216339  0.67087215  0.00031906  1
  Cs  Cs7  1  0.00065465  0.66595546  0.33366986  1
  Cs  Cs8  1  0.00320132  0.66479320  0.66399360  1
  Cs  Cs9  1  0.33147109  -0.00024129  -0.00150562  1
  Cs  Cs10  1  0.33295671  0.00607324  0.33607968  1
  Cs  Cs11  1  0.33974930  -0.00034281  0.66312515  1
  Cs  Cs12  1  0.33495199  0.33003984  0.00032580  1
  Cs  Cs13  1  0.33217981  0.33104485  0.33140380  1
  Cs  Cs14  1  0.33229067  0.33454774  0.66910388  1
  Cs  Cs15  1  0.33962768  0.67379800  0.00586241  1
  Cs  Cs16  1  0.33065789  0.66628973  0.32933899  1
  Cs  Cs17  1  0.33011871  0.66629299  0.66165240  1
  Cs  Cs18  1  0.66725340  -0.00363062  -0.00058556  1
  Cs  Cs19  1  0.66918001  0.00611315  0.35125964  1
  Cs  Cs20  1  0.66209519  -0.00058569  0.64801469  1
  Cs  Cs21  1  0.66721641  0.33200307  -0.00250627  1
  Cs  Cs22  1  0.66754666  0.33452413  0.33611881  1
  Cs  Cs23  1  0.66596355  0.33512124  0.66645669  1
  Cs  Cs24  1  0.66486873  0.66942669  0.00063183  1
  Cs  Cs25  1  0.66777934  0.66090614  0.32966056  1
  Cs  Cs26  1  0.66651824  0.66439263  0.66831566  1
  Sn  Sn27  1  0.83457342  0.50035688  0.16687277  1
  Sn  Sn28  1  0.16594225  0.83342234  0.16613272  1
  Sn  Sn29  1  0.16703807  0.16687332  0.16695302  1
  Sn  Sn30  1  0.16553524  0.49969682  0.16580089  1
  Sn  Sn31  1  0.83367121  0.83362224  0.83401935  1
  Sn  Sn32  1  0.50024671  0.16618527  0.16564922  1
  Sn  Sn33  1  0.16532524  0.16752842  0.49987984  1
  Sn  Sn34  1  0.83374109  0.49927976  0.49931258  1
  Sn  Sn35  1  0.49956809  0.49964391  0.83286991  1
  Sn  Sn36  1  0.83349239  0.83277530  0.16637210  1
  Sn  Sn37  1  0.50003445  0.49996782  0.50071013  1
  Sn  Sn38  1  0.16627447  0.83329972  0.83401717  1
  Sn  Sn39  1  0.50050703  0.16685574  0.83468228  1
  Pb  Pb40  1  0.49974567  0.82936506  0.49951269  1
  Pb  Pb41  1  0.16653890  0.83560835  0.49923247  1
  Pb  Pb42  1  0.50022688  0.83361507  0.83331296  1
  Pb  Pb43  1  0.16957237  0.50293721  0.83712709  1
  Pb  Pb44  1  0.16619387  0.49761808  0.49788309  1
  Pb  Pb45  1  0.50089755  0.83674688  0.16698761  1
  Pb  Pb46  1  0.83355557  0.16648776  0.16658356  1
  Pb  Pb47  1  0.50044022  0.49803579  0.16643733  1
  Pb  Pb48  1  0.83739974  0.17085202  0.50016986  1
  Pb  Pb49  1  0.82997003  0.16305129  0.83336372  1
  Pb  Pb50  1  0.49792310  0.16962976  0.49987419  1
  Pb  Pb51  1  0.83136410  0.50215483  0.83419766  1
  Pb  Pb52  1  0.16845311  0.16407543  0.83381859  1
  Pb  Pb53  1  0.83359806  0.83047055  0.49925062  1
  I  I54  1  0.16726127  -0.00023920  0.16617784  1
  I  I55  1  0.17026774  0.00319053  0.49224431  1
  I  I56  1  0.16465379  -0.00316447  0.84139817  1
  I  I57  1  0.16853545  0.33331924  0.17517931  1
  I  I58  1  0.16835025  0.33040299  0.48989555  1
  I  I59  1  0.16534701  0.33350331  0.83275638  1
  I  I60  1  0.16218940  0.66676096  0.16161294  1
  I  I61  1  0.16833437  0.66639514  0.50044717  1
  I  I62  1  0.16417632  0.67016398  0.83842024  1
  I  I63  1  0.49341860  0.00420998  0.15677028  1
  I  I64  1  0.49989266  0.00055643  0.50138887  1
  I  I65  1  0.49780731  0.00263524  0.84103430  1
  I  I66  1  0.49322674  0.33064230  0.16587879  1
  I  I67  1  0.50565988  0.33645586  0.50093553  1
  I  I68  1  0.49930494  0.33348117  0.83354920  1
  I  I69  1  0.49595166  0.66700932  0.16728585  1
  I  I70  1  0.50302296  0.66146960  0.50899900  1
  I  I71  1  0.50040672  0.66429139  0.82702249  1
  I  I72  1  0.83747230  -0.00297930  0.15907129  1
  I  I73  1  0.83172065  0.00033534  0.50017695  1
  I  I74  1  0.83824466  -0.00445325  0.84473765  1
  I  I75  1  0.83589996  0.33610354  0.17338621  1
  I  I76  1  0.82533969  0.33785912  0.48911986  1
  I  I77  1  0.83486922  0.33322968  0.83250053  1
  I  I78  1  0.84248951  0.66648032  0.16759599  1
  I  I79  1  0.82858070  0.66317759  0.49787630  1
  I  I80  1  0.83519228  0.66949894  0.83515008  1
  I  I81  1  0.17002913  0.16852909  0.00342654  1
  I  I82  1  0.17580339  0.16427238  0.33074607  1
  I  I83  1  0.16897386  0.16580958  0.66479602  1
  I  I84  1  0.15989520  0.49121150  0.00446981  1
  I  I85  1  0.16950861  0.50701232  0.32981706  1
  I  I86  1  0.16381398  0.49936465  0.66707826  1
  I  I87  1  0.16226747  0.83589414  0.00176971  1
  I  I88  1  0.16164514  0.83025389  0.32928221  1
  I  I89  1  0.16249571  0.83538796  0.66949362  1
  I  I90  1  0.49200130  0.17503428  0.00033657  1
  I  I91  1  0.49675097  0.16638376  0.33089637  1
  I  I92  1  0.49785575  0.16705715  0.66889526  1
  I  I93  1  0.49907892  0.49755022  -0.00203257  1
  I  I94  1  0.50164219  0.49843064  0.33491737  1
  I  I95  1  0.50784372  0.49274442  0.66688970  1
  I  I96  1  0.50026971  0.82614616  0.00020200  1
  I  I97  1  0.49893404  0.83429823  0.33298640  1
  I  I98  1  0.49981360  0.84198440  0.66704010  1
  I  I99  1  0.83751206  0.17510734  0.00020377  1
  I  I100  1  0.82491516  0.15925772  0.33316161  1
  I  I101  1  0.83413134  0.16506354  0.66656028  1
  I  I102  1  0.83673198  0.50186279  0.00322842  1
  I  I103  1  0.82927552  0.50758799  0.33207206  1
  I  I104  1  0.82880515  0.50097593  0.66469274  1
  I  I105  1  0.83799075  0.82537727  0.00133682  1
  I  I106  1  0.83985674  0.83187006  0.32987145  1
  I  I107  1  0.83840560  0.83334009  0.66926617  1
  I  I108  1  0.00317415  0.16611089  0.17327338  1
  I  I109  1  0.00423473  0.16521126  0.48660325  1
  I  I110  1  -0.00018737  0.16988550  0.83244974  1
  I  I111  1  0.00005051  0.49925500  0.17578923  1
  I  I112  1  -0.00273727  0.50063957  0.49488296  1
  I  I113  1  0.00022287  0.49747581  0.82826973  1
  I  I114  1  0.00076733  0.83507029  0.16158271  1
  I  I115  1  0.00002716  0.83088977  0.50241210  1
  I  I116  1  0.00025527  0.83350757  0.83954307  1
  I  I117  1  0.33215280  0.16775747  0.16699585  1
  I  I118  1  0.33087252  0.16858910  0.49659696  1
  I  I119  1  0.33594135  0.16905198  0.83502695  1
  I  I120  1  0.33069485  0.50396043  0.16663526  1
  I  I121  1  0.33553929  0.49787708  0.50453995  1
  I  I122  1  0.33664998  0.49701300  0.82555991  1
  I  I123  1  0.33029725  0.82818427  0.16095135  1
  I  I124  1  0.33291655  0.83040170  0.50232462  1
  I  I125  1  0.33093899  0.83339125  0.84064347  1
  I  I126  1  0.66403749  0.16865079  0.16014937  1
  I  I127  1  0.66698643  0.16235644  0.49989483  1
  I  I128  1  0.66228828  0.17126723  0.84275080  1
  I  I129  1  0.66934579  0.50520484  0.16759274  1
  I  I130  1  0.66675766  0.50011287  0.49582598  1
  I  I131  1  0.66378292  0.49825592  0.83485620  1
  I  I132  1  0.67016574  0.82548332  0.15918500  1
  I  I133  1  0.66701073  0.84099884  0.50113116  1
  I  I134  1  0.66939012  0.83119171  0.84152193  1
