# generated using pymatgen
data_Cs27Sn14Pb13I81
_symmetry_space_group_name_H-M   'P 1'
_cell_length_a   18.96841698
_cell_length_b   18.97334603
_cell_length_c   18.98746560
_cell_angle_alpha   90.00026207
_cell_angle_beta   89.99938546
_cell_angle_gamma   90.00080198
_symmetry_Int_Tables_number   1
_chemical_formula_structural   Cs27Sn14Pb13I81
_chemical_formula_sum   'Cs27 Sn14 Pb13 I81'
_cell_volume   6833.48137852
_cell_formula_units_Z   1
loop_
 _symmetry_equiv_pos_site_id
 _symmetry_equiv_pos_as_xyz
  1  'x, y, z'
loop_
 _atom_site_type_symbol
 _atom_site_label
 _atom_site_symmetry_multiplicity
 _atom_site_fract_x
 _atom_site_fract_y
 _atom_site_fract_z
 _atom_site_occupancy
  Cs  Cs0  1  -0.00112061  0.00405385  0.00447873  1
  Cs  Cs1  1  -0.00052257  -0.00083430  0.33299392  1
  Cs  Cs2  1  -0.00422606  0.00137683  0.66285043  1
  Cs  Cs3  1  0.00316771  0.33339806  -0.00419724  1
  Cs  Cs4  1  0.00131021  0.33407294  0.33437425  1
  Cs  Cs5  1  0.00102612  0.33578264  0.66791258  1
  Cs  Cs6  1  0.00084170  0.66081735  -0.00237268  1
  Cs  Cs7  1  0.00217382  0.66695715  0.33474235  1
  Cs  Cs8  1  0.00177451  0.66206242  0.66661972  1
  Cs  Cs9  1  0.33014198  -0.00002922  -0.00006383  1
  Cs  Cs10  1  0.33220702  -0.00060326  0.33238736  1
  Cs  Cs11  1  0.33464123  -0.00436513  0.66802684  1
  Cs  Cs12  1  0.33176206  0.33177997  -0.00081029  1
  Cs  Cs13  1  0.33526132  0.33553265  0.33498407  1
  Cs  Cs14  1  0.33458951  0.33266909  0.66499791  1
  Cs  Cs15  1  0.33476035  0.66916960  -0.00485377  1
  Cs  Cs16  1  0.33111881  0.66535674  0.33269840  1
  Cs  Cs17  1  0.33024567  0.67353069  0.67280946  1
  Cs  Cs18  1  0.66702121  -0.00028109  0.00012687  1
  Cs  Cs19  1  0.66797871  0.00074080  0.33281026  1
  Cs  Cs20  1  0.66700952  0.00071828  0.66738726  1
  Cs  Cs21  1  0.66572109  0.33278701  0.00129899  1
  Cs  Cs22  1  0.66236058  0.33789526  0.33344767  1
  Cs  Cs23  1  0.66447363  0.33238764  0.66433325  1
  Cs  Cs24  1  0.66550567  0.66717634  0.00273359  1
  Cs  Cs25  1  0.66614744  0.66335941  0.33105940  1
  Cs  Cs26  1  0.66832102  0.66847329  0.66651067  1
  Sn  Sn27  1  0.83244862  0.16649884  0.16696150  1
  Sn  Sn28  1  0.83383228  0.16655480  0.49963446  1
  Sn  Sn29  1  0.50078223  0.16737344  0.83423282  1
  Sn  Sn30  1  0.50065295  0.83438682  0.16776315  1
  Sn  Sn31  1  0.16674995  0.49976043  0.16704202  1
  Sn  Sn32  1  0.83263793  0.83380145  0.16679781  1
  Sn  Sn33  1  0.16611109  0.16716251  0.49994025  1
  Sn  Sn34  1  0.83322136  0.83411689  0.83360685  1
  Sn  Sn35  1  0.83236787  0.16596997  0.83341337  1
  Sn  Sn36  1  0.83223681  0.83390355  0.49965860  1
  Sn  Sn37  1  0.16691384  0.49911594  0.49925966  1
  Sn  Sn38  1  0.50069531  0.49887145  0.83327805  1
  Sn  Sn39  1  0.50103538  0.83349514  0.49864814  1
  Sn  Sn40  1  0.50066723  0.16586889  0.16606672  1
  Pb  Pb41  1  0.50041056  0.16495814  0.49978172  1
  Pb  Pb42  1  0.83487786  0.49994011  0.49988853  1
  Pb  Pb43  1  0.16614928  0.83371397  0.49992207  1
  Pb  Pb44  1  0.50192205  0.83443530  0.83396981  1
  Pb  Pb45  1  0.83524177  0.49960493  0.16672046  1
  Pb  Pb46  1  0.16651513  0.16628266  0.83061430  1
  Pb  Pb47  1  0.49749801  0.50345397  0.50231894  1
  Pb  Pb48  1  0.49812355  0.50003215  0.16511433  1
  Pb  Pb49  1  0.16927534  0.49970446  0.83297373  1
  Pb  Pb50  1  0.16633113  0.83134430  0.16651768  1
  Pb  Pb51  1  0.16220362  0.83410028  0.83361331  1
  Pb  Pb52  1  0.16678507  0.16823033  0.16877919  1
  Pb  Pb53  1  0.83091086  0.49927582  0.83334570  1
  I  I54  1  0.16690659  0.00021320  0.16812769  1
  I  I55  1  0.16425573  0.00268232  0.50079914  1
  I  I56  1  0.17500446  0.00039757  0.83147954  1
  I  I57  1  0.16663025  0.33594511  0.16942173  1
  I  I58  1  0.16084799  0.33264492  0.49661636  1
  I  I59  1  0.16190172  0.33310594  0.83449857  1
  I  I60  1  0.16645174  0.66352314  0.17407223  1
  I  I61  1  0.16709343  0.66437523  0.49650378  1
  I  I62  1  0.16818296  0.66656553  0.83087523  1
  I  I63  1  0.50348246  0.00029416  0.16464757  1
  I  I64  1  0.49898781  -0.00293217  0.50150139  1
  I  I65  1  0.50247125  0.00300046  0.83353090  1
  I  I66  1  0.50384812  0.33020080  0.16454621  1
  I  I67  1  0.50171150  0.33325258  0.49836647  1
  I  I68  1  0.50512170  0.33122072  0.83852752  1
  I  I69  1  0.50366270  0.66974754  0.16851991  1
  I  I70  1  0.50576960  0.67122178  0.49550852  1
  I  I71  1  0.49943799  0.66559305  0.83267453  1
  I  I72  1  0.83050980  0.00030595  0.16649426  1
  I  I73  1  0.83610543  0.00038156  0.50056898  1
  I  I74  1  0.82706464  0.00101148  0.83217594  1
  I  I75  1  0.82977448  0.32933328  0.16661617  1
  I  I76  1  0.83598634  0.32970170  0.50075534  1
  I  I77  1  0.83252595  0.32935983  0.83347907  1
  I  I78  1  0.82981717  0.67024030  0.16686512  1
  I  I79  1  0.83104276  0.67031068  0.50044705  1
  I  I80  1  0.83219618  0.66971738  0.83276979  1
  I  I81  1  0.16411718  0.16949842  0.00019295  1
  I  I82  1  0.16236108  0.16814914  0.33658308  1
  I  I83  1  0.16250914  0.17294057  0.66264172  1
  I  I84  1  0.16645029  0.50117686  0.00221944  1
  I  I85  1  0.16683509  0.49644388  0.33418285  1
  I  I86  1  0.16640738  0.49674210  0.66378778  1
  I  I87  1  0.16945416  0.82914964  0.00022035  1
  I  I88  1  0.16339628  0.83382871  0.33336460  1
  I  I89  1  0.17031361  0.82988815  0.66640445  1
  I  I90  1  0.50721623  0.16550928  0.00048297  1
  I  I91  1  0.50253500  0.16410921  0.33065643  1
  I  I92  1  0.50259281  0.16891760  0.66887387  1
  I  I93  1  0.49731128  0.50083755  -0.00260671  1
  I  I94  1  0.49971132  0.49814724  0.33342529  1
  I  I95  1  0.49913081  0.49354197  0.66981407  1
  I  I96  1  0.50387265  0.83279236  0.00278118  1
  I  I97  1  0.50710998  0.83839246  0.33243958  1
  I  I98  1  0.50277633  0.83291746  0.66487016  1
  I  I99  1  0.82878825  0.16036204  0.00023108  1
  I  I100  1  0.83456878  0.16023073  0.33320449  1
  I  I101  1  0.83343622  0.16072602  0.66663910  1
  I  I102  1  0.83783196  0.50164797  0.00002502  1
  I  I103  1  0.83174993  0.49997158  0.33330659  1
  I  I104  1  0.83632576  0.50150596  0.66665810  1
  I  I105  1  0.82908949  0.83894608  0.00069576  1
  I  I106  1  0.83007023  0.83973690  0.33332877  1
  I  I107  1  0.82935231  0.83954342  0.66598805  1
  I  I108  1  -0.00344807  0.16294275  0.16433071  1
  I  I109  1  -0.00191412  0.16424499  0.50016053  1
  I  I110  1  -0.00383352  0.16183610  0.83644609  1
  I  I111  1  0.00308518  0.50064559  0.17051614  1
  I  I112  1  0.00305596  0.50106234  0.49740178  1
  I  I113  1  0.00007427  0.50144308  0.83319653  1
  I  I114  1  -0.00399166  0.83775906  0.16788570  1
  I  I115  1  -0.00366914  0.83446716  0.49969143  1
  I  I116  1  -0.00607800  0.83896054  0.83212902  1
  I  I117  1  0.33654519  0.16330536  0.16303173  1
  I  I118  1  0.33147221  0.16914869  0.49969831  1
  I  I119  1  0.33667849  0.17116009  0.83685527  1
  I  I120  1  0.33049752  0.49944650  0.17113033  1
  I  I121  1  0.32982701  0.49333393  0.49589324  1
  I  I122  1  0.33703422  0.49474057  0.83340274  1
  I  I123  1  0.33681221  0.83671585  0.17157118  1
  I  I124  1  0.33602254  0.83342195  0.49586495  1
  I  I125  1  0.33378328  0.83206942  0.83220805  1
  I  I126  1  0.66720813  0.16309478  0.16740503  1
  I  I127  1  0.66980042  0.16306205  0.50111485  1
  I  I128  1  0.66742424  0.16666449  0.83159690  1
  I  I129  1  0.66641854  0.50039516  0.16494305  1
  I  I130  1  0.66623626  0.49782204  0.50124384  1
  I  I131  1  0.66328450  0.49848341  0.83458907  1
  I  I132  1  0.66724115  0.83653178  0.16737716  1
  I  I133  1  0.66805361  0.83951660  0.50023714  1
  I  I134  1  0.66998656  0.83471680  0.83212983  1
