# generated using pymatgen
data_Cs27Sn14Pb13I81
_symmetry_space_group_name_H-M   'P 1'
_cell_length_a   18.96358855
_cell_length_b   18.99206829
_cell_length_c   18.96978315
_cell_angle_alpha   89.99999996
_cell_angle_beta   89.99981248
_cell_angle_gamma   90.00000002
_symmetry_Int_Tables_number   1
_chemical_formula_structural   Cs27Sn14Pb13I81
_chemical_formula_sum   'Cs27 Sn14 Pb13 I81'
_cell_volume   6832.11477442
_cell_formula_units_Z   1
loop_
 _symmetry_equiv_pos_site_id
 _symmetry_equiv_pos_as_xyz
  1  'x, y, z'
loop_
 _atom_site_type_symbol
 _atom_site_label
 _atom_site_symmetry_multiplicity
 _atom_site_fract_x
 _atom_site_fract_y
 _atom_site_fract_z
 _atom_site_occupancy
  Cs  Cs0  1  0.00041235  0.00117285  -0.00779923  1
  Cs  Cs1  1  -0.00311651  0.00204535  0.33396579  1
  Cs  Cs2  1  0.00242762  0.00024381  0.67296923  1
  Cs  Cs3  1  0.00041235  0.33216056  -0.00779907  1
  Cs  Cs4  1  -0.00311640  0.33128799  0.33396588  1
  Cs  Cs5  1  0.00242757  0.33308957  0.67296941  1
  Cs  Cs6  1  0.00502997  0.66666669  -0.00747741  1
  Cs  Cs7  1  0.00121208  0.66666662  0.33423665  1
  Cs  Cs8  1  0.00869292  0.66666653  0.67231144  1
  Cs  Cs9  1  0.33392072  -0.00185941  0.00311918  1
  Cs  Cs10  1  0.33159534  0.00072984  0.33152767  1
  Cs  Cs11  1  0.33611992  0.00044792  0.66613757  1
  Cs  Cs12  1  0.33392069  0.33519271  0.00311912  1
  Cs  Cs13  1  0.33159527  0.33260347  0.33152774  1
  Cs  Cs14  1  0.33612005  0.33288534  0.66613756  1
  Cs  Cs15  1  0.32799084  0.66666667  0.01157056  1
  Cs  Cs16  1  0.32302314  0.66666664  0.32690208  1
  Cs  Cs17  1  0.33436912  0.66666658  0.66433250  1
  Cs  Cs18  1  0.66587531  -0.00160622  0.00086899  1
  Cs  Cs19  1  0.66887125  0.00025690  0.33453498  1
  Cs  Cs20  1  0.66471746  -0.00117521  0.66470257  1
  Cs  Cs21  1  0.66587541  0.33493949  0.00086897  1
  Cs  Cs22  1  0.66887124  0.33307643  0.33453504  1
  Cs  Cs23  1  0.66471738  0.33450848  0.66470273  1
  Cs  Cs24  1  0.66719824  0.66666664  -0.00082097  1
  Cs  Cs25  1  0.66914706  0.66666669  0.33563525  1
  Cs  Cs26  1  0.66479978  0.66666663  0.66543092  1
  Sn  Sn27  1  0.50054428  0.16666665  0.83283682  1
  Sn  Sn28  1  0.83321967  0.50005233  0.16713144  1
  Sn  Sn29  1  0.83321971  0.83328100  0.16713141  1
  Sn  Sn30  1  0.49991610  0.16666666  0.50031480  1
  Sn  Sn31  1  0.83373499  0.16666666  0.49995860  1
  Sn  Sn32  1  0.83305058  0.83311828  0.49982408  1
  Sn  Sn33  1  0.16636766  0.16666666  0.49946771  1
  Sn  Sn34  1  0.50030564  0.50039258  0.49986111  1
  Sn  Sn35  1  0.83305056  0.50021505  0.49982406  1
  Sn  Sn36  1  0.83428799  0.16666667  0.16701665  1
  Sn  Sn37  1  0.16513877  0.16666666  0.16741742  1
  Sn  Sn38  1  0.50027785  0.50050058  0.83288212  1
  Sn  Sn39  1  0.50027787  0.83283274  0.83288210  1
  Sn  Sn40  1  0.50030563  0.83294078  0.49986112  1
  Pb  Pb41  1  0.16254915  0.83625209  0.16701796  1
  Pb  Pb42  1  0.16635478  0.83595247  0.49994803  1
  Pb  Pb43  1  0.83136751  0.50007819  0.83241668  1
  Pb  Pb44  1  0.50064402  0.16666669  0.16739947  1
  Pb  Pb45  1  0.17001790  0.16666668  0.83341083  1
  Pb  Pb46  1  0.17082877  0.83345719  0.83315883  1
  Pb  Pb47  1  0.16635479  0.49738085  0.49994803  1
  Pb  Pb48  1  0.17082878  0.49987614  0.83315883  1
  Pb  Pb49  1  0.16254916  0.49708124  0.16701796  1
  Pb  Pb50  1  0.83058410  0.16666668  0.83292835  1
  Pb  Pb51  1  0.50205241  0.83318844  0.16787451  1
  Pb  Pb52  1  0.83136751  0.83325512  0.83241669  1
  Pb  Pb53  1  0.50205241  0.50014491  0.16787453  1
  I  I54  1  0.16348036  0.00403062  0.17168035  1
  I  I55  1  0.16783835  0.00423047  0.49602674  1
  I  I56  1  0.16797902  0.00042048  0.83361686  1
  I  I57  1  0.16348047  0.32930269  0.17168012  1
  I  I58  1  0.16783809  0.32910288  0.49602654  1
  I  I59  1  0.16797879  0.33291287  0.83361737  1
  I  I60  1  0.16765624  0.66666667  0.16498369  1
  I  I61  1  0.16735508  0.66666665  0.50102534  1
  I  I62  1  0.16618382  0.66666667  0.83357847  1
  I  I63  1  0.50193645  0.00013643  0.16490726  1
  I  I64  1  0.50298945  0.00044657  0.50581329  1
  I  I65  1  0.50077797  0.00011093  0.82666171  1
  I  I66  1  0.50193664  0.33319692  0.16490724  1
  I  I67  1  0.50298928  0.33288679  0.50581325  1
  I  I68  1  0.50077781  0.33322244  0.82666173  1
  I  I69  1  0.50259786  0.66666665  0.16472066  1
  I  I70  1  0.50947621  0.66666665  0.50781917  1
  I  I71  1  0.50248537  0.66666665  0.82504557  1
  I  I72  1  0.83548380  0.00069041  0.17343036  1
  I  I73  1  0.82907131  0.00054198  0.49358343  1
  I  I74  1  0.82992268  0.00008240  0.83449446  1
  I  I75  1  0.83548364  0.33264292  0.17343039  1
  I  I76  1  0.82907162  0.33279136  0.49358350  1
  I  I77  1  0.82992309  0.33325096  0.83449418  1
  I  I78  1  0.82795625  0.66666666  0.17383656  1
  I  I79  1  0.82335805  0.66666665  0.49266220  1
  I  I80  1  0.82939247  0.66666666  0.83528742  1
  I  I81  1  0.16177748  0.16666647  0.00295187  1
  I  I82  1  0.16857700  0.16666671  0.33433240  1
  I  I83  1  0.16383920  0.16666686  0.66349795  1
  I  I84  1  0.16702519  0.49693586  0.00022557  1
  I  I85  1  0.17435986  0.50128886  0.33339812  1
  I  I86  1  0.16058411  0.49675753  0.66641214  1
  I  I87  1  0.16702511  0.83639777  0.00022555  1
  I  I88  1  0.17435994  0.83204442  0.33339813  1
  I  I89  1  0.16058406  0.83657559  0.66641216  1
  I  I90  1  0.50027092  0.16666665  -0.00259298  1
  I  I91  1  0.50051861  0.16666666  0.33723280  1
  I  I92  1  0.50022911  0.16666672  0.66472325  1
  I  I93  1  0.50200222  0.49817933  -0.00261574  1
  I  I94  1  0.50291717  0.49765208  0.33740102  1
  I  I95  1  0.50593211  0.49873324  0.66518386  1
  I  I96  1  0.50200210  0.83515408  -0.00261575  1
  I  I97  1  0.50291704  0.83568129  0.33740099  1
  I  I98  1  0.50593227  0.83460009  0.66518386  1
  I  I99  1  0.83661772  0.16666676  0.00320529  1
  I  I100  1  0.83126351  0.16666668  0.33452576  1
  I  I101  1  0.83543372  0.16666653  0.66259322  1
  I  I102  1  0.83119939  0.49843752  0.00280892  1
  I  I103  1  0.82671171  0.49863317  0.33461139  1
  I  I104  1  0.83016674  0.49839902  0.66265587  1
  I  I105  1  0.83119950  0.83489569  0.00280890  1
  I  I106  1  0.82671174  0.83470014  0.33461136  1
  I  I107  1  0.83016662  0.83493451  0.66265586  1
  I  I108  1  -0.00159401  0.16666675  0.17614831  1
  I  I109  1  -0.00126005  0.16666648  0.49385082  1
  I  I110  1  0.00002772  0.16666651  0.83106670  1
  I  I111  1  -0.00543756  0.50260403  0.17543829  1
  I  I112  1  -0.00382558  0.50015779  0.49390778  1
  I  I113  1  0.00003935  0.49955965  0.83344188  1
  I  I114  1  -0.00543752  0.83072914  0.17543840  1
  I  I115  1  -0.00382557  0.83317584  0.49390779  1
  I  I116  1  0.00003935  0.83377389  0.83344196  1
  I  I117  1  0.33121620  0.16666663  0.16961840  1
  I  I118  1  0.33453519  0.16666673  0.50036945  1
  I  I119  1  0.33806419  0.16666672  0.82848655  1
  I  I120  1  0.33300032  0.49859470  0.16517789  1
  I  I121  1  0.33685737  0.49934486  0.50610162  1
  I  I122  1  0.33912780  0.49791458  0.82535013  1
  I  I123  1  0.33300035  0.83473858  0.16517783  1
  I  I124  1  0.33685737  0.83398855  0.50610175  1
  I  I125  1  0.33912783  0.83541878  0.82535015  1
  I  I126  1  0.67035422  0.16666653  0.16962348  1
  I  I127  1  0.66679057  0.16666679  0.49983844  1
  I  I128  1  0.66253629  0.16666693  0.82935635  1
  I  I129  1  0.67037851  0.49511579  0.16810559  1
  I  I130  1  0.66654612  0.49553739  0.50003805  1
  I  I131  1  0.66292690  0.49897673  0.83167186  1
  I  I132  1  0.67037850  0.83821766  0.16810565  1
  I  I133  1  0.66654611  0.83779579  0.50003790  1
  I  I134  1  0.66292695  0.83435643  0.83167209  1
