# generated using pymatgen
data_Cs27Sn14Pb13I81
_symmetry_space_group_name_H-M   'P 1'
_cell_length_a   18.97283007
_cell_length_b   18.98033871
_cell_length_c   18.97667461
_cell_angle_alpha   89.99901794
_cell_angle_beta   89.99446084
_cell_angle_gamma   90.00038549
_symmetry_Int_Tables_number   1
_chemical_formula_structural   Cs27Sn14Pb13I81
_chemical_formula_sum   'Cs27 Sn14 Pb13 I81'
_cell_volume   6833.70432345
_cell_formula_units_Z   1
loop_
 _symmetry_equiv_pos_site_id
 _symmetry_equiv_pos_as_xyz
  1  'x, y, z'
loop_
 _atom_site_type_symbol
 _atom_site_label
 _atom_site_symmetry_multiplicity
 _atom_site_fract_x
 _atom_site_fract_y
 _atom_site_fract_z
 _atom_site_occupancy
  Cs  Cs0  1  0.00247572  0.00086205  -0.00019133  1
  Cs  Cs1  1  -0.00081609  -0.00118202  0.33589353  1
  Cs  Cs2  1  0.00112085  0.00062131  0.66539513  1
  Cs  Cs3  1  -0.00116149  0.33366889  -0.00098483  1
  Cs  Cs4  1  -0.00147383  0.33462065  0.33032668  1
  Cs  Cs5  1  -0.00044273  0.33207446  0.66871898  1
  Cs  Cs6  1  -0.00077339  0.66581081  -0.00150363  1
  Cs  Cs7  1  0.00030717  0.66434880  0.32969671  1
  Cs  Cs8  1  0.00116710  0.66720978  0.66901832  1
  Cs  Cs9  1  0.33474032  -0.00070932  0.00165908  1
  Cs  Cs10  1  0.33399645  0.00099594  0.33469842  1
  Cs  Cs11  1  0.33092610  0.00112273  0.66499421  1
  Cs  Cs12  1  0.33467164  0.33031818  0.00000067  1
  Cs  Cs13  1  0.33301556  0.33430551  0.33298310  1
  Cs  Cs14  1  0.33540072  0.33390322  0.66598764  1
  Cs  Cs15  1  0.33501138  0.67247605  0.00164729  1
  Cs  Cs16  1  0.33126881  0.66583780  0.33611955  1
  Cs  Cs17  1  0.33287491  0.66464331  0.66317177  1
  Cs  Cs18  1  0.66306289  -0.00576521  -0.00032846  1
  Cs  Cs19  1  0.66688145  0.00085449  0.33612166  1
  Cs  Cs20  1  0.66739554  -0.00201443  0.66423257  1
  Cs  Cs21  1  0.66862686  0.33316249  0.00253466  1
  Cs  Cs22  1  0.66759262  0.33229848  0.33110902  1
  Cs  Cs23  1  0.66561615  0.33409390  0.66787386  1
  Cs  Cs24  1  0.66580796  0.67269953  0.00125124  1
  Cs  Cs25  1  0.66768807  0.66628413  0.33043511  1
  Cs  Cs26  1  0.66537511  0.66599186  0.66936179  1
  Sn  Sn27  1  0.16665677  0.83362547  0.83262127  1
  Sn  Sn28  1  0.16725152  0.83399588  0.50070570  1
  Sn  Sn29  1  0.83341095  0.49997775  0.50032222  1
  Sn  Sn30  1  0.16719640  0.16660670  0.50051190  1
  Sn  Sn31  1  0.16605566  0.16688889  0.83250719  1
  Sn  Sn32  1  0.83363061  0.16710771  0.83418048  1
  Sn  Sn33  1  0.83235920  0.49909778  0.16623162  1
  Sn  Sn34  1  0.16666235  0.49956377  0.83346055  1
  Sn  Sn35  1  0.50101232  0.16752527  0.16747579  1
  Sn  Sn36  1  0.83253138  0.16685409  0.16556946  1
  Sn  Sn37  1  0.49937740  0.16636294  0.49946337  1
  Sn  Sn38  1  0.50039215  0.49914907  0.16646743  1
  Sn  Sn39  1  0.49953000  0.83386951  0.49996934  1
  Sn  Sn40  1  0.83378016  0.49913858  0.83330065  1
  Pb  Pb41  1  0.83386165  0.83043170  0.50008822  1
  Pb  Pb42  1  0.16463361  0.49949999  0.50193566  1
  Pb  Pb43  1  0.49702785  0.83344212  0.83017064  1
  Pb  Pb44  1  0.50045733  0.16672067  0.83328336  1
  Pb  Pb45  1  0.49995968  0.83385868  0.16944142  1
  Pb  Pb46  1  0.16661342  0.49987166  0.16370661  1
  Pb  Pb47  1  0.83545501  0.83385848  0.83326480  1
  Pb  Pb48  1  0.83343462  0.16829494  0.50018999  1
  Pb  Pb49  1  0.50048112  0.49988082  0.83622528  1
  Pb  Pb50  1  0.83339444  0.83402108  0.16658517  1
  Pb  Pb51  1  0.16660308  0.83347865  0.16743716  1
  Pb  Pb52  1  0.50214444  0.49956288  0.49801554  1
  Pb  Pb53  1  0.16648157  0.16665656  0.16691876  1
  I  I54  1  0.16602791  0.00037241  0.16100158  1
  I  I55  1  0.17007498  0.00071796  0.50809827  1
  I  I56  1  0.16229643  0.00100373  0.82894543  1
  I  I57  1  0.16782301  0.33323818  0.16848225  1
  I  I58  1  0.17039152  0.33026539  0.50417032  1
  I  I59  1  0.16164907  0.33250504  0.82972148  1
  I  I60  1  0.16646504  0.66637951  0.16688646  1
  I  I61  1  0.17029289  0.66911369  0.50434169  1
  I  I62  1  0.16232554  0.66651728  0.82988355  1
  I  I63  1  0.50417460  0.00353694  0.16797889  1
  I  I64  1  0.49655811  0.00131312  0.49425760  1
  I  I65  1  0.50186960  0.00022700  0.83948944  1
  I  I66  1  0.50420254  0.33224332  0.17260710  1
  I  I67  1  0.49585021  0.33026644  0.49799659  1
  I  I68  1  0.49370398  0.33323935  0.82756670  1
  I  I69  1  0.50526018  0.66394219  0.16616058  1
  I  I70  1  0.49550331  0.66886607  0.49931011  1
  I  I71  1  0.50030417  0.66656031  0.83375719  1
  I  I72  1  0.82953051  0.00417934  0.16211034  1
  I  I73  1  0.83319518  0.00020233  0.49953096  1
  I  I74  1  0.83709042  0.00370475  0.83780188  1
  I  I75  1  0.82915068  0.33357092  0.16585820  1
  I  I76  1  0.83368331  0.33615354  0.50003554  1
  I  I77  1  0.84217583  0.33359143  0.83430267  1
  I  I78  1  0.82944164  0.66290015  0.16605069  1
  I  I79  1  0.83337925  0.66235629  0.49975222  1
  I  I80  1  0.83743878  0.66331531  0.83408770  1
  I  I81  1  0.16558049  0.16672864  -0.00323589  1
  I  I82  1  0.16722952  0.16070169  0.33652396  1
  I  I83  1  0.16606454  0.16585413  0.66714015  1
  I  I84  1  0.16071705  0.49893157  -0.00452078  1
  I  I85  1  0.16450605  0.50131105  0.33335857  1
  I  I86  1  0.16066017  0.49997369  0.67006725  1
  I  I87  1  0.16419807  0.83359615  -0.00351495  1
  I  I88  1  0.17053942  0.83868575  0.33749938  1
  I  I89  1  0.17050978  0.83419844  0.66661167  1
  I  I90  1  0.50025295  0.17219872  0.00288259  1
  I  I91  1  0.50019543  0.16650625  0.33350366  1
  I  I92  1  0.49891746  0.16213130  0.66362365  1
  I  I93  1  0.50428068  0.49254648  0.00408626  1
  I  I94  1  0.50618700  0.49868963  0.33017016  1
  I  I95  1  0.50183979  0.50047968  0.66657077  1
  I  I96  1  0.49882296  0.83298162  0.00011559  1
  I  I97  1  0.49193785  0.83444127  0.33702093  1
  I  I98  1  0.49969151  0.83976669  0.66232633  1
  I  I99  1  0.83473853  0.17504933  -0.00029448  1
  I  I100  1  0.83273654  0.17171525  0.33100778  1
  I  I101  1  0.83502421  0.17150664  0.66925688  1
  I  I102  1  0.83469412  0.49504053  -0.00018876  1
  I  I103  1  0.82916291  0.49654158  0.33212573  1
  I  I104  1  0.83838566  0.49626734  0.66809866  1
  I  I105  1  0.83576487  0.82911506  -0.00020639  1
  I  I106  1  0.83679861  0.83248014  0.33357451  1
  I  I107  1  0.83004876  0.83280691  0.66657555  1
  I  I108  1  -0.00309699  0.17248239  0.16584731  1
  I  I109  1  0.00264393  0.16287186  0.50136227  1
  I  I110  1  0.00044859  0.16760279  0.83316909  1
  I  I111  1  -0.00360590  0.49548600  0.16872007  1
  I  I112  1  -0.00331435  0.49951467  0.49477661  1
  I  I113  1  -0.00069222  0.49970155  0.83508135  1
  I  I114  1  0.00000481  0.83229785  0.17021562  1
  I  I115  1  0.00361025  0.83822679  0.50467147  1
  I  I116  1  0.00367479  0.83320578  0.82535038  1
  I  I117  1  0.33624665  0.17050933  0.16750948  1
  I  I118  1  0.33307868  0.16341122  0.50002753  1
  I  I119  1  0.33010536  0.16684001  0.83273564  1
  I  I120  1  0.33623847  0.49563122  0.16643363  1
  I  I121  1  0.33329386  0.50050202  0.49969165  1
  I  I122  1  0.33019892  0.49929862  0.83359669  1
  I  I123  1  0.33349358  0.83243582  0.16267237  1
  I  I124  1  0.33258667  0.83684377  0.50414484  1
  I  I125  1  0.32861664  0.83380308  0.83329697  1
  I  I126  1  0.66680126  0.17181069  0.16757580  1
  I  I127  1  0.66419515  0.16355517  0.49878874  1
  I  I128  1  0.66992696  0.17437321  0.83349144  1
  I  I129  1  0.66793242  0.49525167  0.16571048  1
  I  I130  1  0.67008353  0.49945348  0.50520381  1
  I  I131  1  0.67044416  0.49366923  0.83084653  1
  I  I132  1  0.66649265  0.83245993  0.16852918  1
  I  I133  1  0.66392077  0.83812166  0.49730838  1
  I  I134  1  0.66657726  0.83223761  0.83260612  1
