# generated using pymatgen
data_Cs27Sn14Pb13I81
_symmetry_space_group_name_H-M   'P 1'
_cell_length_a   18.97546538
_cell_length_b   18.98182592
_cell_length_c   18.97034104
_cell_angle_alpha   89.99978077
_cell_angle_beta   89.99935020
_cell_angle_gamma   89.99828916
_symmetry_Int_Tables_number   1
_chemical_formula_structural   Cs27Sn14Pb13I81
_chemical_formula_sum   'Cs27 Sn14 Pb13 I81'
_cell_volume   6832.90779948
_cell_formula_units_Z   1
loop_
 _symmetry_equiv_pos_site_id
 _symmetry_equiv_pos_as_xyz
  1  'x, y, z'
loop_
 _atom_site_type_symbol
 _atom_site_label
 _atom_site_symmetry_multiplicity
 _atom_site_fract_x
 _atom_site_fract_y
 _atom_site_fract_z
 _atom_site_occupancy
  Cs  Cs0  1  0.00209302  -0.00052917  0.00666062  1
  Cs  Cs1  1  -0.00028826  0.00187244  0.33112825  1
  Cs  Cs2  1  0.00049407  0.00019313  0.66581705  1
  Cs  Cs3  1  -0.00117531  0.33233583  -0.00233904  1
  Cs  Cs4  1  0.00236501  0.33248399  0.33079889  1
  Cs  Cs5  1  -0.00080986  0.33289854  0.66811875  1
  Cs  Cs6  1  0.00080985  0.66821522  -0.00319063  1
  Cs  Cs7  1  0.00086217  0.66517645  0.33276787  1
  Cs  Cs8  1  -0.00165582  0.66607493  0.66720727  1
  Cs  Cs9  1  0.33338827  -0.00987774  -0.00127418  1
  Cs  Cs10  1  0.33422501  0.00277894  0.33599608  1
  Cs  Cs11  1  0.33175649  0.00032249  0.66673151  1
  Cs  Cs12  1  0.33536998  0.33456853  0.00051600  1
  Cs  Cs13  1  0.33161488  0.33873421  0.33126218  1
  Cs  Cs14  1  0.33330714  0.33309642  0.66656669  1
  Cs  Cs15  1  0.33995041  0.67640547  0.00699565  1
  Cs  Cs16  1  0.33427565  0.65527232  0.32847293  1
  Cs  Cs17  1  0.33342276  0.66646902  0.66672299  1
  Cs  Cs18  1  0.66379536  -0.00102565  0.00427697  1
  Cs  Cs19  1  0.66675891  0.00088483  0.33443015  1
  Cs  Cs20  1  0.66696408  0.00156306  0.66411971  1
  Cs  Cs21  1  0.66693582  0.33345222  -0.00449016  1
  Cs  Cs22  1  0.66681803  0.33113406  0.33415299  1
  Cs  Cs23  1  0.66793479  0.33263491  0.66820705  1
  Cs  Cs24  1  0.66190216  0.66691006  0.00379703  1
  Cs  Cs25  1  0.66584472  0.66801119  0.33216824  1
  Cs  Cs26  1  0.67085080  0.66508236  0.66574199  1
  Sn  Sn27  1  0.83365525  0.83364362  0.50067595  1
  Sn  Sn28  1  0.49985524  0.16680322  0.16725698  1
  Sn  Sn29  1  0.16642822  0.49974629  0.83345053  1
  Sn  Sn30  1  0.83366079  0.49970405  0.16639243  1
  Sn  Sn31  1  0.16634299  0.16620551  0.50069048  1
  Sn  Sn32  1  0.16581357  0.16727314  0.83275414  1
  Sn  Sn33  1  0.83350479  0.49967579  0.49964209  1
  Sn  Sn34  1  0.16668514  0.83359423  0.49998894  1
  Sn  Sn35  1  0.83369596  0.16668109  0.50049130  1
  Sn  Sn36  1  0.49985818  0.16618744  0.49919137  1
  Sn  Sn37  1  0.83391870  0.50018693  0.83356743  1
  Sn  Sn38  1  0.49966137  0.83373017  0.50024726  1
  Sn  Sn39  1  0.83426687  0.16568975  0.83278362  1
  Sn  Sn40  1  0.83326282  0.83395034  0.83275422  1
  Pb  Pb41  1  0.50249317  0.49730941  0.16666166  1
  Pb  Pb42  1  0.16458966  0.83359920  0.83137999  1
  Pb  Pb43  1  0.83195751  0.16835687  0.16632479  1
  Pb  Pb44  1  0.50019338  0.83582593  0.17023245  1
  Pb  Pb45  1  0.16916514  0.16668382  0.16612512  1
  Pb  Pb46  1  0.16428996  0.49965205  0.50183774  1
  Pb  Pb47  1  0.50244043  0.49961725  0.50030546  1
  Pb  Pb48  1  0.50307607  0.83346261  0.83019928  1
  Pb  Pb49  1  0.16646402  0.83338666  0.17058569  1
  Pb  Pb50  1  0.16421808  0.49983044  0.16270730  1
  Pb  Pb51  1  0.49956605  0.50023143  0.83325326  1
  Pb  Pb52  1  0.49956779  0.16659968  0.83274085  1
  Pb  Pb53  1  0.83347774  0.83101584  0.16705298  1
  I  I54  1  0.16534968  0.00028104  0.16135061  1
  I  I55  1  0.16313135  0.00135496  0.50531740  1
  I  I56  1  0.16293441  0.00308892  0.83052852  1
  I  I57  1  0.16746003  0.33327021  0.17273609  1
  I  I58  1  0.16694685  0.33003908  0.50159441  1
  I  I59  1  0.15733944  0.33219530  0.82684072  1
  I  I60  1  0.16646014  0.66644183  0.16732141  1
  I  I61  1  0.16557595  0.66911263  0.50195244  1
  I  I62  1  0.15943447  0.66443103  0.83051081  1
  I  I63  1  0.50304426  0.00344935  0.16821971  1
  I  I64  1  0.50523067  0.00102439  0.49649467  1
  I  I65  1  0.50019227  0.00020259  0.83668827  1
  I  I66  1  0.50025804  0.32983182  0.17538966  1
  I  I67  1  0.50064376  0.32966548  0.49680553  1
  I  I68  1  0.50563266  0.33304240  0.83085690  1
  I  I69  1  0.50053255  0.66673548  0.16710632  1
  I  I70  1  0.50116651  0.66969495  0.50225580  1
  I  I71  1  0.50033225  0.66695730  0.83132288  1
  I  I72  1  0.83156754  0.00012979  0.16641417  1
  I  I73  1  0.83242725  0.00040270  0.50615304  1
  I  I74  1  0.83610818  0.00094083  0.82443861  1
  I  I75  1  0.83152217  0.33621957  0.16729667  1
  I  I76  1  0.83226327  0.33251728  0.50254008  1
  I  I77  1  0.83601271  0.33307198  0.83052250  1
  I  I78  1  0.83311119  0.66300736  0.16736696  1
  I  I79  1  0.83284713  0.66704482  0.50306315  1
  I  I80  1  0.83685522  0.66610523  0.82891722  1
  I  I81  1  0.16136389  0.17197392  -0.00376692  1
  I  I82  1  0.16303424  0.16188870  0.33696769  1
  I  I83  1  0.16714688  0.16669329  0.66560208  1
  I  I84  1  0.15882139  0.49149906  -0.00518498  1
  I  I85  1  0.16483359  0.50052668  0.33339141  1
  I  I86  1  0.15894353  0.49831215  0.66961120  1
  I  I87  1  0.16469030  0.83389728  -0.00041670  1
  I  I88  1  0.16171137  0.84069417  0.33918788  1
  I  I89  1  0.16772607  0.83553148  0.66300561  1
  I  I90  1  0.50281277  0.17011827  0.00205079  1
  I  I91  1  0.50233009  0.16224216  0.33604142  1
  I  I92  1  0.50137648  0.16264869  0.66302010  1
  I  I93  1  0.50374238  0.49632432  0.00006522  1
  I  I94  1  0.50229338  0.50215704  0.33367697  1
  I  I95  1  0.50394247  0.49722117  0.66644666  1
  I  I96  1  0.50136188  0.83416929  0.00014430  1
  I  I97  1  0.50533836  0.83574219  0.33824739  1
  I  I98  1  0.49889398  0.84187906  0.66219806  1
  I  I99  1  0.83570769  0.16756994  -0.00350751  1
  I  I100  1  0.83503741  0.16643054  0.33688730  1
  I  I101  1  0.83131752  0.17026976  0.66559526  1
  I  I102  1  0.83681050  0.49849848  -0.00158123  1
  I  I103  1  0.83132160  0.49995278  0.33465413  1
  I  I104  1  0.83589322  0.50033092  0.66678481  1
  I  I105  1  0.83450230  0.83371489  -0.00328711  1
  I  I106  1  0.83257483  0.83383449  0.33761291  1
  I  I107  1  0.83273535  0.82945998  0.66517963  1
  I  I108  1  0.00000988  0.16797665  0.16945940  1
  I  I109  1  -0.00075917  0.16436922  0.50453310  1
  I  I110  1  -0.00127005  0.16874939  0.82504255  1
  I  I111  1  -0.00389262  0.49785733  0.17079745  1
  I  I112  1  -0.00435766  0.50050437  0.49902973  1
  I  I113  1  -0.00221606  0.49852910  0.83240620  1
  I  I114  1  -0.00041352  0.83459823  0.16940333  1
  I  I115  1  -0.00114774  0.83576306  0.50414804  1
  I  I116  1  -0.00373953  0.83193248  0.82608611  1
  I  I117  1  0.33685670  0.16728397  0.17294715  1
  I  I118  1  0.33288841  0.15916864  0.50093734  1
  I  I119  1  0.32988147  0.17278822  0.82921131  1
  I  I120  1  0.33330081  0.49969664  0.16640710  1
  I  I121  1  0.33300992  0.50066895  0.50173365  1
  I  I122  1  0.32967729  0.49200495  0.83026422  1
  I  I123  1  0.33355652  0.83312344  0.16458278  1
  I  I124  1  0.33316415  0.84320518  0.50031008  1
  I  I125  1  0.33308511  0.83320475  0.83223256  1
  I  I126  1  0.66423397  0.16764536  0.17239940  1
  I  I127  1  0.66788513  0.16483118  0.49990795  1
  I  I128  1  0.67010161  0.16856746  0.82979333  1
  I  I129  1  0.67059050  0.50030453  0.16446046  1
  I  I130  1  0.67146633  0.49961736  0.50356158  1
  I  I131  1  0.67109296  0.49823610  0.83246055  1
  I  I132  1  0.66688414  0.83260717  0.16773099  1
  I  I133  1  0.66787326  0.83605051  0.50344326  1
  I  I134  1  0.67167578  0.83309595  0.82742332  1
