# generated using pymatgen
data_Cs27Sn14Pb13I81
_symmetry_space_group_name_H-M   'P 1'
_cell_length_a   18.97336888
_cell_length_b   18.96835631
_cell_length_c   18.98368140
_cell_angle_alpha   90.00074487
_cell_angle_beta   89.99892580
_cell_angle_gamma   90.00024422
_symmetry_Int_Tables_number   1
_chemical_formula_structural   Cs27Sn14Pb13I81
_chemical_formula_sum   'Cs27 Sn14 Pb13 I81'
_cell_volume   6832.10584369
_cell_formula_units_Z   1
loop_
 _symmetry_equiv_pos_site_id
 _symmetry_equiv_pos_as_xyz
  1  'x, y, z'
loop_
 _atom_site_type_symbol
 _atom_site_label
 _atom_site_symmetry_multiplicity
 _atom_site_fract_x
 _atom_site_fract_y
 _atom_site_fract_z
 _atom_site_occupancy
  Cs  Cs0  1  -0.00047319  -0.00229079  0.00068844  1
  Cs  Cs1  1  0.00109624  -0.00153426  0.33105519  1
  Cs  Cs2  1  0.00404130  -0.00287312  0.66796199  1
  Cs  Cs3  1  0.00235816  0.33748435  -0.00342910  1
  Cs  Cs4  1  0.00020248  0.33563048  0.33670014  1
  Cs  Cs5  1  -0.00788828  0.33485209  0.66504006  1
  Cs  Cs6  1  0.00095693  0.66749709  0.00158042  1
  Cs  Cs7  1  -0.00121427  0.66612234  0.33286240  1
  Cs  Cs8  1  -0.00161291  0.66805227  0.66602419  1
  Cs  Cs9  1  0.33197749  -0.00111572  -0.00022806  1
  Cs  Cs10  1  0.33291057  -0.00005184  0.33531414  1
  Cs  Cs11  1  0.33091475  -0.00191649  0.66433508  1
  Cs  Cs12  1  0.33477526  0.33727000  -0.00140987  1
  Cs  Cs13  1  0.33213044  0.33572337  0.33115045  1
  Cs  Cs14  1  0.33445637  0.33455035  0.66961698  1
  Cs  Cs15  1  0.33419327  0.66491771  0.00116923  1
  Cs  Cs16  1  0.33470329  0.66572677  0.33281679  1
  Cs  Cs17  1  0.33476885  0.66886443  0.66593709  1
  Cs  Cs18  1  0.66980213  0.00432261  0.00338756  1
  Cs  Cs19  1  0.66528185  0.00870129  0.33157580  1
  Cs  Cs20  1  0.66332805  0.00342321  0.66437153  1
  Cs  Cs21  1  0.66483982  0.32515092  -0.00638975  1
  Cs  Cs22  1  0.66874892  0.33021384  0.33419423  1
  Cs  Cs23  1  0.67645482  0.32857707  0.67455802  1
  Cs  Cs24  1  0.66465182  0.66782397  0.00329620  1
  Cs  Cs25  1  0.66443261  0.66593083  0.33111509  1
  Cs  Cs26  1  0.66790903  0.66602085  0.66619884  1
  Sn  Sn27  1  0.50145349  0.50033805  0.16755635  1
  Sn  Sn28  1  0.49923194  0.83307843  0.16624232  1
  Sn  Sn29  1  0.16597518  0.83305504  0.49975120  1
  Sn  Sn30  1  0.50018523  0.83311943  0.83421693  1
  Sn  Sn31  1  0.83294276  0.83312922  0.83257077  1
  Sn  Sn32  1  0.83344907  0.83335597  0.50005461  1
  Sn  Sn33  1  0.16683440  0.16605445  0.16649900  1
  Sn  Sn34  1  0.16758650  0.50030940  0.50022658  1
  Sn  Sn35  1  0.16685434  0.83361735  0.83353524  1
  Sn  Sn36  1  0.83179425  0.49990441  0.16641739  1
  Sn  Sn37  1  0.16693489  0.16688228  0.50018803  1
  Sn  Sn38  1  0.16764658  0.83377973  0.16680383  1
  Sn  Sn39  1  0.16679670  0.16606387  0.83330106  1
  Sn  Sn40  1  0.49998077  0.49962622  0.49989798  1
  Pb  Pb41  1  0.83272739  0.50199487  0.49858359  1
  Pb  Pb42  1  0.49728036  0.16338105  0.83324674  1
  Pb  Pb43  1  0.16720065  0.50028132  0.16836687  1
  Pb  Pb44  1  0.83593995  0.16335008  0.49984721  1
  Pb  Pb45  1  0.83302310  0.83248975  0.16694714  1
  Pb  Pb46  1  0.50023063  0.83217613  0.49949662  1
  Pb  Pb47  1  0.83636845  0.16338268  0.83342036  1
  Pb  Pb48  1  0.83317747  0.50268588  0.83627206  1
  Pb  Pb49  1  0.50008216  0.50192849  0.83324347  1
  Pb  Pb50  1  0.83666214  0.17007186  0.16659771  1
  Pb  Pb51  1  0.49753549  0.16684028  0.16676216  1
  Pb  Pb52  1  0.49769532  0.17057806  0.50016287  1
  Pb  Pb53  1  0.16658931  0.50046693  0.83002005  1
  I  I54  1  0.17121507  -0.00191211  0.17057790  1
  I  I55  1  0.16194332  -0.00112075  0.50017277  1
  I  I56  1  0.16694656  -0.00189877  0.82953287  1
  I  I57  1  0.16576772  0.33097357  0.16721899  1
  I  I58  1  0.17261849  0.33331710  0.49784483  1
  I  I59  1  0.16730462  0.33041600  0.83531433  1
  I  I60  1  0.16708818  0.66982995  0.16618998  1
  I  I61  1  0.16650420  0.66788587  0.49935194  1
  I  I62  1  0.16661875  0.67078187  0.83441829  1
  I  I63  1  0.49749644  -0.00336796  0.16261116  1
  I  I64  1  0.49999069  -0.00006485  0.49984442  1
  I  I65  1  0.50163900  -0.00514957  0.83913921  1
  I  I66  1  0.50131542  0.33666168  0.17235471  1
  I  I67  1  0.49286518  0.33851306  0.49136687  1
  I  I68  1  0.49737847  0.33313362  0.83406821  1
  I  I69  1  0.49662961  0.66750577  0.16636687  1
  I  I70  1  0.49266869  0.66440484  0.49837210  1
  I  I71  1  0.49475701  0.67063807  0.83467355  1
  I  I72  1  0.83147094  -0.00002840  0.16660580  1
  I  I73  1  0.83858224  -0.00487111  0.50274830  1
  I  I74  1  0.83214803  -0.00482359  0.83123362  1
  I  I75  1  0.82859131  0.33780864  0.16953439  1
  I  I76  1  0.83523024  0.33339481  0.49791605  1
  I  I77  1  0.83510388  0.33308195  0.83404653  1
  I  I78  1  0.83544169  0.66477806  0.16701110  1
  I  I79  1  0.84154004  0.66988960  0.50351766  1
  I  I80  1  0.83853176  0.67103632  0.82906856  1
  I  I81  1  0.16626558  0.15806396  0.00000705  1
  I  I82  1  0.16690449  0.16298583  0.33357496  1
  I  I83  1  0.16782853  0.16153908  0.66642573  1
  I  I84  1  0.16667432  0.49967023  0.00001737  1
  I  I85  1  0.16733016  0.50119459  0.33632974  1
  I  I86  1  0.17227063  0.50187900  0.66189460  1
  I  I87  1  0.16641117  0.83930380  0.00000821  1
  I  I88  1  0.16613131  0.83531226  0.33356301  1
  I  I89  1  0.16653761  0.83527806  0.66661101  1
  I  I90  1  0.49636510  0.17165845  0.00008617  1
  I  I91  1  0.49643914  0.16042546  0.33337401  1
  I  I92  1  0.49600374  0.16533548  0.66666579  1
  I  I93  1  0.50225030  0.50343731  0.00328158  1
  I  I94  1  0.49798731  0.50783937  0.33250854  1
  I  I95  1  0.49225452  0.50323390  0.66368676  1
  I  I96  1  0.49541763  0.82705334  0.00074001  1
  I  I97  1  0.49550042  0.83005523  0.33049063  1
  I  I98  1  0.49656240  0.83191770  0.66880745  1
  I  I99  1  0.83622733  0.16457487  0.00001405  1
  I  I100  1  0.83654034  0.16288615  0.33324374  1
  I  I101  1  0.83511622  0.17082221  0.66663290  1
  I  I102  1  0.82972577  0.50332712  0.00407707  1
  I  I103  1  0.83397838  0.50501577  0.33088131  1
  I  I104  1  0.83413950  0.49961804  0.66663352  1
  I  I105  1  0.83727940  0.83106099  -0.00232425  1
  I  I106  1  0.83943222  0.83044947  0.33558456  1
  I  I107  1  0.83872343  0.83185199  0.66674909  1
  I  I108  1  0.00497621  0.15957960  0.16732106  1
  I  I109  1  0.00496890  0.17233436  0.50000215  1
  I  I110  1  0.00464770  0.16041411  0.83299577  1
  I  I111  1  -0.00126040  0.50101938  0.16847072  1
  I  I112  1  0.00283807  0.49871639  0.49788599  1
  I  I113  1  0.00017079  0.50234757  0.83497079  1
  I  I114  1  0.00309514  0.83481449  0.16496469  1
  I  I115  1  0.00256685  0.83144351  0.50265974  1
  I  I116  1  0.00148374  0.83706131  0.83271191  1
  I  I117  1  0.32902500  0.16658749  0.16735511  1
  I  I118  1  0.32861797  0.15877262  0.49965443  1
  I  I119  1  0.32884397  0.16061518  0.83308296  1
  I  I120  1  0.33572789  0.50184700  0.16917534  1
  I  I121  1  0.33224544  0.50302624  0.49364255  1
  I  I122  1  0.33310507  0.50224721  0.83768337  1
  I  I123  1  0.33224365  0.83086038  0.16410058  1
  I  I124  1  0.32999534  0.83501347  0.50211432  1
  I  I125  1  0.33208369  0.83665545  0.83336550  1
  I  I126  1  0.66661757  0.16339132  0.16705687  1
  I  I127  1  0.66681647  0.16560663  0.49914567  1
  I  I128  1  0.66681622  0.16634593  0.83338977  1
  I  I129  1  0.66500706  0.51032244  0.17358408  1
  I  I130  1  0.66386535  0.50617969  0.49610514  1
  I  I131  1  0.66660255  0.50318637  0.82781341  1
  I  I132  1  0.66386564  0.82881515  0.16359672  1
  I  I133  1  0.66893683  0.82841297  0.50365653  1
  I  I134  1  0.66648847  0.82876551  0.83310799  1
