# generated using pymatgen
data_Cs27Sn14Pb13I81
_symmetry_space_group_name_H-M   'P 1'
_cell_length_a   18.97866152
_cell_length_b   18.96851899
_cell_length_c   18.98254595
_cell_angle_alpha   89.99956169
_cell_angle_beta   90.00150406
_cell_angle_gamma   90.00016396
_symmetry_Int_Tables_number   1
_chemical_formula_structural   Cs27Sn14Pb13I81
_chemical_formula_sum   'Cs27 Sn14 Pb13 I81'
_cell_volume   6833.66151892
_cell_formula_units_Z   1
loop_
 _symmetry_equiv_pos_site_id
 _symmetry_equiv_pos_as_xyz
  1  'x, y, z'
loop_
 _atom_site_type_symbol
 _atom_site_label
 _atom_site_symmetry_multiplicity
 _atom_site_fract_x
 _atom_site_fract_y
 _atom_site_fract_z
 _atom_site_occupancy
  Cs  Cs0  1  -0.00130588  0.00057552  0.00114908  1
  Cs  Cs1  1  -0.00087902  0.00153379  0.33085429  1
  Cs  Cs2  1  -0.00027063  0.00021358  0.66771191  1
  Cs  Cs3  1  -0.00159586  0.33637181  0.00093422  1
  Cs  Cs4  1  -0.00100192  0.33577167  0.33339125  1
  Cs  Cs5  1  -0.00316571  0.33442069  0.66529742  1
  Cs  Cs6  1  0.00115824  0.65810269  -0.00099760  1
  Cs  Cs7  1  0.00080280  0.65620978  0.33416349  1
  Cs  Cs8  1  0.00660510  0.66088622  0.66722733  1
  Cs  Cs9  1  0.33319587  0.00052094  0.00168776  1
  Cs  Cs10  1  0.33391054  0.00051566  0.33307052  1
  Cs  Cs11  1  0.33314534  0.00015486  0.66688015  1
  Cs  Cs12  1  0.33665530  0.33785684  -0.00012636  1
  Cs  Cs13  1  0.33364069  0.33090222  0.33183840  1
  Cs  Cs14  1  0.33742269  0.32911567  0.66929618  1
  Cs  Cs15  1  0.33133765  0.66130566  0.00070632  1
  Cs  Cs16  1  0.33369791  0.66621924  0.33290706  1
  Cs  Cs17  1  0.32406205  0.67054719  0.66614645  1
  Cs  Cs18  1  0.66874241  -0.00144904  -0.00066503  1
  Cs  Cs19  1  0.66644410  -0.00100941  0.33391188  1
  Cs  Cs20  1  0.66659752  -0.00042324  0.66684400  1
  Cs  Cs21  1  0.66473993  0.34261599  -0.00253324  1
  Cs  Cs22  1  0.66697994  0.33365073  0.33444142  1
  Cs  Cs23  1  0.66679728  0.33387542  0.66802863  1
  Cs  Cs24  1  0.66758504  0.66428357  0.00105819  1
  Cs  Cs25  1  0.66559833  0.66905509  0.33360540  1
  Cs  Cs26  1  0.66848540  0.67043110  0.66479242  1
  Sn  Sn27  1  0.16749495  0.16563800  0.16635257  1
  Sn  Sn28  1  0.83379317  0.16564663  0.83280163  1
  Sn  Sn29  1  0.16579579  0.16591467  0.83372406  1
  Sn  Sn30  1  0.49908164  0.83455659  0.16644092  1
  Sn  Sn31  1  0.50024291  0.83348044  0.50023209  1
  Sn  Sn32  1  0.83353146  0.83422443  0.50072257  1
  Sn  Sn33  1  0.49979131  0.50032298  0.50046259  1
  Sn  Sn34  1  0.16697002  0.83419999  0.16685507  1
  Sn  Sn35  1  0.83309332  0.16533451  0.50073609  1
  Sn  Sn36  1  0.50030110  0.83380445  0.83337027  1
  Sn  Sn37  1  0.50026286  0.16646532  0.49929571  1
  Sn  Sn38  1  0.83311170  0.83416351  0.83235924  1
  Sn  Sn39  1  0.16651976  0.16599231  0.49994817  1
  Sn  Sn40  1  0.49985858  0.16567264  0.16697729  1
  Pb  Pb41  1  0.16693710  0.49602638  0.83306739  1
  Pb  Pb42  1  0.50001876  0.50428157  0.83000999  1
  Pb  Pb43  1  0.16602456  0.83523196  0.83576706  1
  Pb  Pb44  1  0.83107084  0.50021606  0.50015245  1
  Pb  Pb45  1  0.16708126  0.49927049  0.16686333  1
  Pb  Pb46  1  0.16592886  0.83529218  0.49780549  1
  Pb  Pb47  1  0.83307524  0.50046583  0.83278214  1
  Pb  Pb48  1  0.83359357  0.83322718  0.16680743  1
  Pb  Pb49  1  0.50003494  0.50016840  0.16889784  1
  Pb  Pb50  1  0.16974118  0.49636962  0.50005274  1
  Pb  Pb51  1  0.50059031  0.16506527  0.83381806  1
  Pb  Pb52  1  0.83292435  0.50005270  0.16694277  1
  Pb  Pb53  1  0.83269338  0.16684593  0.16640257  1
  I  I54  1  0.17198916  0.00147060  0.16721354  1
  I  I55  1  0.17163982  0.00381147  0.50176616  1
  I  I56  1  0.16577133  0.00351589  0.83075501  1
  I  I57  1  0.17108131  0.32889391  0.16696444  1
  I  I58  1  0.16482302  0.32768239  0.49681172  1
  I  I59  1  0.16144428  0.32740468  0.83551941  1
  I  I60  1  0.17121472  0.66977257  0.16661129  1
  I  I61  1  0.16631546  0.66681871  0.49780210  1
  I  I62  1  0.16647102  0.66702177  0.83548636  1
  I  I63  1  0.49547710  -0.00018911  0.17240893  1
  I  I64  1  0.50073468  0.00016354  0.49877371  1
  I  I65  1  0.50088101  -0.00300616  0.82894134  1
  I  I66  1  0.49575901  0.32976589  0.17102949  1
  I  I67  1  0.49928790  0.33107996  0.49465774  1
  I  I68  1  0.49954113  0.33320228  0.83395672  1
  I  I69  1  0.49681503  0.67053846  0.16740879  1
  I  I70  1  0.50633641  0.66868357  0.49913266  1
  I  I71  1  0.50696935  0.67244415  0.83617868  1
  I  I72  1  0.83356483  0.00008969  0.16672360  1
  I  I73  1  0.82773965  0.00083963  0.50383282  1
  I  I74  1  0.83300215  0.00025851  0.82851425  1
  I  I75  1  0.83344953  0.33251443  0.16709446  1
  I  I76  1  0.83320556  0.32948020  0.50315710  1
  I  I77  1  0.83794483  0.32972310  0.82947753  1
  I  I78  1  0.83316056  0.66748252  0.16716506  1
  I  I79  1  0.82758194  0.67046300  0.50280863  1
  I  I80  1  0.82749613  0.67067772  0.82984413  1
  I  I81  1  0.16657992  0.16150705  0.00050422  1
  I  I82  1  0.16826122  0.16297617  0.33337411  1
  I  I83  1  0.16746491  0.16731341  0.66610166  1
  I  I84  1  0.16694405  0.49934830  0.00007127  1
  I  I85  1  0.16578654  0.49866998  0.33353330  1
  I  I86  1  0.16745247  0.50179643  0.66636903  1
  I  I87  1  0.17144036  0.84101946  0.00343179  1
  I  I88  1  0.17151700  0.84048995  0.33011231  1
  I  I89  1  0.17042306  0.83494182  0.66661012  1
  I  I90  1  0.49640144  0.16110453  0.00269830  1
  I  I91  1  0.49717967  0.16317027  0.33457957  1
  I  I92  1  0.49703344  0.16618094  0.66370635  1
  I  I93  1  0.50024153  0.49828001  -0.00020067  1
  I  I94  1  0.50058823  0.50298421  0.33667097  1
  I  I95  1  0.50114657  0.49406409  0.66243899  1
  I  I96  1  0.50069829  0.84041913  0.00058807  1
  I  I97  1  0.50061595  0.83384800  0.33416544  1
  I  I98  1  0.50505910  0.83415834  0.66556059  1
  I  I99  1  0.83695694  0.16130096  -0.00321805  1
  I  I100  1  0.83454901  0.16248889  0.33671898  1
  I  I101  1  0.83606714  0.16337539  0.66570448  1
  I  I102  1  0.83272266  0.49939661  -0.00049155  1
  I  I103  1  0.83357255  0.49981626  0.33407861  1
  I  I104  1  0.83193969  0.49861706  0.66644156  1
  I  I105  1  0.82922816  0.83916274  -0.00309209  1
  I  I106  1  0.82852172  0.83899643  0.33671207  1
  I  I107  1  0.82301880  0.83886055  0.66604159  1
  I  I108  1  0.00301113  0.16222717  0.16930555  1
  I  I109  1  -0.00046083  0.16132309  0.50014288  1
  I  I110  1  -0.00044312  0.16068294  0.83026930  1
  I  I111  1  0.00044327  0.50062706  0.16741144  1
  I  I112  1  0.00012093  0.50067600  0.49941709  1
  I  I113  1  -0.00000346  0.50523248  0.83324323  1
  I  I114  1  0.00297294  0.84023498  0.16670542  1
  I  I115  1  -0.00308547  0.83950079  0.50346960  1
  I  I116  1  -0.00305980  0.83670413  0.82929806  1
  I  I117  1  0.33372627  0.16285363  0.17058487  1
  I  I118  1  0.33412466  0.16701077  0.49969798  1
  I  I119  1  0.33140323  0.16482439  0.83021352  1
  I  I120  1  0.33356055  0.49974408  0.16747497  1
  I  I121  1  0.33754218  0.50263939  0.49895229  1
  I  I122  1  0.33367136  0.49929568  0.83312790  1
  I  I123  1  0.33489875  0.83808185  0.16749211  1
  I  I124  1  0.33655735  0.83400690  0.50248949  1
  I  I125  1  0.33593585  0.83525849  0.82973243  1
  I  I126  1  0.66310923  0.16135613  0.17135096  1
  I  I127  1  0.66592802  0.16635292  0.49970547  1
  I  I128  1  0.66933950  0.16408492  0.82942856  1
  I  I129  1  0.66590229  0.49879947  0.16660782  1
  I  I130  1  0.66330588  0.49527497  0.49894055  1
  I  I131  1  0.66638716  0.49268424  0.83444078  1
  I  I132  1  0.66324691  0.83798509  0.16770945  1
  I  I133  1  0.66525424  0.83742546  0.49854735  1
  I  I134  1  0.66655553  0.84003835  0.83372520  1
