# generated using pymatgen
data_Cs27Sn14Pb13I81
_symmetry_space_group_name_H-M   'P 1'
_cell_length_a   18.96146882
_cell_length_b   18.96031720
_cell_length_c   18.95976107
_cell_angle_alpha   90.00123186
_cell_angle_beta   89.99996177
_cell_angle_gamma   89.99910647
_symmetry_Int_Tables_number   1
_chemical_formula_structural   Cs27Sn14Pb13I81
_chemical_formula_sum   'Cs27 Sn14 Pb13 I81'
_cell_volume   6816.32728227
_cell_formula_units_Z   1
loop_
 _symmetry_equiv_pos_site_id
 _symmetry_equiv_pos_as_xyz
  1  'x, y, z'
loop_
 _atom_site_type_symbol
 _atom_site_label
 _atom_site_symmetry_multiplicity
 _atom_site_fract_x
 _atom_site_fract_y
 _atom_site_fract_z
 _atom_site_occupancy
  Cs  Cs0  1  -0.00046287  0.00092493  0.00273598  1
  Cs  Cs1  1  0.00324982  0.00771095  0.33037216  1
  Cs  Cs2  1  -0.00033372  -0.00100931  0.66510391  1
  Cs  Cs3  1  0.00157809  0.33366644  0.00174799  1
  Cs  Cs4  1  0.00109027  0.33139546  0.33140248  1
  Cs  Cs5  1  -0.00388663  0.33764244  0.66638093  1
  Cs  Cs6  1  0.00109868  0.66585454  -0.00013343  1
  Cs  Cs7  1  -0.00097023  0.66563229  0.33443917  1
  Cs  Cs8  1  -0.00040119  0.66511552  0.66636068  1
  Cs  Cs9  1  0.33325877  0.00230634  -0.00129258  1
  Cs  Cs10  1  0.32994601  0.00024929  0.34345023  1
  Cs  Cs11  1  0.33293322  -0.00201274  0.66412574  1
  Cs  Cs12  1  0.33312651  0.33184883  -0.00136739  1
  Cs  Cs13  1  0.33514224  0.33183274  0.33373215  1
  Cs  Cs14  1  0.33561243  0.33349990  0.66944323  1
  Cs  Cs15  1  0.33157925  0.66611474  -0.00100452  1
  Cs  Cs16  1  0.33855284  0.66803657  0.33407739  1
  Cs  Cs17  1  0.33111161  0.66909243  0.66752459  1
  Cs  Cs18  1  0.66732136  -0.00071725  0.00013475  1
  Cs  Cs19  1  0.66669934  -0.00159409  0.33048060  1
  Cs  Cs20  1  0.66742480  0.00314628  0.66866068  1
  Cs  Cs21  1  0.66466225  0.33249084  -0.00202074  1
  Cs  Cs22  1  0.66339246  0.33592294  0.33961232  1
  Cs  Cs23  1  0.66781887  0.33177791  0.66595563  1
  Cs  Cs24  1  0.66684707  0.66797753  0.00158120  1
  Cs  Cs25  1  0.66318408  0.66661392  0.33032089  1
  Cs  Cs26  1  0.67056346  0.66546738  0.66788693  1
  Sn  Sn27  1  0.83364942  0.83277353  0.50025963  1
  Sn  Sn28  1  0.83358084  0.83251036  0.83280920  1
  Sn  Sn29  1  0.16683468  0.83264212  0.16630029  1
  Sn  Sn30  1  0.16684664  0.16564474  0.83322770  1
  Sn  Sn31  1  0.16638240  0.50023919  0.49868194  1
  Sn  Sn32  1  0.16633090  0.50095271  0.16788849  1
  Sn  Sn33  1  0.49903287  0.16633393  0.83419533  1
  Sn  Sn34  1  0.83239767  0.50074420  0.83381348  1
  Sn  Sn35  1  0.83370902  0.50007094  0.16662444  1
  Sn  Sn36  1  0.50011174  0.83335585  0.83358176  1
  Sn  Sn37  1  0.16630002  0.83440378  0.83410806  1
  Sn  Sn38  1  0.50102263  0.50030998  0.83353174  1
  Sn  Sn39  1  0.49995802  0.16638486  0.16617408  1
  Sn  Sn40  1  0.83427197  0.50113335  0.49962022  1
  Pb  Pb41  1  0.83342244  0.16636644  0.83346559  1
  Pb  Pb42  1  0.83345493  0.16652672  0.49983082  1
  Pb  Pb43  1  0.50018689  0.50029976  0.50281138  1
  Pb  Pb44  1  0.50003092  0.16642477  0.50045646  1
  Pb  Pb45  1  0.83531401  0.83160700  0.16658934  1
  Pb  Pb46  1  0.50325187  0.83317055  0.50262162  1
  Pb  Pb47  1  0.83050230  0.16982139  0.16664624  1
  Pb  Pb48  1  0.16853320  0.16689073  0.16491871  1
  Pb  Pb49  1  0.16646212  0.16992619  0.50339514  1
  Pb  Pb50  1  0.16633483  0.50023717  0.83351255  1
  Pb  Pb51  1  0.49960389  0.49867036  0.16442939  1
  Pb  Pb52  1  0.49700618  0.83564514  0.16466212  1
  Pb  Pb53  1  0.16447381  0.83139362  0.50004153  1
  I  I54  1  0.16728133  -0.00251818  0.16252037  1
  I  I55  1  0.16524149  -0.00021143  0.49788844  1
  I  I56  1  0.16926863  -0.00144090  0.83836259  1
  I  I57  1  0.16364246  0.33641738  0.16781631  1
  I  I58  1  0.16007671  0.33797452  0.49588833  1
  I  I59  1  0.17049861  0.33175847  0.83333540  1
  I  I60  1  0.16319666  0.66586847  0.16232374  1
  I  I61  1  0.16361294  0.66331671  0.50265515  1
  I  I62  1  0.16886447  0.66915492  0.83406688  1
  I  I63  1  0.49989477  0.00324605  0.15863178  1
  I  I64  1  0.50111453  -0.00026372  0.50215441  1
  I  I65  1  0.49960110  -0.00023485  0.83687829  1
  I  I66  1  0.49869402  0.33093595  0.15823142  1
  I  I67  1  0.50211686  0.33361980  0.50386954  1
  I  I68  1  0.49903789  0.33330925  0.83642715  1
  I  I69  1  0.50101927  0.66678568  0.16466898  1
  I  I70  1  0.49743868  0.66657934  0.50088747  1
  I  I71  1  0.50017274  0.66692765  0.83247046  1
  I  I72  1  0.83450284  -0.00019399  0.16634487  1
  I  I73  1  0.83215944  -0.00355131  0.50786384  1
  I  I74  1  0.83149796  -0.00354920  0.82866572  1
  I  I75  1  0.84056701  0.33842620  0.16493754  1
  I  I76  1  0.83604658  0.33748456  0.50202685  1
  I  I77  1  0.83107853  0.33675864  0.83209113  1
  I  I78  1  0.83428315  0.66307134  0.16498524  1
  I  I79  1  0.83752008  0.66527866  0.50374340  1
  I  I80  1  0.83090426  0.66628138  0.83244453  1
  I  I81  1  0.16913232  0.16806294  -0.00334132  1
  I  I82  1  0.16891124  0.16421436  0.33327877  1
  I  I83  1  0.17326346  0.16180311  0.67144704  1
  I  I84  1  0.16379422  0.50056344  0.00201963  1
  I  I85  1  0.15853326  0.50438928  0.33236825  1
  I  I86  1  0.16355409  0.49936664  0.66512934  1
  I  I87  1  0.16483249  0.83046973  -0.00172493  1
  I  I88  1  0.16493742  0.83075167  0.33080015  1
  I  I89  1  0.16870783  0.83498945  0.67001133  1
  I  I90  1  0.49621335  0.16789957  -0.00261557  1
  I  I91  1  0.50049457  0.16944120  0.33051904  1
  I  I92  1  0.49694804  0.16720218  0.67098388  1
  I  I93  1  0.50317219  0.50139318  -0.00406447  1
  I  I94  1  0.50215155  0.49635833  0.33315179  1
  I  I95  1  0.50265929  0.49739303  0.67142237  1
  I  I96  1  0.50501712  0.83102349  -0.00427355  1
  I  I97  1  0.49990895  0.83567675  0.33312846  1
  I  I98  1  0.49410388  0.83511290  0.67169392  1
  I  I99  1  0.83498488  0.16757558  -0.00026289  1
  I  I100  1  0.83155992  0.16546662  0.33313072  1
  I  I101  1  0.83145094  0.17168241  0.66706321  1
  I  I102  1  0.83384024  0.50331428  -0.00089490  1
  I  I103  1  0.83845807  0.50310788  0.33368886  1
  I  I104  1  0.83419237  0.50313458  0.66729099  1
  I  I105  1  0.83177540  0.82914067  -0.00337075  1
  I  I106  1  0.83490548  0.82818266  0.33577909  1
  I  I107  1  0.83478111  0.82545753  0.66872418  1
  I  I108  1  0.00030242  0.16585989  0.16508616  1
  I  I109  1  0.00017336  0.16565309  0.50182764  1
  I  I110  1  0.00276891  0.16466663  0.83329510  1
  I  I111  1  0.00011247  0.50295326  0.16402772  1
  I  I112  1  -0.00113907  0.50324921  0.50330775  1
  I  I113  1  -0.00269711  0.50248061  0.83273036  1
  I  I114  1  0.00330453  0.83166047  0.15950794  1
  I  I115  1  -0.00334619  0.82929972  0.50798285  1
  I  I116  1  -0.00006022  0.83209545  0.83304514  1
  I  I117  1  0.33612234  0.16981698  0.16079505  1
  I  I118  1  0.33309574  0.16860863  0.49943047  1
  I  I119  1  0.33409957  0.16593344  0.83699544  1
  I  I120  1  0.33023172  0.50196616  0.16843680  1
  I  I121  1  0.33049981  0.49899647  0.49743195  1
  I  I122  1  0.33522628  0.50110324  0.83367746  1
  I  I123  1  0.32906139  0.82582003  0.16013657  1
  I  I124  1  0.33299400  0.83221040  0.50113140  1
  I  I125  1  0.33304060  0.83296868  0.83807293  1
  I  I126  1  0.66285180  0.16699608  0.15755157  1
  I  I127  1  0.66670615  0.16996928  0.50299520  1
  I  I128  1  0.66357891  0.16553774  0.83635970  1
  I  I129  1  0.66936840  0.49832041  0.16807361  1
  I  I130  1  0.67030001  0.50281627  0.49812953  1
  I  I131  1  0.66764840  0.50176208  0.83327243  1
  I  I132  1  0.66665486  0.83284952  0.16604278  1
  I  I133  1  0.67134920  0.82591625  0.50470063  1
  I  I134  1  0.66698995  0.83261898  0.82878517  1
