# generated using pymatgen
data_Cs27Sn14Pb13I81
_symmetry_space_group_name_H-M   'P 1'
_cell_length_a   18.97359456
_cell_length_b   18.97198122
_cell_length_c   18.98276908
_cell_angle_alpha   90.00046305
_cell_angle_beta   89.99822576
_cell_angle_gamma   90.00075417
_symmetry_Int_Tables_number   1
_chemical_formula_structural   Cs27Sn14Pb13I81
_chemical_formula_sum   'Cs27 Sn14 Pb13 I81'
_cell_volume   6833.16435276
_cell_formula_units_Z   1
loop_
 _symmetry_equiv_pos_site_id
 _symmetry_equiv_pos_as_xyz
  1  'x, y, z'
loop_
 _atom_site_type_symbol
 _atom_site_label
 _atom_site_symmetry_multiplicity
 _atom_site_fract_x
 _atom_site_fract_y
 _atom_site_fract_z
 _atom_site_occupancy
  Cs  Cs0  1  0.00021461  -0.00043226  0.00032691  1
  Cs  Cs1  1  -0.00209000  -0.00218636  0.33182475  1
  Cs  Cs2  1  0.00016590  0.00011294  0.66744064  1
  Cs  Cs3  1  -0.00218428  0.33501119  0.00009856  1
  Cs  Cs4  1  0.00168266  0.33585092  0.33250391  1
  Cs  Cs5  1  0.00193121  0.33038093  0.66721098  1
  Cs  Cs6  1  0.00057870  0.66553918  -0.00030405  1
  Cs  Cs7  1  0.00062085  0.66983917  0.33098963  1
  Cs  Cs8  1  -0.00159142  0.67144526  0.66981286  1
  Cs  Cs9  1  0.33466687  -0.00180677  0.00168209  1
  Cs  Cs10  1  0.33464490  -0.00016645  0.33113235  1
  Cs  Cs11  1  0.33210729  0.00133602  0.66723696  1
  Cs  Cs12  1  0.33330350  0.33179863  0.00528351  1
  Cs  Cs13  1  0.33352305  0.34397531  0.33527174  1
  Cs  Cs14  1  0.32974059  0.33163842  0.66181462  1
  Cs  Cs15  1  0.33781581  0.66929974  -0.00213925  1
  Cs  Cs16  1  0.33270059  0.65871126  0.33414018  1
  Cs  Cs17  1  0.33638321  0.66548126  0.66745222  1
  Cs  Cs18  1  0.66459167  0.00132093  0.00077141  1
  Cs  Cs19  1  0.66805988  0.00135050  0.33449181  1
  Cs  Cs20  1  0.66806349  0.00041237  0.66489685  1
  Cs  Cs21  1  0.66874701  0.33677604  -0.00004062  1
  Cs  Cs22  1  0.66531065  0.33119743  0.33344711  1
  Cs  Cs23  1  0.66764375  0.33322552  0.66659651  1
  Cs  Cs24  1  0.66026147  0.65940599  -0.00388767  1
  Cs  Cs25  1  0.66585371  0.66392750  0.33586615  1
  Cs  Cs26  1  0.66430359  0.66350680  0.66809057  1
  Sn  Sn27  1  0.83316444  0.16767857  0.50004787  1
  Sn  Sn28  1  0.16611773  0.83262930  0.83351359  1
  Sn  Sn29  1  0.50031509  0.16555351  0.50084270  1
  Sn  Sn30  1  0.83346703  0.83406032  0.83486353  1
  Sn  Sn31  1  0.83435786  0.16567506  0.16650643  1
  Sn  Sn32  1  0.83263786  0.16567871  0.83347802  1
  Sn  Sn33  1  0.16583619  0.16589945  0.16710142  1
  Sn  Sn34  1  0.16650324  0.50076426  0.83326016  1
  Sn  Sn35  1  0.16607241  0.83426783  0.16654309  1
  Sn  Sn36  1  0.49887991  0.83439884  0.49988995  1
  Sn  Sn37  1  0.16798826  0.83390114  0.49993711  1
  Sn  Sn38  1  0.83400417  0.49883628  0.50016352  1
  Sn  Sn39  1  0.83336691  0.83386433  0.16495524  1
  Sn  Sn40  1  0.50071162  0.16630772  0.83251554  1
  Pb  Pb41  1  0.50037264  0.83534423  0.83133723  1
  Pb  Pb42  1  0.16664621  0.16476812  0.49731695  1
  Pb  Pb43  1  0.49690922  0.49613215  0.83297018  1
  Pb  Pb44  1  0.50223429  0.49942212  0.50029609  1
  Pb  Pb45  1  0.16399503  0.50314699  0.50227060  1
  Pb  Pb46  1  0.50019578  0.50013295  0.16643991  1
  Pb  Pb47  1  0.16656203  0.16590963  0.83536575  1
  Pb  Pb48  1  0.50050632  0.83326966  0.16930798  1
  Pb  Pb49  1  0.16635041  0.50081735  0.16426676  1
  Pb  Pb50  1  0.83340371  0.50046243  0.16872447  1
  Pb  Pb51  1  0.50033447  0.16663064  0.16722364  1
  Pb  Pb52  1  0.83481164  0.50001077  0.83156604  1
  Pb  Pb53  1  0.83330422  0.83396096  0.50012084  1
  I  I54  1  0.16213227  -0.00116592  0.16434813  1
  I  I55  1  0.16485221  -0.00338559  0.50592281  1
  I  I56  1  0.16521229  -0.00313625  0.83141696  1
  I  I57  1  0.16291107  0.33051315  0.16434600  1
  I  I58  1  0.16919312  0.33323866  0.50012105  1
  I  I59  1  0.16648084  0.33457456  0.83496377  1
  I  I60  1  0.16139706  0.67071179  0.16954543  1
  I  I61  1  0.17022527  0.67138161  0.49438671  1
  I  I62  1  0.15988911  0.66936654  0.83433996  1
  I  I63  1  0.49871333  0.00010129  0.16550043  1
  I  I64  1  0.50316516  0.00097302  0.50352627  1
  I  I65  1  0.49971128  0.00326350  0.83080582  1
  I  I66  1  0.49846437  0.33254043  0.16879412  1
  I  I67  1  0.50275239  0.32967400  0.50313977  1
  I  I68  1  0.50602896  0.32826900  0.82723009  1
  I  I69  1  0.50031431  0.66732618  0.16898655  1
  I  I70  1  0.49778907  0.66945430  0.49869648  1
  I  I71  1  0.50272060  0.66677988  0.83190820  1
  I  I72  1  0.83800170  0.00061939  0.16854895  1
  I  I73  1  0.83208649  0.00282995  0.49999316  1
  I  I74  1  0.83630338  0.00038188  0.83093742  1
  I  I75  1  0.83682195  0.32959822  0.16407171  1
  I  I76  1  0.82747045  0.33063890  0.50028153  1
  I  I77  1  0.83140120  0.32988178  0.83540626  1
  I  I78  1  0.83922135  0.67050377  0.16516286  1
  I  I79  1  0.83428810  0.66553907  0.50016587  1
  I  I80  1  0.83684008  0.66994681  0.83505153  1
  I  I81  1  0.16340317  0.16213081  0.00303855  1
  I  I82  1  0.16203776  0.16008110  0.32965907  1
  I  I83  1  0.16462985  0.16604449  0.66664231  1
  I  I84  1  0.16436706  0.50463573  -0.00329107  1
  I  I85  1  0.16701961  0.50003847  0.33351462  1
  I  I86  1  0.16563194  0.50394795  0.66980664  1
  I  I87  1  0.16110941  0.83348856  -0.00011268  1
  I  I88  1  0.16470710  0.83941202  0.33280070  1
  I  I89  1  0.16501866  0.82920001  0.66725322  1
  I  I90  1  0.50243618  0.16701342  -0.00252280  1
  I  I91  1  0.50443122  0.16212256  0.33663935  1
  I  I92  1  0.50792351  0.16267438  0.66590149  1
  I  I93  1  0.50096240  0.49883293  -0.00077350  1
  I  I94  1  0.49939011  0.49835406  0.33400191  1
  I  I95  1  0.50023184  0.50283495  0.66662337  1
  I  I96  1  0.49723596  0.83490132  -0.00020580  1
  I  I97  1  0.49827455  0.84073938  0.33737579  1
  I  I98  1  0.49699900  0.83600820  0.66342813  1
  I  I99  1  0.83352595  0.16171693  -0.00027763  1
  I  I100  1  0.83281566  0.16557129  0.33337128  1
  I  I101  1  0.82882782  0.16601151  0.66685804  1
  I  I102  1  0.83454418  0.49735859  -0.00024161  1
  I  I103  1  0.83293285  0.49690077  0.33670922  1
  I  I104  1  0.83431944  0.49681200  0.66380116  1
  I  I105  1  0.84275171  0.84211121  -0.00039595  1
  I  I106  1  0.83686080  0.83652451  0.33122048  1
  I  I107  1  0.83733826  0.83649178  0.66897168  1
  I  I108  1  -0.00137257  0.16231164  0.16650925  1
  I  I109  1  -0.00314611  0.16840492  0.50333911  1
  I  I110  1  -0.00302974  0.16569718  0.83011741  1
  I  I111  1  -0.00006548  0.49864082  0.16798833  1
  I  I112  1  -0.00335140  0.49316724  0.50008435  1
  I  I113  1  0.00258836  0.50043136  0.83216577  1
  I  I114  1  0.00022635  0.83773375  0.16896488  1
  I  I115  1  0.00219097  0.83313852  0.50021083  1
  I  I116  1  0.00001115  0.83554185  0.83069887  1
  I  I117  1  0.33050781  0.16155636  0.16428709  1
  I  I118  1  0.33584053  0.16322822  0.50478145  1
  I  I119  1  0.33538183  0.16703061  0.82919248  1
  I  I120  1  0.33266417  0.49770962  0.16800115  1
  I  I121  1  0.33304772  0.49751142  0.50007176  1
  I  I122  1  0.32931053  0.50769546  0.83321731  1
  I  I123  1  0.32982626  0.83825751  0.16345701  1
  I  I124  1  0.33273008  0.83961512  0.50075069  1
  I  I125  1  0.33036575  0.83122399  0.83561213  1
  I  I126  1  0.67035087  0.16178049  0.16748804  1
  I  I127  1  0.66770517  0.16395442  0.49875762  1
  I  I128  1  0.66863462  0.16079236  0.83402835  1
  I  I129  1  0.66735067  0.50017984  0.16655971  1
  I  I130  1  0.67002111  0.50204743  0.50105689  1
  I  I131  1  0.66671835  0.50314278  0.83216240  1
  I  I132  1  0.67043397  0.83947716  0.16457822  1
  I  I133  1  0.66493019  0.83450571  0.50002506  1
  I  I134  1  0.66991753  0.83637068  0.83566469  1
