# generated using pymatgen
data_Cs27Sn14Pb13I81
_symmetry_space_group_name_H-M   'P 1'
_cell_length_a   18.96130880
_cell_length_b   18.96148578
_cell_length_c   18.96197519
_cell_angle_alpha   90.00019475
_cell_angle_beta   90.00082797
_cell_angle_gamma   89.99932193
_symmetry_Int_Tables_number   1
_chemical_formula_structural   Cs27Sn14Pb13I81
_chemical_formula_sum   'Cs27 Sn14 Pb13 I81'
_cell_volume   6817.48591778
_cell_formula_units_Z   1
loop_
 _symmetry_equiv_pos_site_id
 _symmetry_equiv_pos_as_xyz
  1  'x, y, z'
loop_
 _atom_site_type_symbol
 _atom_site_label
 _atom_site_symmetry_multiplicity
 _atom_site_fract_x
 _atom_site_fract_y
 _atom_site_fract_z
 _atom_site_occupancy
  Cs  Cs0  1  0.00108502  -0.00045735  0.00199174  1
  Cs  Cs1  1  0.00171365  -0.00075120  0.33331457  1
  Cs  Cs2  1  -0.00117756  0.00105650  0.66189440  1
  Cs  Cs3  1  -0.00112373  0.33177362  0.00145287  1
  Cs  Cs4  1  -0.00427842  0.33359796  0.33249904  1
  Cs  Cs5  1  0.00146214  0.33443333  0.66532956  1
  Cs  Cs6  1  0.00045586  0.66783497  -0.00210785  1
  Cs  Cs7  1  -0.00134548  0.66971381  0.33519231  1
  Cs  Cs8  1  -0.00004764  0.66340352  0.66847555  1
  Cs  Cs9  1  0.33388471  -0.00082679  0.00093030  1
  Cs  Cs10  1  0.33259542  0.00061990  0.33257245  1
  Cs  Cs11  1  0.33530397  0.00040913  0.66523969  1
  Cs  Cs12  1  0.33270194  0.33162666  0.00170024  1
  Cs  Cs13  1  0.33397301  0.33119207  0.33404444  1
  Cs  Cs14  1  0.33144414  0.33392035  0.66378641  1
  Cs  Cs15  1  0.33237931  0.66873617  -0.00115810  1
  Cs  Cs16  1  0.33541438  0.66748709  0.33256669  1
  Cs  Cs17  1  0.33082688  0.66457572  0.66910541  1
  Cs  Cs18  1  0.66504296  0.00098094  -0.00233997  1
  Cs  Cs19  1  0.66403702  -0.00213760  0.33494701  1
  Cs  Cs20  1  0.66575783  0.00246309  0.66660861  1
  Cs  Cs21  1  0.67058882  0.33526862  -0.00189581  1
  Cs  Cs22  1  0.67005536  0.34168749  0.33155281  1
  Cs  Cs23  1  0.66859877  0.33216029  0.67062739  1
  Cs  Cs24  1  0.66739205  0.66535469  -0.00068279  1
  Cs  Cs25  1  0.66566695  0.66302125  0.33427910  1
  Cs  Cs26  1  0.66882499  0.66601607  0.66745396  1
  Sn  Sn27  1  0.16681452  0.16615350  0.83327171  1
  Sn  Sn28  1  0.83339112  0.83325619  0.83390094  1
  Sn  Sn29  1  0.16748101  0.16572188  0.49963972  1
  Sn  Sn30  1  0.83295926  0.83369616  0.16585081  1
  Sn  Sn31  1  0.16734359  0.16676316  0.16698634  1
  Sn  Sn32  1  0.49995565  0.50005469  0.83347604  1
  Sn  Sn33  1  0.16683532  0.83319504  0.16723912  1
  Sn  Sn34  1  0.16692924  0.50016329  0.16700222  1
  Sn  Sn35  1  0.50020097  0.83400449  0.16713500  1
  Sn  Sn36  1  0.49975471  0.16624056  0.16752211  1
  Sn  Sn37  1  0.49953002  0.16615725  0.49869449  1
  Sn  Sn38  1  0.83268971  0.50081156  0.83368372  1
  Sn  Sn39  1  0.16784646  0.83383032  0.49939475  1
  Sn  Sn40  1  0.49891718  0.83387458  0.49941851  1
  Pb  Pb41  1  0.16640024  0.49778307  0.83538498  1
  Pb  Pb42  1  0.49834434  0.49992245  0.16495897  1
  Pb  Pb43  1  0.49806245  0.16854392  0.83346849  1
  Pb  Pb44  1  0.83306853  0.83337003  0.49983774  1
  Pb  Pb45  1  0.16481448  0.83529287  0.83278703  1
  Pb  Pb46  1  0.83268338  0.16666355  0.49951708  1
  Pb  Pb47  1  0.83587966  0.50279703  0.16486448  1
  Pb  Pb48  1  0.50176738  0.83189034  0.83306505  1
  Pb  Pb49  1  0.16681246  0.50012639  0.49718156  1
  Pb  Pb50  1  0.83339166  0.50005192  0.50272735  1
  Pb  Pb51  1  0.49985567  0.49988121  0.50223481  1
  Pb  Pb52  1  0.83592509  0.16626956  0.83344858  1
  Pb  Pb53  1  0.83254560  0.16425288  0.16690332  1
  I  I54  1  0.16636156  -0.00018987  0.16679440  1
  I  I55  1  0.16931889  0.00004007  0.49614651  1
  I  I56  1  0.16587398  0.00314970  0.83806132  1
  I  I57  1  0.17154128  0.33162616  0.16527393  1
  I  I58  1  0.17084790  0.32969202  0.50037518  1
  I  I59  1  0.16560021  0.32981602  0.83330008  1
  I  I60  1  0.16662562  0.66855064  0.16959118  1
  I  I61  1  0.17008010  0.67028907  0.49583216  1
  I  I62  1  0.16714739  0.66675991  0.83381456  1
  I  I63  1  0.49561050  -0.00063946  0.16865996  1
  I  I64  1  0.49580003  -0.00032903  0.49704954  1
  I  I65  1  0.50124529  0.00003443  0.83349823  1
  I  I66  1  0.49368387  0.33021324  0.16932617  1
  I  I67  1  0.49423223  0.32968152  0.49683880  1
  I  I68  1  0.50575507  0.33621796  0.83414190  1
  I  I69  1  0.49882321  0.67010293  0.16935007  1
  I  I70  1  0.49638343  0.67025027  0.49592667  1
  I  I71  1  0.50070739  0.66407025  0.83415792  1
  I  I72  1  0.83843165  -0.00412152  0.16031501  1
  I  I73  1  0.83428786  -0.00031791  0.50412349  1
  I  I74  1  0.83498171  -0.00298800  0.83719094  1
  I  I75  1  0.83425495  0.33354547  0.16459757  1
  I  I76  1  0.83426656  0.33321573  0.50220525  1
  I  I77  1  0.83034702  0.33600940  0.83268913  1
  I  I78  1  0.83306228  0.67103362  0.16499007  1
  I  I79  1  0.83395748  0.66725000  0.49827494  1
  I  I80  1  0.83076092  0.66707463  0.83769522  1
  I  I81  1  0.16950497  0.16676764  0.00189311  1
  I  I82  1  0.17058080  0.16529858  0.33266995  1
  I  I83  1  0.16958052  0.16270716  0.66526155  1
  I  I84  1  0.16686079  0.50097099  0.00328528  1
  I  I85  1  0.16801735  0.49700987  0.32918982  1
  I  I86  1  0.16543808  0.49947091  0.66680797  1
  I  I87  1  0.16856551  0.83446243  0.00320754  1
  I  I88  1  0.16463240  0.83701550  0.33205142  1
  I  I89  1  0.16962656  0.83801637  0.66355792  1
  I  I90  1  0.49475964  0.16278560  0.00311206  1
  I  I91  1  0.49096574  0.16198007  0.33281276  1
  I  I92  1  0.49550864  0.16306436  0.66375024  1
  I  I93  1  0.50279497  0.50006785  -0.00273684  1
  I  I94  1  0.49842426  0.50007520  0.33310433  1
  I  I95  1  0.50353845  0.50017499  0.67010057  1
  I  I96  1  0.49711033  0.83621797  0.00329475  1
  I  I97  1  0.50069330  0.83650238  0.33232930  1
  I  I98  1  0.49677104  0.83664998  0.66356293  1
  I  I99  1  0.83441218  0.16747693  0.00013550  1
  I  I100  1  0.83897232  0.16487748  0.33303863  1
  I  I101  1  0.83410016  0.16500258  0.66674466  1
  I  I102  1  0.83003665  0.50193004  -0.00304715  1
  I  I103  1  0.83434632  0.50040171  0.33278726  1
  I  I104  1  0.83123472  0.50716935  0.67115755  1
  I  I105  1  0.83442532  0.82991841  0.00097802  1
  I  I106  1  0.83507835  0.83497414  0.33020108  1
  I  I107  1  0.83414162  0.82873648  0.66930309  1
  I  I108  1  0.00359743  0.16626832  0.16657899  1
  I  I109  1  0.00394301  0.16233030  0.49974840  1
  I  I110  1  0.00415157  0.16812402  0.83434095  1
  I  I111  1  0.00388670  0.49777292  0.16417288  1
  I  I112  1  0.00049035  0.50023306  0.50226983  1
  I  I113  1  -0.00245893  0.50341813  0.83509446  1
  I  I114  1  0.00149945  0.83317914  0.16623064  1
  I  I115  1  0.00325560  0.83774843  0.49658719  1
  I  I116  1  -0.00306300  0.82760979  0.83788423  1
  I  I117  1  0.33221244  0.16258261  0.16641452  1
  I  I118  1  0.33248422  0.16249123  0.49948594  1
  I  I119  1  0.33003807  0.16832949  0.83447423  1
  I  I120  1  0.33037850  0.50368881  0.16280364  1
  I  I121  1  0.33324904  0.50082922  0.50520881  1
  I  I122  1  0.33517868  0.49858878  0.83437245  1
  I  I123  1  0.33285700  0.83400776  0.17046236  1
  I  I124  1  0.33302000  0.83732529  0.49270782  1
  I  I125  1  0.33326527  0.83136070  0.83581684  1
  I  I126  1  0.66278739  0.16212573  0.17035475  1
  I  I127  1  0.66243517  0.16103289  0.49697602  1
  I  I128  1  0.66649214  0.16649312  0.83304633  1
  I  I129  1  0.66675302  0.49955776  0.16642682  1
  I  I130  1  0.66633744  0.50051931  0.49723303  1
  I  I131  1  0.66720954  0.50321003  0.83426765  1
  I  I132  1  0.66546485  0.83802423  0.16643700  1
  I  I133  1  0.66321720  0.83762289  0.49743202  1
  I  I134  1  0.66977645  0.83183562  0.83742375  1
