# generated using pymatgen
data_Cs27Sn14Pb13I81
_symmetry_space_group_name_H-M   'P 1'
_cell_length_a   18.98103335
_cell_length_b   18.97554227
_cell_length_c   18.97163742
_cell_angle_alpha   90.00217954
_cell_angle_beta   89.99893776
_cell_angle_gamma   89.99912127
_symmetry_Int_Tables_number   1
_chemical_formula_structural   Cs27Sn14Pb13I81
_chemical_formula_sum   'Cs27 Sn14 Pb13 I81'
_cell_volume   6833.11710370
_cell_formula_units_Z   1
loop_
 _symmetry_equiv_pos_site_id
 _symmetry_equiv_pos_as_xyz
  1  'x, y, z'
loop_
 _atom_site_type_symbol
 _atom_site_label
 _atom_site_symmetry_multiplicity
 _atom_site_fract_x
 _atom_site_fract_y
 _atom_site_fract_z
 _atom_site_occupancy
  Cs  Cs0  1  0.00605014  0.00083645  -0.00340964  1
  Cs  Cs1  1  -0.00123162  -0.00289151  0.33469390  1
  Cs  Cs2  1  0.00170834  0.00000987  0.66663839  1
  Cs  Cs3  1  -0.00261141  0.33354595  0.00153219  1
  Cs  Cs4  1  -0.00200548  0.33237936  0.33461988  1
  Cs  Cs5  1  0.00070667  0.33427966  0.66511067  1
  Cs  Cs6  1  -0.00446681  0.66591913  0.00091588  1
  Cs  Cs7  1  0.00160167  0.66751718  0.33344121  1
  Cs  Cs8  1  -0.00052742  0.66591970  0.66446572  1
  Cs  Cs9  1  0.33072814  0.00317019  -0.00153823  1
  Cs  Cs10  1  0.33457829  -0.00045754  0.33058867  1
  Cs  Cs11  1  0.33277723  -0.00411650  0.67040937  1
  Cs  Cs12  1  0.33379470  0.33283707  -0.00175274  1
  Cs  Cs13  1  0.33491247  0.33487892  0.33276941  1
  Cs  Cs14  1  0.33316131  0.33650585  0.66792546  1
  Cs  Cs15  1  0.33398730  0.66551044  0.00336654  1
  Cs  Cs16  1  0.33131322  0.66636735  0.33278186  1
  Cs  Cs17  1  0.33558764  0.66511969  0.66568577  1
  Cs  Cs18  1  0.66448515  -0.00039220  -0.00220844  1
  Cs  Cs19  1  0.66787844  0.00618282  0.33462307  1
  Cs  Cs20  1  0.66385910  0.00113303  0.66780166  1
  Cs  Cs21  1  0.66805299  0.33402215  -0.00109973  1
  Cs  Cs22  1  0.66818863  0.32242765  0.33503652  1
  Cs  Cs23  1  0.66551632  0.33025039  0.66729931  1
  Cs  Cs24  1  0.66929590  0.66586229  -0.00013463  1
  Cs  Cs25  1  0.66654607  0.66769118  0.33212376  1
  Cs  Cs26  1  0.66519855  0.66956560  0.66726739  1
  Sn  Sn27  1  0.49949104  0.49962434  0.83421718  1
  Sn  Sn28  1  0.83313126  0.16672396  0.83340691  1
  Sn  Sn29  1  0.83340118  0.50062974  0.49975683  1
  Sn  Sn30  1  0.49983703  0.50045075  0.16622901  1
  Sn  Sn31  1  0.83377518  0.83229237  0.49925227  1
  Sn  Sn32  1  0.16704432  0.50049811  0.16657706  1
  Sn  Sn33  1  0.16654777  0.83241831  0.16732659  1
  Sn  Sn34  1  0.16717784  0.16655919  0.49966929  1
  Sn  Sn35  1  0.16614291  0.83320930  0.49934194  1
  Sn  Sn36  1  0.83356228  0.83334611  0.16724238  1
  Sn  Sn37  1  0.50054041  0.16756931  0.83345816  1
  Sn  Sn38  1  0.16691439  0.50034607  0.83375829  1
  Sn  Sn39  1  0.49988604  0.83258298  0.16672089  1
  Sn  Sn40  1  0.16597736  0.50008641  0.49971575  1
  Pb  Pb41  1  0.16661224  0.83009803  0.83337064  1
  Pb  Pb42  1  0.83286217  0.49873694  0.83096567  1
  Pb  Pb43  1  0.49682724  0.16654849  0.50283193  1
  Pb  Pb44  1  0.50036282  0.49999907  0.49934787  1
  Pb  Pb45  1  0.83296083  0.50136786  0.16910831  1
  Pb  Pb46  1  0.83362905  0.16330924  0.16414745  1
  Pb  Pb47  1  0.83519404  0.16606226  0.50177431  1
  Pb  Pb48  1  0.49983095  0.16734053  0.16448737  1
  Pb  Pb49  1  0.16660717  0.16710445  0.16903653  1
  Pb  Pb50  1  0.49980425  0.83237565  0.83608049  1
  Pb  Pb51  1  0.49998643  0.83328033  0.49728511  1
  Pb  Pb52  1  0.83350013  0.83548377  0.83271190  1
  Pb  Pb53  1  0.16693357  0.16931782  0.83134071  1
  I  I54  1  0.16705383  -0.00358055  0.17082578  1
  I  I55  1  0.16242623  -0.00158515  0.49604534  1
  I  I56  1  0.16724183  0.00005489  0.83289085  1
  I  I57  1  0.17245024  0.33723012  0.16723512  1
  I  I58  1  0.16284211  0.33516669  0.50107880  1
  I  I59  1  0.16807974  0.33736261  0.83307475  1
  I  I60  1  0.16800910  0.66644808  0.17102531  1
  I  I61  1  0.16236757  0.66634004  0.49910675  1
  I  I62  1  0.17270239  0.66209704  0.82856323  1
  I  I63  1  0.49894966  -0.00312804  0.16661975  1
  I  I64  1  0.49996112  -0.00011985  0.50009068  1
  I  I65  1  0.50461758  0.00242590  0.83328508  1
  I  I66  1  0.49341619  0.33699717  0.16495506  1
  I  I67  1  0.50054463  0.33348247  0.49498798  1
  I  I68  1  0.49933826  0.33473136  0.83894244  1
  I  I69  1  0.49836358  0.66607234  0.16081127  1
  I  I70  1  0.49728389  0.66653406  0.50651953  1
  I  I71  1  0.49498373  0.66307594  0.83436725  1
  I  I72  1  0.83337041  -0.00510802  0.17466137  1
  I  I73  1  0.83824023  -0.00328318  0.49674301  1
  I  I74  1  0.82662157  0.00330000  0.83195579  1
  I  I75  1  0.83300386  0.33345436  0.16821612  1
  I  I76  1  0.83831900  0.33565432  0.50183793  1
  I  I77  1  0.83243612  0.33098006  0.83040668  1
  I  I78  1  0.83368888  0.66974461  0.16709634  1
  I  I79  1  0.84202591  0.66721935  0.49792770  1
  I  I80  1  0.83297752  0.66661013  0.83407706  1
  I  I81  1  0.16692234  0.16540923  -0.00029930  1
  I  I82  1  0.16459857  0.17108254  0.33703239  1
  I  I83  1  0.16634975  0.16592998  0.66342875  1
  I  I84  1  0.17167161  0.50411861  0.00073786  1
  I  I85  1  0.16752206  0.50122627  0.33339859  1
  I  I86  1  0.16689009  0.49923067  0.66587102  1
  I  I87  1  0.16611461  0.82998155  0.00364011  1
  I  I88  1  0.16634399  0.82888541  0.33337818  1
  I  I89  1  0.16085554  0.83338172  0.66319970  1
  I  I90  1  0.50223662  0.16779591  -0.00346196  1
  I  I91  1  0.50007555  0.16741094  0.33325518  1
  I  I92  1  0.50421125  0.17370995  0.67072397  1
  I  I93  1  0.49175259  0.49991363  0.00021121  1
  I  I94  1  0.49526291  0.50612541  0.32998261  1
  I  I95  1  0.49608975  0.49480091  0.66934769  1
  I  I96  1  0.49940080  0.83241254  0.00431073  1
  I  I97  1  0.49847081  0.82554099  0.32920083  1
  I  I98  1  0.50055680  0.83390899  0.66672863  1
  I  I99  1  0.83016924  0.16765102  -0.00364299  1
  I  I100  1  0.83399128  0.16862103  0.33364498  1
  I  I101  1  0.82934176  0.16563616  0.66937778  1
  I  I102  1  0.83642335  0.50034107  0.00014090  1
  I  I103  1  0.83858634  0.50131172  0.33700522  1
  I  I104  1  0.83893889  0.50574375  0.66311063  1
  I  I105  1  0.83415778  0.83456482  0.00322423  1
  I  I106  1  0.83516388  0.82919347  0.33369061  1
  I  I107  1  0.83961170  0.83063555  0.66299161  1
  I  I108  1  0.00014099  0.16828115  0.16206254  1
  I  I109  1  0.00298750  0.16760592  0.50371263  1
  I  I110  1  -0.00171926  0.16655714  0.83129819  1
  I  I111  1  0.00314899  0.50368677  0.16401669  1
  I  I112  1  0.00197348  0.50053085  0.50080643  1
  I  I113  1  0.00275531  0.49854594  0.83508812  1
  I  I114  1  0.00096490  0.82947125  0.17129083  1
  I  I115  1  0.00100524  0.83246430  0.49243664  1
  I  I116  1  0.00014960  0.83512250  0.83861031  1
  I  I117  1  0.33318795  0.16099882  0.16492738  1
  I  I118  1  0.32881265  0.16792292  0.50085475  1
  I  I119  1  0.33576399  0.16928505  0.83216857  1
  I  I120  1  0.33235061  0.50739049  0.16784342  1
  I  I121  1  0.32988505  0.50100271  0.50071829  1
  I  I122  1  0.33315895  0.49437199  0.83192890  1
  I  I123  1  0.33230910  0.82894106  0.17059674  1
  I  I124  1  0.32963304  0.83185452  0.49714278  1
  I  I125  1  0.33318898  0.83943994  0.83141885  1
  I  I126  1  0.66667342  0.16693378  0.16947953  1
  I  I127  1  0.66676782  0.16705606  0.49951160  1
  I  I128  1  0.66576257  0.17263324  0.83298602  1
  I  I129  1  0.66386818  0.50533381  0.16174287  1
  I  I130  1  0.66963505  0.50563121  0.50113472  1
  I  I131  1  0.66372528  0.49782675  0.83721707  1
  I  I132  1  0.66660947  0.82898676  0.16914658  1
  I  I133  1  0.66999047  0.82823648  0.49684281  1
  I  I134  1  0.66662024  0.82971246  0.83332657  1
