# generated using pymatgen
data_Cs27Sn13Pb14I81
_symmetry_space_group_name_H-M   'P 1'
_cell_length_a   18.98032501
_cell_length_b   18.98048128
_cell_length_c   18.96881946
_cell_angle_alpha   89.99823498
_cell_angle_beta   90.00035387
_cell_angle_gamma   89.99774673
_symmetry_Int_Tables_number   1
_chemical_formula_structural   Cs27Sn13Pb14I81
_chemical_formula_sum   'Cs27 Sn13 Pb14 I81'
_cell_volume   6833.62539204
_cell_formula_units_Z   1
loop_
 _symmetry_equiv_pos_site_id
 _symmetry_equiv_pos_as_xyz
  1  'x, y, z'
loop_
 _atom_site_type_symbol
 _atom_site_label
 _atom_site_symmetry_multiplicity
 _atom_site_fract_x
 _atom_site_fract_y
 _atom_site_fract_z
 _atom_site_occupancy
  Cs  Cs0  1  -0.00223492  -0.00610328  0.00387272  1
  Cs  Cs1  1  -0.00154830  0.00616976  0.32911261  1
  Cs  Cs2  1  0.00156363  0.00018589  0.66737706  1
  Cs  Cs3  1  0.00083870  0.33156700  0.00437284  1
  Cs  Cs4  1  0.00061598  0.33091238  0.32937371  1
  Cs  Cs5  1  0.00052712  0.33425114  0.66616887  1
  Cs  Cs6  1  0.00107612  0.67614124  -0.00206394  1
  Cs  Cs7  1  0.00043180  0.66248949  0.33451285  1
  Cs  Cs8  1  -0.00126733  0.66584349  0.66853547  1
  Cs  Cs9  1  0.33315073  -0.00534054  -0.00283245  1
  Cs  Cs10  1  0.33353250  0.00158855  0.33543303  1
  Cs  Cs11  1  0.33427436  0.00018484  0.66499132  1
  Cs  Cs12  1  0.33631477  0.33824931  -0.00293826  1
  Cs  Cs13  1  0.33001409  0.33351645  0.33296103  1
  Cs  Cs14  1  0.33221890  0.33180586  0.66819293  1
  Cs  Cs15  1  0.33227261  0.66602452  0.01079958  1
  Cs  Cs16  1  0.33461387  0.66562320  0.33064033  1
  Cs  Cs17  1  0.33172197  0.66918202  0.66474933  1
  Cs  Cs18  1  0.66952282  0.00061113  0.00410005  1
  Cs  Cs19  1  0.66657379  0.00072915  0.33300061  1
  Cs  Cs20  1  0.66377022  0.00142564  0.66511696  1
  Cs  Cs21  1  0.66387501  0.33402357  -0.00380324  1
  Cs  Cs22  1  0.66943568  0.33193193  0.33425340  1
  Cs  Cs23  1  0.66729485  0.33409663  0.66907227  1
  Cs  Cs24  1  0.66760918  0.66512357  0.00158847  1
  Cs  Cs25  1  0.66483619  0.66660875  0.33490188  1
  Cs  Cs26  1  0.66972779  0.66505564  0.66564783  1
  Sn  Sn27  1  0.83276633  0.16605102  0.50101453  1
  Sn  Sn28  1  0.50015441  0.83279948  0.83264880  1
  Sn  Sn29  1  0.83448949  0.16659534  0.83257249  1
  Sn  Sn30  1  0.16746491  0.50051569  0.50088689  1
  Sn  Sn31  1  0.83329933  0.50020389  0.16636284  1
  Sn  Sn32  1  0.83360673  0.83431240  0.50025381  1
  Sn  Sn33  1  0.50070952  0.16714359  0.49920950  1
  Sn  Sn34  1  0.49927841  0.49964120  0.50044407  1
  Sn  Sn35  1  0.16564081  0.16705950  0.83313031  1
  Sn  Sn36  1  0.16663740  0.49961284  0.83272552  1
  Sn  Sn37  1  0.16640965  0.83274751  0.50018494  1
  Sn  Sn38  1  0.50004079  0.83315783  0.50096400  1
  Sn  Sn39  1  0.49951877  0.16682808  0.16736346  1
  Pb  Pb40  1  0.83585048  0.49798868  0.83574271  1
  Pb  Pb41  1  0.83375362  0.49948892  0.49927451  1
  Pb  Pb42  1  0.50181514  0.49773760  0.16932977  1
  Pb  Pb43  1  0.83159860  0.16803899  0.16660935  1
  Pb  Pb44  1  0.83097754  0.83565827  0.83097491  1
  Pb  Pb45  1  0.50012244  0.83540011  0.16740076  1
  Pb  Pb46  1  0.49782014  0.50291881  0.83111357  1
  Pb  Pb47  1  0.16667039  0.83357497  0.17047162  1
  Pb  Pb48  1  0.83312679  0.83080256  0.16978687  1
  Pb  Pb49  1  0.49993311  0.16524122  0.83291709  1
  Pb  Pb50  1  0.16847502  0.83315291  0.83141772  1
  Pb  Pb51  1  0.16469336  0.49997852  0.16670341  1
  Pb  Pb52  1  0.16657338  0.16685730  0.50123176  1
  Pb  Pb53  1  0.16972350  0.16673977  0.16286078  1
  I  I54  1  0.16581772  0.00032399  0.16678912  1
  I  I55  1  0.16988310  -0.00224407  0.50244949  1
  I  I56  1  0.16548406  0.00237349  0.83102760  1
  I  I57  1  0.16585878  0.33329187  0.17259247  1
  I  I58  1  0.16991993  0.33585012  0.50235204  1
  I  I59  1  0.16446693  0.33331076  0.82599008  1
  I  I60  1  0.16665290  0.66657888  0.16245841  1
  I  I61  1  0.16926921  0.66632732  0.50512045  1
  I  I62  1  0.16825862  0.66413365  0.82955525  1
  I  I63  1  0.50216125  0.00320305  0.17290634  1
  I  I64  1  0.50023517  -0.00002370  0.50011176  1
  I  I65  1  0.49758561  -0.00225990  0.82616129  1
  I  I66  1  0.50118084  0.33001709  0.17137829  1
  I  I67  1  0.50037500  0.33270195  0.49557163  1
  I  I68  1  0.50096605  0.33340539  0.83272431  1
  I  I69  1  0.50060444  0.66648133  0.16714015  1
  I  I70  1  0.49999966  0.66725566  0.50466852  1
  I  I71  1  0.49916562  0.67043839  0.82583277  1
  I  I72  1  0.83213524  0.00009879  0.16561273  1
  I  I73  1  0.82970833  0.00053326  0.50329210  1
  I  I74  1  0.83926847  0.00378850  0.83204307  1
  I  I75  1  0.83266508  0.33538052  0.17120078  1
  I  I76  1  0.82947304  0.33040631  0.50171041  1
  I  I77  1  0.83229819  0.32980631  0.82587962  1
  I  I78  1  0.83314382  0.66338577  0.16900985  1
  I  I79  1  0.83049033  0.66898292  0.49705771  1
  I  I80  1  0.83391402  0.66686504  0.83302039  1
  I  I81  1  0.16225511  0.17298165  -0.00514269  1
  I  I82  1  0.16432991  0.16671152  0.33351548  1
  I  I83  1  0.16794776  0.16775049  0.66902713  1
  I  I84  1  0.16561257  0.49414368  -0.00302760  1
  I  I85  1  0.16976937  0.50474951  0.33687378  1
  I  I86  1  0.16970799  0.49955033  0.66529999  1
  I  I87  1  0.16944520  0.83269072  -0.00039926  1
  I  I88  1  0.17075969  0.82735261  0.33913895  1
  I  I89  1  0.16625162  0.83225883  0.66293215  1
  I  I90  1  0.50038015  0.16439675  0.00166354  1
  I  I91  1  0.50577424  0.16450680  0.33631065  1
  I  I92  1  0.50106313  0.16700048  0.66333239  1
  I  I93  1  0.49932404  0.49954848  -0.00005777  1
  I  I94  1  0.49463858  0.50498624  0.33795486  1
  I  I95  1  0.50021340  0.49457806  0.66245850  1
  I  I96  1  0.49864719  0.83706800  -0.00257214  1
  I  I97  1  0.50004965  0.83169141  0.33768362  1
  I  I98  1  0.49937635  0.83698293  0.66376824  1
  I  I99  1  0.83470504  0.16968881  -0.00272362  1
  I  I100  1  0.83070063  0.16394148  0.33657638  1
  I  I101  1  0.83037257  0.16414274  0.66527714  1
  I  I102  1  0.83300121  0.49634165  0.00307523  1
  I  I103  1  0.83418025  0.49806135  0.33192777  1
  I  I104  1  0.83201198  0.50086431  0.66661603  1
  I  I105  1  0.83149773  0.83426648  -0.00023618  1
  I  I106  1  0.83013458  0.84014043  0.33841461  1
  I  I107  1  0.83436989  0.83329465  0.66246435  1
  I  I108  1  -0.00012771  0.16855663  0.16989406  1
  I  I109  1  -0.00259821  0.16390442  0.50250813  1
  I  I110  1  -0.00032205  0.17056362  0.82566175  1
  I  I111  1  -0.00267632  0.49666559  0.17181738  1
  I  I112  1  0.00277339  0.50357431  0.50197995  1
  I  I113  1  0.00368015  0.49905065  0.82477566  1
  I  I114  1  -0.00024108  0.83407393  0.16642046  1
  I  I115  1  0.00002108  0.83248894  0.49988505  1
  I  I116  1  0.00004953  0.83220450  0.83153952  1
  I  I117  1  0.33730633  0.16688237  0.17534278  1
  I  I118  1  0.33607040  0.16422992  0.49854351  1
  I  I119  1  0.33119461  0.16902223  0.83243310  1
  I  I120  1  0.33343038  0.49923093  0.16558755  1
  I  I121  1  0.33348638  0.50243447  0.50283275  1
  I  I122  1  0.32998169  0.49181462  0.83096303  1
  I  I123  1  0.33363665  0.83314151  0.16751225  1
  I  I124  1  0.33421810  0.83367049  0.50410633  1
  I  I125  1  0.33610048  0.83754519  0.82528333  1
  I  I126  1  0.66388771  0.16727920  0.16790327  1
  I  I127  1  0.66624703  0.16401619  0.50153473  1
  I  I128  1  0.66875085  0.16443523  0.83157462  1
  I  I129  1  0.66918759  0.49894149  0.16962172  1
  I  I130  1  0.66422316  0.50215532  0.49713539  1
  I  I131  1  0.66658135  0.49872272  0.83282696  1
  I  I132  1  0.66658789  0.83331303  0.16859395  1
  I  I133  1  0.66584260  0.83398966  0.50319752  1
  I  I134  1  0.66329461  0.83584545  0.82598387  1
