# generated using pymatgen
data_Cs27Sn14Pb13I81
_symmetry_space_group_name_H-M   'P 1'
_cell_length_a   18.98846019
_cell_length_b   18.96971439
_cell_length_c   18.96957828
_cell_angle_alpha   89.99868218
_cell_angle_beta   90.00000005
_cell_angle_gamma   89.99999996
_symmetry_Int_Tables_number   1
_chemical_formula_structural   Cs27Sn14Pb13I81
_chemical_formula_sum   'Cs27 Sn14 Pb13 I81'
_cell_volume   6832.94958978
_cell_formula_units_Z   1
loop_
 _symmetry_equiv_pos_site_id
 _symmetry_equiv_pos_as_xyz
  1  'x, y, z'
loop_
 _atom_site_type_symbol
 _atom_site_label
 _atom_site_symmetry_multiplicity
 _atom_site_fract_x
 _atom_site_fract_y
 _atom_site_fract_z
 _atom_site_occupancy
  Cs  Cs0  1  -0.00387996  0.00108867  0.00013838  1
  Cs  Cs1  1  0.00221324  0.00017121  0.33206242  1
  Cs  Cs2  1  -0.00132623  -0.00263687  0.66987377  1
  Cs  Cs3  1  -0.00145963  0.33366705  -0.00242483  1
  Cs  Cs4  1  0.00076485  0.33626258  0.33550477  1
  Cs  Cs5  1  0.00068264  0.33166405  0.66603689  1
  Cs  Cs6  1  0.00348930  0.66463405  0.00169336  1
  Cs  Cs7  1  -0.00249392  0.66420523  0.33301674  1
  Cs  Cs8  1  0.00107867  0.67624690  0.66713013  1
  Cs  Cs9  1  0.33333335  0.00373548  0.00616734  1
  Cs  Cs10  1  0.33333340  0.00142682  0.33168016  1
  Cs  Cs11  1  0.33333331  -0.00311776  0.66360630  1
  Cs  Cs12  1  0.33333327  0.33350191  -0.00050407  1
  Cs  Cs13  1  0.33333338  0.33199892  0.33476173  1
  Cs  Cs14  1  0.33333337  0.33404630  0.66586844  1
  Cs  Cs15  1  0.33333338  0.66420412  -0.00464155  1
  Cs  Cs16  1  0.33333333  0.66615511  0.33277214  1
  Cs  Cs17  1  0.33333328  0.67101155  0.67534089  1
  Cs  Cs18  1  0.67054664  0.00108866  0.00013849  1
  Cs  Cs19  1  0.66445354  0.00017111  0.33206248  1
  Cs  Cs20  1  0.66799291  -0.00263693  0.66987379  1
  Cs  Cs21  1  0.66812645  0.33366690  -0.00242490  1
  Cs  Cs22  1  0.66590185  0.33626262  0.33550474  1
  Cs  Cs23  1  0.66598397  0.33166416  0.66603693  1
  Cs  Cs24  1  0.66317736  0.66463385  0.00169332  1
  Cs  Cs25  1  0.66916071  0.66420527  0.33301681  1
  Cs  Cs26  1  0.66558820  0.67624696  0.66713025  1
  Sn  Sn27  1  0.49895858  0.50052994  0.16735544  1
  Sn  Sn28  1  0.49989428  0.16723171  0.50094394  1
  Sn  Sn29  1  0.16686626  0.83213243  0.16702523  1
  Sn  Sn30  1  0.83333331  0.83397849  0.16697455  1
  Sn  Sn31  1  0.83333334  0.16670886  0.49900390  1
  Sn  Sn32  1  0.49881249  0.16692111  0.83223660  1
  Sn  Sn33  1  0.16772882  0.49977101  0.49976248  1
  Sn  Sn34  1  0.83333336  0.50040336  0.83239415  1
  Sn  Sn35  1  0.16677239  0.16723175  0.50094392  1
  Sn  Sn36  1  0.83333334  0.16669518  0.16786383  1
  Sn  Sn37  1  0.49980045  0.83213243  0.16702524  1
  Sn  Sn38  1  0.49893784  0.49977104  0.49976250  1
  Sn  Sn39  1  0.16785417  0.16692113  0.83223658  1
  Sn  Sn40  1  0.16770812  0.50052994  0.16735545  1
  Pb  Pb41  1  0.16513481  0.49827777  0.83258826  1
  Pb  Pb42  1  0.83333337  0.16760156  0.83271829  1
  Pb  Pb43  1  0.16683936  0.83674664  0.83648984  1
  Pb  Pb44  1  0.83333335  0.83000965  0.83627614  1
  Pb  Pb45  1  0.49975411  0.83295343  0.49783191  1
  Pb  Pb46  1  0.16691254  0.83295348  0.49783187  1
  Pb  Pb47  1  0.83333334  0.49849256  0.50262433  1
  Pb  Pb48  1  0.83333334  0.49996352  0.16569664  1
  Pb  Pb49  1  0.50153184  0.49827779  0.83258825  1
  Pb  Pb50  1  0.16465286  0.16750246  0.16710489  1
  Pb  Pb51  1  0.49982730  0.83674663  0.83648982  1
  Pb  Pb52  1  0.50201382  0.16750249  0.16710491  1
  Pb  Pb53  1  0.83333333  0.83634050  0.49749702  1
  I  I54  1  0.16828831  -0.00181473  0.16578735  1
  I  I55  1  0.16676254  0.00355982  0.50190737  1
  I  I56  1  0.16828407  0.00482532  0.82785626  1
  I  I57  1  0.17012294  0.33617904  0.16743249  1
  I  I58  1  0.16701149  0.33267187  0.49637088  1
  I  I59  1  0.16884520  0.33020280  0.83559929  1
  I  I60  1  0.16390324  0.66569371  0.17217711  1
  I  I61  1  0.17085643  0.66297756  0.49667401  1
  I  I62  1  0.16405397  0.66667487  0.83142320  1
  I  I63  1  0.49837821  -0.00181469  0.16578726  1
  I  I64  1  0.49990415  0.00355985  0.50190749  1
  I  I65  1  0.49838265  0.00482535  0.82785606  1
  I  I66  1  0.49654381  0.33617904  0.16743226  1
  I  I67  1  0.49965499  0.33267187  0.49637090  1
  I  I68  1  0.49782145  0.33020278  0.83559952  1
  I  I69  1  0.50276331  0.66569373  0.17217736  1
  I  I70  1  0.49581041  0.66297755  0.49667372  1
  I  I71  1  0.50261262  0.66667490  0.83142308  1
  I  I72  1  0.83333351  0.00017466  0.16962701  1
  I  I73  1  0.83333328  0.00508309  0.49978131  1
  I  I74  1  0.83333327  -0.00007571  0.83299826  1
  I  I75  1  0.83333317  0.33104804  0.16822346  1
  I  I76  1  0.83333352  0.32994504  0.49272928  1
  I  I77  1  0.83333335  0.33473981  0.83861167  1
  I  I78  1  0.83333333  0.66900240  0.16291602  1
  I  I79  1  0.83333319  0.66652550  0.50017929  1
  I  I80  1  0.83333330  0.66270433  0.83462618  1
  I  I81  1  0.16907663  0.16603132  -0.00172063  1
  I  I82  1  0.16912460  0.16697408  0.33615406  1
  I  I83  1  0.16469397  0.17349351  0.66507606  1
  I  I84  1  0.16865264  0.50234935  0.00284411  1
  I  I85  1  0.16898720  0.49686422  0.33306824  1
  I  I86  1  0.16984620  0.49486022  0.66321711  1
  I  I87  1  0.16620025  0.82814217  0.00481357  1
  I  I88  1  0.16652955  0.83593240  0.32935419  1
  I  I89  1  0.16579808  0.83071197  0.66670751  1
  I  I90  1  0.49759023  0.16603111  -0.00172065  1
  I  I91  1  0.49754205  0.16697410  0.33615408  1
  I  I92  1  0.50197261  0.17349370  0.66507607  1
  I  I93  1  0.49801405  0.50234972  0.00284412  1
  I  I94  1  0.49767941  0.49686393  0.33306825  1
  I  I95  1  0.49682038  0.49486013  0.66321713  1
  I  I96  1  0.50046628  0.82814205  0.00481362  1
  I  I97  1  0.50013700  0.83593269  0.32935419  1
  I  I98  1  0.50086869  0.83071192  0.66670751  1
  I  I99  1  0.83333324  0.16395120  0.00218007  1
  I  I100  1  0.83333333  0.16362451  0.33368185  1
  I  I101  1  0.83333341  0.17125650  0.66370600  1
  I  I102  1  0.83333323  0.49623297  -0.00161294  1
  I  I103  1  0.83333333  0.50098371  0.33358483  1
  I  I104  1  0.83333334  0.49278115  0.66952320  1
  I  I105  1  0.83333341  0.84262810  0.00453010  1
  I  I106  1  0.83333329  0.83324563  0.32906372  1
  I  I107  1  0.83333322  0.83378811  0.66677042  1
  I  I108  1  -0.00310104  0.16323222  0.16897827  1
  I  I109  1  0.00076381  0.17103667  0.49901957  1
  I  I110  1  0.00210167  0.16895470  0.83149193  1
  I  I111  1  0.00256260  0.50194088  0.16940473  1
  I  I112  1  0.00302066  0.49411192  0.49465114  1
  I  I113  1  -0.00218380  0.49479786  0.83657562  1
  I  I114  1  0.00015456  0.83413222  0.16691354  1
  I  I115  1  0.00011033  0.83256077  0.49646385  1
  I  I116  1  0.00007344  0.83601570  0.83585269  1
  I  I117  1  0.33333336  0.16318637  0.16710711  1
  I  I118  1  0.33333332  0.17071663  0.50432460  1
  I  I119  1  0.33333336  0.16842078  0.82781842  1
  I  I120  1  0.33333333  0.50659530  0.16913947  1
  I  I121  1  0.33333333  0.48968208  0.49355703  1
  I  I122  1  0.33333334  0.49950115  0.83528372  1
  I  I123  1  0.33333329  0.83017138  0.16712303  1
  I  I124  1  0.33333331  0.83998797  0.49540447  1
  I  I125  1  0.33333331  0.82997935  0.83609489  1
  I  I126  1  0.66976767  0.16323195  0.16897833  1
  I  I127  1  0.66590287  0.17103685  0.49901963  1
  I  I128  1  0.66456495  0.16895478  0.83149172  1
  I  I129  1  0.66410405  0.50194103  0.16940484  1
  I  I130  1  0.66364601  0.49411160  0.49465117  1
  I  I131  1  0.66885047  0.49479786  0.83657545  1
  I  I132  1  0.66651210  0.83413240  0.16691347  1
  I  I133  1  0.66655637  0.83256091  0.49646369  1
  I  I134  1  0.66659321  0.83601562  0.83585288  1
