# generated using pymatgen
data_Cs27Sn13Pb14I81
_symmetry_space_group_name_H-M   'P 1'
_cell_length_a   18.97990658
_cell_length_b   18.97012001
_cell_length_c   18.97935942
_cell_angle_alpha   90.00051933
_cell_angle_beta   90.00132347
_cell_angle_gamma   89.99826607
_symmetry_Int_Tables_number   1
_chemical_formula_structural   Cs27Sn13Pb14I81
_chemical_formula_sum   'Cs27 Sn13 Pb14 I81'
_cell_volume   6833.53933710
_cell_formula_units_Z   1
loop_
 _symmetry_equiv_pos_site_id
 _symmetry_equiv_pos_as_xyz
  1  'x, y, z'
loop_
 _atom_site_type_symbol
 _atom_site_label
 _atom_site_symmetry_multiplicity
 _atom_site_fract_x
 _atom_site_fract_y
 _atom_site_fract_z
 _atom_site_occupancy
  Cs  Cs0  1  -0.00091340  -0.00151788  -0.00066744  1
  Cs  Cs1  1  0.00048887  -0.00063759  0.33242410  1
  Cs  Cs2  1  0.00296958  -0.00039455  0.66885182  1
  Cs  Cs3  1  0.00198874  0.33470080  -0.00550132  1
  Cs  Cs4  1  -0.00174709  0.33439651  0.33372541  1
  Cs  Cs5  1  -0.00098199  0.33443175  0.67423582  1
  Cs  Cs6  1  0.00309663  0.67079431  0.00111642  1
  Cs  Cs7  1  -0.00174329  0.66522177  0.33311893  1
  Cs  Cs8  1  -0.00318122  0.66606861  0.66602512  1
  Cs  Cs9  1  0.33258437  0.00063324  -0.00049759  1
  Cs  Cs10  1  0.33145881  0.00055330  0.33749830  1
  Cs  Cs11  1  0.33113372  -0.00197280  0.66319754  1
  Cs  Cs12  1  0.33201170  0.34082686  0.00090509  1
  Cs  Cs13  1  0.33358951  0.33336895  0.33301436  1
  Cs  Cs14  1  0.33113417  0.33176201  0.66571559  1
  Cs  Cs15  1  0.33719025  0.65821428  -0.00099328  1
  Cs  Cs16  1  0.33429899  0.66466055  0.33486003  1
  Cs  Cs17  1  0.33715378  0.67068187  0.66516273  1
  Cs  Cs18  1  0.66762262  0.00005674  0.00200877  1
  Cs  Cs19  1  0.66800305  0.00138638  0.33173755  1
  Cs  Cs20  1  0.66562443  0.00035215  0.66713860  1
  Cs  Cs21  1  0.66654618  0.33142383  -0.00219698  1
  Cs  Cs22  1  0.66753517  0.33164282  0.33548075  1
  Cs  Cs23  1  0.66966647  0.33469018  0.66455125  1
  Cs  Cs24  1  0.65663256  0.66973093  0.00167110  1
  Cs  Cs25  1  0.66847642  0.66905170  0.33117009  1
  Cs  Cs26  1  0.66685372  0.66394181  0.66835657  1
  Sn  Sn27  1  0.83386791  0.16791319  0.16713200  1
  Sn  Sn28  1  0.16641748  0.83333461  0.83424441  1
  Sn  Sn29  1  0.49978847  0.16662959  0.16662319  1
  Sn  Sn30  1  0.49918125  0.49914611  0.49971840  1
  Sn  Sn31  1  0.16640582  0.16620594  0.16676476  1
  Sn  Sn32  1  0.83351763  0.83351602  0.83268127  1
  Sn  Sn33  1  0.49983750  0.16658880  0.83305994  1
  Sn  Sn34  1  0.83334768  0.49911320  0.16609929  1
  Sn  Sn35  1  0.83325327  0.16580225  0.49975814  1
  Sn  Sn36  1  0.16711251  0.49973668  0.50013327  1
  Sn  Sn37  1  0.16704416  0.83361673  0.16604115  1
  Sn  Sn38  1  0.83329721  0.83449654  0.50089865  1
  Sn  Sn39  1  0.50062992  0.16729348  0.50016187  1
  Pb  Pb40  1  0.83300429  0.49947647  0.49894544  1
  Pb  Pb41  1  0.50243849  0.49737906  0.16896103  1
  Pb  Pb42  1  0.16662870  0.50310672  0.83047278  1
  Pb  Pb43  1  0.16435278  0.83134548  0.49976667  1
  Pb  Pb44  1  0.16503567  0.49982132  0.16810209  1
  Pb  Pb45  1  0.50010141  0.49706571  0.83043610  1
  Pb  Pb46  1  0.83190622  0.16491646  0.83340576  1
  Pb  Pb47  1  0.83469031  0.83383069  0.16646868  1
  Pb  Pb48  1  0.49649964  0.83573298  0.16685408  1
  Pb  Pb49  1  0.16597636  0.16835806  0.49830949  1
  Pb  Pb50  1  0.50282852  0.83371154  0.49982834  1
  Pb  Pb51  1  0.49976838  0.83537389  0.83337339  1
  Pb  Pb52  1  0.83316825  0.50325870  0.83697384  1
  Pb  Pb53  1  0.16910596  0.16483876  0.83604920  1
  I  I54  1  0.16438572  0.00088099  0.16472821  1
  I  I55  1  0.16867236  0.00000101  0.50063166  1
  I  I56  1  0.16278660  -0.00308691  0.83363055  1
  I  I57  1  0.16866809  0.33014625  0.16979660  1
  I  I58  1  0.16647783  0.33595221  0.49605391  1
  I  I59  1  0.16745955  0.33325329  0.83411339  1
  I  I60  1  0.16184696  0.66921798  0.16490318  1
  I  I61  1  0.17099785  0.66367744  0.49763467  1
  I  I62  1  0.16251192  0.67107259  0.84087655  1
  I  I63  1  0.50662658  0.00462647  0.16983396  1
  I  I64  1  0.50213082  0.00385119  0.49920071  1
  I  I65  1  0.50064874  0.00354560  0.83106498  1
  I  I66  1  0.49494337  0.32883946  0.16515066  1
  I  I67  1  0.50236548  0.33148070  0.49917972  1
  I  I68  1  0.50086356  0.32893567  0.83704586  1
  I  I69  1  0.50160227  0.66628205  0.16794957  1
  I  I70  1  0.49712433  0.66395457  0.49999192  1
  I  I71  1  0.50028416  0.66665217  0.83196007  1
  I  I72  1  0.83122977  0.00322263  0.16815928  1
  I  I73  1  0.82836795  0.00134310  0.49675863  1
  I  I74  1  0.83635570  -0.00296577  0.83381282  1
  I  I75  1  0.83444962  0.33082170  0.17431626  1
  I  I76  1  0.83124140  0.33024702  0.49595148  1
  I  I77  1  0.83214600  0.33313193  0.83055580  1
  I  I78  1  0.83697374  0.66511110  0.16896898  1
  I  I79  1  0.83431242  0.66876016  0.50105236  1
  I  I80  1  0.83737184  0.67120905  0.82653251  1
  I  I81  1  0.16480714  0.16517201  0.00440447  1
  I  I82  1  0.16990147  0.16079573  0.32997831  1
  I  I83  1  0.16733043  0.16606473  0.66668690  1
  I  I84  1  0.16512290  0.49872110  0.00008826  1
  I  I85  1  0.16955873  0.50197671  0.33584534  1
  I  I86  1  0.16895982  0.49962911  0.66261525  1
  I  I87  1  0.15879122  0.83877164  0.00033753  1
  I  I88  1  0.16469213  0.83686105  0.33080198  1
  I  I89  1  0.16411718  0.83148034  0.66890499  1
  I  I90  1  0.50121057  0.16321060  0.00113797  1
  I  I91  1  0.50151624  0.17025407  0.33354326  1
  I  I92  1  0.50574725  0.17005432  0.66517696  1
  I  I93  1  0.50107702  0.49945665  0.00026029  1
  I  I94  1  0.49695293  0.49404049  0.33673141  1
  I  I95  1  0.49796078  0.49483416  0.66238790  1
  I  I96  1  0.50590308  0.83633896  0.00014057  1
  I  I97  1  0.50071895  0.83531259  0.33341842  1
  I  I98  1  0.49576081  0.83673609  0.66646468  1
  I  I99  1  0.83195037  0.16815976  0.00318577  1
  I  I100  1  0.82876561  0.16430562  0.33322829  1
  I  I101  1  0.82800939  0.16465128  0.66374118  1
  I  I102  1  0.83537328  0.49210297  0.00460034  1
  I  I103  1  0.83366912  0.50026128  0.33114446  1
  I  I104  1  0.83344960  0.49849048  0.66665969  1
  I  I105  1  0.83661893  0.83392915  -0.00209584  1
  I  I106  1  0.83434863  0.83444016  0.33535830  1
  I  I107  1  0.83900700  0.83877147  0.66608737  1
  I  I108  1  -0.00082010  0.16570033  0.17276524  1
  I  I109  1  -0.00315131  0.16428915  0.49405184  1
  I  I110  1  0.00012994  0.16679320  0.83291015  1
  I  I111  1  -0.00265088  0.49472042  0.17181690  1
  I  I112  1  0.00148491  0.50155099  0.49654646  1
  I  I113  1  -0.00013374  0.49628070  0.82942291  1
  I  I114  1  0.00247112  0.83915664  0.16613942  1
  I  I115  1  -0.00347439  0.83745663  0.50013769  1
  I  I116  1  -0.00019829  0.83520273  0.83347427  1
  I  I117  1  0.33356282  0.16053144  0.16760903  1
  I  I118  1  0.33608343  0.16902182  0.49862504  1
  I  I119  1  0.33696286  0.16359278  0.83101597  1
  I  I120  1  0.33354516  0.49989828  0.16694875  1
  I  I121  1  0.33415481  0.49455082  0.49838556  1
  I  I122  1  0.33337132  0.50197196  0.83647414  1
  I  I123  1  0.32846929  0.83790377  0.16170095  1
  I  I124  1  0.33320779  0.83505315  0.50060847  1
  I  I125  1  0.33033637  0.83545024  0.83738592  1
  I  I126  1  0.66699026  0.17104436  0.16818330  1
  I  I127  1  0.66652584  0.16808542  0.49546520  1
  I  I128  1  0.66398040  0.16351717  0.83707384  1
  I  I129  1  0.67017881  0.49649953  0.16996930  1
  I  I130  1  0.66432238  0.49752247  0.49845734  1
  I  I131  1  0.66669861  0.50275618  0.83082734  1
  I  I132  1  0.66676242  0.83305534  0.16633332  1
  I  I133  1  0.67087571  0.83297333  0.50451974  1
  I  I134  1  0.66945068  0.83475745  0.82909101  1
