# generated using pymatgen
data_Cs27Sn14Pb13I81
_symmetry_space_group_name_H-M   'P 1'
_cell_length_a   18.97139202
_cell_length_b   18.98565921
_cell_length_c   18.97130817
_cell_angle_alpha   89.99917944
_cell_angle_beta   89.99920470
_cell_angle_gamma   90.00108881
_symmetry_Int_Tables_number   1
_chemical_formula_structural   Cs27Sn14Pb13I81
_chemical_formula_sum   'Cs27 Sn14 Pb13 I81'
_cell_volume   6833.16893497
_cell_formula_units_Z   1
loop_
 _symmetry_equiv_pos_site_id
 _symmetry_equiv_pos_as_xyz
  1  'x, y, z'
loop_
 _atom_site_type_symbol
 _atom_site_label
 _atom_site_symmetry_multiplicity
 _atom_site_fract_x
 _atom_site_fract_y
 _atom_site_fract_z
 _atom_site_occupancy
  Cs  Cs0  1  0.00018465  -0.00036988  -0.00007233  1
  Cs  Cs1  1  0.00022309  -0.00349192  0.33322831  1
  Cs  Cs2  1  -0.00101444  0.00238842  0.66760989  1
  Cs  Cs3  1  -0.00070550  0.33393172  -0.00076350  1
  Cs  Cs4  1  0.00069346  0.33475857  0.33592800  1
  Cs  Cs5  1  -0.00040074  0.33091377  0.66594591  1
  Cs  Cs6  1  0.00023582  0.66720836  0.00421318  1
  Cs  Cs7  1  0.00038502  0.66927406  0.33269669  1
  Cs  Cs8  1  -0.00012696  0.66784096  0.66378705  1
  Cs  Cs9  1  0.33248682  -0.00048183  -0.00190532  1
  Cs  Cs10  1  0.33673140  -0.00044896  0.33467381  1
  Cs  Cs11  1  0.33400195  -0.00099659  0.67032942  1
  Cs  Cs12  1  0.33202385  0.33398092  0.00099346  1
  Cs  Cs13  1  0.33495919  0.33292937  0.33148622  1
  Cs  Cs14  1  0.33293810  0.33564816  0.66659534  1
  Cs  Cs15  1  0.33480960  0.66567006  -0.00045714  1
  Cs  Cs16  1  0.33158224  0.66713146  0.33711430  1
  Cs  Cs17  1  0.33529756  0.66434658  0.66217167  1
  Cs  Cs18  1  0.66482674  0.00073591  0.00103952  1
  Cs  Cs19  1  0.66327491  0.00466133  0.33242479  1
  Cs  Cs20  1  0.66773085  -0.00216125  0.66624158  1
  Cs  Cs21  1  0.67426629  0.33553095  0.00077903  1
  Cs  Cs22  1  0.66501170  0.32759654  0.33084170  1
  Cs  Cs23  1  0.66743073  0.33886423  0.66816361  1
  Cs  Cs24  1  0.66445748  0.66399816  0.00018258  1
  Cs  Cs25  1  0.66895614  0.66708181  0.33153743  1
  Cs  Cs26  1  0.66529118  0.66653660  0.66720120  1
  Sn  Sn27  1  0.16730801  0.16692270  0.83347393  1
  Sn  Sn28  1  0.83389368  0.16655267  0.50027542  1
  Sn  Sn29  1  0.16666223  0.16708337  0.16653022  1
  Sn  Sn30  1  0.49971241  0.16662636  0.83338335  1
  Sn  Sn31  1  0.16667539  0.83289384  0.83324457  1
  Sn  Sn32  1  0.16647944  0.16645039  0.49999801  1
  Sn  Sn33  1  0.49923546  0.50069393  0.16649086  1
  Sn  Sn34  1  0.16657318  0.50006652  0.83375971  1
  Sn  Sn35  1  0.83327061  0.49991708  0.49987712  1
  Sn  Sn36  1  0.49963727  0.83248918  0.16598946  1
  Sn  Sn37  1  0.83325059  0.83362791  0.50058790  1
  Sn  Sn38  1  0.83337437  0.83331670  0.83314401  1
  Sn  Sn39  1  0.16752723  0.49945692  0.16604120  1
  Sn  Sn40  1  0.49988982  0.83388427  0.83397244  1
  Pb  Pb41  1  0.16524846  0.49803860  0.49965390  1
  Pb  Pb42  1  0.83625268  0.50276681  0.83155980  1
  Pb  Pb43  1  0.83654613  0.16652911  0.16923739  1
  Pb  Pb44  1  0.83329601  0.16488772  0.83170629  1
  Pb  Pb45  1  0.16882458  0.83319566  0.16476346  1
  Pb  Pb46  1  0.83396816  0.49997236  0.16886104  1
  Pb  Pb47  1  0.50248250  0.49984494  0.49673614  1
  Pb  Pb48  1  0.49780674  0.16685592  0.16387603  1
  Pb  Pb49  1  0.50230863  0.83333851  0.50039289  1
  Pb  Pb50  1  0.83057635  0.83349416  0.16626656  1
  Pb  Pb51  1  0.49806015  0.49995275  0.83503604  1
  Pb  Pb52  1  0.49968166  0.16673978  0.50314052  1
  Pb  Pb53  1  0.16481215  0.83587779  0.50257891  1
  I  I54  1  0.16704172  0.00265800  0.16602166  1
  I  I55  1  0.16081351  0.00398416  0.49898017  1
  I  I56  1  0.16712145  0.00033343  0.83270994  1
  I  I57  1  0.17189527  0.33348095  0.16234794  1
  I  I58  1  0.16000960  0.33004470  0.50494879  1
  I  I59  1  0.17152296  0.33232060  0.83333695  1
  I  I60  1  0.16794084  0.66397917  0.16174669  1
  I  I61  1  0.16404107  0.66679462  0.50013497  1
  I  I62  1  0.16559562  0.66689939  0.83857665  1
  I  I63  1  0.50001438  -0.00225442  0.16433224  1
  I  I64  1  0.50233380  0.00005602  0.49460167  1
  I  I65  1  0.49520214  -0.00117469  0.83805766  1
  I  I66  1  0.49724202  0.33568818  0.16696928  1
  I  I67  1  0.50337981  0.33318470  0.50060649  1
  I  I68  1  0.49416770  0.33086478  0.83290434  1
  I  I69  1  0.49549223  0.66687813  0.16039978  1
  I  I70  1  0.50154366  0.66667034  0.50462395  1
  I  I71  1  0.49990337  0.66968698  0.83542132  1
  I  I72  1  0.83335177  -0.00006851  0.16941445  1
  I  I73  1  0.83782944  -0.00000065  0.50500809  1
  I  I74  1  0.83734009  -0.00323711  0.82720893  1
  I  I75  1  0.82754886  0.33331521  0.16821512  1
  I  I76  1  0.83887751  0.33256561  0.49871293  1
  I  I77  1  0.83242882  0.33346551  0.83122128  1
  I  I78  1  0.83806935  0.66677421  0.17031943  1
  I  I79  1  0.83229730  0.66733651  0.50440376  1
  I  I80  1  0.83186435  0.67080955  0.82714225  1
  I  I81  1  0.17201315  0.16700932  -0.00108874  1
  I  I82  1  0.16124652  0.17235875  0.33323175  1
  I  I83  1  0.16543646  0.16604900  0.66776848  1
  I  I84  1  0.16952772  0.49536057  -0.00017603  1
  I  I85  1  0.16884457  0.49485608  0.33036455  1
  I  I86  1  0.16464901  0.49948166  0.66944621  1
  I  I87  1  0.16177368  0.83814046  -0.00377379  1
  I  I88  1  0.16614096  0.83343178  0.33339153  1
  I  I89  1  0.17158733  0.83244635  0.67117385  1
  I  I90  1  0.49354458  0.16358005  -0.00384371  1
  I  I91  1  0.49985360  0.16598918  0.33306204  1
  I  I92  1  0.49398940  0.15917098  0.67095765  1
  I  I93  1  0.49814847  0.50200849  0.00290228  1
  I  I94  1  0.49236463  0.50599308  0.32878662  1
  I  I95  1  0.49925054  0.50046199  0.66689107  1
  I  I96  1  0.50181570  0.83361396  -0.00159297  1
  I  I97  1  0.50123734  0.82944546  0.33047506  1
  I  I98  1  0.49830032  0.83804646  0.67036352  1
  I  I99  1  0.83368353  0.16480410  -0.00024617  1
  I  I100  1  0.83724589  0.16374464  0.33779417  1
  I  I101  1  0.83983019  0.16778012  0.66359617  1
  I  I102  1  0.83202779  0.50175860  -0.00007382  1
  I  I103  1  0.83560736  0.50289579  0.33695253  1
  I  I104  1  0.83550071  0.49729758  0.66364167  1
  I  I105  1  0.83592813  0.83394536  -0.00348475  1
  I  I106  1  0.83263297  0.83323322  0.33638446  1
  I  I107  1  0.83227868  0.83390314  0.66716687  1
  I  I108  1  0.00487751  0.17243089  0.16013937  1
  I  I109  1  0.00055181  0.16664015  0.50259602  1
  I  I110  1  0.00347270  0.16582415  0.83436160  1
  I  I111  1  0.00361469  0.49534987  0.16333827  1
  I  I112  1  -0.00275830  0.50216237  0.49896871  1
  I  I113  1  0.00446772  0.49747490  0.83928202  1
  I  I114  1  0.00025296  0.83275884  0.16601163  1
  I  I115  1  -0.00336721  0.83165160  0.50485767  1
  I  I116  1  0.00060662  0.83403969  0.82789715  1
  I  I117  1  0.32964621  0.16800397  0.17115477  1
  I  I118  1  0.32993363  0.16744103  0.49878123  1
  I  I119  1  0.33141247  0.16113385  0.83134978  1
  I  I120  1  0.33218184  0.49960043  0.16241373  1
  I  I121  1  0.33307480  0.49836967  0.50183963  1
  I  I122  1  0.32967765  0.50317841  0.83390772  1
  I  I123  1  0.33657857  0.83292903  0.16020287  1
  I  I124  1  0.33326103  0.83488311  0.50067955  1
  I  I125  1  0.33323261  0.83578329  0.83877246  1
  I  I126  1  0.66632610  0.16713581  0.16720017  1
  I  I127  1  0.66969482  0.16566343  0.50145894  1
  I  I128  1  0.66417907  0.16089794  0.83173687  1
  I  I129  1  0.66396478  0.50507242  0.16828240  1
  I  I130  1  0.67073665  0.49783992  0.50050684  1
  I  I131  1  0.66678624  0.49922886  0.83388727  1
  I  I132  1  0.66269556  0.82733969  0.16121775  1
  I  I133  1  0.67059318  0.83590088  0.50582273  1
  I  I134  1  0.66607339  0.83885081  0.83233205  1
