# generated using pymatgen
data_Cs27Sn13Pb14I81
_symmetry_space_group_name_H-M   'P 1'
_cell_length_a   18.98318173
_cell_length_b   18.97683803
_cell_length_c   18.97574310
_cell_angle_alpha   89.99943091
_cell_angle_beta   90.00085005
_cell_angle_gamma   90.00146721
_symmetry_Int_Tables_number   1
_chemical_formula_structural   Cs27Sn13Pb14I81
_chemical_formula_sum   'Cs27 Sn13 Pb14 I81'
_cell_volume   6835.83620883
_cell_formula_units_Z   1
loop_
 _symmetry_equiv_pos_site_id
 _symmetry_equiv_pos_as_xyz
  1  'x, y, z'
loop_
 _atom_site_type_symbol
 _atom_site_label
 _atom_site_symmetry_multiplicity
 _atom_site_fract_x
 _atom_site_fract_y
 _atom_site_fract_z
 _atom_site_occupancy
  Cs  Cs0  1  0.00366869  0.00027068  0.00637945  1
  Cs  Cs1  1  -0.00134805  -0.00008420  0.32934837  1
  Cs  Cs2  1  -0.00377268  -0.00130589  0.66584900  1
  Cs  Cs3  1  0.00253097  0.33416515  -0.00043998  1
  Cs  Cs4  1  -0.00042197  0.33402511  0.33407137  1
  Cs  Cs5  1  -0.00213506  0.33851359  0.66729375  1
  Cs  Cs6  1  0.00226706  0.66616869  -0.00251982  1
  Cs  Cs7  1  0.00437452  0.66589060  0.33429669  1
  Cs  Cs8  1  0.00506032  0.66278917  0.66809104  1
  Cs  Cs9  1  0.32608164  0.00851331  0.00460566  1
  Cs  Cs10  1  0.33169121  -0.00202277  0.33077268  1
  Cs  Cs11  1  0.33214775  0.00021119  0.66758242  1
  Cs  Cs12  1  0.33281858  0.32728682  -0.00142756  1
  Cs  Cs13  1  0.33410635  0.33524244  0.33419695  1
  Cs  Cs14  1  0.33377761  0.33041549  0.66829231  1
  Cs  Cs15  1  0.33390532  0.66767663  -0.00003997  1
  Cs  Cs16  1  0.33343721  0.66676565  0.33338948  1
  Cs  Cs17  1  0.33167302  0.66890416  0.66634798  1
  Cs  Cs18  1  0.66734817  -0.00027681  0.00292839  1
  Cs  Cs19  1  0.66837421  -0.00121077  0.33249086  1
  Cs  Cs20  1  0.66776070  -0.00135853  0.66630121  1
  Cs  Cs21  1  0.66573752  0.33266063  -0.00017204  1
  Cs  Cs22  1  0.66700199  0.33389770  0.33461230  1
  Cs  Cs23  1  0.66758992  0.33221629  0.66615012  1
  Cs  Cs24  1  0.66616971  0.66743635  -0.00154987  1
  Cs  Cs25  1  0.66526312  0.66700229  0.33292226  1
  Cs  Cs26  1  0.66701903  0.66879355  0.66794895  1
  Sn  Sn27  1  0.83314336  0.50029608  0.16670189  1
  Sn  Sn28  1  0.83305340  0.16570043  0.83278888  1
  Sn  Sn29  1  0.50037983  0.50031588  0.50066353  1
  Sn  Sn30  1  0.83271351  0.83354178  0.50085586  1
  Sn  Sn31  1  0.83343947  0.16603683  0.50082003  1
  Sn  Sn32  1  0.49999480  0.16605615  0.50002543  1
  Sn  Sn33  1  0.83259802  0.83424696  0.83252384  1
  Sn  Sn34  1  0.16711370  0.50010164  0.16664802  1
  Sn  Sn35  1  0.50087495  0.83347226  0.50083306  1
  Sn  Sn36  1  0.50036498  0.83339062  0.83295317  1
  Sn  Sn37  1  0.50036443  0.50052373  0.83302601  1
  Sn  Sn38  1  0.16621772  0.16654694  0.50038857  1
  Sn  Sn39  1  0.50017733  0.49999660  0.16632720  1
  Pb  Pb40  1  0.16656467  0.83556716  0.50009542  1
  Pb  Pb41  1  0.16672664  0.83095356  0.16673925  1
  Pb  Pb42  1  0.83324465  0.83086057  0.16656874  1
  Pb  Pb43  1  0.16653321  0.16895070  0.16931403  1
  Pb  Pb44  1  0.50180533  0.16564749  0.83138033  1
  Pb  Pb45  1  0.83157803  0.50062368  0.49865641  1
  Pb  Pb46  1  0.17013398  0.49988276  0.83551022  1
  Pb  Pb47  1  0.83316283  0.16878318  0.16680985  1
  Pb  Pb48  1  0.50023170  0.16888093  0.16940483  1
  Pb  Pb49  1  0.16955471  0.49797867  0.49870483  1
  Pb  Pb50  1  0.16682809  0.83361696  0.83313379  1
  Pb  Pb51  1  0.16314575  0.16651547  0.83063201  1
  Pb  Pb52  1  0.49996744  0.83165659  0.16624479  1
  Pb  Pb53  1  0.83138626  0.50036571  0.83518681  1
  I  I54  1  0.16671050  0.00045271  0.16681551  1
  I  I55  1  0.17165895  0.00352054  0.49983813  1
  I  I56  1  0.17312006  0.00019885  0.83408462  1
  I  I57  1  0.16799344  0.33699488  0.16770021  1
  I  I58  1  0.16535813  0.33004826  0.49841105  1
  I  I59  1  0.16656020  0.33327890  0.83339445  1
  I  I60  1  0.16755687  0.66230313  0.16878185  1
  I  I61  1  0.16630534  0.66656550  0.49762212  1
  I  I62  1  0.16184041  0.66651868  0.83355047  1
  I  I63  1  0.49992566  -0.00000613  0.16693088  1
  I  I64  1  0.50071803  -0.00040443  0.50550068  1
  I  I65  1  0.50296242  -0.00331155  0.82653062  1
  I  I66  1  0.50025856  0.33796356  0.16621916  1
  I  I67  1  0.50019618  0.33342321  0.49825844  1
  I  I68  1  0.50145589  0.33572825  0.83333535  1
  I  I69  1  0.50024072  0.66265746  0.17206974  1
  I  I70  1  0.50497083  0.66683427  0.49904847  1
  I  I71  1  0.50570276  0.66659474  0.82955439  1
  I  I72  1  0.83381990  -0.00010886  0.16716618  1
  I  I73  1  0.82858277  0.00033430  0.50297161  1
  I  I74  1  0.82676544  -0.00064367  0.82793021  1
  I  I75  1  0.83162587  0.33689115  0.16773916  1
  I  I76  1  0.83204865  0.33050909  0.50212342  1
  I  I77  1  0.83189157  0.33108555  0.82935592  1
  I  I78  1  0.83155778  0.66285401  0.16748254  1
  I  I79  1  0.82759565  0.66978154  0.50223150  1
  I  I80  1  0.83040341  0.66968859  0.83030812  1
  I  I81  1  0.16599079  0.16771123  -0.00001933  1
  I  I82  1  0.16494046  0.16752377  0.33727732  1
  I  I83  1  0.17144115  0.16815511  0.66269208  1
  I  I84  1  0.16718928  0.49963463  0.00372661  1
  I  I85  1  0.16873152  0.49868961  0.33054720  1
  I  I86  1  0.16708988  0.49932840  0.66666389  1
  I  I87  1  0.16638467  0.83298375  -0.00016247  1
  I  I88  1  0.16677959  0.83336094  0.33378730  1
  I  I89  1  0.16738216  0.83136928  0.66640639  1
  I  I90  1  0.50186208  0.16803660  -0.00029531  1
  I  I91  1  0.50330258  0.16654671  0.33844310  1
  I  I92  1  0.49847626  0.17319584  0.66278925  1
  I  I93  1  0.50085429  0.50574501  -0.00011992  1
  I  I94  1  0.50003298  0.49883203  0.33374353  1
  I  I95  1  0.50141897  0.50003368  0.66604705  1
  I  I96  1  0.50613616  0.82587050  -0.00366240  1
  I  I97  1  0.50400548  0.83282033  0.33694568  1
  I  I98  1  0.50411699  0.82742143  0.66562618  1
  I  I99  1  0.83158927  0.16377290  -0.00306611  1
  I  I100  1  0.83269722  0.16387838  0.33719137  1
  I  I101  1  0.83257676  0.16413341  0.66512919  1
  I  I102  1  0.83025309  0.49950845  0.00309902  1
  I  I103  1  0.82994948  0.49911694  0.33066275  1
  I  I104  1  0.83150637  0.49867807  0.66674843  1
  I  I105  1  0.82797114  0.83609689  -0.00358100  1
  I  I106  1  0.82857755  0.83725348  0.33683070  1
  I  I107  1  0.82774332  0.83767720  0.66597634  1
  I  I108  1  -0.00025555  0.17100999  0.16897677  1
  I  I109  1  -0.00156949  0.16253858  0.50286377  1
  I  I110  1  -0.00496153  0.16216823  0.82822578  1
  I  I111  1  -0.00016201  0.49934293  0.16782825  1
  I  I112  1  -0.00005894  0.49954377  0.49646223  1
  I  I113  1  -0.00016937  0.50010905  0.83607985  1
  I  I114  1  -0.00037157  0.82953726  0.16753580  1
  I  I115  1  -0.00368670  0.83726271  0.50321707  1
  I  I116  1  -0.00393391  0.83635729  0.82874431  1
  I  I117  1  0.33345775  0.16929891  0.16737058  1
  I  I118  1  0.33470760  0.16906246  0.49800844  1
  I  I119  1  0.33348867  0.16789117  0.83242650  1
  I  I120  1  0.33462230  0.50024555  0.16860039  1
  I  I121  1  0.33819138  0.50074462  0.49736348  1
  I  I122  1  0.33863706  0.50525018  0.83350983  1
  I  I123  1  0.33371984  0.82997583  0.16818563  1
  I  I124  1  0.33710979  0.83252718  0.50311501  1
  I  I125  1  0.33736986  0.82638430  0.82787595  1
  I  I126  1  0.66672036  0.17142411  0.16958797  1
  I  I127  1  0.66674193  0.16754342  0.50313556  1
  I  I128  1  0.66961745  0.16741274  0.82683818  1
  I  I129  1  0.66532724  0.49981644  0.16774579  1
  I  I130  1  0.66306271  0.49556991  0.49691216  1
  I  I131  1  0.66319788  0.50078144  0.83510758  1
  I  I132  1  0.66661962  0.82924751  0.16791239  1
  I  I133  1  0.66591978  0.83693150  0.50285939  1
  I  I134  1  0.66640673  0.83180003  0.82847086  1
