# generated using pymatgen
data_Cs27Sn14Pb13I81
_symmetry_space_group_name_H-M   'P 1'
_cell_length_a   18.96743659
_cell_length_b   18.97114655
_cell_length_c   18.98980857
_cell_angle_alpha   90.00056463
_cell_angle_beta   90.00165849
_cell_angle_gamma   89.99811707
_symmetry_Int_Tables_number   1
_chemical_formula_structural   Cs27Sn14Pb13I81
_chemical_formula_sum   'Cs27 Sn14 Pb13 I81'
_cell_volume   6833.17913220
_cell_formula_units_Z   1
loop_
 _symmetry_equiv_pos_site_id
 _symmetry_equiv_pos_as_xyz
  1  'x, y, z'
loop_
 _atom_site_type_symbol
 _atom_site_label
 _atom_site_symmetry_multiplicity
 _atom_site_fract_x
 _atom_site_fract_y
 _atom_site_fract_z
 _atom_site_occupancy
  Cs  Cs0  1  0.00605092  0.00454289  0.00118810  1
  Cs  Cs1  1  0.00094795  0.00407891  0.33516106  1
  Cs  Cs2  1  0.00099708  -0.00296129  0.66451386  1
  Cs  Cs3  1  -0.00119450  0.33367748  0.00076585  1
  Cs  Cs4  1  0.00036032  0.33310474  0.33339510  1
  Cs  Cs5  1  0.00119580  0.33812686  0.66580111  1
  Cs  Cs6  1  -0.00348611  0.66412471  -0.00140819  1
  Cs  Cs7  1  0.00101613  0.66518715  0.33566908  1
  Cs  Cs8  1  0.00010079  0.66449720  0.66603914  1
  Cs  Cs9  1  0.32733441  0.00167990  0.00032398  1
  Cs  Cs10  1  0.33262392  -0.00363390  0.32905223  1
  Cs  Cs11  1  0.33169164  0.00239710  0.67072387  1
  Cs  Cs12  1  0.33630057  0.33139765  -0.00340887  1
  Cs  Cs13  1  0.33436152  0.33677944  0.33764251  1
  Cs  Cs14  1  0.33813017  0.32985623  0.66534550  1
  Cs  Cs15  1  0.33531600  0.66723183  0.00221974  1
  Cs  Cs16  1  0.33433797  0.66676539  0.33220881  1
  Cs  Cs17  1  0.33248738  0.66758757  0.66563568  1
  Cs  Cs18  1  0.66659347  -0.00384599  0.00227736  1
  Cs  Cs19  1  0.66748129  0.00131456  0.33326552  1
  Cs  Cs20  1  0.66691103  0.00009859  0.66427253  1
  Cs  Cs21  1  0.66722129  0.33391370  -0.00106243  1
  Cs  Cs22  1  0.66426108  0.32849545  0.33499553  1
  Cs  Cs23  1  0.66016321  0.32946499  0.66670507  1
  Cs  Cs24  1  0.66761911  0.66892391  0.00035768  1
  Cs  Cs25  1  0.66487238  0.66797467  0.32975725  1
  Cs  Cs26  1  0.66845683  0.66857608  0.66949012  1
  Sn  Sn27  1  0.16649762  0.50013085  0.83338918  1
  Sn  Sn28  1  0.16607671  0.49914777  0.50014380  1
  Sn  Sn29  1  0.16598069  0.50016125  0.16645684  1
  Sn  Sn30  1  0.83342506  0.83302558  0.16614192  1
  Sn  Sn31  1  0.50018343  0.83314427  0.50006313  1
  Sn  Sn32  1  0.50079863  0.83448616  0.16630994  1
  Sn  Sn33  1  0.83350339  0.16644092  0.83325817  1
  Sn  Sn34  1  0.83296914  0.83386936  0.83429388  1
  Sn  Sn35  1  0.83384722  0.50056328  0.16700274  1
  Sn  Sn36  1  0.83368243  0.49965970  0.83315969  1
  Sn  Sn37  1  0.16637648  0.16715088  0.49994760  1
  Sn  Sn38  1  0.50043779  0.83325599  0.83360425  1
  Sn  Sn39  1  0.50015473  0.16598250  0.16643098  1
  Sn  Sn40  1  0.83303350  0.49998952  0.49987236  1
  Pb  Pb41  1  0.50066073  0.50023400  0.16660189  1
  Pb  Pb42  1  0.49771884  0.16381521  0.49805273  1
  Pb  Pb43  1  0.16877482  0.83278574  0.49996588  1
  Pb  Pb44  1  0.16569043  0.83102502  0.83355445  1
  Pb  Pb45  1  0.50019587  0.50188608  0.50017103  1
  Pb  Pb46  1  0.83503110  0.16933410  0.50242288  1
  Pb  Pb47  1  0.16559115  0.83112736  0.16658275  1
  Pb  Pb48  1  0.50223218  0.16362053  0.83542028  1
  Pb  Pb49  1  0.83183359  0.83136614  0.49964963  1
  Pb  Pb50  1  0.16431083  0.16951491  0.83139688  1
  Pb  Pb51  1  0.50048511  0.50208824  0.83326477  1
  Pb  Pb52  1  0.16891581  0.16987854  0.16841580  1
  Pb  Pb53  1  0.83209007  0.16672310  0.16500635  1
  I  I54  1  0.16491660  0.00023064  0.16950488  1
  I  I55  1  0.16903771  0.00245642  0.50017737  1
  I  I56  1  0.16607436  0.00020913  0.83037239  1
  I  I57  1  0.16077235  0.33793641  0.16444037  1
  I  I58  1  0.16284079  0.33568591  0.49945501  1
  I  I59  1  0.16051656  0.33775938  0.83631765  1
  I  I60  1  0.16821289  0.66273961  0.16990066  1
  I  I61  1  0.16383478  0.66279929  0.50031097  1
  I  I62  1  0.16128700  0.66273090  0.82987531  1
  I  I63  1  0.50630460  -0.00221206  0.16757562  1
  I  I64  1  0.49966395  -0.00400312  0.50239068  1
  I  I65  1  0.50571729  -0.00447389  0.83041192  1
  I  I66  1  0.49968005  0.33126484  0.16750726  1
  I  I67  1  0.50154323  0.33308018  0.49762843  1
  I  I68  1  0.50077215  0.33302738  0.83507997  1
  I  I69  1  0.50079356  0.66989076  0.16637919  1
  I  I70  1  0.49800361  0.66983611  0.49639915  1
  I  I71  1  0.50539205  0.67027631  0.83725750  1
  I  I72  1  0.82911762  -0.00312827  0.16180671  1
  I  I73  1  0.83475353  0.00001706  0.50037153  1
  I  I74  1  0.82702041  -0.00141684  0.83789002  1
  I  I75  1  0.83568171  0.33668115  0.16536640  1
  I  I76  1  0.83476717  0.33783936  0.49827186  1
  I  I77  1  0.83909230  0.33507193  0.83424187  1
  I  I78  1  0.83069609  0.66619953  0.16220926  1
  I  I79  1  0.83969306  0.66310779  0.50409159  1
  I  I80  1  0.83291363  0.66623058  0.83398212  1
  I  I81  1  0.16764912  0.16759175  -0.00007811  1
  I  I82  1  0.16622116  0.17303283  0.33610831  1
  I  I83  1  0.16746027  0.17304023  0.66374767  1
  I  I84  1  0.16025110  0.50260941  -0.00005355  1
  I  I85  1  0.16094560  0.49704538  0.33355752  1
  I  I86  1  0.15942849  0.49793037  0.66651550  1
  I  I87  1  0.17265213  0.83203529  0.00003040  1
  I  I88  1  0.16813663  0.83011500  0.33326342  1
  I  I89  1  0.16766650  0.83043319  0.66677326  1
  I  I90  1  0.49944798  0.16240484  0.00302046  1
  I  I91  1  0.50174841  0.16141740  0.33038976  1
  I  I92  1  0.49965211  0.16562209  0.66677102  1
  I  I93  1  0.49784205  0.50149371  0.00007022  1
  I  I94  1  0.49954944  0.50332428  0.33321298  1
  I  I95  1  0.50004580  0.50299625  0.66675944  1
  I  I96  1  0.50539867  0.83535442  0.00043443  1
  I  I97  1  0.50313476  0.83595856  0.33198070  1
  I  I98  1  0.50402097  0.82961667  0.66755501  1
  I  I99  1  0.83256152  0.17177235  -0.00282977  1
  I  I100  1  0.83278436  0.16662592  0.33342329  1
  I  I101  1  0.83304453  0.16511536  0.67031345  1
  I  I102  1  0.83891504  0.50129323  -0.00020175  1
  I  I103  1  0.83933041  0.50574656  0.33259612  1
  I  I104  1  0.83978164  0.50159248  0.66747770  1
  I  I105  1  0.82381634  0.82622690  -0.00022447  1
  I  I106  1  0.82834477  0.82749496  0.33027970  1
  I  I107  1  0.82909782  0.83168937  0.66968997  1
  I  I108  1  0.00006248  0.16367970  0.16673043  1
  I  I109  1  0.00294673  0.16790731  0.49877089  1
  I  I110  1  -0.00364087  0.16116339  0.83529047  1
  I  I111  1  -0.00123033  0.50541004  0.16648006  1
  I  I112  1  0.00003360  0.49812542  0.50029963  1
  I  I113  1  -0.00141948  0.50279477  0.83305379  1
  I  I114  1  -0.00383899  0.83001320  0.16082342  1
  I  I115  1  -0.00012168  0.83459525  0.50025680  1
  I  I116  1  -0.00412654  0.83387080  0.83812509  1
  I  I117  1  0.33668110  0.15950110  0.16626793  1
  I  I118  1  0.33014775  0.17622672  0.50052430  1
  I  I119  1  0.33330476  0.16703898  0.83314084  1
  I  I120  1  0.33065535  0.50032078  0.16797522  1
  I  I121  1  0.32996841  0.49783828  0.49944286  1
  I  I122  1  0.33039814  0.50224508  0.83307461  1
  I  I123  1  0.33634345  0.83507220  0.16644025  1
  I  I124  1  0.33700372  0.83038022  0.49904704  1
  I  I125  1  0.33611287  0.83070327  0.83378096  1
  I  I126  1  0.66407020  0.16691887  0.16691201  1
  I  I127  1  0.66660933  0.16838157  0.50020136  1
  I  I128  1  0.67009310  0.17448694  0.83258515  1
  I  I129  1  0.67026169  0.50186668  0.16549718  1
  I  I130  1  0.66994430  0.50278538  0.50017275  1
  I  I131  1  0.67066598  0.49906870  0.83414762  1
  I  I132  1  0.66681977  0.82990013  0.16574947  1
  I  I133  1  0.66376804  0.83087790  0.49979642  1
  I  I134  1  0.66781145  0.82964920  0.83410808  1
