# generated using pymatgen
data_Cs27Sn13Pb14I81
_symmetry_space_group_name_H-M   'P 1'
_cell_length_a   18.97402728
_cell_length_b   18.96856957
_cell_length_c   18.98953534
_cell_angle_alpha   90.00054658
_cell_angle_beta   90.00040078
_cell_angle_gamma   89.99691264
_symmetry_Int_Tables_number   1
_chemical_formula_structural   Cs27Sn13Pb14I81
_chemical_formula_sum   'Cs27 Sn13 Pb14 I81'
_cell_volume   6834.52662644
_cell_formula_units_Z   1
loop_
 _symmetry_equiv_pos_site_id
 _symmetry_equiv_pos_as_xyz
  1  'x, y, z'
loop_
 _atom_site_type_symbol
 _atom_site_label
 _atom_site_symmetry_multiplicity
 _atom_site_fract_x
 _atom_site_fract_y
 _atom_site_fract_z
 _atom_site_occupancy
  Cs  Cs0  1  0.00019633  0.00143276  -0.00240300  1
  Cs  Cs1  1  -0.00117483  0.00278259  0.33643731  1
  Cs  Cs2  1  -0.00173341  -0.00191368  0.66785922  1
  Cs  Cs3  1  0.00093738  0.33257592  -0.00036577  1
  Cs  Cs4  1  -0.00121900  0.33076328  0.33291531  1
  Cs  Cs5  1  0.00283720  0.33364004  0.66826030  1
  Cs  Cs6  1  -0.00196851  0.66649801  0.00034618  1
  Cs  Cs7  1  0.00642972  0.66874788  0.33164526  1
  Cs  Cs8  1  -0.00055358  0.66947466  0.66572866  1
  Cs  Cs9  1  0.33482915  0.00007719  -0.00018281  1
  Cs  Cs10  1  0.33834747  -0.00979894  0.33266489  1
  Cs  Cs11  1  0.33493153  0.00241969  0.66797312  1
  Cs  Cs12  1  0.33223227  0.33283410  -0.00239360  1
  Cs  Cs13  1  0.33070644  0.33467296  0.33494409  1
  Cs  Cs14  1  0.33242279  0.33281695  0.66815276  1
  Cs  Cs15  1  0.33236094  0.66731434  0.00067029  1
  Cs  Cs16  1  0.32834207  0.67521549  0.33208027  1
  Cs  Cs17  1  0.33211828  0.66547587  0.66671120  1
  Cs  Cs18  1  0.66469462  0.00122936  0.00178696  1
  Cs  Cs19  1  0.66065324  0.00451980  0.33850636  1
  Cs  Cs20  1  0.66701138  -0.00178711  0.66004317  1
  Cs  Cs21  1  0.66682096  0.33427861  0.00052999  1
  Cs  Cs22  1  0.66898639  0.33318018  0.33264161  1
  Cs  Cs23  1  0.66444768  0.33527891  0.66636312  1
  Cs  Cs24  1  0.66866178  0.66571491  -0.00067183  1
  Cs  Cs25  1  0.66478328  0.66355936  0.33140596  1
  Cs  Cs26  1  0.66816961  0.66604451  0.66827030  1
  Sn  Sn27  1  0.49958789  0.83251796  0.83337216  1
  Sn  Sn28  1  0.16698735  0.16649032  0.50004484  1
  Sn  Sn29  1  0.83322370  0.50009478  0.50001803  1
  Sn  Sn30  1  0.16738499  0.83397079  0.83356203  1
  Sn  Sn31  1  0.50023283  0.50009144  0.49983512  1
  Sn  Sn32  1  0.16709744  0.16644544  0.16669529  1
  Sn  Sn33  1  0.83295550  0.50090692  0.16669105  1
  Sn  Sn34  1  0.83300498  0.83345777  0.16702696  1
  Sn  Sn35  1  0.50073884  0.50084411  0.83352899  1
  Sn  Sn36  1  0.83278817  0.49912411  0.83315281  1
  Sn  Sn37  1  0.50008245  0.49988101  0.16659662  1
  Sn  Sn38  1  0.16579195  0.16575385  0.83345596  1
  Sn  Sn39  1  0.83346236  0.16729688  0.83334019  1
  Pb  Pb40  1  0.16654561  0.50018710  0.83339870  1
  Pb  Pb41  1  0.83485558  0.16899245  0.50265501  1
  Pb  Pb42  1  0.50045881  0.16677308  0.83328173  1
  Pb  Pb43  1  0.83447266  0.16689551  0.16496019  1
  Pb  Pb44  1  0.83287711  0.83334929  0.83453227  1
  Pb  Pb45  1  0.16658683  0.49860454  0.49993133  1
  Pb  Pb46  1  0.50230656  0.83103132  0.16440421  1
  Pb  Pb47  1  0.16644321  0.49844597  0.16663932  1
  Pb  Pb48  1  0.83319997  0.83061912  0.49658706  1
  Pb  Pb49  1  0.16655924  0.83619154  0.50274103  1
  Pb  Pb50  1  0.49761014  0.16917889  0.49990437  1
  Pb  Pb51  1  0.50018440  0.83035303  0.50260733  1
  Pb  Pb52  1  0.49751095  0.16918163  0.16674630  1
  Pb  Pb53  1  0.16441446  0.83596713  0.16429780  1
  I  I54  1  0.16363230  0.00385332  0.16695793  1
  I  I55  1  0.16506498  0.00431632  0.49850722  1
  I  I56  1  0.16581004  0.00127997  0.83351865  1
  I  I57  1  0.16479277  0.33035269  0.16207923  1
  I  I58  1  0.16675571  0.33048256  0.50454434  1
  I  I59  1  0.16557432  0.33033395  0.83325795  1
  I  I60  1  0.16786683  0.66699659  0.16508189  1
  I  I61  1  0.16671103  0.66687469  0.50159801  1
  I  I62  1  0.16737715  0.66920472  0.83397057  1
  I  I63  1  0.50114350  -0.00039500  0.16415498  1
  I  I64  1  0.49891093  -0.00021562  0.50159935  1
  I  I65  1  0.49828246  -0.00261356  0.83471310  1
  I  I66  1  0.50688759  0.33796674  0.16260476  1
  I  I67  1  0.50363973  0.33776713  0.50414086  1
  I  I68  1  0.50046552  0.33689662  0.83325916  1
  I  I69  1  0.50114537  0.66243768  0.16788244  1
  I  I70  1  0.50347823  0.66192313  0.49859838  1
  I  I71  1  0.49997270  0.66493418  0.83324557  1
  I  I72  1  0.83769743  -0.00203203  0.16089509  1
  I  I73  1  0.83538105  0.00024069  0.50062024  1
  I  I74  1  0.83600347  0.00233870  0.83692024  1
  I  I75  1  0.83099324  0.33689102  0.16733618  1
  I  I76  1  0.82986131  0.33739691  0.49547921  1
  I  I77  1  0.83444467  0.33480236  0.83550536  1
  I  I78  1  0.83018125  0.66420724  0.16273293  1
  I  I79  1  0.83025188  0.66186836  0.50773271  1
  I  I80  1  0.83272212  0.66344085  0.83232706  1
  I  I81  1  0.16245088  0.16426674  -0.00152266  1
  I  I82  1  0.16582314  0.17255334  0.33325347  1
  I  I83  1  0.16283107  0.16423918  0.66817645  1
  I  I84  1  0.16660969  0.49638594  -0.00022245  1
  I  I85  1  0.16649856  0.49589672  0.33325294  1
  I  I86  1  0.16667383  0.49700354  0.66694969  1
  I  I87  1  0.16982830  0.83881524  -0.00353181  1
  I  I88  1  0.16595555  0.83428044  0.33308400  1
  I  I89  1  0.16834596  0.83748710  0.67097119  1
  I  I90  1  0.49713554  0.16975920  -0.00030179  1
  I  I91  1  0.49881847  0.16877454  0.33331180  1
  I  I92  1  0.49714612  0.16955400  0.66696551  1
  I  I93  1  0.50596277  0.50295315  -0.00074663  1
  I  I94  1  0.50733468  0.49595976  0.33312624  1
  I  I95  1  0.50583045  0.50300752  0.66759342  1
  I  I96  1  0.49640746  0.82737836  -0.00348292  1
  I  I97  1  0.49986448  0.83234553  0.33311074  1
  I  I98  1  0.49714589  0.82826404  0.67086449  1
  I  I99  1  0.84015879  0.17285522  -0.00320016  1
  I  I100  1  0.83750875  0.16829937  0.33340284  1
  I  I101  1  0.83923993  0.17107242  0.67085213  1
  I  I102  1  0.82822715  0.49968931  -0.00045523  1
  I  I103  1  0.82724482  0.50345278  0.33282376  1
  I  I104  1  0.82792237  0.49472314  0.66770432  1
  I  I105  1  0.83403278  0.82642172  0.00197107  1
  I  I106  1  0.83503259  0.82790213  0.32882666  1
  I  I107  1  0.83425249  0.83290868  0.66682336  1
  I  I108  1  0.00272817  0.16986255  0.16624326  1
  I  I109  1  0.00299718  0.17046313  0.49914232  1
  I  I110  1  0.00084617  0.16759482  0.83371994  1
  I  I111  1  -0.00363967  0.50205685  0.16540778  1
  I  I112  1  -0.00332660  0.49788840  0.50091921  1
  I  I113  1  -0.00327017  0.49865063  0.83385380  1
  I  I114  1  -0.00303524  0.82415290  0.16301825  1
  I  I115  1  -0.00005925  0.82972266  0.50308464  1
  I  I116  1  0.00202591  0.83514754  0.83511209  1
  I  I117  1  0.32918957  0.16927259  0.16152547  1
  I  I118  1  0.32945856  0.17075550  0.50514940  1
  I  I119  1  0.33023741  0.16671413  0.83320111  1
  I  I120  1  0.33645688  0.49638948  0.16500111  1
  I  I121  1  0.33655013  0.49686199  0.50205170  1
  I  I122  1  0.33643372  0.50010363  0.83325923  1
  I  I123  1  0.33336877  0.83253384  0.16678970  1
  I  I124  1  0.33331300  0.83037918  0.49777327  1
  I  I125  1  0.33328256  0.83308098  0.83394517  1
  I  I126  1  0.66680032  0.16543400  0.16351394  1
  I  I127  1  0.66676312  0.16553967  0.50193160  1
  I  I128  1  0.66963098  0.16927790  0.83513490  1
  I  I129  1  0.66743794  0.50287585  0.16550782  1
  I  I130  1  0.66689756  0.49931863  0.50112776  1
  I  I131  1  0.66699937  0.49989352  0.83352299  1
  I  I132  1  0.66998958  0.83083423  0.16174882  1
  I  I133  1  0.66671989  0.83722676  0.50410474  1
  I  I134  1  0.66423893  0.83047565  0.83542011  1
