# generated using pymatgen
data_Cs27Sn14Pb13I81
_symmetry_space_group_name_H-M   'P 1'
_cell_length_a   18.98478044
_cell_length_b   18.96896300
_cell_length_c   18.97373505
_cell_angle_alpha   90.00132821
_cell_angle_beta   89.99941886
_cell_angle_gamma   90.00128801
_symmetry_Int_Tables_number   1
_chemical_formula_structural   Cs27Sn14Pb13I81
_chemical_formula_sum   'Cs27 Sn14 Pb13 I81'
_cell_volume   6832.85177423
_cell_formula_units_Z   1
loop_
 _symmetry_equiv_pos_site_id
 _symmetry_equiv_pos_as_xyz
  1  'x, y, z'
loop_
 _atom_site_type_symbol
 _atom_site_label
 _atom_site_symmetry_multiplicity
 _atom_site_fract_x
 _atom_site_fract_y
 _atom_site_fract_z
 _atom_site_occupancy
  Cs  Cs0  1  -0.00338807  0.00037568  -0.00105608  1
  Cs  Cs1  1  0.00406776  -0.00398162  0.33507217  1
  Cs  Cs2  1  0.00284989  0.00383781  0.66604090  1
  Cs  Cs3  1  0.00051175  0.33240549  0.00180700  1
  Cs  Cs4  1  -0.00349600  0.33595518  0.33042769  1
  Cs  Cs5  1  -0.00053907  0.33063646  0.66456937  1
  Cs  Cs6  1  -0.00094858  0.66831550  0.00003666  1
  Cs  Cs7  1  0.00209991  0.66600677  0.33226828  1
  Cs  Cs8  1  -0.00260426  0.66644267  0.66737510  1
  Cs  Cs9  1  0.33502208  0.00195596  0.00031731  1
  Cs  Cs10  1  0.34314118  -0.00897748  0.34093630  1
  Cs  Cs11  1  0.33011802  0.00093997  0.66208836  1
  Cs  Cs12  1  0.33199831  0.33474531  -0.00031054  1
  Cs  Cs13  1  0.33516904  0.33461095  0.32938028  1
  Cs  Cs14  1  0.33035991  0.33378393  0.66982191  1
  Cs  Cs15  1  0.33209928  0.66358745  -0.00234876  1
  Cs  Cs16  1  0.33176440  0.67001652  0.33505494  1
  Cs  Cs17  1  0.33492382  0.66551203  0.66812614  1
  Cs  Cs18  1  0.66872401  -0.00045047  0.00031290  1
  Cs  Cs19  1  0.65369229  0.00031402  0.33515334  1
  Cs  Cs20  1  0.66708900  -0.00092963  0.66684768  1
  Cs  Cs21  1  0.66622618  0.33308178  -0.00018087  1
  Cs  Cs22  1  0.66929969  0.33142442  0.33408839  1
  Cs  Cs23  1  0.66910575  0.33400873  0.66610816  1
  Cs  Cs24  1  0.66952837  0.66782061  -0.00292823  1
  Cs  Cs25  1  0.66684270  0.66709098  0.33497227  1
  Cs  Cs26  1  0.66817189  0.66639428  0.66881863  1
  Sn  Sn27  1  0.16740232  0.49967006  0.49999847  1
  Sn  Sn28  1  0.16515376  0.50059604  0.83318625  1
  Sn  Sn29  1  0.49924192  0.49965668  0.49915114  1
  Sn  Sn30  1  0.83414831  0.16698136  0.16627988  1
  Sn  Sn31  1  0.49883590  0.83470630  0.83363524  1
  Sn  Sn32  1  0.50023422  0.50013080  0.16757468  1
  Sn  Sn33  1  0.16641277  0.16667563  0.16708712  1
  Sn  Sn34  1  0.83310179  0.49958371  0.16555248  1
  Sn  Sn35  1  0.16742208  0.83284312  0.83379225  1
  Sn  Sn36  1  0.16662738  0.49946437  0.16676554  1
  Sn  Sn37  1  0.83459756  0.49895020  0.83408576  1
  Sn  Sn38  1  0.50069765  0.16570437  0.83341134  1
  Sn  Sn39  1  0.83344701  0.83356116  0.49968283  1
  Sn  Sn40  1  0.83253741  0.16776438  0.83402510  1
  Pb  Pb41  1  0.83327216  0.83408645  0.16924748  1
  Pb  Pb42  1  0.16503922  0.83085674  0.50265361  1
  Pb  Pb43  1  0.83341553  0.16399472  0.49900348  1
  Pb  Pb44  1  0.49983890  0.16968763  0.50302196  1
  Pb  Pb45  1  0.16628337  0.16694283  0.83495486  1
  Pb  Pb46  1  0.49994938  0.83023482  0.16389398  1
  Pb  Pb47  1  0.50165858  0.83063705  0.50277593  1
  Pb  Pb48  1  0.16666200  0.16933475  0.49583297  1
  Pb  Pb49  1  0.50022276  0.49968723  0.83355453  1
  Pb  Pb50  1  0.49999929  0.16861790  0.16489373  1
  Pb  Pb51  1  0.83376732  0.83376946  0.83223369  1
  Pb  Pb52  1  0.83361270  0.50093933  0.49978343  1
  Pb  Pb53  1  0.16672167  0.83361798  0.16446732  1
  I  I54  1  0.15876088  0.00325901  0.16150608  1
  I  I55  1  0.16437551  -0.00019232  0.50100206  1
  I  I56  1  0.16695129  -0.00205763  0.83564973  1
  I  I57  1  0.16584699  0.33556271  0.16361785  1
  I  I58  1  0.16869038  0.33797669  0.50799185  1
  I  I59  1  0.16704883  0.33664096  0.83202295  1
  I  I60  1  0.16557794  0.66277446  0.16801085  1
  I  I61  1  0.16963054  0.66245756  0.49482900  1
  I  I62  1  0.16711574  0.66447460  0.83538064  1
  I  I63  1  0.50060149  0.00020874  0.16698991  1
  I  I64  1  0.50175603  -0.00020537  0.49854407  1
  I  I65  1  0.50103915  0.00022496  0.83445638  1
  I  I66  1  0.49951614  0.33711056  0.16665954  1
  I  I67  1  0.49815397  0.33774468  0.49835976  1
  I  I68  1  0.50136317  0.33149530  0.83363151  1
  I  I69  1  0.49947147  0.66160045  0.16792994  1
  I  I70  1  0.49656492  0.66286349  0.49848666  1
  I  I71  1  0.49944464  0.66804439  0.83300677  1
  I  I72  1  0.83938645  0.00384349  0.16068682  1
  I  I73  1  0.83398451  -0.00334478  0.50338680  1
  I  I74  1  0.83230359  0.00288600  0.83656431  1
  I  I75  1  0.83442268  0.33481151  0.16274406  1
  I  I76  1  0.83294891  0.33334925  0.50141448  1
  I  I77  1  0.83238698  0.33411959  0.83599619  1
  I  I78  1  0.83452480  0.66306701  0.16249629  1
  I  I79  1  0.83288201  0.66821925  0.50263837  1
  I  I80  1  0.83343138  0.66382777  0.83605750  1
  I  I81  1  0.16593791  0.17400891  0.00264506  1
  I  I82  1  0.15819863  0.17388879  0.32795117  1
  I  I83  1  0.16626911  0.16741083  0.66675106  1
  I  I84  1  0.16709473  0.50031774  0.00003688  1
  I  I85  1  0.16628995  0.49500138  0.33229195  1
  I  I86  1  0.16751577  0.50541578  0.66774994  1
  I  I87  1  0.16850870  0.82521137  -0.00364220  1
  I  I88  1  0.16441400  0.83248241  0.33354253  1
  I  I89  1  0.16982698  0.82783486  0.67069007  1
  I  I90  1  0.50159663  0.16649285  -0.00316732  1
  I  I91  1  0.50098286  0.16605464  0.33310446  1
  I  I92  1  0.50634886  0.16549191  0.67128256  1
  I  I93  1  0.49773482  0.49975887  0.00222429  1
  I  I94  1  0.49760349  0.49952839  0.33250573  1
  I  I95  1  0.49721307  0.50069386  0.66508526  1
  I  I96  1  0.49837960  0.83392946  -0.00419220  1
  I  I97  1  0.50154248  0.83465479  0.33360171  1
  I  I98  1  0.49700964  0.83352697  0.67055509  1
  I  I99  1  0.83321584  0.17095987  -0.00043343  1
  I  I100  1  0.83831227  0.17345312  0.32940371  1
  I  I101  1  0.82945932  0.17082008  0.66984257  1
  I  I102  1  0.83529286  0.49781537  -0.00021779  1
  I  I103  1  0.83511620  0.49745037  0.33020143  1
  I  I104  1  0.83520230  0.49821031  0.66956157  1
  I  I105  1  0.83291615  0.83208875  -0.00005707  1
  I  I106  1  0.83454318  0.82941025  0.33648541  1
  I  I107  1  0.83275952  0.82979028  0.66498662  1
  I  I108  1  -0.00077039  0.17675540  0.15924242  1
  I  I109  1  0.00002862  0.16800336  0.50666436  1
  I  I110  1  -0.00271565  0.16746291  0.83535787  1
  I  I111  1  0.00008025  0.49634884  0.16617888  1
  I  I112  1  0.00257723  0.50240985  0.49875190  1
  I  I113  1  0.00027987  0.50138418  0.83535215  1
  I  I114  1  -0.00004934  0.82840001  0.16443205  1
  I  I115  1  -0.00232676  0.82996738  0.50298047  1
  I  I116  1  0.00227332  0.83020063  0.83174529  1
  I  I117  1  0.33094963  0.17419953  0.16257081  1
  I  I118  1  0.33322274  0.16436927  0.50159168  1
  I  I119  1  0.33506452  0.16722492  0.83520976  1
  I  I120  1  0.33223437  0.49598986  0.16542971  1
  I  I121  1  0.33267994  0.50066526  0.49827995  1
  I  I122  1  0.33103188  0.50067218  0.83546808  1
  I  I123  1  0.33333464  0.83374254  0.16810189  1
  I  I124  1  0.33334655  0.83365212  0.49965181  1
  I  I125  1  0.33293207  0.83055135  0.83373361  1
  I  I126  1  0.66960405  0.17204519  0.16366122  1
  I  I127  1  0.66665074  0.16925484  0.49656457  1
  I  I128  1  0.66796033  0.16769108  0.83895322  1
  I  I129  1  0.66760366  0.49664312  0.16579963  1
  I  I130  1  0.66473171  0.50249696  0.49824039  1
  I  I131  1  0.66914689  0.50009005  0.83571603  1
  I  I132  1  0.66666626  0.83164656  0.16426925  1
  I  I133  1  0.66896533  0.82962578  0.50273419  1
  I  I134  1  0.66490012  0.83242391  0.83112503  1
