# generated using pymatgen
data_Cs27Sn13Pb14I81
_symmetry_space_group_name_H-M   'P 1'
_cell_length_a   18.97199433
_cell_length_b   18.97809630
_cell_length_c   18.98157877
_cell_angle_alpha   89.99888584
_cell_angle_beta   89.99956427
_cell_angle_gamma   89.99866432
_symmetry_Int_Tables_number   1
_chemical_formula_structural   Cs27Sn13Pb14I81
_chemical_formula_sum   'Cs27 Sn13 Pb14 I81'
_cell_volume   6834.36176565
_cell_formula_units_Z   1
loop_
 _symmetry_equiv_pos_site_id
 _symmetry_equiv_pos_as_xyz
  1  'x, y, z'
loop_
 _atom_site_type_symbol
 _atom_site_label
 _atom_site_symmetry_multiplicity
 _atom_site_fract_x
 _atom_site_fract_y
 _atom_site_fract_z
 _atom_site_occupancy
  Cs  Cs0  1  -0.00128375  -0.00075151  -0.00059162  1
  Cs  Cs1  1  -0.00378698  0.00411589  0.33084172  1
  Cs  Cs2  1  0.00226034  0.00102332  0.66783489  1
  Cs  Cs3  1  0.00350666  0.33563653  0.00123495  1
  Cs  Cs4  1  -0.00208216  0.33025068  0.33212994  1
  Cs  Cs5  1  -0.00263352  0.33291896  0.66680810  1
  Cs  Cs6  1  -0.00023308  0.66480650  -0.00380779  1
  Cs  Cs7  1  0.00082152  0.66628911  0.33409439  1
  Cs  Cs8  1  -0.00502733  0.66528167  0.67042224  1
  Cs  Cs9  1  0.33506404  0.00231439  -0.00197579  1
  Cs  Cs10  1  0.33356622  -0.00292191  0.33413415  1
  Cs  Cs11  1  0.33170906  0.00051307  0.66723039  1
  Cs  Cs12  1  0.33408738  0.33320105  0.00236147  1
  Cs  Cs13  1  0.33150913  0.33500715  0.33558722  1
  Cs  Cs14  1  0.33441529  0.33209446  0.66594902  1
  Cs  Cs15  1  0.33127214  0.66474351  -0.00164444  1
  Cs  Cs16  1  0.33455949  0.66712994  0.33485513  1
  Cs  Cs17  1  0.33315461  0.66765188  0.66575424  1
  Cs  Cs18  1  0.66592369  0.00110252  0.00618360  1
  Cs  Cs19  1  0.67414964  -0.00763019  0.32614836  1
  Cs  Cs20  1  0.66917618  -0.00115287  0.66606405  1
  Cs  Cs21  1  0.66122174  0.33179411  0.00111425  1
  Cs  Cs22  1  0.67071042  0.33493670  0.33408755  1
  Cs  Cs23  1  0.66556330  0.33333730  0.66605677  1
  Cs  Cs24  1  0.66926008  0.66694537  0.00061035  1
  Cs  Cs25  1  0.66593888  0.67040860  0.33246834  1
  Cs  Cs26  1  0.67200201  0.66770475  0.66649483  1
  Sn  Sn27  1  0.16688032  0.83344935  0.50012648  1
  Sn  Sn28  1  0.83400733  0.16684305  0.83335185  1
  Sn  Sn29  1  0.16594202  0.16631108  0.83273024  1
  Sn  Sn30  1  0.49933991  0.49944815  0.50014859  1
  Sn  Sn31  1  0.49937411  0.83261499  0.83307239  1
  Sn  Sn32  1  0.16703460  0.49984086  0.50045688  1
  Sn  Sn33  1  0.16704664  0.83345676  0.16636521  1
  Sn  Sn34  1  0.49954704  0.50104714  0.83284710  1
  Sn  Sn35  1  0.49980230  0.16653047  0.49956639  1
  Sn  Sn36  1  0.16754837  0.83390758  0.83332137  1
  Sn  Sn37  1  0.16764198  0.16673060  0.50081049  1
  Sn  Sn38  1  0.83282259  0.49991419  0.16658000  1
  Sn  Sn39  1  0.50052987  0.50005933  0.16706749  1
  Pb  Pb40  1  0.49975893  0.16867063  0.17063215  1
  Pb  Pb41  1  0.16700633  0.16435118  0.16682773  1
  Pb  Pb42  1  0.16712865  0.50181069  0.16911722  1
  Pb  Pb43  1  0.83615517  0.83080353  0.16635994  1
  Pb  Pb44  1  0.83281344  0.49999416  0.49827417  1
  Pb  Pb45  1  0.83029820  0.49758296  0.83526275  1
  Pb  Pb46  1  0.49864590  0.83339354  0.50182446  1
  Pb  Pb47  1  0.83336736  0.16898541  0.16382959  1
  Pb  Pb48  1  0.16841259  0.49961730  0.83110273  1
  Pb  Pb49  1  0.49782551  0.83099780  0.16412410  1
  Pb  Pb50  1  0.83310343  0.16666892  0.50157649  1
  Pb  Pb51  1  0.83669610  0.83343401  0.50012457  1
  Pb  Pb52  1  0.83329891  0.83549715  0.83346340  1
  Pb  Pb53  1  0.49947309  0.16639482  0.83166452  1
  I  I54  1  0.16677997  -0.00369088  0.17046975  1
  I  I55  1  0.17101925  0.00033222  0.50186476  1
  I  I56  1  0.16849986  -0.00052244  0.82889343  1
  I  I57  1  0.16633700  0.33366525  0.16638297  1
  I  I58  1  0.17130235  0.33300069  0.50417866  1
  I  I59  1  0.16458155  0.33056200  0.82869331  1
  I  I60  1  0.16708485  0.66966597  0.16562058  1
  I  I61  1  0.17129656  0.66664245  0.49889083  1
  I  I62  1  0.16951882  0.66937603  0.83260725  1
  I  I63  1  0.49920134  -0.00039442  0.16565239  1
  I  I64  1  0.49399550  0.00252939  0.50495310  1
  I  I65  1  0.49760393  -0.00234054  0.83052669  1
  I  I66  1  0.50133238  0.33744776  0.16018360  1
  I  I67  1  0.49136532  0.33453499  0.50242380  1
  I  I68  1  0.50020350  0.33594021  0.83462943  1
  I  I69  1  0.50266821  0.66275506  0.17231660  1
  I  I70  1  0.49498197  0.66351667  0.49835515  1
  I  I71  1  0.49333893  0.66622715  0.83198144  1
  I  I72  1  0.83416413  -0.00011526  0.16694311  1
  I  I73  1  0.83135350  0.00021162  0.49985293  1
  I  I74  1  0.83378197  0.00321370  0.83197435  1
  I  I75  1  0.83027829  0.33681329  0.16757596  1
  I  I76  1  0.83829126  0.33339304  0.49973876  1
  I  I77  1  0.84001861  0.33012707  0.83299336  1
  I  I78  1  0.82819994  0.66319840  0.16614564  1
  I  I79  1  0.83404846  0.66647225  0.50067715  1
  I  I80  1  0.83585569  0.66643314  0.83454045  1
  I  I81  1  0.16302799  0.16244411  -0.00334703  1
  I  I82  1  0.17080346  0.16669763  0.33707209  1
  I  I83  1  0.16687122  0.16214335  0.66632312  1
  I  I84  1  0.16773196  0.50047987  -0.00011281  1
  I  I85  1  0.17161069  0.49997832  0.33722666  1
  I  I86  1  0.17226769  0.50338713  0.66300303  1
  I  I87  1  0.17031941  0.83709608  -0.00150195  1
  I  I88  1  0.16640547  0.83172339  0.33448377  1
  I  I89  1  0.17128626  0.83506396  0.66695026  1
  I  I90  1  0.49977648  0.16799714  -0.00014700  1
  I  I91  1  0.49165255  0.17200809  0.33862459  1
  I  I92  1  0.49731799  0.17327599  0.66390900  1
  I  I93  1  0.50429788  0.50456476  -0.00034711  1
  I  I94  1  0.49903282  0.49477842  0.33425609  1
  I  I95  1  0.49389719  0.49913947  0.66606861  1
  I  I96  1  0.49357494  0.82957201  -0.00390080  1
  I  I97  1  0.49737093  0.83246017  0.33341032  1
  I  I98  1  0.49329257  0.82831809  0.66978692  1
  I  I99  1  0.83960441  0.16638649  -0.00403339  1
  I  I100  1  0.83443905  0.16771970  0.33319518  1
  I  I101  1  0.83576211  0.16762262  0.66945700  1
  I  I102  1  0.82946031  0.49954747  0.00301052  1
  I  I103  1  0.82886444  0.49974748  0.33048971  1
  I  I104  1  0.83315744  0.49959907  0.66692065  1
  I  I105  1  0.83635761  0.83331334  -0.00018448  1
  I  I106  1  0.83400799  0.83373120  0.33310148  1
  I  I107  1  0.83430801  0.83178539  0.66706997  1
  I  I108  1  0.00030256  0.16974684  0.17083566  1
  I  I109  1  0.00379422  0.16680818  0.50192947  1
  I  I110  1  0.00233786  0.16135152  0.82770542  1
  I  I111  1  -0.00175522  0.50194266  0.16831882  1
  I  I112  1  0.00330435  0.50009148  0.49805787  1
  I  I113  1  0.00013562  0.50224605  0.83393437  1
  I  I114  1  0.00427858  0.83097742  0.16523636  1
  I  I115  1  0.00599357  0.83273797  0.50329929  1
  I  I116  1  0.00379785  0.83534078  0.83245027  1
  I  I117  1  0.33331839  0.16973616  0.16078926  1
  I  I118  1  0.33188504  0.16840580  0.50625260  1
  I  I119  1  0.33044136  0.16460454  0.83037593  1
  I  I120  1  0.33626409  0.50158687  0.16554667  1
  I  I121  1  0.33369244  0.49916634  0.49778933  1
  I  I122  1  0.33663224  0.49929190  0.83786347  1
  I  I123  1  0.32987528  0.83053216  0.16924950  1
  I  I124  1  0.32976839  0.83279726  0.49900089  1
  I  I125  1  0.33180962  0.83506823  0.83296521  1
  I  I126  1  0.66647436  0.16461935  0.16504959  1
  I  I127  1  0.66341914  0.17495456  0.50359106  1
  I  I128  1  0.66811810  0.16853742  0.83146122  1
  I  I129  1  0.66506030  0.49915979  0.16783044  1
  I  I130  1  0.66276693  0.49418733  0.50214837  1
  I  I131  1  0.66206319  0.50396547  0.82780409  1
  I  I132  1  0.66644475  0.83445471  0.16508859  1
  I  I133  1  0.66632240  0.83311086  0.50205883  1
  I  I134  1  0.66352695  0.82989616  0.83244297  1
