# generated using pymatgen
data_Cs27Sn13Pb14I81
_symmetry_space_group_name_H-M   'P 1'
_cell_length_a   18.98533050
_cell_length_b   18.97228535
_cell_length_c   18.97194084
_cell_angle_alpha   90.00272272
_cell_angle_beta   90.00084950
_cell_angle_gamma   89.99986519
_symmetry_Int_Tables_number   1
_chemical_formula_structural   Cs27Sn13Pb14I81
_chemical_formula_sum   'Cs27 Sn13 Pb14 I81'
_cell_volume   6833.60026646
_cell_formula_units_Z   1
loop_
 _symmetry_equiv_pos_site_id
 _symmetry_equiv_pos_as_xyz
  1  'x, y, z'
loop_
 _atom_site_type_symbol
 _atom_site_label
 _atom_site_symmetry_multiplicity
 _atom_site_fract_x
 _atom_site_fract_y
 _atom_site_fract_z
 _atom_site_occupancy
  Cs  Cs0  1  0.00096478  0.00157882  -0.00070149  1
  Cs  Cs1  1  -0.00446529  -0.00295677  0.33147344  1
  Cs  Cs2  1  0.00002617  0.00010395  0.66874420  1
  Cs  Cs3  1  -0.00183959  0.33204440  0.00001332  1
  Cs  Cs4  1  0.00083706  0.33498358  0.34078785  1
  Cs  Cs5  1  0.00259406  0.33446470  0.65729562  1
  Cs  Cs6  1  0.00166318  0.66663579  0.00104175  1
  Cs  Cs7  1  -0.00180122  0.66771618  0.33502001  1
  Cs  Cs8  1  0.00126957  0.66635616  0.66469950  1
  Cs  Cs9  1  0.33168144  0.00184603  0.00336209  1
  Cs  Cs10  1  0.33618392  0.00570913  0.32535206  1
  Cs  Cs11  1  0.33422270  -0.00342671  0.66876544  1
  Cs  Cs12  1  0.33173782  0.33385718  -0.00012496  1
  Cs  Cs13  1  0.33393748  0.32982532  0.33560453  1
  Cs  Cs14  1  0.33039199  0.33100803  0.66389194  1
  Cs  Cs15  1  0.33284263  0.66592269  -0.00018161  1
  Cs  Cs16  1  0.33381512  0.66579581  0.33461852  1
  Cs  Cs17  1  0.33431699  0.66859203  0.66616726  1
  Cs  Cs18  1  0.66749671  0.00043890  -0.00052767  1
  Cs  Cs19  1  0.66681160  0.00137827  0.33381339  1
  Cs  Cs20  1  0.66566937  -0.00022323  0.66686849  1
  Cs  Cs21  1  0.66938911  0.33553468  -0.00153682  1
  Cs  Cs22  1  0.66493221  0.32961844  0.33270923  1
  Cs  Cs23  1  0.66818048  0.33422298  0.66802095  1
  Cs  Cs24  1  0.66604868  0.66438731  -0.00138488  1
  Cs  Cs25  1  0.66587398  0.66973543  0.33278221  1
  Cs  Cs26  1  0.66489247  0.66555860  0.66861084  1
  Sn  Sn27  1  0.83324810  0.83355703  0.83354950  1
  Sn  Sn28  1  0.49998783  0.50025430  0.16756507  1
  Sn  Sn29  1  0.16646894  0.50010362  0.16620174  1
  Sn  Sn30  1  0.16688324  0.83238768  0.83294761  1
  Sn  Sn31  1  0.50051234  0.16601557  0.83342921  1
  Sn  Sn32  1  0.16780630  0.83359790  0.50032055  1
  Sn  Sn33  1  0.83343966  0.49924726  0.16651273  1
  Sn  Sn34  1  0.83264826  0.16626241  0.83374349  1
  Sn  Sn35  1  0.83346052  0.16757582  0.16592417  1
  Sn  Sn36  1  0.49989235  0.83408762  0.83309969  1
  Sn  Sn37  1  0.50016516  0.50061781  0.49931965  1
  Sn  Sn38  1  0.16657662  0.50047579  0.83369417  1
  Sn  Sn39  1  0.49882654  0.83274159  0.50040920  1
  Pb  Pb40  1  0.83275961  0.83327789  0.50280741  1
  Pb  Pb41  1  0.83321894  0.83334453  0.16408877  1
  Pb  Pb42  1  0.16371610  0.16969797  0.16673764  1
  Pb  Pb43  1  0.49805663  0.49986071  0.83322013  1
  Pb  Pb44  1  0.83600034  0.49965898  0.83457613  1
  Pb  Pb45  1  0.50001609  0.16600068  0.50256431  1
  Pb  Pb46  1  0.83022130  0.50021827  0.49690285  1
  Pb  Pb47  1  0.50202929  0.16942769  0.16387042  1
  Pb  Pb48  1  0.16677184  0.83151218  0.16678265  1
  Pb  Pb49  1  0.16885131  0.50187976  0.49977185  1
  Pb  Pb50  1  0.16622958  0.16642591  0.83319999  1
  Pb  Pb51  1  0.83323858  0.16650892  0.50049176  1
  Pb  Pb52  1  0.49995559  0.83159062  0.16648758  1
  Pb  Pb53  1  0.16691020  0.16231480  0.49990929  1
  I  I54  1  0.16509593  0.00009216  0.16653468  1
  I  I55  1  0.17249885  -0.00564577  0.50930260  1
  I  I56  1  0.16643836  -0.00352669  0.82844988  1
  I  I57  1  0.17003685  0.33816214  0.15911109  1
  I  I58  1  0.16742339  0.33366658  0.50119923  1
  I  I59  1  0.16798800  0.33613501  0.83884944  1
  I  I60  1  0.16397488  0.66297587  0.16398735  1
  I  I61  1  0.16892862  0.66972750  0.50282522  1
  I  I62  1  0.16703039  0.66775586  0.83418137  1
  I  I63  1  0.50204243  0.00032020  0.16926741  1
  I  I64  1  0.49647213  -0.00370379  0.50390647  1
  I  I65  1  0.49953830  -0.00160260  0.82768775  1
  I  I66  1  0.49749708  0.33764421  0.17086900  1
  I  I67  1  0.50045830  0.33605005  0.49663639  1
  I  I68  1  0.50413700  0.33124306  0.83469380  1
  I  I69  1  0.50270651  0.66296199  0.16476517  1
  I  I70  1  0.49671866  0.66753592  0.50230456  1
  I  I71  1  0.50215028  0.66942056  0.83268452  1
  I  I72  1  0.83305056  0.00286952  0.16422337  1
  I  I73  1  0.83225896  -0.00027831  0.49430463  1
  I  I74  1  0.83419438  -0.00028165  0.83889335  1
  I  I75  1  0.83239620  0.33389284  0.15866833  1
  I  I76  1  0.83251332  0.33354180  0.50559279  1
  I  I77  1  0.82816874  0.33061768  0.83693206  1
  I  I78  1  0.83359090  0.66340609  0.16541230  1
  I  I79  1  0.83479588  0.66675745  0.49969655  1
  I  I80  1  0.83061850  0.66933467  0.83454534  1
  I  I81  1  0.16903303  0.16278590  -0.00018930  1
  I  I82  1  0.16548228  0.16741390  0.33316594  1
  I  I83  1  0.16384120  0.17407291  0.66706709  1
  I  I84  1  0.16913222  0.50616145  -0.00007719  1
  I  I85  1  0.16445815  0.50127362  0.33052584  1
  I  I86  1  0.16827241  0.50194325  0.66913422  1
  I  I87  1  0.16726090  0.83087160  -0.00353911  1
  I  I88  1  0.17162195  0.83122340  0.33649031  1
  I  I89  1  0.16714903  0.82701153  0.66856486  1
  I  I90  1  0.50143758  0.16120524  -0.00398320  1
  I  I91  1  0.50170949  0.16444111  0.33306425  1
  I  I92  1  0.50656280  0.16792275  0.67065826  1
  I  I93  1  0.50128194  0.49990582  0.00230244  1
  I  I94  1  0.49891142  0.50621466  0.33298577  1
  I  I95  1  0.49750036  0.50162924  0.66463667  1
  I  I96  1  0.49948121  0.83513125  -0.00372636  1
  I  I97  1  0.49511323  0.82965288  0.33652837  1
  I  I98  1  0.49963344  0.83058480  0.66776584  1
  I  I99  1  0.82913960  0.16695719  -0.00109510  1
  I  I100  1  0.83428504  0.17214683  0.33004893  1
  I  I101  1  0.82947606  0.16143035  0.67065454  1
  I  I102  1  0.82833989  0.49964600  0.00284059  1
  I  I103  1  0.83948184  0.49439535  0.32848683  1
  I  I104  1  0.83349574  0.49949135  0.66673856  1
  I  I105  1  0.83317268  0.83387998  -0.00436582  1
  I  I106  1  0.83411205  0.83370755  0.33330635  1
  I  I107  1  0.83355683  0.83905074  0.67124322  1
  I  I108  1  -0.00424721  0.17067068  0.15767825  1
  I  I109  1  -0.00001289  0.16727188  0.50244255  1
  I  I110  1  -0.00320499  0.16288713  0.83858496  1
  I  I111  1  0.00007234  0.49692259  0.15957042  1
  I  I112  1  0.00026612  0.50107380  0.49980526  1
  I  I113  1  0.00370295  0.50443750  0.83882039  1
  I  I114  1  -0.00005564  0.83058226  0.16711395  1
  I  I115  1  0.00282154  0.83271429  0.50403519  1
  I  I116  1  0.00044080  0.83321126  0.83066469  1
  I  I117  1  0.33353134  0.16742273  0.16545920  1
  I  I118  1  0.33370015  0.17061462  0.50217405  1
  I  I119  1  0.33589785  0.16407375  0.83201862  1
  I  I120  1  0.33332073  0.50328368  0.16549434  1
  I  I121  1  0.33652233  0.50239661  0.49555561  1
  I  I122  1  0.33043147  0.50394681  0.83882301  1
  I  I123  1  0.33340040  0.83098419  0.16177294  1
  I  I124  1  0.33415785  0.82737167  0.51081380  1
  I  I125  1  0.33358371  0.83256582  0.82888832  1
  I  I126  1  0.66983932  0.17256504  0.16396708  1
  I  I127  1  0.66646970  0.16492615  0.49841386  1
  I  I128  1  0.66697735  0.15938054  0.83660931  1
  I  I129  1  0.66665728  0.49671150  0.17021727  1
  I  I130  1  0.66222510  0.50675815  0.49756844  1
  I  I131  1  0.66659242  0.50253286  0.83446406  1
  I  I132  1  0.66662833  0.82924910  0.16663708  1
  I  I133  1  0.66303343  0.82944937  0.50399361  1
  I  I134  1  0.66601778  0.83742201  0.83034343  1
