# generated using pymatgen
data_Cs27Sn13Pb14I81
_symmetry_space_group_name_H-M   'P 1'
_cell_length_a   18.97616391
_cell_length_b   18.97760535
_cell_length_c   18.97721216
_cell_angle_alpha   90.00144100
_cell_angle_beta   89.99967109
_cell_angle_gamma   89.99942933
_symmetry_Int_Tables_number   1
_chemical_formula_structural   Cs27Sn13Pb14I81
_chemical_formula_sum   'Cs27 Sn13 Pb14 I81'
_cell_volume   6834.11443504
_cell_formula_units_Z   1
loop_
 _symmetry_equiv_pos_site_id
 _symmetry_equiv_pos_as_xyz
  1  'x, y, z'
loop_
 _atom_site_type_symbol
 _atom_site_label
 _atom_site_symmetry_multiplicity
 _atom_site_fract_x
 _atom_site_fract_y
 _atom_site_fract_z
 _atom_site_occupancy
  Cs  Cs0  1  -0.00129288  0.00171875  0.00238300  1
  Cs  Cs1  1  0.00152969  0.00417743  0.33095507  1
  Cs  Cs2  1  -0.00060494  -0.00337204  0.66702054  1
  Cs  Cs3  1  0.00076800  0.33130015  0.00150625  1
  Cs  Cs4  1  0.00068228  0.33404169  0.33095242  1
  Cs  Cs5  1  -0.00161903  0.33667150  0.66773299  1
  Cs  Cs6  1  -0.00402823  0.66796746  -0.00137646  1
  Cs  Cs7  1  0.00165635  0.66178125  0.33656929  1
  Cs  Cs8  1  -0.00059013  0.66775074  0.66462916  1
  Cs  Cs9  1  0.33419198  -0.00262662  -0.00120535  1
  Cs  Cs10  1  0.33132125  0.00385907  0.33523691  1
  Cs  Cs11  1  0.33072948  -0.00064225  0.66539038  1
  Cs  Cs12  1  0.33409523  0.33521328  -0.00069595  1
  Cs  Cs13  1  0.33382083  0.33230328  0.33285750  1
  Cs  Cs14  1  0.33629954  0.33272038  0.66874092  1
  Cs  Cs15  1  0.33429257  0.66535566  0.00224965  1
  Cs  Cs16  1  0.33335626  0.66580812  0.33063995  1
  Cs  Cs17  1  0.33071517  0.66816140  0.66710693  1
  Cs  Cs18  1  0.66639485  -0.00625076  0.00225838  1
  Cs  Cs19  1  0.66741393  -0.00257156  0.33629011  1
  Cs  Cs20  1  0.66700164  0.00193916  0.66433246  1
  Cs  Cs21  1  0.66494313  0.33408049  -0.00177232  1
  Cs  Cs22  1  0.66540275  0.33438356  0.33221220  1
  Cs  Cs23  1  0.66525362  0.33140210  0.66768136  1
  Cs  Cs24  1  0.67141406  0.67407418  0.00115461  1
  Cs  Cs25  1  0.66680898  0.66863979  0.33346889  1
  Cs  Cs26  1  0.66884473  0.66715489  0.66594367  1
  Sn  Sn27  1  0.49962234  0.49995158  0.83367200  1
  Sn  Sn28  1  0.16695669  0.16736757  0.83324532  1
  Sn  Sn29  1  0.50013784  0.16704780  0.16565040  1
  Sn  Sn30  1  0.49993870  0.16692751  0.83438436  1
  Sn  Sn31  1  0.16683218  0.83235380  0.16654139  1
  Sn  Sn32  1  0.49989479  0.50096553  0.50025736  1
  Sn  Sn33  1  0.83299067  0.83408162  0.49989826  1
  Sn  Sn34  1  0.49998670  0.83250479  0.50027723  1
  Sn  Sn35  1  0.16744209  0.50080835  0.16550080  1
  Sn  Sn36  1  0.83304697  0.16676963  0.83273692  1
  Sn  Sn37  1  0.49978604  0.49953011  0.16605042  1
  Sn  Sn38  1  0.83339949  0.16639670  0.50048310  1
  Sn  Sn39  1  0.16740020  0.49933103  0.83421821  1
  Pb  Pb40  1  0.49858655  0.83321714  0.16891780  1
  Pb  Pb41  1  0.83320474  0.49994762  0.16642357  1
  Pb  Pb42  1  0.83027831  0.16680092  0.16641768  1
  Pb  Pb43  1  0.83073828  0.49960432  0.50005420  1
  Pb  Pb44  1  0.49987206  0.83302662  0.83093030  1
  Pb  Pb45  1  0.83334274  0.83617416  0.83106650  1
  Pb  Pb46  1  0.83640176  0.83331724  0.16970844  1
  Pb  Pb47  1  0.16930279  0.49971855  0.50037376  1
  Pb  Pb48  1  0.16355075  0.16699365  0.50305217  1
  Pb  Pb49  1  0.16658583  0.83328382  0.49761136  1
  Pb  Pb50  1  0.16907585  0.16748632  0.16442735  1
  Pb  Pb51  1  0.83323756  0.49800687  0.83350504  1
  Pb  Pb52  1  0.50124395  0.16687495  0.50022657  1
  Pb  Pb53  1  0.16679369  0.83261824  0.83551688  1
  I  I54  1  0.16794462  -0.00145948  0.16679353  1
  I  I55  1  0.17228078  0.00010833  0.49884609  1
  I  I56  1  0.16749313  0.00314469  0.83402901  1
  I  I57  1  0.16922119  0.33650580  0.16486782  1
  I  I58  1  0.16632900  0.33336097  0.49455782  1
  I  I59  1  0.16758052  0.33366066  0.83856653  1
  I  I60  1  0.17332709  0.66469642  0.16250630  1
  I  I61  1  0.16227495  0.66648362  0.50453769  1
  I  I62  1  0.17329049  0.66289018  0.83467601  1
  I  I63  1  0.49861175  0.00253281  0.16314852  1
  I  I64  1  0.50277118  -0.00186685  0.49935701  1
  I  I65  1  0.49970557  0.00357685  0.83648342  1
  I  I66  1  0.49504666  0.33447001  0.16884585  1
  I  I67  1  0.50101775  0.33596528  0.49996984  1
  I  I68  1  0.49958086  0.33329639  0.83143327  1
  I  I69  1  0.49727649  0.66336724  0.16497012  1
  I  I70  1  0.50555426  0.66593824  0.49952879  1
  I  I71  1  0.49398372  0.66289899  0.83535534  1
  I  I72  1  0.83392523  0.00016907  0.16460030  1
  I  I73  1  0.82597922  0.00013808  0.50453505  1
  I  I74  1  0.83293588  0.00468656  0.83169353  1
  I  I75  1  0.83753136  0.33305738  0.17083942  1
  I  I76  1  0.83183543  0.33028795  0.50486114  1
  I  I77  1  0.83245071  0.32958383  0.82583413  1
  I  I78  1  0.82855212  0.66678412  0.16851043  1
  I  I79  1  0.83081708  0.66935988  0.49832879  1
  I  I80  1  0.83360885  0.66668342  0.83182563  1
  I  I81  1  0.16176710  0.16762012  -0.00366602  1
  I  I82  1  0.16692278  0.16648934  0.33295703  1
  I  I83  1  0.17349414  0.17186105  0.67142413  1
  I  I84  1  0.17533028  0.49963811  -0.00024531  1
  I  I85  1  0.17033580  0.50441480  0.33018844  1
  I  I86  1  0.17060582  0.49501258  0.67023833  1
  I  I87  1  0.16903890  0.83210420  0.00322402  1
  I  I88  1  0.16751989  0.82669576  0.32985690  1
  I  I89  1  0.16621157  0.83360712  0.66659282  1
  I  I90  1  0.50129887  0.17431244  -0.00119584  1
  I  I91  1  0.50136588  0.16983424  0.33126135  1
  I  I92  1  0.49906249  0.16996562  0.66969976  1
  I  I93  1  0.49449695  0.49277411  -0.00018787  1
  I  I94  1  0.49687083  0.49903648  0.33260704  1
  I  I95  1  0.49687039  0.49843119  0.66763631  1
  I  I96  1  0.49892775  0.83247993  0.00018399  1
  I  I97  1  0.50343073  0.83003282  0.33671539  1
  I  I98  1  0.50330051  0.83040661  0.66288169  1
  I  I99  1  0.83551689  0.16903918  -0.00341276  1
  I  I100  1  0.83042095  0.16219424  0.33614065  1
  I  I101  1  0.83051346  0.16310013  0.66741410  1
  I  I102  1  0.82912476  0.49784394  -0.00018302  1
  I  I103  1  0.83373534  0.49728546  0.33348139  1
  I  I104  1  0.83390602  0.50154171  0.66671339  1
  I  I105  1  0.83354563  0.83419223  0.00022400  1
  I  I106  1  0.82753378  0.84082547  0.33743019  1
  I  I107  1  0.82982756  0.83461081  0.66304048  1
  I  I108  1  0.00021836  0.16659280  0.16653846  1
  I  I109  1  -0.00457685  0.15961964  0.50371528  1
  I  I110  1  0.00027179  0.17034117  0.82813173  1
  I  I111  1  0.00383872  0.50361300  0.16241269  1
  I  I112  1  0.00003208  0.50085541  0.49975543  1
  I  I113  1  0.00343604  0.49574938  0.83819965  1
  I  I114  1  0.00414965  0.82793296  0.16704826  1
  I  I115  1  -0.00301344  0.83891472  0.49936664  1
  I  I116  1  0.00010566  0.83294750  0.83104943  1
  I  I117  1  0.33703548  0.16797973  0.16342588  1
  I  I118  1  0.33358686  0.16538760  0.50032144  1
  I  I119  1  0.33418323  0.17114693  0.83778867  1
  I  I120  1  0.33430115  0.50028834  0.16624263  1
  I  I121  1  0.33776554  0.50510477  0.49998944  1
  I  I122  1  0.33415720  0.49172980  0.83342867  1
  I  I123  1  0.33090793  0.83146766  0.16892142  1
  I  I124  1  0.33620109  0.82914416  0.49948680  1
  I  I125  1  0.33341672  0.83951394  0.82911634  1
  I  I126  1  0.66223094  0.17284404  0.16203680  1
  I  I127  1  0.66899796  0.16568511  0.50574326  1
  I  I128  1  0.66563292  0.17133019  0.83188859  1
  I  I129  1  0.66245853  0.49490188  0.16669255  1
  I  I130  1  0.66218157  0.50049102  0.50020499  1
  I  I131  1  0.66290467  0.49510745  0.83290265  1
  I  I132  1  0.66657614  0.83346083  0.16622295  1
  I  I133  1  0.66616760  0.83357396  0.49948725  1
  I  I134  1  0.66648087  0.83245836  0.83595017  1
