# generated using pymatgen
data_Cs27Sn14Pb13I81
_symmetry_space_group_name_H-M   'P 1'
_cell_length_a   18.95598095
_cell_length_b   18.96441350
_cell_length_c   18.96086964
_cell_angle_alpha   90.00303413
_cell_angle_beta   90.00033288
_cell_angle_gamma   90.00129440
_symmetry_Int_Tables_number   1
_chemical_formula_structural   Cs27Sn14Pb13I81
_chemical_formula_sum   'Cs27 Sn14 Pb13 I81'
_cell_volume   6816.22521346
_cell_formula_units_Z   1
loop_
 _symmetry_equiv_pos_site_id
 _symmetry_equiv_pos_as_xyz
  1  'x, y, z'
loop_
 _atom_site_type_symbol
 _atom_site_label
 _atom_site_symmetry_multiplicity
 _atom_site_fract_x
 _atom_site_fract_y
 _atom_site_fract_z
 _atom_site_occupancy
  Cs  Cs0  1  0.00393849  -0.00143700  0.00013373  1
  Cs  Cs1  1  -0.00214908  -0.00065113  0.33447325  1
  Cs  Cs2  1  -0.00415991  -0.00032775  0.66552570  1
  Cs  Cs3  1  -0.00092679  0.33405525  -0.00021309  1
  Cs  Cs4  1  -0.00176547  0.33204898  0.33234980  1
  Cs  Cs5  1  0.00019040  0.33137600  0.66848914  1
  Cs  Cs6  1  -0.00135587  0.66676389  0.00065296  1
  Cs  Cs7  1  0.00400194  0.66972048  0.33230340  1
  Cs  Cs8  1  -0.00062709  0.67042700  0.66567945  1
  Cs  Cs9  1  0.33590406  0.00081398  -0.00154623  1
  Cs  Cs10  1  0.33398216  -0.00054539  0.33189074  1
  Cs  Cs11  1  0.33378134  0.00413605  0.66952947  1
  Cs  Cs12  1  0.33193368  0.33232697  -0.00230827  1
  Cs  Cs13  1  0.33322623  0.33577970  0.33501828  1
  Cs  Cs14  1  0.33282106  0.33383918  0.66683727  1
  Cs  Cs15  1  0.33284851  0.66688192  0.00178782  1
  Cs  Cs16  1  0.33224212  0.66557581  0.33413466  1
  Cs  Cs17  1  0.33260905  0.66360053  0.66326235  1
  Cs  Cs18  1  0.65704439  -0.00143612  -0.00002316  1
  Cs  Cs19  1  0.66799501  0.00417209  0.33237483  1
  Cs  Cs20  1  0.67089304  -0.00354656  0.66739927  1
  Cs  Cs21  1  0.67152619  0.33357235  0.00317528  1
  Cs  Cs22  1  0.66908074  0.33192081  0.33374411  1
  Cs  Cs23  1  0.66650394  0.33525236  0.66405564  1
  Cs  Cs24  1  0.66990470  0.66762522  -0.00375311  1
  Cs  Cs25  1  0.66263181  0.66388612  0.33333758  1
  Cs  Cs26  1  0.66792171  0.66687962  0.66917577  1
  Sn  Sn27  1  0.16688470  0.16678130  0.16761535  1
  Sn  Sn28  1  0.16609942  0.83334916  0.16591228  1
  Sn  Sn29  1  0.49946022  0.49992782  0.16626889  1
  Sn  Sn30  1  0.16720778  0.50108757  0.83404305  1
  Sn  Sn31  1  0.49986002  0.83348828  0.50005156  1
  Sn  Sn32  1  0.83323256  0.50037772  0.49982337  1
  Sn  Sn33  1  0.83291655  0.16659194  0.83388035  1
  Sn  Sn34  1  0.16697974  0.83234199  0.83363424  1
  Sn  Sn35  1  0.16739007  0.49976864  0.16586783  1
  Sn  Sn36  1  0.49927247  0.16650919  0.50000755  1
  Sn  Sn37  1  0.83325931  0.83332087  0.16669872  1
  Sn  Sn38  1  0.16717794  0.16667472  0.49920885  1
  Sn  Sn39  1  0.49943918  0.49984824  0.83364940  1
  Sn  Sn40  1  0.50094566  0.49990701  0.50003140  1
  Pb  Pb41  1  0.50255364  0.16918872  0.83108104  1
  Pb  Pb42  1  0.83555168  0.16418738  0.16438644  1
  Pb  Pb43  1  0.83388418  0.50162723  0.16855927  1
  Pb  Pb44  1  0.16847101  0.83600714  0.50001480  1
  Pb  Pb45  1  0.83323420  0.16822553  0.50120909  1
  Pb  Pb46  1  0.16678470  0.49842009  0.50004473  1
  Pb  Pb47  1  0.49781465  0.16935608  0.16859128  1
  Pb  Pb48  1  0.49936635  0.83124864  0.16820061  1
  Pb  Pb49  1  0.83393539  0.49901094  0.83154037  1
  Pb  Pb50  1  0.16571247  0.16686589  0.83346992  1
  Pb  Pb51  1  0.83085905  0.83097668  0.49780525  1
  Pb  Pb52  1  0.83550947  0.83551137  0.83559947  1
  Pb  Pb53  1  0.49749371  0.83093152  0.83106911  1
  I  I54  1  0.16165322  -0.00048782  0.16704992  1
  I  I55  1  0.17151827  0.00381508  0.49712206  1
  I  I56  1  0.16409021  -0.00214384  0.83585319  1
  I  I57  1  0.17149635  0.33429256  0.16676869  1
  I  I58  1  0.17128942  0.33058122  0.49736655  1
  I  I59  1  0.16910042  0.33619991  0.83538845  1
  I  I60  1  0.16673123  0.66621365  0.16274529  1
  I  I61  1  0.16751836  0.66665322  0.49816892  1
  I  I62  1  0.16960236  0.66561099  0.84008936  1
  I  I63  1  0.49965769  0.00007318  0.16960150  1
  I  I64  1  0.49389435  0.00065507  0.49905004  1
  I  I65  1  0.49949525  -0.00003947  0.83111277  1
  I  I66  1  0.49543388  0.33770612  0.16902217  1
  I  I67  1  0.49948766  0.33446048  0.50014765  1
  I  I68  1  0.49259395  0.33751306  0.83067609  1
  I  I69  1  0.49433198  0.66294805  0.17059179  1
  I  I70  1  0.50382045  0.66501992  0.49956402  1
  I  I71  1  0.49942426  0.66253867  0.83076312  1
  I  I72  1  0.83928790  -0.00348059  0.16795098  1
  I  I73  1  0.83235908  -0.00012194  0.50068755  1
  I  I74  1  0.83680907  0.00286208  0.83056810  1
  I  I75  1  0.83405157  0.33334968  0.16709396  1
  I  I76  1  0.82784459  0.33610383  0.49961711  1
  I  I77  1  0.83643704  0.33143527  0.83211004  1
  I  I78  1  0.83962805  0.66922806  0.16732740  1
  I  I79  1  0.82853843  0.66310148  0.50114183  1
  I  I80  1  0.83216287  0.66679434  0.83263510  1
  I  I81  1  0.16373142  0.16717017  0.00270433  1
  I  I82  1  0.16993265  0.16776739  0.33286072  1
  I  I83  1  0.16928833  0.16799521  0.66442233  1
  I  I84  1  0.17352689  0.49848399  0.00065042  1
  I  I85  1  0.16954845  0.50226306  0.33054607  1
  I  I86  1  0.16948007  0.50191852  0.66915218  1
  I  I87  1  0.16337144  0.83407771  0.00114068  1
  I  I88  1  0.16511747  0.83032249  0.33029246  1
  I  I89  1  0.16923279  0.82914712  0.66906623  1
  I  I90  1  0.49962572  0.16764646  0.00001150  1
  I  I91  1  0.49912863  0.16950926  0.33700813  1
  I  I92  1  0.49271922  0.16993155  0.66272798  1
  I  I93  1  0.49413478  0.50050631  0.00016491  1
  I  I94  1  0.49919264  0.50048415  0.33394633  1
  I  I95  1  0.49918086  0.49957172  0.66593327  1
  I  I96  1  0.50191884  0.83181477  -0.00001584  1
  I  I97  1  0.49734356  0.82960112  0.33623641  1
  I  I98  1  0.49838424  0.83092889  0.66307189  1
  I  I99  1  0.83666320  0.17001486  -0.00287173  1
  I  I100  1  0.83261607  0.16683488  0.33313544  1
  I  I101  1  0.83685514  0.16801454  0.66875399  1
  I  I102  1  0.83048781  0.49952356  0.00010333  1
  I  I103  1  0.82833787  0.49890702  0.33636008  1
  I  I104  1  0.82887960  0.49872559  0.66365891  1
  I  I105  1  0.83554956  0.83120066  0.00338001  1
  I  I106  1  0.84191388  0.83309792  0.33025348  1
  I  I107  1  0.83440111  0.83364980  0.66665259  1
  I  I108  1  0.00419502  0.17197667  0.17251249  1
  I  I109  1  0.00258529  0.16931681  0.49792813  1
  I  I110  1  -0.00160118  0.16929125  0.83062778  1
  I  I111  1  0.00356906  0.49853993  0.16393117  1
  I  I112  1  -0.00172733  0.49690653  0.50000322  1
  I  I113  1  0.00333807  0.50121002  0.83656757  1
  I  I114  1  0.00242817  0.83076950  0.16422684  1
  I  I115  1  0.00019164  0.83294065  0.50150572  1
  I  I116  1  0.00381108  0.82703136  0.83385113  1
  I  I117  1  0.32930453  0.16211568  0.16697334  1
  I  I118  1  0.33365459  0.16992989  0.49723297  1
  I  I119  1  0.33345179  0.16568346  0.83359048  1
  I  I120  1  0.33247683  0.50203112  0.16915447  1
  I  I121  1  0.33621955  0.50083193  0.49984133  1
  I  I122  1  0.33289383  0.50233080  0.83125066  1
  I  I123  1  0.32992143  0.83422711  0.16466414  1
  I  I124  1  0.33629294  0.82654040  0.49768622  1
  I  I125  1  0.32945631  0.83373890  0.84050380  1
  I  I126  1  0.66652459  0.16652647  0.16743687  1
  I  I127  1  0.66369735  0.16712420  0.50228416  1
  I  I128  1  0.66967911  0.16860644  0.83110757  1
  I  I129  1  0.66394216  0.50237230  0.16599318  1
  I  I130  1  0.66404003  0.49771819  0.49982663  1
  I  I131  1  0.66388918  0.49731633  0.83395412  1
  I  I132  1  0.66839286  0.83084582  0.16981031  1
  I  I133  1  0.66280806  0.83677004  0.49819224  1
  I  I134  1  0.66645241  0.83307528  0.83403282  1
