# generated using pymatgen
data_Cs27Sn13Pb14I81
_symmetry_space_group_name_H-M   'P 1'
_cell_length_a   18.97152554
_cell_length_b   18.97694023
_cell_length_c   18.98079930
_cell_angle_alpha   89.99857899
_cell_angle_beta   89.99936477
_cell_angle_gamma   89.99869890
_symmetry_Int_Tables_number   1
_chemical_formula_structural   Cs27Sn13Pb14I81
_chemical_formula_sum   'Cs27 Sn13 Pb14 I81'
_cell_volume   6833.49595146
_cell_formula_units_Z   1
loop_
 _symmetry_equiv_pos_site_id
 _symmetry_equiv_pos_as_xyz
  1  'x, y, z'
loop_
 _atom_site_type_symbol
 _atom_site_label
 _atom_site_symmetry_multiplicity
 _atom_site_fract_x
 _atom_site_fract_y
 _atom_site_fract_z
 _atom_site_occupancy
  Cs  Cs0  1  0.00155457  0.00162343  0.00220088  1
  Cs  Cs1  1  0.00131576  -0.00056327  0.33296603  1
  Cs  Cs2  1  0.00027588  -0.00211221  0.66471066  1
  Cs  Cs3  1  0.00090518  0.33619789  -0.00040451  1
  Cs  Cs4  1  -0.00298723  0.33295561  0.33025891  1
  Cs  Cs5  1  -0.00320685  0.33389587  0.67176102  1
  Cs  Cs6  1  0.00382980  0.65889966  0.00256222  1
  Cs  Cs7  1  -0.00402858  0.66765934  0.33326893  1
  Cs  Cs8  1  -0.00766223  0.66742897  0.66393421  1
  Cs  Cs9  1  0.33283156  -0.00153499  0.00090547  1
  Cs  Cs10  1  0.33232216  0.00340331  0.33396990  1
  Cs  Cs11  1  0.33010031  0.00178377  0.66507931  1
  Cs  Cs12  1  0.33149101  0.33418778  -0.00199331  1
  Cs  Cs13  1  0.33607099  0.33251046  0.33677581  1
  Cs  Cs14  1  0.33428191  0.33377803  0.66584491  1
  Cs  Cs15  1  0.33251895  0.66783463  -0.00090062  1
  Cs  Cs16  1  0.33456330  0.66505256  0.33591892  1
  Cs  Cs17  1  0.33462965  0.66471247  0.66486219  1
  Cs  Cs18  1  0.66646822  -0.00299714  0.00015355  1
  Cs  Cs19  1  0.66546504  0.00428534  0.32901296  1
  Cs  Cs20  1  0.67055072  -0.00296922  0.67181726  1
  Cs  Cs21  1  0.66801952  0.33233675  -0.00184855  1
  Cs  Cs22  1  0.66605634  0.33248698  0.33353592  1
  Cs  Cs23  1  0.66673487  0.33277946  0.66783657  1
  Cs  Cs24  1  0.66423732  0.67223071  -0.00124458  1
  Cs  Cs25  1  0.66680417  0.66421554  0.33559465  1
  Cs  Cs26  1  0.66936637  0.67010180  0.66502133  1
  Sn  Sn27  1  0.49969203  0.49955601  0.83326281  1
  Sn  Sn28  1  0.83418450  0.16585165  0.16732095  1
  Sn  Sn29  1  0.16756630  0.16586540  0.83410391  1
  Sn  Sn30  1  0.16634827  0.16631256  0.16620491  1
  Sn  Sn31  1  0.49929036  0.50069191  0.50017306  1
  Sn  Sn32  1  0.83352597  0.16655807  0.49950624  1
  Sn  Sn33  1  0.16669644  0.83361685  0.83362301  1
  Sn  Sn34  1  0.49961256  0.83357476  0.49980097  1
  Sn  Sn35  1  0.16649405  0.49989142  0.49993294  1
  Sn  Sn36  1  0.83412697  0.83390762  0.16654795  1
  Sn  Sn37  1  0.49914421  0.16693076  0.83350503  1
  Sn  Sn38  1  0.16610139  0.83378664  0.16620237  1
  Sn  Sn39  1  0.49977119  0.49990891  0.16645332  1
  Pb  Pb40  1  0.83403578  0.16646886  0.83434618  1
  Pb  Pb41  1  0.50196973  0.16677603  0.50255749  1
  Pb  Pb42  1  0.49781882  0.83349526  0.83132576  1
  Pb  Pb43  1  0.49933996  0.83149484  0.16853510  1
  Pb  Pb44  1  0.16469618  0.16877522  0.50011131  1
  Pb  Pb45  1  0.83002907  0.50043290  0.83348422  1
  Pb  Pb46  1  0.83088033  0.83586410  0.49742106  1
  Pb  Pb47  1  0.16866629  0.49981566  0.16867941  1
  Pb  Pb48  1  0.83279676  0.49783981  0.49993905  1
  Pb  Pb49  1  0.83698876  0.83344109  0.83645540  1
  Pb  Pb50  1  0.16790477  0.83145412  0.49958859  1
  Pb  Pb51  1  0.83066931  0.49994727  0.16648425  1
  Pb  Pb52  1  0.49967142  0.16848823  0.16440928  1
  Pb  Pb53  1  0.16828154  0.50011806  0.83111482  1
  I  I54  1  0.16379495  0.00040438  0.16348509  1
  I  I55  1  0.16836253  0.00010977  0.50038450  1
  I  I56  1  0.17330987  0.00110723  0.83677541  1
  I  I57  1  0.16311916  0.33026580  0.16285828  1
  I  I58  1  0.17469306  0.33630479  0.49970974  1
  I  I59  1  0.16853060  0.33043625  0.83665127  1
  I  I60  1  0.16394499  0.66950404  0.16321057  1
  I  I61  1  0.17074400  0.66363587  0.49993724  1
  I  I62  1  0.16876623  0.66917795  0.83807482  1
  I  I63  1  0.50062560  0.00007051  0.16752135  1
  I  I64  1  0.50107108  -0.00202439  0.50059109  1
  I  I65  1  0.49836283  0.00254861  0.83153189  1
  I  I66  1  0.49967956  0.33638886  0.17173671  1
  I  I67  1  0.49774672  0.33627155  0.49889112  1
  I  I68  1  0.49440776  0.33350742  0.83161992  1
  I  I69  1  0.49977530  0.66347105  0.16301818  1
  I  I70  1  0.49617632  0.66497088  0.50133622  1
  I  I71  1  0.49837626  0.66400869  0.83450915  1
  I  I72  1  0.83633732  0.00087015  0.17115123  1
  I  I73  1  0.83240927  0.00340866  0.49861798  1
  I  I74  1  0.82585839  0.00012134  0.83004452  1
  I  I75  1  0.83643880  0.32996106  0.16988673  1
  I  I76  1  0.83149443  0.33013532  0.49321020  1
  I  I77  1  0.83706203  0.33301812  0.83500317  1
  I  I78  1  0.83741096  0.66967141  0.16601882  1
  I  I79  1  0.83407314  0.66688483  0.49875528  1
  I  I80  1  0.83323480  0.66714019  0.83412444  1
  I  I81  1  0.16532525  0.16396205  0.00041219  1
  I  I82  1  0.16465595  0.16326428  0.33037363  1
  I  I83  1  0.16950150  0.16422163  0.66956888  1
  I  I84  1  0.16893639  0.50020813  -0.00001697  1
  I  I85  1  0.17463258  0.49966601  0.33617540  1
  I  I86  1  0.17397483  0.49905226  0.66363406  1
  I  I87  1  0.16479251  0.83703582  0.00079668  1
  I  I88  1  0.16457792  0.83684114  0.33010443  1
  I  I89  1  0.17110638  0.83723504  0.66901300  1
  I  I90  1  0.50032668  0.17198283  -0.00338828  1
  I  I91  1  0.49857476  0.16829869  0.33326678  1
  I  I92  1  0.49539824  0.17207725  0.67021435  1
  I  I93  1  0.50059806  0.49506559  -0.00059308  1
  I  I94  1  0.49669785  0.50431716  0.33425298  1
  I  I95  1  0.49513858  0.49902252  0.66635185  1
  I  I96  1  0.50205994  0.83129224  0.00005700  1
  I  I97  1  0.49860280  0.82685795  0.33617023  1
  I  I98  1  0.49822122  0.82781189  0.66371438  1
  I  I99  1  0.83360349  0.16302907  0.00343657  1
  I  I100  1  0.83748597  0.16410067  0.33171667  1
  I  I101  1  0.83193658  0.16945409  0.66486310  1
  I  I102  1  0.83304802  0.49673121  0.00031915  1
  I  I103  1  0.83007936  0.50043127  0.33316240  1
  I  I104  1  0.83303748  0.49708251  0.66644387  1
  I  I105  1  0.83046501  0.84131215  0.00429053  1
  I  I106  1  0.84024872  0.83484760  0.32974940  1
  I  I107  1  0.83327857  0.83417991  0.66654512  1
  I  I108  1  0.00069151  0.16370692  0.16547078  1
  I  I109  1  -0.00287312  0.16834166  0.49966094  1
  I  I110  1  0.00348301  0.16274317  0.83380458  1
  I  I111  1  0.00026045  0.50009386  0.16938771  1
  I  I112  1  0.00239090  0.49877053  0.49952461  1
  I  I113  1  0.00052931  0.49884332  0.83104716  1
  I  I114  1  0.00095169  0.83748195  0.16385629  1
  I  I115  1  -0.00005364  0.83126311  0.50219143  1
  I  I116  1  0.00489533  0.84116417  0.83178601  1
  I  I117  1  0.33030977  0.16311123  0.16443189  1
  I  I118  1  0.33337171  0.16619071  0.49793765  1
  I  I119  1  0.33247123  0.16755686  0.83789443  1
  I  I120  1  0.33662468  0.50005954  0.16574503  1
  I  I121  1  0.33516178  0.50234617  0.49969677  1
  I  I122  1  0.33658950  0.49810564  0.83432109  1
  I  I123  1  0.33009499  0.83671831  0.16390317  1
  I  I124  1  0.33593417  0.83098459  0.49815737  1
  I  I125  1  0.33014855  0.83478749  0.84048611  1
  I  I126  1  0.66915298  0.16442722  0.16913708  1
  I  I127  1  0.66951474  0.16851868  0.49399953  1
  I  I128  1  0.66416864  0.17284481  0.83218924  1
  I  I129  1  0.66260240  0.49949708  0.16950937  1
  I  I130  1  0.66297275  0.50272516  0.50020436  1
  I  I131  1  0.66121290  0.49278835  0.83074287  1
  I  I132  1  0.66880499  0.83672107  0.16944627  1
  I  I133  1  0.66314203  0.82549362  0.49993617  1
  I  I134  1  0.66652453  0.83291592  0.83355335  1
