# generated using pymatgen
data_Cs27Sn14Pb13I81
_symmetry_space_group_name_H-M   'P 1'
_cell_length_a   18.98054163
_cell_length_b   18.96584034
_cell_length_c   18.98091959
_cell_angle_alpha   90.00006391
_cell_angle_beta   89.99955672
_cell_angle_gamma   89.99934813
_symmetry_Int_Tables_number   1
_chemical_formula_structural   Cs27Sn14Pb13I81
_chemical_formula_sum   'Cs27 Sn14 Pb13 I81'
_cell_volume   6832.78791456
_cell_formula_units_Z   1
loop_
 _symmetry_equiv_pos_site_id
 _symmetry_equiv_pos_as_xyz
  1  'x, y, z'
loop_
 _atom_site_type_symbol
 _atom_site_label
 _atom_site_symmetry_multiplicity
 _atom_site_fract_x
 _atom_site_fract_y
 _atom_site_fract_z
 _atom_site_occupancy
  Cs  Cs0  1  -0.00114095  -0.00034138  -0.00947698  1
  Cs  Cs1  1  -0.00067513  -0.00168526  0.33391845  1
  Cs  Cs2  1  -0.00051504  0.00134335  0.67638611  1
  Cs  Cs3  1  -0.00028724  0.33295164  0.00278562  1
  Cs  Cs4  1  0.00009102  0.33316385  0.33222869  1
  Cs  Cs5  1  -0.00093745  0.33146044  0.66555550  1
  Cs  Cs6  1  0.00171925  0.66552060  0.00571615  1
  Cs  Cs7  1  0.00007000  0.66740895  0.33084706  1
  Cs  Cs8  1  0.00068634  0.66722688  0.66505733  1
  Cs  Cs9  1  0.33372074  -0.00195461  0.00274082  1
  Cs  Cs10  1  0.33341025  0.00255349  0.32905233  1
  Cs  Cs11  1  0.32898397  -0.00010248  0.66988225  1
  Cs  Cs12  1  0.33570266  0.33258900  0.00304439  1
  Cs  Cs13  1  0.33314455  0.33035477  0.33433934  1
  Cs  Cs14  1  0.33659460  0.33637411  0.66468657  1
  Cs  Cs15  1  0.33381430  0.66777620  -0.00292582  1
  Cs  Cs16  1  0.33101985  0.66787480  0.33503237  1
  Cs  Cs17  1  0.33332648  0.66475145  0.66698807  1
  Cs  Cs18  1  0.66623245  -0.00047114  0.00172509  1
  Cs  Cs19  1  0.66670434  -0.00111731  0.33207137  1
  Cs  Cs20  1  0.67026081  -0.00467607  0.66623688  1
  Cs  Cs21  1  0.66651096  0.33443389  -0.00201355  1
  Cs  Cs22  1  0.66785650  0.33317085  0.33494934  1
  Cs  Cs23  1  0.66484984  0.33423565  0.66625905  1
  Cs  Cs24  1  0.66428029  0.66447728  0.00025358  1
  Cs  Cs25  1  0.66792307  0.66858334  0.33577839  1
  Cs  Cs26  1  0.66677324  0.66821220  0.66418098  1
  Sn  Sn27  1  0.16646573  0.49969347  0.83262962  1
  Sn  Sn28  1  0.16582630  0.83346184  0.16747538  1
  Sn  Sn29  1  0.50100020  0.16704296  0.50107672  1
  Sn  Sn30  1  0.83260816  0.16713930  0.49941145  1
  Sn  Sn31  1  0.49986842  0.50009189  0.16737591  1
  Sn  Sn32  1  0.83343111  0.49937583  0.50076138  1
  Sn  Sn33  1  0.83350236  0.49995291  0.83233712  1
  Sn  Sn34  1  0.83398745  0.83445447  0.16684799  1
  Sn  Sn35  1  0.16645871  0.83311089  0.49937473  1
  Sn  Sn36  1  0.16646702  0.50049912  0.50052767  1
  Sn  Sn37  1  0.50009733  0.49965629  0.49968744  1
  Sn  Sn38  1  0.50013364  0.16727033  0.83213938  1
  Sn  Sn39  1  0.83345343  0.16578269  0.16730799  1
  Sn  Sn40  1  0.50006304  0.49945246  0.83309644  1
  Pb  Pb41  1  0.16651599  0.16683333  0.50006556  1
  Pb  Pb42  1  0.50006446  0.83099679  0.16694140  1
  Pb  Pb43  1  0.83319377  0.82995544  0.83625891  1
  Pb  Pb44  1  0.16910474  0.50131509  0.16712062  1
  Pb  Pb45  1  0.83119249  0.16890643  0.83276378  1
  Pb  Pb46  1  0.50018159  0.83353508  0.83295800  1
  Pb  Pb47  1  0.50208222  0.16873407  0.16705070  1
  Pb  Pb48  1  0.83168785  0.49995331  0.16719999  1
  Pb  Pb49  1  0.83549478  0.83366177  0.49871289  1
  Pb  Pb50  1  0.16988326  0.17009302  0.83320592  1
  Pb  Pb51  1  0.16662841  0.83084477  0.83318260  1
  Pb  Pb52  1  0.16365254  0.16373783  0.16659955  1
  Pb  Pb53  1  0.49746632  0.83414233  0.50007431  1
  I  I54  1  0.16841616  -0.00443909  0.17477290  1
  I  I55  1  0.16786360  -0.00272540  0.49357837  1
  I  I56  1  0.16822988  0.00004594  0.83316428  1
  I  I57  1  0.16606543  0.33350344  0.16656298  1
  I  I58  1  0.16733328  0.33692236  0.50475781  1
  I  I59  1  0.16442719  0.33829134  0.82607595  1
  I  I60  1  0.15961159  0.66912707  0.16816507  1
  I  I61  1  0.16692856  0.66457051  0.49977211  1
  I  I62  1  0.17051241  0.66244067  0.83210741  1
  I  I63  1  0.49823701  0.00022012  0.16600732  1
  I  I64  1  0.50440408  0.00379658  0.50419497  1
  I  I65  1  0.50107821  0.00363350  0.82869560  1
  I  I66  1  0.50155761  0.33683166  0.16607203  1
  I  I67  1  0.49861823  0.33510138  0.50057182  1
  I  I68  1  0.49978680  0.33550853  0.83241139  1
  I  I69  1  0.50263891  0.66265562  0.16573899  1
  I  I70  1  0.50282934  0.66301748  0.50109765  1
  I  I71  1  0.49926969  0.66226066  0.83319173  1
  I  I72  1  0.83556383  0.00040951  0.17368487  1
  I  I73  1  0.82874660  0.00301651  0.49645458  1
  I  I74  1  0.83165715  0.00020871  0.83124599  1
  I  I75  1  0.82981769  0.33138173  0.16790504  1
  I  I76  1  0.83425974  0.33448243  0.49728043  1
  I  I77  1  0.83485971  0.33725084  0.83505833  1
  I  I78  1  0.83621581  0.66856435  0.16593213  1
  I  I79  1  0.83026707  0.66332330  0.50215255  1
  I  I80  1  0.82964028  0.66156129  0.82790004  1
  I  I81  1  0.16698765  0.16750336  -0.00009386  1
  I  I82  1  0.17184838  0.17189025  0.33347489  1
  I  I83  1  0.16103945  0.15974903  0.66649522  1
  I  I84  1  0.16701666  0.50143390  -0.00257680  1
  I  I85  1  0.16643424  0.50223610  0.33662458  1
  I  I86  1  0.17081306  0.50580675  0.66548932  1
  I  I87  1  0.16289916  0.83146902  0.00280373  1
  I  I88  1  0.16334396  0.82542680  0.33377586  1
  I  I89  1  0.16821804  0.83027621  0.66372418  1
  I  I90  1  0.50098487  0.17290393  -0.00223808  1
  I  I91  1  0.50140138  0.17205552  0.33643983  1
  I  I92  1  0.50507164  0.17707413  0.66553839  1
  I  I93  1  0.50072456  0.49716474  -0.00129130  1
  I  I94  1  0.50044041  0.49692211  0.33500073  1
  I  I95  1  0.49934363  0.49632469  0.66624401  1
  I  I96  1  0.49777738  0.83168733  0.00014713  1
  I  I97  1  0.50088808  0.83123494  0.33347315  1
  I  I98  1  0.49813097  0.82836306  0.66635463  1
  I  I99  1  0.83203178  0.16442149  0.00210054  1
  I  I100  1  0.82755731  0.16954672  0.33466582  1
  I  I101  1  0.83189838  0.16999072  0.66351821  1
  I  I102  1  0.83212149  0.50070328  -0.00217538  1
  I  I103  1  0.83305700  0.49958697  0.33645851  1
  I  I104  1  0.82990875  0.49502934  0.66535007  1
  I  I105  1  0.83988205  0.83832810  0.00423419  1
  I  I106  1  0.83537814  0.83096676  0.33072038  1
  I  I107  1  0.83489467  0.83557779  0.66659996  1
  I  I108  1  -0.00450153  0.16938162  0.17369777  1
  I  I109  1  -0.00319971  0.17125187  0.49457794  1
  I  I110  1  -0.00027589  0.16775844  0.83353205  1
  I  I111  1  -0.00006585  0.49896220  0.16539270  1
  I  I112  1  -0.00036240  0.49999940  0.50633314  1
  I  I113  1  -0.00013051  0.50190485  0.82661299  1
  I  I114  1  -0.00007529  0.83432095  0.17174352  1
  I  I115  1  0.00319223  0.82698578  0.49682181  1
  I  I116  1  -0.00005721  0.83272171  0.83169431  1
  I  I117  1  0.33366915  0.16604010  0.16669273  1
  I  I118  1  0.33647374  0.17092372  0.50396765  1
  I  I119  1  0.33789779  0.17243995  0.82676688  1
  I  I120  1  0.33691904  0.50155180  0.16611542  1
  I  I121  1  0.33387264  0.50059063  0.50230250  1
  I  I122  1  0.33401687  0.49760590  0.83059527  1
  I  I123  1  0.33051968  0.82969414  0.17009224  1
  I  I124  1  0.32960942  0.82715618  0.49363801  1
  I  I125  1  0.33318816  0.83128592  0.83626376  1
  I  I126  1  0.66983823  0.16092989  0.16851727  1
  I  I127  1  0.66667640  0.17580756  0.49927460  1
  I  I128  1  0.66352523  0.17530238  0.83291687  1
  I  I129  1  0.66389016  0.50155937  0.16570831  1
  I  I130  1  0.66653692  0.49583210  0.50181990  1
  I  I131  1  0.66594162  0.49650081  0.83213463  1
  I  I132  1  0.66960316  0.83576776  0.16624471  1
  I  I133  1  0.66688858  0.83002079  0.49796577  1
  I  I134  1  0.66684936  0.82926189  0.83568419  1
