# generated using pymatgen
data_Cs27Sn13Pb14I81
_symmetry_space_group_name_H-M   'P 1'
_cell_length_a   18.96954581
_cell_length_b   18.98365102
_cell_length_c   18.97794231
_cell_angle_alpha   89.99946495
_cell_angle_beta   90.00163715
_cell_angle_gamma   89.99786998
_symmetry_Int_Tables_number   1
_chemical_formula_structural   Cs27Sn13Pb14I81
_chemical_formula_sum   'Cs27 Sn13 Pb14 I81'
_cell_volume   6834.17028544
_cell_formula_units_Z   1
loop_
 _symmetry_equiv_pos_site_id
 _symmetry_equiv_pos_as_xyz
  1  'x, y, z'
loop_
 _atom_site_type_symbol
 _atom_site_label
 _atom_site_symmetry_multiplicity
 _atom_site_fract_x
 _atom_site_fract_y
 _atom_site_fract_z
 _atom_site_occupancy
  Cs  Cs0  1  -0.00146853  -0.00212143  0.00348762  1
  Cs  Cs1  1  0.00028306  0.00258428  0.32577447  1
  Cs  Cs2  1  0.00045524  0.00175667  0.66858786  1
  Cs  Cs3  1  0.00335102  0.33391765  -0.00093022  1
  Cs  Cs4  1  -0.00142421  0.32819045  0.32949892  1
  Cs  Cs5  1  0.00024252  0.33218303  0.66830358  1
  Cs  Cs6  1  -0.00016622  0.66817860  -0.00030907  1
  Cs  Cs7  1  0.00556923  0.66942245  0.33497693  1
  Cs  Cs8  1  -0.00166261  0.66613907  0.66744621  1
  Cs  Cs9  1  0.33558078  0.00088841  -0.00172647  1
  Cs  Cs10  1  0.33033562  -0.00614162  0.33386403  1
  Cs  Cs11  1  0.33318279  0.00098943  0.66721211  1
  Cs  Cs12  1  0.33421602  0.33382144  0.00004449  1
  Cs  Cs13  1  0.33189848  0.33711951  0.33137980  1
  Cs  Cs14  1  0.33226376  0.33173005  0.66575435  1
  Cs  Cs15  1  0.33608259  0.66573854  -0.00050445  1
  Cs  Cs16  1  0.32817316  0.66972309  0.34200462  1
  Cs  Cs17  1  0.33042546  0.66699427  0.66050055  1
  Cs  Cs18  1  0.66492746  -0.00364463  -0.00048618  1
  Cs  Cs19  1  0.66880134  0.00394382  0.33533443  1
  Cs  Cs20  1  0.66580993  0.00380177  0.66556957  1
  Cs  Cs21  1  0.66419084  0.33591230  -0.00072068  1
  Cs  Cs22  1  0.66819680  0.33403458  0.33514597  1
  Cs  Cs23  1  0.66667993  0.33131111  0.66611874  1
  Cs  Cs24  1  0.66672537  0.66676489  -0.00037430  1
  Cs  Cs25  1  0.66497526  0.66389310  0.33401870  1
  Cs  Cs26  1  0.66930345  0.66647287  0.66660007  1
  Sn  Sn27  1  0.50061739  0.50054851  0.16612673  1
  Sn  Sn28  1  0.83384725  0.16725279  0.83380113  1
  Sn  Sn29  1  0.83300727  0.50026480  0.16634166  1
  Sn  Sn30  1  0.50022962  0.83268651  0.16640396  1
  Sn  Sn31  1  0.49914901  0.83219815  0.83341590  1
  Sn  Sn32  1  0.83338897  0.50067257  0.49995601  1
  Sn  Sn33  1  0.16746867  0.83387742  0.83341977  1
  Sn  Sn34  1  0.50014261  0.16678087  0.16691788  1
  Sn  Sn35  1  0.50063794  0.50096458  0.83340006  1
  Sn  Sn36  1  0.83318630  0.83321868  0.49993805  1
  Sn  Sn37  1  0.16589366  0.16579350  0.83284622  1
  Sn  Sn38  1  0.83253175  0.49913949  0.83366025  1
  Sn  Sn39  1  0.16670639  0.16669424  0.50043963  1
  Pb  Pb40  1  0.16388206  0.83551989  0.50256362  1
  Pb  Pb41  1  0.16716748  0.50029634  0.16659446  1
  Pb  Pb42  1  0.83110407  0.16885183  0.16361064  1
  Pb  Pb43  1  0.49722641  0.16668471  0.49682927  1
  Pb  Pb44  1  0.16910092  0.16660606  0.16573180  1
  Pb  Pb45  1  0.50198735  0.83336351  0.50057173  1
  Pb  Pb46  1  0.50182160  0.49988226  0.50033050  1
  Pb  Pb47  1  0.83495662  0.16691126  0.50181538  1
  Pb  Pb48  1  0.49984563  0.16688173  0.83445705  1
  Pb  Pb49  1  0.16711582  0.50006301  0.83330695  1
  Pb  Pb50  1  0.16927917  0.83312564  0.16381366  1
  Pb  Pb51  1  0.83095926  0.83083445  0.16914254  1
  Pb  Pb52  1  0.83283397  0.83316032  0.83228244  1
  Pb  Pb53  1  0.16328179  0.49746418  0.50008712  1
  I  I54  1  0.16819239  -0.00004120  0.16871948  1
  I  I55  1  0.16470419  0.00303398  0.50302601  1
  I  I56  1  0.16725206  0.00050808  0.82934288  1
  I  I57  1  0.16950120  0.33323866  0.16505739  1
  I  I58  1  0.16602148  0.32987452  0.50809487  1
  I  I59  1  0.16524524  0.33049491  0.82988239  1
  I  I60  1  0.16745419  0.66681061  0.16506839  1
  I  I61  1  0.16765197  0.66689089  0.50043216  1
  I  I62  1  0.16740048  0.66934044  0.83469378  1
  I  I63  1  0.49821894  -0.00077198  0.16117819  1
  I  I64  1  0.50466455  -0.00003193  0.50048111  1
  I  I65  1  0.49986427  -0.00230289  0.83793373  1
  I  I66  1  0.50310242  0.33471865  0.16206799  1
  I  I67  1  0.50231871  0.33333471  0.50097539  1
  I  I68  1  0.50154138  0.33604591  0.83790087  1
  I  I69  1  0.50532142  0.66595276  0.16013243  1
  I  I70  1  0.49814227  0.66660352  0.49655136  1
  I  I71  1  0.50115698  0.66630325  0.84134232  1
  I  I72  1  0.83134139  0.00000341  0.16781853  1
  I  I73  1  0.83343294  -0.00195242  0.50360678  1
  I  I74  1  0.83369751  0.00206695  0.82963040  1
  I  I75  1  0.82744385  0.33699434  0.17162521  1
  I  I76  1  0.83423982  0.33632336  0.49889504  1
  I  I77  1  0.83294760  0.33462283  0.83107616  1
  I  I78  1  0.82735270  0.66259992  0.16023712  1
  I  I79  1  0.83175490  0.66526471  0.50342184  1
  I  I80  1  0.83240076  0.66362987  0.83444216  1
  I  I81  1  0.16369981  0.16360042  -0.00359485  1
  I  I82  1  0.16741793  0.16822512  0.33554893  1
  I  I83  1  0.16298359  0.16342722  0.66854865  1
  I  I84  1  0.16197382  0.49713151  -0.00036797  1
  I  I85  1  0.16787496  0.49773684  0.33347295  1
  I  I86  1  0.16725325  0.50141738  0.66692208  1
  I  I87  1  0.16563510  0.84005167  -0.00426953  1
  I  I88  1  0.16751038  0.83471713  0.33356231  1
  I  I89  1  0.17366936  0.83508908  0.67041784  1
  I  I90  1  0.49876354  0.16749525  0.00235419  1
  I  I91  1  0.50027501  0.16785507  0.32874666  1
  I  I92  1  0.50190958  0.16652401  0.66692488  1
  I  I93  1  0.50758802  0.50063109  -0.00026403  1
  I  I94  1  0.50438164  0.49939413  0.32989208  1
  I  I95  1  0.50421070  0.50428426  0.67025875  1
  I  I96  1  0.49712273  0.83259265  -0.00070442  1
  I  I97  1  0.50270619  0.83243863  0.33029600  1
  I  I98  1  0.49741041  0.82871577  0.67035515  1
  I  I99  1  0.83978919  0.17046256  -0.00435257  1
  I  I100  1  0.83463871  0.16740857  0.33308835  1
  I  I101  1  0.83347851  0.17189640  0.66994713  1
  I  I102  1  0.82843643  0.49500047  -0.00085627  1
  I  I103  1  0.82817887  0.50405491  0.33295783  1
  I  I104  1  0.82968828  0.50007486  0.66781362  1
  I  I105  1  0.83533166  0.83346751  0.00001258  1
  I  I106  1  0.83159522  0.82896946  0.33679726  1
  I  I107  1  0.83190922  0.82733608  0.66470703  1
  I  I108  1  -0.00016736  0.16870968  0.16815085  1
  I  I109  1  0.00271481  0.16765815  0.50331261  1
  I  I110  1  0.00005331  0.16740895  0.82934999  1
  I  I111  1  -0.00362703  0.49874652  0.16528325  1
  I  I112  1  -0.00497329  0.50457973  0.50196675  1
  I  I113  1  -0.00330500  0.49903858  0.83356192  1
  I  I114  1  -0.00025626  0.83224077  0.16648263  1
  I  I115  1  -0.00359978  0.82709231  0.50290985  1
  I  I116  1  0.00186696  0.83447487  0.82956051  1
  I  I117  1  0.33715071  0.17030968  0.16369383  1
  I  I118  1  0.32963441  0.16587596  0.50913625  1
  I  I119  1  0.33091625  0.16571249  0.83139831  1
  I  I120  1  0.33766010  0.49820329  0.15967100  1
  I  I121  1  0.33311134  0.49909263  0.49958791  1
  I  I122  1  0.33675092  0.49989738  0.84005067  1
  I  I123  1  0.33785063  0.83089461  0.16611771  1
  I  I124  1  0.33305124  0.83462866  0.49791438  1
  I  I125  1  0.33424480  0.83445574  0.83748789  1
  I  I126  1  0.66320912  0.16482867  0.16456580  1
  I  I127  1  0.66701559  0.16651638  0.50111275  1
  I  I128  1  0.66887763  0.16803859  0.83460496  1
  I  I129  1  0.66604201  0.49971436  0.16527299  1
  I  I130  1  0.67026460  0.50196672  0.50053714  1
  I  I131  1  0.66711292  0.49990023  0.83428435  1
  I  I132  1  0.66277505  0.83494480  0.15846278  1
  I  I133  1  0.66975754  0.82969429  0.50293968  1
  I  I134  1  0.66375354  0.83248111  0.83635855  1
