# generated using pymatgen
data_Cs27Sn14Pb13I81
_symmetry_space_group_name_H-M   'P 1'
_cell_length_a   18.97381843
_cell_length_b   18.97489985
_cell_length_c   18.97989635
_cell_angle_alpha   90.00014180
_cell_angle_beta   89.99983033
_cell_angle_gamma   89.99973856
_symmetry_Int_Tables_number   1
_chemical_formula_structural   Cs27Sn14Pb13I81
_chemical_formula_sum   'Cs27 Sn14 Pb13 I81'
_cell_volume   6833.26194091
_cell_formula_units_Z   1
loop_
 _symmetry_equiv_pos_site_id
 _symmetry_equiv_pos_as_xyz
  1  'x, y, z'
loop_
 _atom_site_type_symbol
 _atom_site_label
 _atom_site_symmetry_multiplicity
 _atom_site_fract_x
 _atom_site_fract_y
 _atom_site_fract_z
 _atom_site_occupancy
  Cs  Cs0  1  -0.00362746  -0.00098185  0.00070017  1
  Cs  Cs1  1  0.00087592  0.00113877  0.33254611  1
  Cs  Cs2  1  0.00220516  0.00152934  0.66631567  1
  Cs  Cs3  1  -0.00713607  0.33097329  -0.00453874  1
  Cs  Cs4  1  -0.00193392  0.33308002  0.33100446  1
  Cs  Cs5  1  0.00124446  0.33042409  0.67586414  1
  Cs  Cs6  1  0.00032138  0.66868487  -0.00183661  1
  Cs  Cs7  1  0.00096042  0.66588223  0.33631338  1
  Cs  Cs8  1  -0.00036052  0.66594811  0.66554189  1
  Cs  Cs9  1  0.33473271  -0.00254730  0.00298222  1
  Cs  Cs10  1  0.33420986  0.00057267  0.33281590  1
  Cs  Cs11  1  0.33249479  0.00422009  0.66435551  1
  Cs  Cs12  1  0.33475215  0.33485731  0.00092465  1
  Cs  Cs13  1  0.33307362  0.33370761  0.33393568  1
  Cs  Cs14  1  0.33136338  0.33207471  0.66524584  1
  Cs  Cs15  1  0.33337279  0.66644941  0.00185460  1
  Cs  Cs16  1  0.33204361  0.66541670  0.33051182  1
  Cs  Cs17  1  0.33128920  0.66389158  0.66823195  1
  Cs  Cs18  1  0.66790020  0.00120009  -0.00067073  1
  Cs  Cs19  1  0.66604610  -0.00175770  0.33947872  1
  Cs  Cs20  1  0.66550995  -0.00227901  0.66289051  1
  Cs  Cs21  1  0.66829881  0.33096397  0.00251258  1
  Cs  Cs22  1  0.66922802  0.33463627  0.32966431  1
  Cs  Cs23  1  0.66567261  0.33445755  0.66669834  1
  Cs  Cs24  1  0.66455503  0.66753018  -0.00127013  1
  Cs  Cs25  1  0.66912830  0.66767565  0.33909860  1
  Cs  Cs26  1  0.66903848  0.66829336  0.66433212  1
  Sn  Sn27  1  0.49939138  0.49950817  0.16689721  1
  Sn  Sn28  1  0.83353076  0.16725044  0.50012993  1
  Sn  Sn29  1  0.83306325  0.83283669  0.16664331  1
  Sn  Sn30  1  0.16729848  0.83292947  0.50064278  1
  Sn  Sn31  1  0.16713928  0.83337078  0.83244080  1
  Sn  Sn32  1  0.49911880  0.16712779  0.16614575  1
  Sn  Sn33  1  0.49981057  0.49981964  0.83344145  1
  Sn  Sn34  1  0.16690625  0.49876555  0.16688979  1
  Sn  Sn35  1  0.49966779  0.83349128  0.83334550  1
  Sn  Sn36  1  0.49925996  0.50015251  0.49968014  1
  Sn  Sn37  1  0.16713027  0.16785386  0.16624507  1
  Sn  Sn38  1  0.49961522  0.16660384  0.83394537  1
  Sn  Sn39  1  0.16734203  0.50039309  0.49947991  1
  Sn  Sn40  1  0.83314900  0.83324491  0.83396420  1
  Pb  Pb41  1  0.83054545  0.16421748  0.83123879  1
  Pb  Pb42  1  0.49724845  0.83083920  0.50252709  1
  Pb  Pb43  1  0.83441947  0.49755888  0.50011023  1
  Pb  Pb44  1  0.83347241  0.50240379  0.16660314  1
  Pb  Pb45  1  0.16524883  0.83289593  0.16661497  1
  Pb  Pb46  1  0.50129852  0.16923486  0.49944416  1
  Pb  Pb47  1  0.16904573  0.16418462  0.83632281  1
  Pb  Pb48  1  0.50199283  0.83310365  0.16515895  1
  Pb  Pb49  1  0.83589158  0.83472986  0.50054953  1
  Pb  Pb50  1  0.16513797  0.16764114  0.49789156  1
  Pb  Pb51  1  0.83040912  0.50240006  0.83339229  1
  Pb  Pb52  1  0.83270077  0.16467609  0.16793299  1
  Pb  Pb53  1  0.16842726  0.50149144  0.83387495  1
  I  I54  1  0.16983000  0.00201316  0.16631572  1
  I  I55  1  0.16339437  -0.00210356  0.50288689  1
  I  I56  1  0.16881315  -0.00403555  0.82847282  1
  I  I57  1  0.17134647  0.33424518  0.17386810  1
  I  I58  1  0.17062299  0.33670470  0.49710471  1
  I  I59  1  0.16805093  0.33318265  0.82962138  1
  I  I60  1  0.17099364  0.66390160  0.16749268  1
  I  I61  1  0.16954978  0.66600506  0.49771186  1
  I  I62  1  0.16914399  0.66988020  0.83463413  1
  I  I63  1  0.49683179  0.00271394  0.16141209  1
  I  I64  1  0.50037828  -0.00000314  0.50020985  1
  I  I65  1  0.50041855  -0.00022826  0.83905564  1
  I  I66  1  0.49706288  0.33383819  0.16188144  1
  I  I67  1  0.49390504  0.33713813  0.50519325  1
  I  I68  1  0.49951648  0.33373875  0.83385891  1
  I  I69  1  0.49587522  0.66346528  0.16526987  1
  I  I70  1  0.50036660  0.66266740  0.49809700  1
  I  I71  1  0.50024492  0.66665182  0.83385087  1
  I  I72  1  0.83460742  -0.00294172  0.16247929  1
  I  I73  1  0.83332955  0.00217729  0.49943559  1
  I  I74  1  0.83136970  -0.00380280  0.83714721  1
  I  I75  1  0.83334376  0.33326391  0.16890036  1
  I  I76  1  0.83301402  0.33029651  0.49723486  1
  I  I77  1  0.83293553  0.33297361  0.83191099  1
  I  I78  1  0.83345620  0.67022508  0.16269819  1
  I  I79  1  0.83141080  0.66666410  0.50024599  1
  I  I80  1  0.83139718  0.67084568  0.83586969  1
  I  I81  1  0.16733306  0.17148212  0.00410062  1
  I  I82  1  0.17295478  0.16400212  0.33008916  1
  I  I83  1  0.16625627  0.16770755  0.66692844  1
  I  I84  1  0.17190799  0.49931042  0.00296988  1
  I  I85  1  0.17489432  0.50324816  0.33326551  1
  I  I86  1  0.17116108  0.50382978  0.66419161  1
  I  I87  1  0.16835965  0.83325345  -0.00257446  1
  I  I88  1  0.16313289  0.83212323  0.33531501  1
  I  I89  1  0.16494588  0.82748089  0.66703273  1
  I  I90  1  0.49706252  0.17060343  0.00023287  1
  I  I91  1  0.49806180  0.17075991  0.33016143  1
  I  I92  1  0.50317519  0.16620019  0.66925582  1
  I  I93  1  0.49603132  0.50068461  0.00033047  1
  I  I94  1  0.49607097  0.49471023  0.33256591  1
  I  I95  1  0.49684247  0.50105997  0.66687630  1
  I  I96  1  0.49509900  0.82888479  -0.00331930  1
  I  I97  1  0.50145743  0.83421719  0.33353981  1
  I  I98  1  0.50603082  0.83429560  0.67094586  1
  I  I99  1  0.83469642  0.16621984  -0.00018294  1
  I  I100  1  0.83129869  0.16269383  0.33531991  1
  I  I101  1  0.83304088  0.16504677  0.66397043  1
  I  I102  1  0.83435231  0.49825305  0.00004630  1
  I  I103  1  0.82770991  0.50383436  0.33332477  1
  I  I104  1  0.83231875  0.50187262  0.66666287  1
  I  I105  1  0.83580740  0.83414144  -0.00125165  1
  I  I106  1  0.83499581  0.83509200  0.33155445  1
  I  I107  1  0.83022550  0.83474167  0.66965249  1
  I  I108  1  0.00242573  0.16903829  0.17040137  1
  I  I109  1  -0.00230243  0.16577328  0.49695508  1
  I  I110  1  0.00009707  0.16499148  0.83367731  1
  I  I111  1  0.00353346  0.49780880  0.17319833  1
  I  I112  1  0.00385339  0.50449776  0.49369340  1
  I  I113  1  0.00022802  0.50233899  0.83251831  1
  I  I114  1  -0.00234592  0.83432194  0.16073098  1
  I  I115  1  0.00350906  0.82730077  0.50474273  1
  I  I116  1  0.00027844  0.83291260  0.83390153  1
  I  I117  1  0.33420318  0.16904365  0.16387558  1
  I  I118  1  0.33334402  0.16427663  0.50170618  1
  I  I119  1  0.33727447  0.16465648  0.83283961  1
  I  I120  1  0.33408421  0.49748222  0.16732899  1
  I  I121  1  0.33340007  0.50367763  0.49938290  1
  I  I122  1  0.33698923  0.50336086  0.83361118  1
  I  I123  1  0.33344853  0.83404115  0.16563162  1
  I  I124  1  0.32943973  0.83351814  0.50367026  1
  I  I125  1  0.33389775  0.83246272  0.82927268  1
  I  I126  1  0.66330146  0.17056636  0.16329953  1
  I  I127  1  0.66877335  0.16572367  0.49866361  1
  I  I128  1  0.66243439  0.16600438  0.83997868  1
  I  I129  1  0.66297086  0.49623830  0.16632737  1
  I  I130  1  0.66364321  0.49841272  0.49974578  1
  I  I131  1  0.66152084  0.50194616  0.83358191  1
  I  I132  1  0.66958010  0.83401975  0.16076534  1
  I  I133  1  0.66651773  0.83277106  0.50034803  1
  I  I134  1  0.66594730  0.83282075  0.83923237  1
