# generated using pymatgen
data_Cs27Sn14Pb13I81
_symmetry_space_group_name_H-M   'P 1'
_cell_length_a   18.97730301
_cell_length_b   18.97031476
_cell_length_c   18.98113858
_cell_angle_alpha   90.00015457
_cell_angle_beta   90.00069769
_cell_angle_gamma   89.99911424
_symmetry_Int_Tables_number   1
_chemical_formula_structural   Cs27Sn14Pb13I81
_chemical_formula_sum   'Cs27 Sn14 Pb13 I81'
_cell_volume   6833.31260098
_cell_formula_units_Z   1
loop_
 _symmetry_equiv_pos_site_id
 _symmetry_equiv_pos_as_xyz
  1  'x, y, z'
loop_
 _atom_site_type_symbol
 _atom_site_label
 _atom_site_symmetry_multiplicity
 _atom_site_fract_x
 _atom_site_fract_y
 _atom_site_fract_z
 _atom_site_occupancy
  Cs  Cs0  1  -0.00021574  -0.00137018  0.00203601  1
  Cs  Cs1  1  -0.00046656  -0.00098730  0.33011574  1
  Cs  Cs2  1  -0.00358101  -0.00097071  0.66839741  1
  Cs  Cs3  1  0.00176538  0.33298853  0.00031661  1
  Cs  Cs4  1  0.00039449  0.33478242  0.33163854  1
  Cs  Cs5  1  -0.00615017  0.33635556  0.66776848  1
  Cs  Cs6  1  0.00071521  0.66836313  0.00308055  1
  Cs  Cs7  1  0.00278502  0.66628396  0.33392809  1
  Cs  Cs8  1  0.00131946  0.66555903  0.66337331  1
  Cs  Cs9  1  0.33178157  0.00023466  -0.00395932  1
  Cs  Cs10  1  0.33347499  0.00412060  0.33500339  1
  Cs  Cs11  1  0.33349349  0.00040762  0.66716349  1
  Cs  Cs12  1  0.33082978  0.33258230  0.00062374  1
  Cs  Cs13  1  0.33347120  0.33169980  0.33228601  1
  Cs  Cs14  1  0.33257715  0.33095627  0.66660191  1
  Cs  Cs15  1  0.34130931  0.67025701  -0.00351408  1
  Cs  Cs16  1  0.33302894  0.66683814  0.33620301  1
  Cs  Cs17  1  0.33122579  0.67032043  0.66603038  1
  Cs  Cs18  1  0.66853978  -0.00204232  0.00084376  1
  Cs  Cs19  1  0.66726788  -0.00054549  0.33558029  1
  Cs  Cs20  1  0.66902130  0.00008063  0.66428961  1
  Cs  Cs21  1  0.66758322  0.33655014  -0.00130374  1
  Cs  Cs22  1  0.66601867  0.33256358  0.33334088  1
  Cs  Cs23  1  0.67406560  0.33551207  0.66800369  1
  Cs  Cs24  1  0.65813914  0.66634172  -0.00080753  1
  Cs  Cs25  1  0.66413849  0.67033004  0.33110748  1
  Cs  Cs26  1  0.66764850  0.66623218  0.66907679  1
  Sn  Sn27  1  0.16654790  0.16688425  0.50036053  1
  Sn  Sn28  1  0.16690231  0.16752624  0.83306841  1
  Sn  Sn29  1  0.49997321  0.16699757  0.83300253  1
  Sn  Sn30  1  0.83290022  0.83329859  0.50068128  1
  Sn  Sn31  1  0.49997031  0.49937446  0.50029591  1
  Sn  Sn32  1  0.49976371  0.16709152  0.50061787  1
  Sn  Sn33  1  0.83331635  0.16764109  0.16669370  1
  Sn  Sn34  1  0.50074793  0.83356507  0.50014648  1
  Sn  Sn35  1  0.83345221  0.83305562  0.83295561  1
  Sn  Sn36  1  0.83360374  0.49945157  0.16675860  1
  Sn  Sn37  1  0.16667494  0.16715170  0.16659223  1
  Sn  Sn38  1  0.16690767  0.49936059  0.83415286  1
  Sn  Sn39  1  0.50007132  0.16678237  0.16621529  1
  Sn  Sn40  1  0.16643891  0.49933574  0.16551802  1
  Pb  Pb41  1  0.16715122  0.83289652  0.16649365  1
  Pb  Pb42  1  0.49924682  0.49789505  0.16818694  1
  Pb  Pb43  1  0.83338233  0.16544455  0.49780291  1
  Pb  Pb44  1  0.16478112  0.83340831  0.83339739  1
  Pb  Pb45  1  0.49964215  0.83636708  0.16902308  1
  Pb  Pb46  1  0.49752318  0.49745666  0.83086386  1
  Pb  Pb47  1  0.16673159  0.83620409  0.49999800  1
  Pb  Pb48  1  0.83366326  0.16559944  0.83593597  1
  Pb  Pb49  1  0.83573035  0.50251957  0.83597396  1
  Pb  Pb50  1  0.16836635  0.49742759  0.49985208  1
  Pb  Pb51  1  0.50195524  0.83599121  0.83086211  1
  Pb  Pb52  1  0.83105646  0.50258524  0.49741851  1
  Pb  Pb53  1  0.83329035  0.83260335  0.16688242  1
  I  I54  1  0.16562045  0.00432054  0.16660753  1
  I  I55  1  0.17265042  0.00463252  0.49906822  1
  I  I56  1  0.17006089  0.00379563  0.83415508  1
  I  I57  1  0.16588116  0.33160059  0.16649124  1
  I  I58  1  0.17331389  0.32922220  0.49847588  1
  I  I59  1  0.17038855  0.33155701  0.83496530  1
  I  I60  1  0.15943385  0.66266726  0.16339124  1
  I  I61  1  0.16848057  0.66644274  0.49958421  1
  I  I62  1  0.16411015  0.66352834  0.83840505  1
  I  I63  1  0.50024538  0.00522673  0.16902346  1
  I  I64  1  0.50021548  0.00150943  0.49900538  1
  I  I65  1  0.49290045  0.00425648  0.83266519  1
  I  I66  1  0.49960776  0.32928628  0.17051443  1
  I  I67  1  0.49394238  0.33144898  0.49805293  1
  I  I68  1  0.49941232  0.32908842  0.83153921  1
  I  I69  1  0.50113603  0.66643005  0.16908190  1
  I  I70  1  0.50487812  0.66701341  0.49853330  1
  I  I71  1  0.49900729  0.66660005  0.83217301  1
  I  I72  1  0.83395795  0.00286911  0.16712870  1
  I  I73  1  0.82787721  -0.00241681  0.50063195  1
  I  I74  1  0.83442001  -0.00214527  0.83130109  1
  I  I75  1  0.83446523  0.33212806  0.16712682  1
  I  I76  1  0.83200716  0.33341203  0.50054167  1
  I  I77  1  0.83126368  0.33343418  0.83235382  1
  I  I78  1  0.84015883  0.66360951  0.16802060  1
  I  I79  1  0.82833120  0.67047385  0.50170778  1
  I  I80  1  0.83492757  0.67002101  0.82983940  1
  I  I81  1  0.16947866  0.16980656  0.00035090  1
  I  I82  1  0.16991774  0.16899782  0.33266873  1
  I  I83  1  0.17547936  0.16894085  0.66703829  1
  I  I84  1  0.16193054  0.49000453  0.00082993  1
  I  I85  1  0.16393023  0.49549049  0.33042039  1
  I  I86  1  0.16927571  0.49556828  0.66903035  1
  I  I87  1  0.16251706  0.83906239  -0.00017541  1
  I  I88  1  0.16368107  0.83368414  0.33354728  1
  I  I89  1  0.16757972  0.83323536  0.66656268  1
  I  I90  1  0.49690057  0.16690977  0.00031514  1
  I  I91  1  0.49716717  0.16595302  0.33386463  1
  I  I92  1  0.49169395  0.16522108  0.66573465  1
  I  I93  1  0.50253020  0.49911703  -0.00010495  1
  I  I94  1  0.49840274  0.49751914  0.33617625  1
  I  I95  1  0.49837391  0.49770862  0.66302758  1
  I  I96  1  0.50220036  0.83413233  -0.00039195  1
  I  I97  1  0.50737094  0.83566434  0.33738055  1
  I  I98  1  0.50133260  0.83662272  0.66286751  1
  I  I99  1  0.83303387  0.16656284  0.00391085  1
  I  I100  1  0.83353902  0.16692793  0.32975681  1
  I  I101  1  0.83355482  0.16564802  0.66671700  1
  I  I102  1  0.83388079  0.49669377  0.00372171  1
  I  I103  1  0.84047157  0.49677023  0.32981556  1
  I  I104  1  0.83404117  0.49971843  0.66665410  1
  I  I105  1  0.83609249  0.83588495  -0.00199012  1
  I  I106  1  0.82794977  0.83492497  0.33590279  1
  I  I107  1  0.82929392  0.83604591  0.66581252  1
  I  I108  1  0.00085576  0.16926834  0.16710563  1
  I  I109  1  0.00274949  0.16455299  0.49953838  1
  I  I110  1  0.00327399  0.16825760  0.83307046  1
  I  I111  1  0.00080128  0.49149547  0.16437294  1
  I  I112  1  0.00011084  0.50061318  0.50117802  1
  I  I113  1  0.00357353  0.49171834  0.83301979  1
  I  I114  1  -0.00014913  0.83917701  0.16945086  1
  I  I115  1  -0.00272476  0.83565407  0.50286485  1
  I  I116  1  -0.00294205  0.83668548  0.82660806  1
  I  I117  1  0.33287135  0.16982131  0.16834355  1
  I  I118  1  0.33442438  0.16452221  0.49568244  1
  I  I119  1  0.33286190  0.16886565  0.83681284  1
  I  I120  1  0.33013255  0.49444196  0.16502368  1
  I  I121  1  0.33632929  0.50405126  0.49729909  1
  I  I122  1  0.32969221  0.49839896  0.84109874  1
  I  I123  1  0.33353577  0.83255355  0.16867803  1
  I  I124  1  0.33651577  0.83286767  0.49848976  1
  I  I125  1  0.33350707  0.83224991  0.83232341  1
  I  I126  1  0.66636803  0.16935631  0.16820736  1
  I  I127  1  0.66338945  0.16694918  0.49920744  1
  I  I128  1  0.66407073  0.16333340  0.83228585  1
  I  I129  1  0.66869581  0.49559994  0.16993322  1
  I  I130  1  0.66314307  0.49290631  0.49823412  1
  I  I131  1  0.66654639  0.49977769  0.83400923  1
  I  I132  1  0.66665732  0.83397167  0.16509401  1
  I  I133  1  0.66580758  0.83721820  0.50290162  1
  I  I134  1  0.66961638  0.83550566  0.83236372  1
