# generated using pymatgen
data_Cs27Sn13Pb14I81
_symmetry_space_group_name_H-M   'P 1'
_cell_length_a   18.97209045
_cell_length_b   18.97597219
_cell_length_c   18.98465602
_cell_angle_alpha   90.00016177
_cell_angle_beta   90.00020363
_cell_angle_gamma   90.00045800
_symmetry_Int_Tables_number   1
_chemical_formula_structural   Cs27Sn13Pb14I81
_chemical_formula_sum   'Cs27 Sn13 Pb14 I81'
_cell_volume   6834.73930708
_cell_formula_units_Z   1
loop_
 _symmetry_equiv_pos_site_id
 _symmetry_equiv_pos_as_xyz
  1  'x, y, z'
loop_
 _atom_site_type_symbol
 _atom_site_label
 _atom_site_symmetry_multiplicity
 _atom_site_fract_x
 _atom_site_fract_y
 _atom_site_fract_z
 _atom_site_occupancy
  Cs  Cs0  1  0.00003799  0.00017075  -0.00221203  1
  Cs  Cs1  1  0.00281034  0.00101318  0.32898037  1
  Cs  Cs2  1  0.00071781  -0.00004130  0.66950615  1
  Cs  Cs3  1  -0.00005556  0.33492614  0.00537307  1
  Cs  Cs4  1  0.00499174  0.34029524  0.32711018  1
  Cs  Cs5  1  -0.00053227  0.33397994  0.66524566  1
  Cs  Cs6  1  0.00182103  0.66596094  0.00008392  1
  Cs  Cs7  1  -0.00787078  0.66059893  0.33483632  1
  Cs  Cs8  1  -0.00060530  0.66553811  0.66526390  1
  Cs  Cs9  1  0.33227476  -0.00184824  -0.00030610  1
  Cs  Cs10  1  0.33144117  -0.00000508  0.33431970  1
  Cs  Cs11  1  0.33183729  -0.00022023  0.66571257  1
  Cs  Cs12  1  0.33555798  0.33732904  0.00125963  1
  Cs  Cs13  1  0.33279293  0.33275238  0.33403369  1
  Cs  Cs14  1  0.33368711  0.33477463  0.66458893  1
  Cs  Cs15  1  0.33435430  0.66585971  -0.00266764  1
  Cs  Cs16  1  0.33478357  0.66849433  0.33255875  1
  Cs  Cs17  1  0.33452371  0.66604109  0.67013863  1
  Cs  Cs18  1  0.66781112  0.00078675  0.00089500  1
  Cs  Cs19  1  0.66759365  -0.00530704  0.33314090  1
  Cs  Cs20  1  0.66753441  0.00299899  0.66621778  1
  Cs  Cs21  1  0.66587097  0.33181510  0.00006780  1
  Cs  Cs22  1  0.66408047  0.33417259  0.33378076  1
  Cs  Cs23  1  0.66586307  0.33063449  0.66691695  1
  Cs  Cs24  1  0.66365500  0.66877859  -0.00027024  1
  Cs  Cs25  1  0.67279905  0.67142520  0.33491478  1
  Cs  Cs26  1  0.66633967  0.66802078  0.66520644  1
  Sn  Sn27  1  0.83377706  0.16690005  0.83270244  1
  Sn  Sn28  1  0.16642133  0.83313701  0.16660922  1
  Sn  Sn29  1  0.16662072  0.16672443  0.83326449  1
  Sn  Sn30  1  0.50004273  0.16689403  0.16696106  1
  Sn  Sn31  1  0.16584784  0.83409146  0.83309369  1
  Sn  Sn32  1  0.83390529  0.83334079  0.83316647  1
  Sn  Sn33  1  0.83318545  0.49967317  0.83331440  1
  Sn  Sn34  1  0.50032634  0.49966004  0.16790639  1
  Sn  Sn35  1  0.83350062  0.16685974  0.49996955  1
  Sn  Sn36  1  0.49957482  0.16653475  0.83335912  1
  Sn  Sn37  1  0.50075976  0.16708494  0.49973965  1
  Sn  Sn38  1  0.16631210  0.83314787  0.50020054  1
  Sn  Sn39  1  0.50014637  0.49959817  0.49916067  1
  Pb  Pb40  1  0.16928274  0.50267754  0.16669182  1
  Pb  Pb41  1  0.83598137  0.83345575  0.16413524  1
  Pb  Pb42  1  0.16920320  0.16532996  0.16408072  1
  Pb  Pb43  1  0.83579230  0.83608217  0.50217697  1
  Pb  Pb44  1  0.83105264  0.49730228  0.50191708  1
  Pb  Pb45  1  0.50207022  0.49761908  0.83305463  1
  Pb  Pb46  1  0.83129750  0.16672786  0.16707087  1
  Pb  Pb47  1  0.16912280  0.50257683  0.50010041  1
  Pb  Pb48  1  0.83038279  0.49994219  0.16436084  1
  Pb  Pb49  1  0.49842564  0.83371660  0.50008218  1
  Pb  Pb50  1  0.16430023  0.49977136  0.83324526  1
  Pb  Pb51  1  0.16635353  0.16560060  0.50161834  1
  Pb  Pb52  1  0.49839010  0.83334266  0.16670623  1
  Pb  Pb53  1  0.50006214  0.83593340  0.83319533  1
  I  I54  1  0.16974825  -0.00280568  0.16716418  1
  I  I55  1  0.16965839  -0.00259891  0.50013974  1
  I  I56  1  0.16322185  -0.00019608  0.83340016  1
  I  I57  1  0.16568611  0.33330828  0.16474948  1
  I  I58  1  0.16576072  0.33318483  0.50272208  1
  I  I59  1  0.16704395  0.32985287  0.83240875  1
  I  I60  1  0.16994114  0.67077786  0.16115304  1
  I  I61  1  0.16880155  0.67093025  0.50473766  1
  I  I62  1  0.16280418  0.67025455  0.83373824  1
  I  I63  1  0.49889173  0.00329420  0.16593650  1
  I  I64  1  0.50232042  0.00378665  0.50070167  1
  I  I65  1  0.50342757  0.00448363  0.83308906  1
  I  I66  1  0.49969827  0.33213820  0.16586369  1
  I  I67  1  0.50287666  0.33163288  0.50039161  1
  I  I68  1  0.49980105  0.32918517  0.83339129  1
  I  I69  1  0.49788817  0.66364985  0.17036390  1
  I  I70  1  0.49728536  0.66381568  0.49543580  1
  I  I71  1  0.50011464  0.66649344  0.83400651  1
  I  I72  1  0.82978549  0.00013090  0.16413540  1
  I  I73  1  0.82488206  0.00380548  0.50736177  1
  I  I74  1  0.83431481  0.00101109  0.83011023  1
  I  I75  1  0.83627433  0.33317856  0.16237263  1
  I  I76  1  0.83147081  0.32933161  0.50858365  1
  I  I77  1  0.83168075  0.33161738  0.82961838  1
  I  I78  1  0.83054670  0.66675007  0.16460010  1
  I  I79  1  0.83223299  0.66674187  0.50231361  1
  I  I80  1  0.83855020  0.66742118  0.83477542  1
  I  I81  1  0.16522844  0.16035970  -0.00442646  1
  I  I82  1  0.16731126  0.16248932  0.33324896  1
  I  I83  1  0.17064106  0.15997747  0.67020381  1
  I  I84  1  0.16952011  0.50209304  -0.00022080  1
  I  I85  1  0.16464990  0.50128982  0.33335366  1
  I  I86  1  0.17044970  0.50278077  0.66688579  1
  I  I87  1  0.16342543  0.83804417  -0.00161004  1
  I  I88  1  0.17206594  0.83439725  0.33339470  1
  I  I89  1  0.16376057  0.83814732  0.66827784  1
  I  I90  1  0.49978676  0.16965130  -0.00069805  1
  I  I91  1  0.50382833  0.17061372  0.33405773  1
  I  I92  1  0.50098510  0.16959641  0.66681586  1
  I  I93  1  0.50117226  0.49569729  0.00202697  1
  I  I94  1  0.49802214  0.49035189  0.33352328  1
  I  I95  1  0.50088106  0.49574192  0.66420794  1
  I  I96  1  0.49756948  0.83301405  -0.00023229  1
  I  I97  1  0.49594597  0.83816856  0.33339289  1
  I  I98  1  0.49627747  0.83206056  0.66681325  1
  I  I99  1  0.83235723  0.16552775  -0.00381120  1
  I  I100  1  0.82750730  0.16530775  0.33663021  1
  I  I101  1  0.82787004  0.16601918  0.66857741  1
  I  I102  1  0.83189134  0.49693638  -0.00395572  1
  I  I103  1  0.83441197  0.49897976  0.33357889  1
  I  I104  1  0.83098391  0.50164546  0.66998585  1
  I  I105  1  0.83767364  0.83736411  -0.00455243  1
  I  I106  1  0.83457237  0.83480695  0.33366939  1
  I  I107  1  0.83880993  0.83262849  0.67049052  1
  I  I108  1  0.00029204  0.16455791  0.16627310  1
  I  I109  1  -0.00267597  0.16272797  0.50817052  1
  I  I110  1  -0.00074793  0.16429711  0.82794785  1
  I  I111  1  -0.00009837  0.50096121  0.16567028  1
  I  I112  1  -0.00040183  0.49953880  0.50136067  1
  I  I113  1  -0.00365737  0.49568789  0.83260147  1
  I  I114  1  0.00407843  0.83540015  0.16749342  1
  I  I115  1  0.00363394  0.83588352  0.49951492  1
  I  I116  1  0.00063386  0.83921110  0.83375659  1
  I  I117  1  0.33751004  0.16929944  0.16703434  1
  I  I118  1  0.33651204  0.16836493  0.50164701  1
  I  I119  1  0.33359304  0.16102621  0.83328409  1
  I  I120  1  0.33732410  0.49506791  0.16799573  1
  I  I121  1  0.33743088  0.49227050  0.49832592  1
  I  I122  1  0.33371931  0.50048748  0.83381362  1
  I  I123  1  0.33030600  0.83422447  0.16199252  1
  I  I124  1  0.33028671  0.83589066  0.50409448  1
  I  I125  1  0.32988542  0.83806545  0.83363591  1
  I  I126  1  0.66269002  0.16955592  0.16081269  1
  I  I127  1  0.66548902  0.16965743  0.50656331  1
  I  I128  1  0.66687495  0.16654246  0.83280972  1
  I  I129  1  0.66239142  0.49531876  0.16944237  1
  I  I130  1  0.66289896  0.49838310  0.49709866  1
  I  I131  1  0.66988529  0.50050000  0.83367492  1
  I  I132  1  0.66672411  0.83322268  0.16461449  1
  I  I133  1  0.66703467  0.83195152  0.50170667  1
  I  I134  1  0.66982753  0.83436953  0.83319276  1
