# generated using pymatgen
data_Cs27Sn13Pb14I81
_symmetry_space_group_name_H-M   'P 1'
_cell_length_a   19.00873745
_cell_length_b   18.98135285
_cell_length_c   18.99337203
_cell_angle_alpha   90.00085637
_cell_angle_beta   90.00077224
_cell_angle_gamma   89.99984616
_symmetry_Int_Tables_number   1
_chemical_formula_structural   Cs27Sn13Pb14I81
_chemical_formula_sum   'Cs27 Sn13 Pb14 I81'
_cell_volume   6853.02805341
_cell_formula_units_Z   1
loop_
 _symmetry_equiv_pos_site_id
 _symmetry_equiv_pos_as_xyz
  1  'x, y, z'
loop_
 _atom_site_type_symbol
 _atom_site_label
 _atom_site_symmetry_multiplicity
 _atom_site_fract_x
 _atom_site_fract_y
 _atom_site_fract_z
 _atom_site_occupancy
  Cs  Cs0  1  -0.00078292  -0.00118422  0.00004645  1
  Cs  Cs1  1  0.00048267  0.00055112  0.33553308  1
  Cs  Cs2  1  0.00052599  -0.00100125  0.66441972  1
  Cs  Cs3  1  0.00100451  0.33662992  0.00157365  1
  Cs  Cs4  1  -0.00089522  0.33446729  0.33461994  1
  Cs  Cs5  1  -0.00083258  0.33477992  0.66320765  1
  Cs  Cs6  1  0.00090872  0.66670966  -0.00027928  1
  Cs  Cs7  1  -0.00175157  0.66607842  0.33379488  1
  Cs  Cs8  1  -0.00137565  0.66746680  0.66539893  1
  Cs  Cs9  1  0.33290023  0.00061744  -0.00082744  1
  Cs  Cs10  1  0.33261629  -0.00138393  0.33308796  1
  Cs  Cs11  1  0.33118898  0.00058767  0.66925684  1
  Cs  Cs12  1  0.33073402  0.33409113  -0.00025020  1
  Cs  Cs13  1  0.33108179  0.33255579  0.33272358  1
  Cs  Cs14  1  0.33337576  0.33355749  0.66734160  1
  Cs  Cs15  1  0.33186845  0.66256567  0.00201737  1
  Cs  Cs16  1  0.34292940  0.66621688  0.33493489  1
  Cs  Cs17  1  0.33426497  0.66311786  0.66412141  1
  Cs  Cs18  1  0.66818485  0.00033320  -0.00092033  1
  Cs  Cs19  1  0.66677746  -0.00170471  0.33132625  1
  Cs  Cs20  1  0.66855703  0.00056567  0.67158244  1
  Cs  Cs21  1  0.66884037  0.33244191  -0.00041857  1
  Cs  Cs22  1  0.66929131  0.33718033  0.33556639  1
  Cs  Cs23  1  0.66645464  0.33823516  0.66484566  1
  Cs  Cs24  1  0.66725129  0.66419116  0.00219931  1
  Cs  Cs25  1  0.65650923  0.65990262  0.34118596  1
  Cs  Cs26  1  0.66623097  0.65760026  0.65901485  1
  Sn  Sn27  1  0.50003307  0.16563453  0.50012213  1
  Sn  Sn28  1  0.16620685  0.16596845  0.83407986  1
  Sn  Sn29  1  0.83367808  0.16564970  0.16567319  1
  Sn  Sn30  1  0.50005767  0.16605100  0.83351356  1
  Sn  Sn31  1  0.50021920  0.83381125  0.83346797  1
  Sn  Sn32  1  0.16631286  0.16559089  0.16575463  1
  Sn  Sn33  1  0.83369290  0.83405590  0.16613230  1
  Sn  Sn34  1  0.16654890  0.49999230  0.49986280  1
  Sn  Sn35  1  0.16674680  0.83422424  0.83427508  1
  Sn  Sn36  1  0.50010936  0.16618274  0.16647919  1
  Sn  Sn37  1  0.83375021  0.16614038  0.83414632  1
  Sn  Sn38  1  0.16610096  0.83428145  0.16596678  1
  Sn  Sn39  1  0.83311498  0.83402278  0.83412845  1
  Pb  Pb40  1  0.49996806  0.49671722  0.16615316  1
  Pb  Pb41  1  0.50022959  0.83526881  0.16440097  1
  Pb  Pb42  1  0.49774260  0.49680526  0.50016483  1
  Pb  Pb43  1  0.16672297  0.83159162  0.49956711  1
  Pb  Pb44  1  0.16831066  0.16751147  0.50001398  1
  Pb  Pb45  1  0.83320855  0.83371364  0.49953718  1
  Pb  Pb46  1  0.49993998  0.49998348  0.83371380  1
  Pb  Pb47  1  0.83345810  0.50086699  0.16644468  1
  Pb  Pb48  1  0.16656659  0.50070152  0.16841740  1
  Pb  Pb49  1  0.16651396  0.50024922  0.83194988  1
  Pb  Pb50  1  0.50001521  0.83632267  0.50327997  1
  Pb  Pb51  1  0.83593486  0.49993461  0.49986797  1
  Pb  Pb52  1  0.83094442  0.16631370  0.50000701  1
  Pb  Pb53  1  0.83354867  0.50039295  0.83365007  1
  I  I54  1  0.16653416  0.00120157  0.16338375  1
  I  I55  1  0.16792124  -0.00006968  0.50037009  1
  I  I56  1  0.16766968  0.00081212  0.83574564  1
  I  I57  1  0.16727521  0.32963077  0.16315841  1
  I  I58  1  0.16902242  0.33525212  0.50048192  1
  I  I59  1  0.16799976  0.32949221  0.83672037  1
  I  I60  1  0.16077679  0.67062845  0.16165225  1
  I  I61  1  0.16653077  0.66386067  0.50154196  1
  I  I62  1  0.16665055  0.67067687  0.83684047  1
  I  I63  1  0.49928990  0.00404666  0.16888633  1
  I  I64  1  0.49748818  0.00406414  0.49715576  1
  I  I65  1  0.49956741  0.00164759  0.83281635  1
  I  I66  1  0.49916656  0.32723977  0.16324029  1
  I  I67  1  0.49996599  0.32911518  0.50320188  1
  I  I68  1  0.49959310  0.32862882  0.83300245  1
  I  I69  1  0.49924781  0.66726149  0.16576992  1
  I  I70  1  0.49983028  0.66654468  0.50099729  1
  I  I71  1  0.49896100  0.67028174  0.83379433  1
  I  I72  1  0.83403598  0.00115887  0.16206506  1
  I  I73  1  0.83531243  0.00030383  0.50046368  1
  I  I74  1  0.83258874  0.00081620  0.83693648  1
  I  I75  1  0.83327273  0.32931255  0.16254514  1
  I  I76  1  0.83212896  0.33283577  0.50042934  1
  I  I77  1  0.83251664  0.32915580  0.83730147  1
  I  I78  1  0.84127671  0.67095874  0.15995849  1
  I  I79  1  0.83295666  0.66677387  0.50117304  1
  I  I80  1  0.83471328  0.67092943  0.83808204  1
  I  I81  1  0.17130215  0.16427377  -0.00022286  1
  I  I82  1  0.16722554  0.16436433  0.32979976  1
  I  I83  1  0.16719329  0.16383440  0.67023192  1
  I  I84  1  0.16677723  0.49891994  0.00015129  1
  I  I85  1  0.16695412  0.49700740  0.33585873  1
  I  I86  1  0.16797214  0.49831016  0.66432815  1
  I  I87  1  0.16593601  0.83771460  -0.00074159  1
  I  I88  1  0.16099540  0.83814351  0.32943558  1
  I  I89  1  0.16589978  0.83755154  0.67046326  1
  I  I90  1  0.49970551  0.16305629  -0.00064875  1
  I  I91  1  0.49867515  0.16864714  0.33231351  1
  I  I92  1  0.49876101  0.16320993  0.66846668  1
  I  I93  1  0.49852049  0.49751900  -0.00014080  1
  I  I94  1  0.49915694  0.49990620  0.33345557  1
  I  I95  1  0.49925144  0.49804652  0.66672566  1
  I  I96  1  0.49945911  0.84095275  -0.00358381  1
  I  I97  1  0.49930449  0.83421214  0.33305083  1
  I  I98  1  0.49876014  0.84011664  0.67175563  1
  I  I99  1  0.82899643  0.16340338  -0.00027794  1
  I  I100  1  0.83406563  0.16304138  0.32947790  1
  I  I101  1  0.83414152  0.16229641  0.67051648  1
  I  I102  1  0.83435538  0.49800994  0.00004388  1
  I  I103  1  0.83406050  0.49818180  0.33310861  1
  I  I104  1  0.83313416  0.49938072  0.66682767  1
  I  I105  1  0.83468845  0.83882466  -0.00072458  1
  I  I106  1  0.84090735  0.83974061  0.32908975  1
  I  I107  1  0.83528693  0.83886671  0.67079710  1
  I  I108  1  0.00023040  0.16406065  0.16024608  1
  I  I109  1  0.00005849  0.16993769  0.50048959  1
  I  I110  1  0.00020043  0.16186718  0.83916876  1
  I  I111  1  0.00014721  0.49368781  0.16920889  1
  I  I112  1  0.00339779  0.49717998  0.50073301  1
  I  I113  1  0.00012070  0.49814930  0.83037146  1
  I  I114  1  0.00032811  0.84151022  0.15865547  1
  I  I115  1  0.00015387  0.83237046  0.50516192  1
  I  I116  1  0.00020506  0.83912387  0.83647510  1
  I  I117  1  0.33275300  0.16401042  0.16448424  1
  I  I118  1  0.33610239  0.16844483  0.50093155  1
  I  I119  1  0.33322075  0.16187797  0.83489287  1
  I  I120  1  0.33309536  0.50010724  0.16765085  1
  I  I121  1  0.33070916  0.50024534  0.50056376  1
  I  I122  1  0.33315385  0.49882229  0.83193070  1
  I  I123  1  0.33053011  0.83750779  0.16319127  1
  I  I124  1  0.33337049  0.83214930  0.49929241  1
  I  I125  1  0.33267029  0.84079895  0.83592897  1
  I  I126  1  0.66710270  0.16322549  0.16373362  1
  I  I127  1  0.66301008  0.16704861  0.50091852  1
  I  I128  1  0.66663857  0.16105676  0.83568019  1
  I  I129  1  0.66674091  0.50061194  0.16851706  1
  I  I130  1  0.66625501  0.50003959  0.49996011  1
  I  I131  1  0.66671337  0.49884331  0.83099154  1
  I  I132  1  0.66961383  0.83918972  0.16147472  1
  I  I133  1  0.66648416  0.83256402  0.49883505  1
  I  I134  1  0.66719762  0.84232909  0.83736723  1
