# generated using pymatgen
data_Cs27Sn14Pb13I81
_symmetry_space_group_name_H-M   'P 1'
_cell_length_a   18.97074463
_cell_length_b   18.97074462
_cell_length_c   18.98777732
_cell_angle_alpha   89.99964976
_cell_angle_beta   90.00035013
_cell_angle_gamma   90.00354886
_symmetry_Int_Tables_number   1
_chemical_formula_structural   Cs27Sn14Pb13I81
_chemical_formula_sum   'Cs27 Sn14 Pb13 I81'
_cell_volume   6833.49505572
_cell_formula_units_Z   1
loop_
 _symmetry_equiv_pos_site_id
 _symmetry_equiv_pos_as_xyz
  1  'x, y, z'
loop_
 _atom_site_type_symbol
 _atom_site_label
 _atom_site_symmetry_multiplicity
 _atom_site_fract_x
 _atom_site_fract_y
 _atom_site_fract_z
 _atom_site_occupancy
  Cs  Cs0  1  -0.00186024  0.00186026  -0.00058531  1
  Cs  Cs1  1  -0.00238778  0.00238790  0.33093894  1
  Cs  Cs2  1  -0.00181599  0.00181589  0.67217117  1
  Cs  Cs3  1  0.00122656  0.32962339  0.00245292  1
  Cs  Cs4  1  -0.00102660  0.33248084  0.33172786  1
  Cs  Cs5  1  -0.00270760  0.33453521  0.66970174  1
  Cs  Cs6  1  0.00327834  0.66840664  0.00098492  1
  Cs  Cs7  1  -0.00008145  0.66561485  0.33454792  1
  Cs  Cs8  1  -0.00004592  0.66481495  0.66398221  1
  Cs  Cs9  1  0.33159324  -0.00327847  0.00098507  1
  Cs  Cs10  1  0.33438518  0.00008139  0.33454800  1
  Cs  Cs11  1  0.33518497  0.00004563  0.66398201  1
  Cs  Cs12  1  0.33521591  0.33532847  -0.00135569  1
  Cs  Cs13  1  0.33288958  0.33336954  0.33448383  1
  Cs  Cs14  1  0.33577198  0.32607265  0.66451280  1
  Cs  Cs15  1  0.33304576  0.66695417  0.00000154  1
  Cs  Cs16  1  0.33288443  0.66711553  0.33393540  1
  Cs  Cs17  1  0.33009567  0.66990444  0.66453435  1
  Cs  Cs18  1  0.67037668  -0.00122654  0.00245301  1
  Cs  Cs19  1  0.66751924  0.00102665  0.33172789  1
  Cs  Cs20  1  0.66546466  0.00270771  0.66970164  1
  Cs  Cs21  1  0.66373843  0.33626150  -0.00359715  1
  Cs  Cs22  1  0.66852242  0.33147742  0.33193121  1
  Cs  Cs23  1  0.66739596  0.33260401  0.67555489  1
  Cs  Cs24  1  0.66467172  0.66478421  -0.00135559  1
  Cs  Cs25  1  0.66663053  0.66711034  0.33448389  1
  Cs  Cs26  1  0.67392733  0.66422794  0.66451252  1
  Sn  Sn27  1  0.50041854  0.16609591  0.16689906  1
  Sn  Sn28  1  0.16737760  0.83262240  0.16714368  1
  Sn  Sn29  1  0.49931927  0.83393386  0.16674913  1
  Sn  Sn30  1  0.16757608  0.83242387  0.83314192  1
  Sn  Sn31  1  0.49965484  0.83239242  0.50006065  1
  Sn  Sn32  1  0.49950829  0.50049172  0.49998928  1
  Sn  Sn33  1  0.16760757  0.50034518  0.50006068  1
  Sn  Sn34  1  0.83206822  0.16793180  0.16756257  1
  Sn  Sn35  1  0.16713550  0.50053355  0.83316303  1
  Sn  Sn36  1  0.16693532  0.83306464  0.49967796  1
  Sn  Sn37  1  0.83390409  0.49958147  0.16689906  1
  Sn  Sn38  1  0.16606611  0.50068075  0.16674913  1
  Sn  Sn39  1  0.49946648  0.83286443  0.83316305  1
  Sn  Sn40  1  0.83325490  0.16674516  0.49953596  1
  Pb  Pb41  1  0.50185618  0.16653073  0.49819949  1
  Pb  Pb42  1  0.49730584  0.50269418  0.82994841  1
  Pb  Pb43  1  0.83340093  0.83295770  0.16675967  1
  Pb  Pb44  1  0.49962734  0.16370188  0.83667482  1
  Pb  Pb45  1  0.83346937  0.49814381  0.49819948  1
  Pb  Pb46  1  0.83348325  0.83552658  0.49996821  1
  Pb  Pb47  1  0.49949075  0.50050932  0.16826937  1
  Pb  Pb48  1  0.83320888  0.16679112  0.83433198  1
  Pb  Pb49  1  0.83629802  0.50037265  0.83667480  1
  Pb  Pb50  1  0.16707590  0.16632748  0.83324929  1
  Pb  Pb51  1  0.83367253  0.83292413  0.83324926  1
  Pb  Pb52  1  0.16704230  0.16659910  0.16675967  1
  Pb  Pb53  1  0.16447344  0.16651678  0.49996821  1
  I  I54  1  0.16728222  -0.00352076  0.16642214  1
  I  I55  1  0.17091055  -0.00382191  0.49941060  1
  I  I56  1  0.16955125  -0.00431188  0.83400979  1
  I  I57  1  0.16553487  0.33659981  0.16704787  1
  I  I58  1  0.17039629  0.33698777  0.49880537  1
  I  I59  1  0.16432351  0.33691294  0.83416524  1
  I  I60  1  0.16624647  0.66689041  0.16658431  1
  I  I61  1  0.16960201  0.66694468  0.49927480  1
  I  I62  1  0.17016419  0.66755288  0.83456459  1
  I  I63  1  0.50019100  -0.00164870  0.16869300  1
  I  I64  1  0.49600546  -0.00351456  0.50132540  1
  I  I65  1  0.49270284  -0.00460111  0.82707604  1
  I  I66  1  0.50087813  0.33157913  0.17039497  1
  I  I67  1  0.49501387  0.33596343  0.49623275  1
  I  I68  1  0.49922867  0.33367942  0.83307866  1
  I  I69  1  0.49916531  0.66989019  0.16516366  1
  I  I70  1  0.49601004  0.66797832  0.49626599  1
  I  I71  1  0.49788324  0.67072453  0.84162270  1
  I  I72  1  0.83243378  0.00257469  0.17007724  1
  I  I73  1  0.83350472  0.00320333  0.49131534  1
  I  I74  1  0.83670477  -0.00002641  0.83548019  1
  I  I75  1  0.83456152  0.33315058  0.17149773  1
  I  I76  1  0.83406460  0.33049981  0.49514662  1
  I  I77  1  0.83544511  0.33363573  0.83102761  1
  I  I78  1  0.83553304  0.66392941  0.16667251  1
  I  I79  1  0.83286555  0.66647668  0.49855850  1
  I  I80  1  0.83046943  0.66642493  0.83456157  1
  I  I81  1  0.16358149  0.16641559  0.00029199  1
  I  I82  1  0.16745541  0.16633175  0.33320452  1
  I  I83  1  0.16330920  0.16649532  0.66646968  1
  I  I84  1  0.16109876  0.50601081  0.00083937  1
  I  I85  1  0.16606230  0.50577844  0.33322016  1
  I  I86  1  0.17069645  0.50701891  0.66587342  1
  I  I87  1  0.17226298  0.82773704  0.00065721  1
  I  I88  1  0.17239867  0.82760132  0.33313153  1
  I  I89  1  0.17246094  0.82753919  0.66626301  1
  I  I90  1  0.50646098  0.16330863  0.00477698  1
  I  I91  1  0.50192531  0.16032847  0.33035551  1
  I  I92  1  0.50248767  0.16643421  0.66658975  1
  I  I93  1  0.50060422  0.49939554  -0.00005102  1
  I  I94  1  0.49470322  0.50529705  0.33590256  1
  I  I95  1  0.49602142  0.50397869  0.66203749  1
  I  I96  1  0.49398916  0.83890141  0.00083936  1
  I  I97  1  0.49422150  0.83393757  0.33322017  1
  I  I98  1  0.49298103  0.82930343  0.66587343  1
  I  I99  1  0.83039776  0.16960237  0.00404037  1
  I  I100  1  0.83026599  0.16973393  0.33159308  1
  I  I101  1  0.83481968  0.16518010  0.66422266  1
  I  I102  1  0.83669153  0.49353901  0.00477697  1
  I  I103  1  0.83967157  0.49807485  0.33035549  1
  I  I104  1  0.83356591  0.49751246  0.66658974  1
  I  I105  1  0.83358434  0.83641844  0.00029202  1
  I  I106  1  0.83366822  0.83254458  0.33320452  1
  I  I107  1  0.83350458  0.83669087  0.66646964  1
  I  I108  1  -0.00257470  0.16756627  0.17007732  1
  I  I109  1  -0.00320331  0.16649602  0.49131540  1
  I  I110  1  0.00002645  0.16329510  0.83547996  1
  I  I111  1  0.00164872  0.49980933  0.16869297  1
  I  I112  1  0.00351456  0.50399469  0.50132535  1
  I  I113  1  0.00460113  0.50729708  0.82707628  1
  I  I114  1  0.00352077  0.83271725  0.16642217  1
  I  I115  1  0.00382192  0.82908877  0.49941066  1
  I  I116  1  0.00431186  0.83044902  0.83400962  1
  I  I117  1  0.33607060  0.16446643  0.16667260  1
  I  I118  1  0.33352329  0.16713406  0.49855846  1
  I  I119  1  0.33357506  0.16953136  0.83456155  1
  I  I120  1  0.33010977  0.50083459  0.16516391  1
  I  I121  1  0.33202168  0.50399001  0.49626586  1
  I  I122  1  0.32927543  0.50211623  0.84162264  1
  I  I123  1  0.33310959  0.83375396  0.16658431  1
  I  I124  1  0.33305533  0.83039847  0.49927483  1
  I  I125  1  0.33244710  0.82983589  0.83456458  1
  I  I126  1  0.66684940  0.16543871  0.17149762  1
  I  I127  1  0.66950023  0.16593495  0.49514660  1
  I  I128  1  0.66636426  0.16455471  0.83102774  1
  I  I129  1  0.66842087  0.49912153  0.17039475  1
  I  I130  1  0.66403655  0.50498609  0.49623288  1
  I  I131  1  0.66632059  0.50077189  0.83307885  1
  I  I132  1  0.66340021  0.83446509  0.16704781  1
  I  I133  1  0.66301231  0.82960394  0.49880537  1
  I  I134  1  0.66308703  0.83567613  0.83416534  1
