# generated using pymatgen
data_Cs27Sn14Pb13I81
_symmetry_space_group_name_H-M   'P 1'
_cell_length_a   18.97365217
_cell_length_b   18.98231611
_cell_length_c   18.97152044
_cell_angle_alpha   90.00007864
_cell_angle_beta   89.99952686
_cell_angle_gamma   90.00034194
_symmetry_Int_Tables_number   1
_chemical_formula_structural   Cs27Sn14Pb13I81
_chemical_formula_sum   'Cs27 Sn14 Pb13 I81'
_cell_volume   6832.85609251
_cell_formula_units_Z   1
loop_
 _symmetry_equiv_pos_site_id
 _symmetry_equiv_pos_as_xyz
  1  'x, y, z'
loop_
 _atom_site_type_symbol
 _atom_site_label
 _atom_site_symmetry_multiplicity
 _atom_site_fract_x
 _atom_site_fract_y
 _atom_site_fract_z
 _atom_site_occupancy
  Cs  Cs0  1  -0.00143108  0.00350997  -0.00208050  1
  Cs  Cs1  1  0.00176585  -0.00049390  0.33322340  1
  Cs  Cs2  1  -0.00017041  -0.00152665  0.66800197  1
  Cs  Cs3  1  -0.00261162  0.33403769  -0.00611129  1
  Cs  Cs4  1  0.00392439  0.33393338  0.33319169  1
  Cs  Cs5  1  -0.00910021  0.33298579  0.67457226  1
  Cs  Cs6  1  0.00127005  0.66461250  0.00046638  1
  Cs  Cs7  1  0.00236784  0.66710167  0.33230340  1
  Cs  Cs8  1  -0.00240406  0.66842863  0.66819901  1
  Cs  Cs9  1  0.33444665  0.00067127  -0.00211434  1
  Cs  Cs10  1  0.33167755  0.00150546  0.33324628  1
  Cs  Cs11  1  0.33322535  -0.00263380  0.66845673  1
  Cs  Cs12  1  0.33304818  0.33627437  0.00010249  1
  Cs  Cs13  1  0.33190565  0.33337447  0.33373994  1
  Cs  Cs14  1  0.33531231  0.33219324  0.66607245  1
  Cs  Cs15  1  0.33418996  0.66496972  -0.00039534  1
  Cs  Cs16  1  0.33115824  0.66592704  0.33315379  1
  Cs  Cs17  1  0.33435707  0.66917125  0.66719224  1
  Cs  Cs18  1  0.66642381  0.00026401  0.00679058  1
  Cs  Cs19  1  0.66773732  0.00520878  0.32530261  1
  Cs  Cs20  1  0.66609938  -0.00310160  0.66634019  1
  Cs  Cs21  1  0.66691019  0.33235097  -0.00069318  1
  Cs  Cs22  1  0.66755825  0.32722325  0.34163434  1
  Cs  Cs23  1  0.67243859  0.33243429  0.65986951  1
  Cs  Cs24  1  0.66420716  0.66814464  0.00101390  1
  Cs  Cs25  1  0.66821473  0.66715682  0.33287939  1
  Cs  Cs26  1  0.66626318  0.66749232  0.66599285  1
  Sn  Sn27  1  0.83320736  0.83335641  0.49993922  1
  Sn  Sn28  1  0.50008457  0.16676173  0.83309248  1
  Sn  Sn29  1  0.50103254  0.83341221  0.83292703  1
  Sn  Sn30  1  0.83309518  0.49976665  0.16717414  1
  Sn  Sn31  1  0.16690043  0.16691462  0.16678916  1
  Sn  Sn32  1  0.16696792  0.83344528  0.16698059  1
  Sn  Sn33  1  0.83229246  0.83302100  0.83326677  1
  Sn  Sn34  1  0.49996427  0.49963527  0.83331746  1
  Sn  Sn35  1  0.50016650  0.83341195  0.49973059  1
  Sn  Sn36  1  0.16655237  0.49990498  0.50025363  1
  Sn  Sn37  1  0.50049502  0.49988825  0.16684162  1
  Sn  Sn38  1  0.16676404  0.83313787  0.49928012  1
  Sn  Sn39  1  0.16662067  0.49989149  0.16720557  1
  Sn  Sn40  1  0.16659132  0.16688354  0.50018863  1
  Pb  Pb41  1  0.16849553  0.49998168  0.83297365  1
  Pb  Pb42  1  0.16834130  0.16683007  0.83299686  1
  Pb  Pb43  1  0.83002606  0.16373984  0.83333201  1
  Pb  Pb44  1  0.83614637  0.50222660  0.49792642  1
  Pb  Pb45  1  0.49775029  0.16971329  0.16495834  1
  Pb  Pb46  1  0.83628422  0.16370987  0.49991294  1
  Pb  Pb47  1  0.49825261  0.50186104  0.49983089  1
  Pb  Pb48  1  0.83617584  0.16987413  0.16675884  1
  Pb  Pb49  1  0.83583822  0.83186936  0.16658907  1
  Pb  Pb50  1  0.49787113  0.16377271  0.50183666  1
  Pb  Pb51  1  0.49781419  0.83170360  0.16676230  1
  Pb  Pb52  1  0.16672262  0.83322656  0.83324259  1
  Pb  Pb53  1  0.83018190  0.50240157  0.83533430  1
  I  I54  1  0.16722909  -0.00042926  0.17297441  1
  I  I55  1  0.16696114  -0.00122421  0.49376432  1
  I  I56  1  0.16963064  -0.00023015  0.83493538  1
  I  I57  1  0.16796923  0.33435011  0.17337210  1
  I  I58  1  0.16956445  0.33370816  0.49170200  1
  I  I59  1  0.16995777  0.33344787  0.83324819  1
  I  I60  1  0.16690952  0.66600094  0.17219761  1
  I  I61  1  0.16722224  0.66760835  0.49354258  1
  I  I62  1  0.16972664  0.66680630  0.83435907  1
  I  I63  1  0.49767620  0.00003024  0.16535231  1
  I  I64  1  0.49662470  -0.00451000  0.50596223  1
  I  I65  1  0.50177115  -0.00144741  0.82758380  1
  I  I66  1  0.49653121  0.33780357  0.16081037  1
  I  I67  1  0.49714226  0.33330752  0.50135227  1
  I  I68  1  0.49480336  0.33409370  0.84054747  1
  I  I69  1  0.49595348  0.66373882  0.16103600  1
  I  I70  1  0.49636505  0.67005717  0.50551952  1
  I  I71  1  0.50258361  0.66738290  0.83393975  1
  I  I72  1  0.83507875  -0.00009056  0.16603863  1
  I  I73  1  0.83569870  -0.00471891  0.50389448  1
  I  I74  1  0.82999902  -0.00430801  0.82996240  1
  I  I75  1  0.83520679  0.33781954  0.16534815  1
  I  I76  1  0.83418119  0.33347393  0.49912615  1
  I  I77  1  0.83341983  0.33353166  0.83487639  1
  I  I78  1  0.83686066  0.66405757  0.16641058  1
  I  I79  1  0.83606772  0.67037176  0.50366079  1
  I  I80  1  0.82858750  0.67012574  0.82916401  1
  I  I81  1  0.16835852  0.16686704  0.00311973  1
  I  I82  1  0.16776863  0.16610120  0.33324492  1
  I  I83  1  0.16938073  0.16379961  0.66337430  1
  I  I84  1  0.16562407  0.50070839  0.00360185  1
  I  I85  1  0.16923815  0.50128108  0.33216610  1
  I  I86  1  0.16989771  0.50265873  0.66341972  1
  I  I87  1  0.16712925  0.83184937  0.00293984  1
  I  I88  1  0.16688379  0.83246038  0.33445339  1
  I  I89  1  0.16720880  0.83343403  0.66316472  1
  I  I90  1  0.49695689  0.16033356  -0.00305193  1
  I  I91  1  0.50069695  0.16639582  0.33338021  1
  I  I92  1  0.49599406  0.17096188  0.66985634  1
  I  I93  1  0.49643963  0.50311543  0.00018016  1
  I  I94  1  0.49882494  0.50358663  0.33052460  1
  I  I95  1  0.49612812  0.50044922  0.66925189  1
  I  I96  1  0.50282465  0.83418150  -0.00289579  1
  I  I97  1  0.50034706  0.83015839  0.33603836  1
  I  I98  1  0.49719667  0.83113875  0.66707255  1
  I  I99  1  0.83701241  0.16361577  0.00000731  1
  I  I100  1  0.82905568  0.16345748  0.33330176  1
  I  I101  1  0.83717465  0.17011837  0.66668315  1
  I  I102  1  0.84079010  0.50293996  0.00318900  1
  I  I103  1  0.82947002  0.50394341  0.32995894  1
  I  I104  1  0.83440029  0.49936596  0.66659067  1
  I  I105  1  0.82879642  0.83150944  -0.00240233  1
  I  I106  1  0.83250874  0.83094105  0.33613366  1
  I  I107  1  0.83564757  0.83248189  0.66608901  1
  I  I108  1  0.00472647  0.16663713  0.17042750  1
  I  I109  1  0.00474201  0.16462162  0.49537448  1
  I  I110  1  -0.00026382  0.16505085  0.83380050  1
  I  I111  1  0.00179338  0.50140477  0.17226207  1
  I  I112  1  0.00450300  0.50284162  0.49338705  1
  I  I113  1  -0.00041352  0.50170533  0.83437707  1
  I  I114  1  0.00404349  0.83038685  0.17062786  1
  I  I115  1  0.00122127  0.83312206  0.50019968  1
  I  I116  1  -0.00235529  0.83277519  0.83029712  1
  I  I117  1  0.32952048  0.16795019  0.17038200  1
  I  I118  1  0.32962229  0.16423187  0.49599660  1
  I  I119  1  0.33631425  0.16242499  0.83361200  1
  I  I120  1  0.33216438  0.50064217  0.16545560  1
  I  I121  1  0.32994266  0.50325887  0.49455925  1
  I  I122  1  0.33675775  0.50447768  0.83926412  1
  I  I123  1  0.32958923  0.83033565  0.17026425  1
  I  I124  1  0.33236417  0.83288855  0.50116759  1
  I  I125  1  0.33655475  0.83296317  0.83042171  1
  I  I126  1  0.66648659  0.16685419  0.16471341  1
  I  I127  1  0.66658842  0.16633871  0.50165130  1
  I  I128  1  0.66212202  0.16967673  0.83383559  1
  I  I129  1  0.66595642  0.50385485  0.15927014  1
  I  I130  1  0.66674753  0.50240744  0.49858530  1
  I  I131  1  0.66210578  0.49937710  0.83921583  1
  I  I132  1  0.66661137  0.83039082  0.16915398  1
  I  I133  1  0.66633622  0.83092879  0.50710358  1
  I  I134  1  0.66532306  0.83228404  0.82472872  1
