# generated using pymatgen
data_Cs27Sn13Pb14I81
_symmetry_space_group_name_H-M   'P 1'
_cell_length_a   18.97792006
_cell_length_b   18.97201733
_cell_length_c   18.98132799
_cell_angle_alpha   90.00156178
_cell_angle_beta   89.99976756
_cell_angle_gamma   90.00064889
_symmetry_Int_Tables_number   1
_chemical_formula_structural   Cs27Sn13Pb14I81
_chemical_formula_sum   'Cs27 Sn13 Pb14 I81'
_cell_volume   6834.21628695
_cell_formula_units_Z   1
loop_
 _symmetry_equiv_pos_site_id
 _symmetry_equiv_pos_as_xyz
  1  'x, y, z'
loop_
 _atom_site_type_symbol
 _atom_site_label
 _atom_site_symmetry_multiplicity
 _atom_site_fract_x
 _atom_site_fract_y
 _atom_site_fract_z
 _atom_site_occupancy
  Cs  Cs0  1  -0.00203719  -0.00138539  -0.00010283  1
  Cs  Cs1  1  -0.00359334  -0.00233971  0.33247484  1
  Cs  Cs2  1  0.00919393  0.00027420  0.66827625  1
  Cs  Cs3  1  -0.00030477  0.33524808  0.00164199  1
  Cs  Cs4  1  0.00163640  0.33323011  0.33078873  1
  Cs  Cs5  1  0.00085361  0.33378195  0.66611602  1
  Cs  Cs6  1  0.00119165  0.66549472  0.00011709  1
  Cs  Cs7  1  -0.00399605  0.66721832  0.33378783  1
  Cs  Cs8  1  -0.00044805  0.66605628  0.66477893  1
  Cs  Cs9  1  0.33475795  -0.00059100  -0.00118428  1
  Cs  Cs10  1  0.33440379  0.00055061  0.33397243  1
  Cs  Cs11  1  0.32815305  -0.00048620  0.66687248  1
  Cs  Cs12  1  0.33364801  0.33540530  0.00340475  1
  Cs  Cs13  1  0.33186387  0.33454672  0.32957203  1
  Cs  Cs14  1  0.33073948  0.33104749  0.66661831  1
  Cs  Cs15  1  0.33310038  0.66613772  0.00307817  1
  Cs  Cs16  1  0.33608890  0.66429395  0.33094903  1
  Cs  Cs17  1  0.33309940  0.66923880  0.66296142  1
  Cs  Cs18  1  0.66646722  0.00070735  0.00042279  1
  Cs  Cs19  1  0.66817687  0.00001597  0.33179601  1
  Cs  Cs20  1  0.66488611  0.00219955  0.66987444  1
  Cs  Cs21  1  0.66626892  0.33264459  -0.00338418  1
  Cs  Cs22  1  0.66632400  0.33062609  0.33540646  1
  Cs  Cs23  1  0.66835273  0.33555376  0.66822855  1
  Cs  Cs24  1  0.66565809  0.66764444  -0.00364292  1
  Cs  Cs25  1  0.66884799  0.66729382  0.34481991  1
  Cs  Cs26  1  0.66829407  0.65998830  0.66137410  1
  Sn  Sn27  1  0.83309055  0.16631375  0.50127708  1
  Sn  Sn28  1  0.50053406  0.16644328  0.50035564  1
  Sn  Sn29  1  0.16691115  0.49991487  0.50085213  1
  Sn  Sn30  1  0.16712931  0.83441696  0.16650970  1
  Sn  Sn31  1  0.49962733  0.83405216  0.16611334  1
  Sn  Sn32  1  0.83259273  0.83396368  0.83314134  1
  Sn  Sn33  1  0.49915543  0.16589761  0.16646869  1
  Sn  Sn34  1  0.50047508  0.16597131  0.83318458  1
  Sn  Sn35  1  0.83213580  0.50011959  0.16644960  1
  Sn  Sn36  1  0.16710092  0.16539589  0.16627966  1
  Sn  Sn37  1  0.16705294  0.50002273  0.83237750  1
  Sn  Sn38  1  0.83307510  0.16581720  0.83233426  1
  Sn  Sn39  1  0.50096536  0.83398461  0.83382433  1
  Pb  Pb40  1  0.83514856  0.49727038  0.49800643  1
  Pb  Pb41  1  0.83328381  0.83647618  0.50371614  1
  Pb  Pb42  1  0.83263197  0.16765926  0.16611355  1
  Pb  Pb43  1  0.16661855  0.16772648  0.49740348  1
  Pb  Pb44  1  0.16683382  0.16812448  0.83575037  1
  Pb  Pb45  1  0.83489857  0.49981942  0.83440289  1
  Pb  Pb46  1  0.50307280  0.50060996  0.16667517  1
  Pb  Pb47  1  0.50009255  0.83588446  0.50037170  1
  Pb  Pb48  1  0.49773324  0.50027297  0.83331680  1
  Pb  Pb49  1  0.16722688  0.83130081  0.83517961  1
  Pb  Pb50  1  0.49770710  0.49699201  0.50010925  1
  Pb  Pb51  1  0.83211915  0.83122620  0.16484842  1
  Pb  Pb52  1  0.16677277  0.83089646  0.49661830  1
  Pb  Pb53  1  0.16547759  0.50044828  0.16685654  1
  I  I54  1  0.16971202  0.00042850  0.16586728  1
  I  I55  1  0.16649342  0.00019740  0.50043479  1
  I  I56  1  0.16563485  -0.00002586  0.83344826  1
  I  I57  1  0.16967619  0.33111282  0.16667125  1
  I  I58  1  0.16665937  0.33554831  0.50073941  1
  I  I59  1  0.16586273  0.33578059  0.83347257  1
  I  I60  1  0.17010795  0.66924793  0.16563063  1
  I  I61  1  0.16557459  0.66301713  0.50280853  1
  I  I62  1  0.16551572  0.66371278  0.83319090  1
  I  I63  1  0.49590540  0.00104098  0.16562097  1
  I  I64  1  0.50260977  0.00429749  0.49879456  1
  I  I65  1  0.50385257  0.00108982  0.83529135  1
  I  I66  1  0.49597803  0.32985614  0.16586279  1
  I  I67  1  0.50383969  0.32846382  0.49945367  1
  I  I68  1  0.50354588  0.32958196  0.83465817  1
  I  I69  1  0.49453331  0.67032279  0.15998919  1
  I  I70  1  0.49874177  0.66679984  0.49905734  1
  I  I71  1  0.50273752  0.67032645  0.84043446  1
  I  I72  1  0.83542101  -0.00005307  0.16846741  1
  I  I73  1  0.82999545  0.00449741  0.49704512  1
  I  I74  1  0.82984904  0.00106906  0.83191890  1
  I  I75  1  0.83640788  0.33508708  0.16494538  1
  I  I76  1  0.82910065  0.32948527  0.50577769  1
  I  I77  1  0.82968842  0.33005292  0.83181027  1
  I  I78  1  0.83722613  0.66400508  0.16353471  1
  I  I79  1  0.83477228  0.66660399  0.49941784  1
  I  I80  1  0.83053816  0.66931719  0.83821283  1
  I  I81  1  0.16964787  0.16704463  0.00358289  1
  I  I82  1  0.16993006  0.16737290  0.32954133  1
  I  I83  1  0.16859144  0.16786202  0.66679245  1
  I  I84  1  0.16443801  0.49948318  -0.00142651  1
  I  I85  1  0.16457880  0.49825603  0.33497179  1
  I  I86  1  0.16557913  0.49774341  0.66698853  1
  I  I87  1  0.16782900  0.83410670  0.00305812  1
  I  I88  1  0.17226017  0.83535636  0.32847602  1
  I  I89  1  0.16673689  0.83303069  0.66686386  1
  I  I90  1  0.50041577  0.16331469  -0.00009309  1
  I  I91  1  0.50006454  0.16428718  0.33248139  1
  I  I92  1  0.50471752  0.16413774  0.66762439  1
  I  I93  1  0.49673268  0.49463792  0.00006271  1
  I  I94  1  0.49710300  0.49940641  0.33319782  1
  I  I95  1  0.50165915  0.50040263  0.66680595  1
  I  I96  1  0.49975928  0.84129191  0.00010667  1
  I  I97  1  0.49486053  0.83685892  0.33006311  1
  I  I98  1  0.50345710  0.83706640  0.67032884  1
  I  I99  1  0.83084201  0.16515134  -0.00286950  1
  I  I100  1  0.83111115  0.17094409  0.33498598  1
  I  I101  1  0.82549420  0.16499808  0.66771778  1
  I  I102  1  0.83812656  0.49659739  0.00194860  1
  I  I103  1  0.83686324  0.49873227  0.33045887  1
  I  I104  1  0.83423888  0.50123557  0.66659609  1
  I  I105  1  0.83263848  0.84003772  -0.00297158  1
  I  I106  1  0.83437520  0.83242918  0.33336144  1
  I  I107  1  0.82715108  0.83222250  0.67170047  1
  I  I108  1  0.00197779  0.16585095  0.16691260  1
  I  I109  1  -0.00250043  0.16918301  0.50321042  1
  I  I110  1  -0.00275315  0.16424356  0.83056567  1
  I  I111  1  -0.00185955  0.49813243  0.16594783  1
  I  I112  1  0.00283058  0.49671172  0.50248886  1
  I  I113  1  0.00274240  0.49934896  0.83232773  1
  I  I114  1  0.00207649  0.83568894  0.16506795  1
  I  I115  1  -0.00005029  0.83583658  0.49917460  1
  I  I116  1  -0.00231954  0.83673577  0.83547035  1
  I  I117  1  0.33442535  0.16520537  0.16673294  1
  I  I118  1  0.33628389  0.16837969  0.50198271  1
  I  I119  1  0.33660624  0.16353331  0.83107615  1
  I  I120  1  0.33354992  0.49914240  0.16692952  1
  I  I121  1  0.32987427  0.49789968  0.50188500  1
  I  I122  1  0.32990303  0.49868582  0.83218784  1
  I  I123  1  0.33412318  0.83639816  0.16067262  1
  I  I124  1  0.33343644  0.83560029  0.50495325  1
  I  I125  1  0.33658671  0.83744721  0.83576457  1
  I  I126  1  0.66338874  0.16397660  0.16692666  1
  I  I127  1  0.66603114  0.16729811  0.49760684  1
  I  I128  1  0.66607129  0.16413082  0.83542848  1
  I  I129  1  0.67020635  0.49725401  0.16440895  1
  I  I130  1  0.66680212  0.50104600  0.49791211  1
  I  I131  1  0.66664311  0.49954771  0.83591123  1
  I  I132  1  0.66316315  0.83853287  0.16360625  1
  I  I133  1  0.66668848  0.82986803  0.49318364  1
  I  I134  1  0.66580056  0.83803351  0.84119964  1
