# generated using pymatgen
data_Cs27Sn14Pb13I81
_symmetry_space_group_name_H-M   'P 1'
_cell_length_a   18.96943429
_cell_length_b   18.98252038
_cell_length_c   18.97382813
_cell_angle_alpha   89.99784055
_cell_angle_beta   89.99868165
_cell_angle_gamma   89.99928391
_symmetry_Int_Tables_number   1
_chemical_formula_structural   Cs27Sn14Pb13I81
_chemical_formula_sum   'Cs27 Sn14 Pb13 I81'
_cell_volume   6832.24161308
_cell_formula_units_Z   1
loop_
 _symmetry_equiv_pos_site_id
 _symmetry_equiv_pos_as_xyz
  1  'x, y, z'
loop_
 _atom_site_type_symbol
 _atom_site_label
 _atom_site_symmetry_multiplicity
 _atom_site_fract_x
 _atom_site_fract_y
 _atom_site_fract_z
 _atom_site_occupancy
  Cs  Cs0  1  0.00102373  -0.00187361  0.00218336  1
  Cs  Cs1  1  0.00441478  0.01027316  0.33380264  1
  Cs  Cs2  1  -0.00246091  0.00572037  0.66367976  1
  Cs  Cs3  1  -0.00301855  0.33210927  -0.00235393  1
  Cs  Cs4  1  -0.00575120  0.32588449  0.33365521  1
  Cs  Cs5  1  0.00133957  0.33064510  0.66776047  1
  Cs  Cs6  1  0.00220229  0.66867603  -0.00176883  1
  Cs  Cs7  1  -0.00035774  0.66538587  0.33555660  1
  Cs  Cs8  1  0.00161791  0.66614149  0.66715345  1
  Cs  Cs9  1  0.33243807  -0.00334857  -0.00026511  1
  Cs  Cs10  1  0.32967017  0.00167573  0.33180556  1
  Cs  Cs11  1  0.33792884  -0.00124601  0.66802295  1
  Cs  Cs12  1  0.33692377  0.33653435  -0.00071685  1
  Cs  Cs13  1  0.33429347  0.33432715  0.33502971  1
  Cs  Cs14  1  0.33313597  0.33477803  0.66495948  1
  Cs  Cs15  1  0.32854842  0.66580449  0.00109214  1
  Cs  Cs16  1  0.33399419  0.66569830  0.33340381  1
  Cs  Cs17  1  0.33058232  0.66674885  0.66516923  1
  Cs  Cs18  1  0.66587979  -0.00107127  -0.00271333  1
  Cs  Cs19  1  0.66694263  -0.00345505  0.33501657  1
  Cs  Cs20  1  0.66457969  -0.00563268  0.66811819  1
  Cs  Cs21  1  0.66629090  0.33307156  0.00037030  1
  Cs  Cs22  1  0.66773066  0.33515708  0.33116183  1
  Cs  Cs23  1  0.66517991  0.33424941  0.66916016  1
  Cs  Cs24  1  0.66838569  0.66597462  0.00260561  1
  Cs  Cs25  1  0.66769663  0.66647837  0.33419083  1
  Cs  Cs26  1  0.66764296  0.66960202  0.66356717  1
  Sn  Sn27  1  0.49953515  0.49943907  0.49982114  1
  Sn  Sn28  1  0.83309858  0.83321337  0.16645951  1
  Sn  Sn29  1  0.83392451  0.16643620  0.83362973  1
  Sn  Sn30  1  0.16658355  0.83288183  0.49984558  1
  Sn  Sn31  1  0.50074305  0.50057000  0.83319580  1
  Sn  Sn32  1  0.50047950  0.83308349  0.16659046  1
  Sn  Sn33  1  0.49949720  0.50014836  0.16688246  1
  Sn  Sn34  1  0.16699225  0.50043005  0.49856309  1
  Sn  Sn35  1  0.50003116  0.16666457  0.16744714  1
  Sn  Sn36  1  0.50017093  0.16736395  0.49916523  1
  Sn  Sn37  1  0.16662745  0.49954095  0.16788546  1
  Sn  Sn38  1  0.16669185  0.16666482  0.83380874  1
  Sn  Sn39  1  0.83348020  0.83313016  0.83394930  1
  Sn  Sn40  1  0.83255851  0.50042718  0.83324707  1
  Pb  Pb41  1  0.83609515  0.83338829  0.49925384  1
  Pb  Pb42  1  0.83337072  0.49985218  0.50234392  1
  Pb  Pb43  1  0.16899215  0.16757780  0.50168996  1
  Pb  Pb44  1  0.50027791  0.16825678  0.83341001  1
  Pb  Pb45  1  0.16630113  0.83138446  0.16856103  1
  Pb  Pb46  1  0.16408006  0.83587642  0.83111000  1
  Pb  Pb47  1  0.49827886  0.83291820  0.49752913  1
  Pb  Pb48  1  0.16908020  0.16967474  0.16439101  1
  Pb  Pb49  1  0.82967402  0.16679977  0.50234665  1
  Pb  Pb50  1  0.83350717  0.50161164  0.16477623  1
  Pb  Pb51  1  0.83072056  0.16411306  0.16456576  1
  Pb  Pb52  1  0.50160320  0.83003786  0.83568769  1
  Pb  Pb53  1  0.16669887  0.49876482  0.83312733  1
  I  I54  1  0.16775910  0.00015794  0.16747078  1
  I  I55  1  0.16721618  -0.00156910  0.50215405  1
  I  I56  1  0.16350984  0.00349525  0.83182535  1
  I  I57  1  0.17249412  0.33758798  0.17209885  1
  I  I58  1  0.17045269  0.33651880  0.49872100  1
  I  I59  1  0.16138849  0.33122711  0.83169887  1
  I  I60  1  0.17318017  0.66343797  0.16623824  1
  I  I61  1  0.17273794  0.66476798  0.49802220  1
  I  I62  1  0.16596391  0.66659310  0.83443476  1
  I  I63  1  0.50529037  0.00000464  0.17074474  1
  I  I64  1  0.49839886  0.00223913  0.49699073  1
  I  I65  1  0.50045494  -0.00019870  0.83272202  1
  I  I66  1  0.49518436  0.33454389  0.16635728  1
  I  I67  1  0.49447047  0.33501297  0.49692278  1
  I  I68  1  0.50475410  0.33639556  0.83744498  1
  I  I69  1  0.50056125  0.66553784  0.16596433  1
  I  I70  1  0.49815456  0.66340412  0.50009112  1
  I  I71  1  0.50415775  0.66186178  0.83191114  1
  I  I72  1  0.82838551  -0.00373130  0.16067825  1
  I  I73  1  0.83365401  0.00003190  0.50303221  1
  I  I74  1  0.83824371  -0.00011504  0.83738084  1
  I  I75  1  0.83280631  0.33325628  0.16435250  1
  I  I76  1  0.83808442  0.33337171  0.50198022  1
  I  I77  1  0.83297349  0.33360227  0.83215723  1
  I  I78  1  0.82692694  0.66941135  0.15951491  1
  I  I79  1  0.82926158  0.66662099  0.50351687  1
  I  I80  1  0.82781897  0.66654967  0.83721490  1
  I  I81  1  0.16431021  0.16831348  -0.00317422  1
  I  I82  1  0.16595300  0.16457188  0.33324543  1
  I  I83  1  0.16436642  0.16933379  0.66939914  1
  I  I84  1  0.17130908  0.49845716  0.00207426  1
  I  I85  1  0.17676469  0.50462233  0.33374296  1
  I  I86  1  0.17031505  0.50198634  0.66412393  1
  I  I87  1  0.16828429  0.83250366  0.00014796  1
  I  I88  1  0.16609386  0.83134766  0.33621945  1
  I  I89  1  0.16702233  0.82521499  0.66359502  1
  I  I90  1  0.50050515  0.16851258  0.00246724  1
  I  I91  1  0.49863509  0.17191355  0.33287171  1
  I  I92  1  0.49936530  0.17246914  0.66463976  1
  I  I93  1  0.49979748  0.49885173  0.00085039  1
  I  I94  1  0.49465065  0.49932780  0.33294512  1
  I  I95  1  0.49969153  0.49365862  0.66611337  1
  I  I96  1  0.50057573  0.83505006  0.00382819  1
  I  I97  1  0.50646024  0.82881169  0.32957417  1
  I  I98  1  0.50085321  0.83440374  0.66661048  1
  I  I99  1  0.83414950  0.16988695  -0.00364306  1
  I  I100  1  0.83517841  0.16468734  0.33304391  1
  I  I101  1  0.83552031  0.16485376  0.67081576  1
  I  I102  1  0.82905845  0.49762020  -0.00348999  1
  I  I103  1  0.83109632  0.50313864  0.33316135  1
  I  I104  1  0.82915107  0.50237413  0.67089472  1
  I  I105  1  0.82883214  0.83312906  -0.00059589  1
  I  I106  1  0.82786512  0.83074934  0.33014247  1
  I  I107  1  0.83461142  0.83341779  0.66970086  1
  I  I108  1  -0.00000293  0.16646811  0.16712522  1
  I  I109  1  0.00009310  0.16653775  0.50039151  1
  I  I110  1  -0.00101864  0.17008814  0.83231201  1
  I  I111  1  0.00260091  0.50332210  0.16885733  1
  I  I112  1  0.00333317  0.50503137  0.49752713  1
  I  I113  1  -0.00258061  0.50106093  0.83389062  1
  I  I114  1  -0.00260841  0.82986315  0.16168743  1
  I  I115  1  0.00371797  0.82539565  0.49999895  1
  I  I116  1  -0.00400293  0.82689548  0.84043487  1
  I  I117  1  0.33728041  0.16203671  0.16720607  1
  I  I118  1  0.33675030  0.16882206  0.49946081  1
  I  I119  1  0.33185396  0.17055002  0.83269848  1
  I  I120  1  0.33535887  0.50220070  0.16398914  1
  I  I121  1  0.33448147  0.49999385  0.50197902  1
  I  I122  1  0.33605524  0.49619388  0.83402540  1
  I  I123  1  0.33613731  0.83422696  0.16873698  1
  I  I124  1  0.33068758  0.83117261  0.49873814  1
  I  I125  1  0.33326610  0.83434467  0.83425976  1
  I  I126  1  0.66257249  0.17360029  0.16749188  1
  I  I127  1  0.66181130  0.17325509  0.49767972  1
  I  I128  1  0.66915543  0.16575975  0.83352879  1
  I  I129  1  0.66322218  0.49839073  0.16828028  1
  I  I130  1  0.66304456  0.49608981  0.49754441  1
  I  I131  1  0.66604841  0.49688811  0.83405852  1
  I  I132  1  0.66569580  0.83121211  0.16285632  1
  I  I133  1  0.66654316  0.83371350  0.50204691  1
  I  I134  1  0.66985589  0.83910440  0.83331840  1
