# generated using pymatgen
data_Cs27Sn13Pb14I81
_symmetry_space_group_name_H-M   'P 1'
_cell_length_a   18.97596491
_cell_length_b   18.97428024
_cell_length_c   18.98039286
_cell_angle_alpha   90.00005877
_cell_angle_beta   89.99984877
_cell_angle_gamma   90.00105058
_symmetry_Int_Tables_number   1
_chemical_formula_structural   Cs27Sn13Pb14I81
_chemical_formula_sum   'Cs27 Sn13 Pb14 I81'
_cell_volume   6833.99058941
_cell_formula_units_Z   1
loop_
 _symmetry_equiv_pos_site_id
 _symmetry_equiv_pos_as_xyz
  1  'x, y, z'
loop_
 _atom_site_type_symbol
 _atom_site_label
 _atom_site_symmetry_multiplicity
 _atom_site_fract_x
 _atom_site_fract_y
 _atom_site_fract_z
 _atom_site_occupancy
  Cs  Cs0  1  0.00124805  0.00120825  0.00026418  1
  Cs  Cs1  1  -0.00024984  0.00037623  0.33427781  1
  Cs  Cs2  1  -0.00097178  -0.00219662  0.66651830  1
  Cs  Cs3  1  0.00020832  0.33389575  0.00050520  1
  Cs  Cs4  1  0.00062387  0.33430077  0.33090889  1
  Cs  Cs5  1  0.00340290  0.33592082  0.66817073  1
  Cs  Cs6  1  -0.00319578  0.66502268  -0.00126662  1
  Cs  Cs7  1  -0.00040301  0.66390004  0.33743195  1
  Cs  Cs8  1  0.00102292  0.66541297  0.66642390  1
  Cs  Cs9  1  0.33354978  -0.00422094  0.00317105  1
  Cs  Cs10  1  0.33327133  -0.00854275  0.32897111  1
  Cs  Cs11  1  0.33212217  -0.00328786  0.66665011  1
  Cs  Cs12  1  0.33353881  0.33270535  -0.00005919  1
  Cs  Cs13  1  0.33244555  0.33395884  0.33409475  1
  Cs  Cs14  1  0.33202290  0.33434878  0.66614153  1
  Cs  Cs15  1  0.33686692  0.67258713  0.00008486  1
  Cs  Cs16  1  0.33522735  0.67139854  0.33161568  1
  Cs  Cs17  1  0.33908629  0.67019430  0.66805851  1
  Cs  Cs18  1  0.66580746  -0.00102529  -0.00091917  1
  Cs  Cs19  1  0.66738573  0.00007942  0.34420102  1
  Cs  Cs20  1  0.66888831  0.00229908  0.65838330  1
  Cs  Cs21  1  0.66676771  0.33350891  0.00034145  1
  Cs  Cs22  1  0.66669645  0.33050761  0.33299125  1
  Cs  Cs23  1  0.66274858  0.33275561  0.66646245  1
  Cs  Cs24  1  0.66745718  0.66783310  0.00022048  1
  Cs  Cs25  1  0.66568682  0.66883996  0.33236656  1
  Cs  Cs26  1  0.66181669  0.66518123  0.66655829  1
  Sn  Sn27  1  0.50011884  0.16743824  0.16615755  1
  Sn  Sn28  1  0.83342012  0.16688951  0.83358754  1
  Sn  Sn29  1  0.16628962  0.49933871  0.50045528  1
  Sn  Sn30  1  0.16770254  0.49984178  0.16615555  1
  Sn  Sn31  1  0.83366171  0.49986065  0.83240607  1
  Sn  Sn32  1  0.16682090  0.16727081  0.50046005  1
  Sn  Sn33  1  0.83358602  0.49935830  0.50109868  1
  Sn  Sn34  1  0.49920498  0.49897147  0.16630525  1
  Sn  Sn35  1  0.83369586  0.83368064  0.16634842  1
  Sn  Sn36  1  0.49966485  0.16694178  0.83412914  1
  Sn  Sn37  1  0.16691281  0.16731853  0.83277785  1
  Sn  Sn38  1  0.16654644  0.49964632  0.83345657  1
  Sn  Sn39  1  0.83349048  0.83326077  0.83399507  1
  Pb  Pb40  1  0.16375025  0.83007830  0.16641982  1
  Pb  Pb41  1  0.49980805  0.49831823  0.83524978  1
  Pb  Pb42  1  0.16646697  0.83289335  0.50019492  1
  Pb  Pb43  1  0.16840992  0.16823249  0.16640843  1
  Pb  Pb44  1  0.16453287  0.83327038  0.83342318  1
  Pb  Pb45  1  0.50313178  0.83694770  0.83324229  1
  Pb  Pb46  1  0.49992342  0.83331663  0.50019532  1
  Pb  Pb47  1  0.83597120  0.16948912  0.50252368  1
  Pb  Pb48  1  0.49946228  0.49983029  0.49725406  1
  Pb  Pb49  1  0.83328462  0.50098329  0.16649314  1
  Pb  Pb50  1  0.83360930  0.83049128  0.50076482  1
  Pb  Pb51  1  0.83103176  0.16441706  0.16482889  1
  Pb  Pb52  1  0.49668057  0.16689174  0.49998021  1
  Pb  Pb53  1  0.50267631  0.83381156  0.16652777  1
  I  I54  1  0.16813810  0.00006889  0.16715818  1
  I  I55  1  0.16760644  0.00334920  0.50602900  1
  I  I56  1  0.16602748  0.00369762  0.82868870  1
  I  I57  1  0.16615411  0.33679385  0.16622203  1
  I  I58  1  0.16303557  0.33461843  0.50163251  1
  I  I59  1  0.16189568  0.33369188  0.83313305  1
  I  I60  1  0.17302640  0.66144701  0.16666228  1
  I  I61  1  0.16152613  0.66237297  0.50018949  1
  I  I62  1  0.16140137  0.66285672  0.83273110  1
  I  I63  1  0.50030483  0.00314002  0.16135665  1
  I  I64  1  0.49983660  0.00069343  0.49792964  1
  I  I65  1  0.49705437  0.00519429  0.84065891  1
  I  I66  1  0.49748250  0.33360533  0.16256275  1
  I  I67  1  0.50300906  0.33334423  0.50072412  1
  I  I68  1  0.50456908  0.33019151  0.83569670  1
  I  I69  1  0.49662558  0.66386064  0.16762347  1
  I  I70  1  0.49896015  0.66601808  0.49817494  1
  I  I71  1  0.49989014  0.66664536  0.83474592  1
  I  I72  1  0.83226224  -0.00327613  0.16020443  1
  I  I73  1  0.83385424  0.00029532  0.50002813  1
  I  I74  1  0.83336729  0.00075507  0.83951635  1
  I  I75  1  0.83397949  0.33336164  0.16589202  1
  I  I76  1  0.83521825  0.33739038  0.50339790  1
  I  I77  1  0.83448086  0.33370084  0.82962204  1
  I  I78  1  0.83216201  0.66855971  0.16036649  1
  I  I79  1  0.84042396  0.66251724  0.50432853  1
  I  I80  1  0.83892534  0.66528908  0.83394977  1
  I  I81  1  0.16413271  0.17132934  -0.00343092  1
  I  I82  1  0.16780268  0.17225329  0.33568992  1
  I  I83  1  0.16764171  0.17477806  0.66835521  1
  I  I84  1  0.16446761  0.49540880  -0.00113765  1
  I  I85  1  0.16493700  0.49577686  0.33382164  1
  I  I86  1  0.15959631  0.49476789  0.66739764  1
  I  I87  1  0.16702738  0.83371027  -0.00010041  1
  I  I88  1  0.16428001  0.83447656  0.33319890  1
  I  I89  1  0.16404795  0.83001880  0.66692448  1
  I  I90  1  0.49886645  0.17140673  -0.00096086  1
  I  I91  1  0.49941747  0.17094590  0.33042858  1
  I  I92  1  0.50310673  0.16652827  0.66998856  1
  I  I93  1  0.49715422  0.49749903  0.00307306  1
  I  I94  1  0.49769937  0.49432398  0.32923939  1
  I  I95  1  0.49901958  0.49915354  0.66687433  1
  I  I96  1  0.49951223  0.83146016  -0.00013402  1
  I  I97  1  0.50310642  0.83485421  0.33276499  1
  I  I98  1  0.50194847  0.83321046  0.66723959  1
  I  I99  1  0.83840751  0.17229753  -0.00411501  1
  I  I100  1  0.83277264  0.16600308  0.33363062  1
  I  I101  1  0.82795003  0.16140634  0.67114924  1
  I  I102  1  0.83656372  0.49853975  -0.00320616  1
  I  I103  1  0.83676199  0.50287131  0.33537620  1
  I  I104  1  0.84107054  0.50155601  0.66830284  1
  I  I105  1  0.83338666  0.82990837  -0.00155962  1
  I  I106  1  0.83225296  0.83002206  0.33112759  1
  I  I107  1  0.83394607  0.83599747  0.67019267  1
  I  I108  1  0.00008549  0.16721438  0.16581429  1
  I  I109  1  0.00379548  0.16890865  0.50437098  1
  I  I110  1  0.00011789  0.16742878  0.82922265  1
  I  I111  1  0.00263222  0.50189296  0.16660235  1
  I  I112  1  0.00089412  0.49727677  0.49857241  1
  I  I113  1  -0.00002413  0.49619517  0.83512378  1
  I  I114  1  -0.00374375  0.83203510  0.16126080  1
  I  I115  1  -0.00020266  0.83494315  0.49913437  1
  I  I116  1  -0.00373678  0.83669827  0.83702225  1
  I  I117  1  0.33633767  0.16896790  0.16075903  1
  I  I118  1  0.32904447  0.17561611  0.50658654  1
  I  I119  1  0.33231142  0.17358892  0.83288827  1
  I  I120  1  0.33252698  0.49539850  0.16677723  1
  I  I121  1  0.32947406  0.49541603  0.50293875  1
  I  I122  1  0.33005285  0.49457121  0.83081276  1
  I  I123  1  0.33344075  0.83425132  0.16779914  1
  I  I124  1  0.33294236  0.83142934  0.49898377  1
  I  I125  1  0.33345928  0.83242633  0.83297354  1
  I  I126  1  0.66310080  0.17428724  0.16038518  1
  I  I127  1  0.66675538  0.16697460  0.50048696  1
  I  I128  1  0.66722111  0.16710188  0.83930417  1
  I  I129  1  0.66448603  0.49828019  0.16591536  1
  I  I130  1  0.66948469  0.50175486  0.50424322  1
  I  I131  1  0.66977982  0.49946589  0.83098281  1
  I  I132  1  0.67006120  0.82921583  0.16071751  1
  I  I133  1  0.66736870  0.83240240  0.49925170  1
  I  I134  1  0.67131470  0.82982075  0.83830659  1
