# generated using pymatgen
data_Cs27Sn14Pb13I81
_symmetry_space_group_name_H-M   'P 1'
_cell_length_a   18.97110818
_cell_length_b   18.99319878
_cell_length_c   18.96593882
_cell_angle_alpha   90.00016547
_cell_angle_beta   89.99901811
_cell_angle_gamma   89.99961038
_symmetry_Int_Tables_number   1
_chemical_formula_structural   Cs27Sn14Pb13I81
_chemical_formula_sum   'Cs27 Sn14 Pb13 I81'
_cell_volume   6833.84554839
_cell_formula_units_Z   1
loop_
 _symmetry_equiv_pos_site_id
 _symmetry_equiv_pos_as_xyz
  1  'x, y, z'
loop_
 _atom_site_type_symbol
 _atom_site_label
 _atom_site_symmetry_multiplicity
 _atom_site_fract_x
 _atom_site_fract_y
 _atom_site_fract_z
 _atom_site_occupancy
  Cs  Cs0  1  0.00313526  -0.00033545  -0.00011031  1
  Cs  Cs1  1  0.00153578  -0.00097813  0.33410498  1
  Cs  Cs2  1  -0.00120869  0.00150606  0.66536669  1
  Cs  Cs3  1  -0.00028279  0.33411559  0.00045295  1
  Cs  Cs4  1  0.00072802  0.33212156  0.33440637  1
  Cs  Cs5  1  -0.00291961  0.33352597  0.66552187  1
  Cs  Cs6  1  0.00122677  0.66610004  0.00029704  1
  Cs  Cs7  1  0.00011569  0.67028549  0.33131824  1
  Cs  Cs8  1  -0.00139315  0.66290312  0.66744102  1
  Cs  Cs9  1  0.33131144  -0.00047221  -0.00068703  1
  Cs  Cs10  1  0.33026170  0.00037652  0.33245577  1
  Cs  Cs11  1  0.33386704  0.00263718  0.66765361  1
  Cs  Cs12  1  0.33304776  0.33213925  -0.00068679  1
  Cs  Cs13  1  0.33365685  0.33491170  0.33499630  1
  Cs  Cs14  1  0.33341811  0.33367810  0.66523092  1
  Cs  Cs15  1  0.33084171  0.66874482  -0.00189013  1
  Cs  Cs16  1  0.33725731  0.66468287  0.33599082  1
  Cs  Cs17  1  0.33392334  0.66118381  0.66495453  1
  Cs  Cs18  1  0.66507657  0.00113480  0.00087318  1
  Cs  Cs19  1  0.66580334  -0.00683083  0.32809600  1
  Cs  Cs20  1  0.66756300  0.00046001  0.66668449  1
  Cs  Cs21  1  0.66738815  0.33404052  0.00153751  1
  Cs  Cs22  1  0.66611354  0.33372294  0.32563996  1
  Cs  Cs23  1  0.66943829  0.33223433  0.66831711  1
  Cs  Cs24  1  0.66690924  0.66449426  -0.00040128  1
  Cs  Cs25  1  0.65914973  0.67420155  0.32847536  1
  Cs  Cs26  1  0.66701523  0.66762525  0.66737572  1
  Sn  Sn27  1  0.16671214  0.83322352  0.16784261  1
  Sn  Sn28  1  0.83256932  0.16651168  0.83283919  1
  Sn  Sn29  1  0.50086984  0.16668132  0.50026261  1
  Sn  Sn30  1  0.16662220  0.83373801  0.50002344  1
  Sn  Sn31  1  0.83242446  0.49967384  0.83260278  1
  Sn  Sn32  1  0.50075039  0.83360030  0.83284306  1
  Sn  Sn33  1  0.50072577  0.49951680  0.83305126  1
  Sn  Sn34  1  0.16648306  0.16699971  0.16761645  1
  Sn  Sn35  1  0.16668091  0.49989217  0.16693759  1
  Sn  Sn36  1  0.83273931  0.83367286  0.83316556  1
  Sn  Sn37  1  0.50097631  0.16676119  0.83242439  1
  Sn  Sn38  1  0.16666579  0.16607701  0.49934991  1
  Sn  Sn39  1  0.83231573  0.16731398  0.50010181  1
  Sn  Sn40  1  0.83270645  0.49973170  0.49956874  1
  Pb  Pb41  1  0.49737082  0.83343363  0.16395779  1
  Pb  Pb42  1  0.16666421  0.83335055  0.83229956  1
  Pb  Pb43  1  0.83491806  0.83346787  0.50179306  1
  Pb  Pb44  1  0.83477846  0.50005322  0.16715639  1
  Pb  Pb45  1  0.16461907  0.49974820  0.49815286  1
  Pb  Pb46  1  0.83538999  0.83340446  0.16370237  1
  Pb  Pb47  1  0.16625531  0.49982819  0.83496888  1
  Pb  Pb48  1  0.49763204  0.16661773  0.16661196  1
  Pb  Pb49  1  0.49766020  0.49994617  0.16401598  1
  Pb  Pb50  1  0.49760575  0.83572098  0.50244276  1
  Pb  Pb51  1  0.16642838  0.16680911  0.83241946  1
  Pb  Pb52  1  0.50331983  0.49750575  0.50188144  1
  Pb  Pb53  1  0.83548276  0.16654335  0.16697540  1
  I  I54  1  0.16648727  0.00021645  0.17040226  1
  I  I55  1  0.16470865  0.00158390  0.49257352  1
  I  I56  1  0.16648183  0.00011845  0.83868613  1
  I  I57  1  0.16617204  0.33245126  0.16913863  1
  I  I58  1  0.16797668  0.33008756  0.49637357  1
  I  I59  1  0.16746507  0.33317250  0.83546497  1
  I  I60  1  0.16535240  0.66728539  0.16815496  1
  I  I61  1  0.16433390  0.66895380  0.49689070  1
  I  I62  1  0.16670139  0.66673673  0.83436670  1
  I  I63  1  0.49713777  0.00012639  0.16315260  1
  I  I64  1  0.50368120  0.00397561  0.50675174  1
  I  I65  1  0.50493710  0.00085082  0.83008525  1
  I  I66  1  0.49570183  0.33316170  0.16371559  1
  I  I67  1  0.49213095  0.32940367  0.50636110  1
  I  I68  1  0.50453904  0.33257330  0.83039239  1
  I  I69  1  0.49648856  0.66670829  0.16534242  1
  I  I70  1  0.49779239  0.66660254  0.50190732  1
  I  I71  1  0.50510183  0.66656903  0.83575485  1
  I  I72  1  0.83705113  0.00007890  0.16582193  1
  I  I73  1  0.83385899  0.00333058  0.50538520  1
  I  I74  1  0.82899947  0.00094801  0.82983784  1
  I  I75  1  0.83810201  0.33321456  0.16156871  1
  I  I76  1  0.83760134  0.33183059  0.50957339  1
  I  I77  1  0.82870816  0.33295677  0.82966473  1
  I  I78  1  0.83916301  0.66668503  0.16596185  1
  I  I79  1  0.83885315  0.66429376  0.50645064  1
  I  I80  1  0.82907268  0.66611626  0.83011604  1
  I  I81  1  0.16666730  0.16525677  0.00235184  1
  I  I82  1  0.16625826  0.16572516  0.33443732  1
  I  I83  1  0.16657963  0.16098447  0.66321935  1
  I  I84  1  0.16537920  0.50030391  0.00312800  1
  I  I85  1  0.16374081  0.49935271  0.33024278  1
  I  I86  1  0.16808993  0.50060855  0.66643414  1
  I  I87  1  0.16671550  0.83437319  0.00235159  1
  I  I88  1  0.16504659  0.83545266  0.33336133  1
  I  I89  1  0.16628688  0.84092678  0.66383776  1
  I  I90  1  0.50290335  0.16673730  -0.00378588  1
  I  I91  1  0.50171934  0.16727682  0.33674911  1
  I  I92  1  0.49689864  0.16627093  0.66759487  1
  I  I93  1  0.50653213  0.49664520  -0.00470536  1
  I  I94  1  0.50043990  0.49808406  0.33363324  1
  I  I95  1  0.49870853  0.50249043  0.67046355  1
  I  I96  1  0.50133646  0.83652797  -0.00456837  1
  I  I97  1  0.50079196  0.83471413  0.33363558  1
  I  I98  1  0.50093138  0.83190855  0.67069525  1
  I  I99  1  0.83039412  0.16767930  -0.00361453  1
  I  I100  1  0.83220109  0.17278926  0.33714469  1
  I  I101  1  0.83628481  0.16726141  0.66711086  1
  I  I102  1  0.83122750  0.49918359  -0.00365326  1
  I  I103  1  0.83830023  0.49193638  0.33662590  1
  I  I104  1  0.83245933  0.49857965  0.66812202  1
  I  I105  1  0.83219676  0.83328837  -0.00500623  1
  I  I106  1  0.83410621  0.83329846  0.33355470  1
  I  I107  1  0.83320033  0.83380271  0.67024682  1
  I  I108  1  0.00392586  0.16613977  0.16905789  1
  I  I109  1  -0.00017017  0.16662862  0.50069688  1
  I  I110  1  -0.00325571  0.16674602  0.83127137  1
  I  I111  1  0.00316006  0.49957796  0.16298969  1
  I  I112  1  -0.00302902  0.49374995  0.50819415  1
  I  I113  1  -0.00367845  0.49987469  0.83140385  1
  I  I114  1  0.00398376  0.83413210  0.16745350  1
  I  I115  1  0.00299304  0.83957226  0.49867878  1
  I  I116  1  -0.00288237  0.83356602  0.83419025  1
  I  I117  1  0.32919752  0.16600783  0.16896479  1
  I  I118  1  0.33299298  0.16162264  0.50093149  1
  I  I119  1  0.33632603  0.16611057  0.83151869  1
  I  I120  1  0.32926759  0.49940370  0.16560901  1
  I  I121  1  0.33352839  0.49942777  0.50107811  1
  I  I122  1  0.33635924  0.50023800  0.83615147  1
  I  I123  1  0.32898456  0.83460396  0.16723566  1
  I  I124  1  0.32949154  0.83873053  0.49808493  1
  I  I125  1  0.33613499  0.83437547  0.83484024  1
  I  I126  1  0.66660394  0.16744556  0.16825750  1
  I  I127  1  0.66740479  0.17215166  0.50873888  1
  I  I128  1  0.66694657  0.16622614  0.82599065  1
  I  I129  1  0.66661602  0.49930127  0.16738473  1
  I  I130  1  0.67125163  0.49477085  0.50340438  1
  I  I131  1  0.66751170  0.49997582  0.83001806  1
  I  I132  1  0.66645420  0.83285036  0.16837660  1
  I  I133  1  0.66657406  0.83360745  0.49943788  1
  I  I134  1  0.66696509  0.83364002  0.83211624  1
