# generated using pymatgen
data_Cs27Sn14Pb13I81
_symmetry_space_group_name_H-M   'P 1'
_cell_length_a   18.97629716
_cell_length_b   18.99027419
_cell_length_c   18.96433927
_cell_angle_alpha   90.00051004
_cell_angle_beta   90.00000002
_cell_angle_gamma   90.00000001
_symmetry_Int_Tables_number   1
_chemical_formula_structural   Cs27Sn14Pb13I81
_chemical_formula_sum   'Cs27 Sn14 Pb13 I81'
_cell_volume   6834.08575687
_cell_formula_units_Z   1
loop_
 _symmetry_equiv_pos_site_id
 _symmetry_equiv_pos_as_xyz
  1  'x, y, z'
loop_
 _atom_site_type_symbol
 _atom_site_label
 _atom_site_symmetry_multiplicity
 _atom_site_fract_x
 _atom_site_fract_y
 _atom_site_fract_z
 _atom_site_occupancy
  Cs  Cs0  1  -0.00201197  0.00075910  -0.00010107  1
  Cs  Cs1  1  0.00413944  0.00367075  0.33388759  1
  Cs  Cs2  1  -0.00002685  -0.00171212  0.66655203  1
  Cs  Cs3  1  -0.00258070  0.33511856  -0.00193332  1
  Cs  Cs4  1  0.00031450  0.32882803  0.33579448  1
  Cs  Cs5  1  -0.00120277  0.33321086  0.66872955  1
  Cs  Cs6  1  0.00057283  0.66306384  0.00069361  1
  Cs  Cs7  1  0.00161893  0.66723616  0.33345966  1
  Cs  Cs8  1  0.00252158  0.66844506  0.66461034  1
  Cs  Cs9  1  0.33534538  0.00075897  -0.00010115  1
  Cs  Cs10  1  0.32919389  0.00367071  0.33388755  1
  Cs  Cs11  1  0.33336022  -0.00171236  0.66655184  1
  Cs  Cs12  1  0.33591426  0.33511871  -0.00193332  1
  Cs  Cs13  1  0.33301869  0.32882806  0.33579451  1
  Cs  Cs14  1  0.33453630  0.33321089  0.66872926  1
  Cs  Cs15  1  0.33276050  0.66306394  0.00069368  1
  Cs  Cs16  1  0.33171445  0.66723622  0.33345966  1
  Cs  Cs17  1  0.33081168  0.66844508  0.66461026  1
  Cs  Cs18  1  0.66666662  0.00099291  -0.00059165  1
  Cs  Cs19  1  0.66666670  0.00023416  0.33249905  1
  Cs  Cs20  1  0.66666661  -0.00962794  0.66249146  1
  Cs  Cs21  1  0.66666664  0.33258157  0.00062469  1
  Cs  Cs22  1  0.66666671  0.33626460  0.33419633  1
  Cs  Cs23  1  0.66666663  0.33414264  0.66428997  1
  Cs  Cs24  1  0.66666672  0.66656896  0.00077342  1
  Cs  Cs25  1  0.66666681  0.66366380  0.33393141  1
  Cs  Cs26  1  0.66666670  0.67393791  0.66006131  1
  Sn  Sn27  1  0.16666666  0.83391428  0.83356296  1
  Sn  Sn28  1  0.50064001  0.49974822  0.16584327  1
  Sn  Sn29  1  0.16666665  0.83250060  0.50061374  1
  Sn  Sn30  1  0.50095928  0.16702249  0.83355291  1
  Sn  Sn31  1  0.50162885  0.49979959  0.83359999  1
  Sn  Sn32  1  0.83170450  0.49979959  0.83360001  1
  Sn  Sn33  1  0.50095307  0.16689955  0.16579999  1
  Sn  Sn34  1  0.16666672  0.16576579  0.83373938  1
  Sn  Sn35  1  0.83238032  0.16689953  0.16579994  1
  Sn  Sn36  1  0.83273654  0.83334795  0.16629619  1
  Sn  Sn37  1  0.83269333  0.49974821  0.16584327  1
  Sn  Sn38  1  0.50059688  0.83334791  0.16629621  1
  Sn  Sn39  1  0.83237404  0.16702250  0.83355293  1
  Sn  Sn40  1  0.16666666  0.50005631  0.50010933  1
  Pb  Pb41  1  0.16666667  0.16657639  0.50331232  1
  Pb  Pb42  1  0.83521626  0.49993413  0.50028581  1
  Pb  Pb43  1  0.16666669  0.49981556  0.83200800  1
  Pb  Pb44  1  0.16666663  0.83338482  0.16627612  1
  Pb  Pb45  1  0.50042048  0.16669678  0.50043588  1
  Pb  Pb46  1  0.83571388  0.83336281  0.49645610  1
  Pb  Pb47  1  0.83291282  0.16669678  0.50043588  1
  Pb  Pb48  1  0.49820372  0.83296598  0.83528156  1
  Pb  Pb49  1  0.49761945  0.83336277  0.49645605  1
  Pb  Pb50  1  0.83512959  0.83296603  0.83528153  1
  Pb  Pb51  1  0.49811708  0.49993411  0.50028571  1
  Pb  Pb52  1  0.16666667  0.49963151  0.16887104  1
  Pb  Pb53  1  0.16666668  0.16701303  0.16376687  1
  I  I54  1  0.16666663  0.00005988  0.17143211  1
  I  I55  1  0.16666666  -0.00268653  0.50092927  1
  I  I56  1  0.16666669  0.00057369  0.82814450  1
  I  I57  1  0.16666645  0.33331701  0.16868744  1
  I  I58  1  0.16666660  0.33551128  0.49950645  1
  I  I59  1  0.16666656  0.33082800  0.83229245  1
  I  I60  1  0.16666672  0.66666042  0.16261126  1
  I  I61  1  0.16666681  0.66748278  0.50656809  1
  I  I62  1  0.16666666  0.66859603  0.83101995  1
  I  I63  1  0.50493976  0.00086143  0.16289689  1
  I  I64  1  0.49630291  -0.00010808  0.50049683  1
  I  I65  1  0.50079446  0.00298994  0.83799982  1
  I  I66  1  0.50481196  0.33330977  0.16276748  1
  I  I67  1  0.49481888  0.33346385  0.49543659  1
  I  I68  1  0.49646876  0.33297881  0.84092774  1
  I  I69  1  0.50471214  0.66584944  0.16319159  1
  I  I70  1  0.49966838  0.66666253  0.50050138  1
  I  I71  1  0.50150634  0.66364104  0.83860156  1
  I  I72  1  0.82839358  0.00086142  0.16289662  1
  I  I73  1  0.83703041  -0.00010814  0.50049703  1
  I  I74  1  0.83253885  0.00298995  0.83799989  1
  I  I75  1  0.82852150  0.33330977  0.16276765  1
  I  I76  1  0.83851442  0.33346385  0.49543637  1
  I  I77  1  0.83686466  0.33297883  0.84092769  1
  I  I78  1  0.82862112  0.66584944  0.16319184  1
  I  I79  1  0.83366469  0.66666248  0.50050108  1
  I  I80  1  0.83182700  0.66364104  0.83860151  1
  I  I81  1  0.16666640  0.16055084  -0.00423544  1
  I  I82  1  0.16666678  0.16542884  0.33335081  1
  I  I83  1  0.16666658  0.16590845  0.67145093  1
  I  I84  1  0.16666655  0.50149293  -0.00020395  1
  I  I85  1  0.16666712  0.50827231  0.33660394  1
  I  I86  1  0.16666628  0.50171495  0.66438721  1
  I  I87  1  0.16666690  0.83804652  -0.00260585  1
  I  I88  1  0.16666689  0.82799676  0.33555053  1
  I  I89  1  0.16666641  0.83334570  0.66736040  1
  I  I90  1  0.49960989  0.16722884  0.00009271  1
  I  I91  1  0.50391225  0.16744071  0.32921326  1
  I  I92  1  0.49868831  0.17291919  0.67107546  1
  I  I93  1  0.50171275  0.49898991  0.00046891  1
  I  I94  1  0.50352241  0.49961514  0.32956247  1
  I  I95  1  0.50217901  0.49350167  0.67044867  1
  I  I96  1  0.50061765  0.83368350  0.00353027  1
  I  I97  1  0.50225007  0.83284069  0.32805609  1
  I  I98  1  0.49968720  0.83354223  0.66682206  1
  I  I99  1  0.83372360  0.16722905  0.00009271  1
  I  I100  1  0.82942092  0.16744047  0.32921328  1
  I  I101  1  0.83464508  0.17291921  0.67107551  1
  I  I102  1  0.83162065  0.49898995  0.00046893  1
  I  I103  1  0.82981059  0.49961509  0.32956251  1
  I  I104  1  0.83115445  0.49350181  0.67044871  1
  I  I105  1  0.83271549  0.83368320  0.00353024  1
  I  I106  1  0.83108313  0.83284100  0.32805610  1
  I  I107  1  0.83364640  0.83354201  0.66682210  1
  I  I108  1  -0.00353173  0.16610433  0.16368540  1
  I  I109  1  0.00012265  0.16659876  0.49768910  1
  I  I110  1  -0.00093758  0.16743274  0.83699350  1
  I  I111  1  -0.00369457  0.50090796  0.16253899  1
  I  I112  1  0.00305793  0.50471745  0.50045939  1
  I  I113  1  -0.00267853  0.49684441  0.83719189  1
  I  I114  1  -0.00299784  0.83318101  0.16665146  1
  I  I115  1  0.00365450  0.82907732  0.50269616  1
  I  I116  1  0.00313393  0.83706841  0.83226005  1
  I  I117  1  0.33686505  0.16610454  0.16368518  1
  I  I118  1  0.33321074  0.16659880  0.49768928  1
  I  I119  1  0.33427092  0.16743293  0.83699375  1
  I  I120  1  0.33702787  0.50090772  0.16253860  1
  I  I121  1  0.33027547  0.50471717  0.50046020  1
  I  I122  1  0.33601187  0.49684434  0.83719185  1
  I  I123  1  0.33633113  0.83318106  0.16665149  1
  I  I124  1  0.32967886  0.82907756  0.50269669  1
  I  I125  1  0.33019939  0.83706842  0.83225968  1
  I  I126  1  0.66666669  0.16573453  0.15922874  1
  I  I127  1  0.66666665  0.16706935  0.50369425  1
  I  I128  1  0.66666666  0.17290216  0.83965067  1
  I  I129  1  0.66666666  0.50044113  0.16347003  1
  I  I130  1  0.66666669  0.49941163  0.49955906  1
  I  I131  1  0.66666667  0.49136315  0.83838554  1
  I  I132  1  0.66666661  0.83353138  0.16508349  1
  I  I133  1  0.66666668  0.83390185  0.50239129  1
  I  I134  1  0.66666668  0.83564664  0.83215049  1
