# generated using pymatgen
data_Cs27Sn14Pb13I81
_symmetry_space_group_name_H-M   'P 1'
_cell_length_a   18.96363501
_cell_length_b   18.96199756
_cell_length_c   18.95866364
_cell_angle_alpha   90.00176197
_cell_angle_beta   89.99837779
_cell_angle_gamma   89.99728200
_symmetry_Int_Tables_number   1
_chemical_formula_structural   Cs27Sn14Pb13I81
_chemical_formula_sum   'Cs27 Sn14 Pb13 I81'
_cell_volume   6817.31552846
_cell_formula_units_Z   1
loop_
 _symmetry_equiv_pos_site_id
 _symmetry_equiv_pos_as_xyz
  1  'x, y, z'
loop_
 _atom_site_type_symbol
 _atom_site_label
 _atom_site_symmetry_multiplicity
 _atom_site_fract_x
 _atom_site_fract_y
 _atom_site_fract_z
 _atom_site_occupancy
  Cs  Cs0  1  -0.00214318  0.00145251  0.00334162  1
  Cs  Cs1  1  0.00055046  -0.00404521  0.32787071  1
  Cs  Cs2  1  0.00171317  -0.00073612  0.66722079  1
  Cs  Cs3  1  0.00051523  0.33416848  0.00278986  1
  Cs  Cs4  1  0.00193384  0.33351452  0.33064403  1
  Cs  Cs5  1  -0.00178391  0.33294139  0.66675479  1
  Cs  Cs6  1  0.00266933  0.66301150  -0.00229840  1
  Cs  Cs7  1  -0.00325957  0.67144778  0.33725183  1
  Cs  Cs8  1  0.00020081  0.67031801  0.66509233  1
  Cs  Cs9  1  0.33388188  -0.00224585  0.00002400  1
  Cs  Cs10  1  0.33311708  0.00079414  0.33515419  1
  Cs  Cs11  1  0.33241875  0.00054872  0.66552885  1
  Cs  Cs12  1  0.33050519  0.34021187  0.00284530  1
  Cs  Cs13  1  0.33267554  0.33325186  0.33393045  1
  Cs  Cs14  1  0.33395135  0.33164704  0.66469126  1
  Cs  Cs15  1  0.33674784  0.66185532  -0.00275169  1
  Cs  Cs16  1  0.33399236  0.66612412  0.33139751  1
  Cs  Cs17  1  0.33065975  0.66898105  0.67209818  1
  Cs  Cs18  1  0.66784867  -0.00190339  0.00144249  1
  Cs  Cs19  1  0.66585270  -0.00134952  0.33002431  1
  Cs  Cs20  1  0.66519872  0.00444983  0.66789124  1
  Cs  Cs21  1  0.66860893  0.33407849  -0.00133385  1
  Cs  Cs22  1  0.66577978  0.33311580  0.33669306  1
  Cs  Cs23  1  0.66697646  0.33186883  0.66610232  1
  Cs  Cs24  1  0.66079301  0.66736526  0.00177031  1
  Cs  Cs25  1  0.66918175  0.66898935  0.33201447  1
  Cs  Cs26  1  0.66923932  0.66486285  0.66622852  1
  Sn  Sn27  1  0.83317997  0.83352651  0.83317648  1
  Sn  Sn28  1  0.83315392  0.49978919  0.16612321  1
  Sn  Sn29  1  0.16622507  0.16725422  0.50043162  1
  Sn  Sn30  1  0.50003440  0.16669314  0.50002082  1
  Sn  Sn31  1  0.16658856  0.16690052  0.83298001  1
  Sn  Sn32  1  0.49958164  0.16694177  0.83390200  1
  Sn  Sn33  1  0.83382547  0.16650802  0.50000042  1
  Sn  Sn34  1  0.16735445  0.49944796  0.50029873  1
  Sn  Sn35  1  0.83326406  0.49994044  0.83424297  1
  Sn  Sn36  1  0.49901585  0.50036316  0.50024986  1
  Sn  Sn37  1  0.50009376  0.83317534  0.50039623  1
  Sn  Sn38  1  0.49990639  0.16702845  0.16643290  1
  Sn  Sn39  1  0.16715142  0.83305695  0.16625278  1
  Sn  Sn40  1  0.83366983  0.16665073  0.83265767  1
  Pb  Pb41  1  0.49815159  0.83515662  0.16845041  1
  Pb  Pb42  1  0.16892923  0.16571755  0.16673545  1
  Pb  Pb43  1  0.83143968  0.16797502  0.16647382  1
  Pb  Pb44  1  0.83476974  0.83064322  0.16400280  1
  Pb  Pb45  1  0.16492535  0.83571375  0.83546419  1
  Pb  Pb46  1  0.16452322  0.49770882  0.83088874  1
  Pb  Pb47  1  0.16478816  0.50236193  0.16931433  1
  Pb  Pb48  1  0.83108914  0.83660136  0.50184759  1
  Pb  Pb49  1  0.83353302  0.49815441  0.50035091  1
  Pb  Pb50  1  0.50190800  0.49774159  0.83098118  1
  Pb  Pb51  1  0.50189119  0.49793205  0.16900922  1
  Pb  Pb52  1  0.16864238  0.83367607  0.49894395  1
  Pb  Pb53  1  0.50184284  0.83539016  0.83130172  1
  I  I54  1  0.16615914  -0.00180287  0.16918868  1
  I  I55  1  0.16797892  0.00352071  0.50278578  1
  I  I56  1  0.16533145  0.00433500  0.82633573  1
  I  I57  1  0.16660804  0.33345983  0.16582086  1
  I  I58  1  0.17097121  0.33152010  0.50261716  1
  I  I59  1  0.16512577  0.32912510  0.83214100  1
  I  I60  1  0.16543688  0.66960441  0.16914319  1
  I  I61  1  0.17002125  0.66416084  0.49709221  1
  I  I62  1  0.16350849  0.66647623  0.83194036  1
  I  I63  1  0.50127997  0.00357517  0.16963073  1
  I  I64  1  0.50021435  0.00234460  0.50037162  1
  I  I65  1  0.50253081  0.00440165  0.83000962  1
  I  I66  1  0.49966908  0.32967757  0.16921530  1
  I  I67  1  0.50007479  0.33149846  0.50019149  1
  I  I68  1  0.50293726  0.32894435  0.82991561  1
  I  I69  1  0.50071248  0.66647116  0.16953620  1
  I  I70  1  0.49633017  0.66595517  0.49916714  1
  I  I71  1  0.50273636  0.66648946  0.83100407  1
  I  I72  1  0.83307256  -0.00004450  0.16669805  1
  I  I73  1  0.83345852  0.00492677  0.50504626  1
  I  I74  1  0.83287831  0.00200915  0.82796016  1
  I  I75  1  0.83335191  0.33563703  0.16201942  1
  I  I76  1  0.82870393  0.32993341  0.50522102  1
  I  I77  1  0.83250245  0.33175392  0.83252284  1
  I  I78  1  0.83348810  0.66299924  0.16432085  1
  I  I79  1  0.83285610  0.66669146  0.50099446  1
  I  I80  1  0.83353793  0.66606930  0.83706257  1
  I  I81  1  0.16519061  0.16369072  -0.00288494  1
  I  I82  1  0.16731737  0.16881288  0.33668829  1
  I  I83  1  0.16951590  0.16911122  0.66575627  1
  I  I84  1  0.16604024  0.49894401  -0.00018685  1
  I  I85  1  0.16812577  0.49217381  0.33725302  1
  I  I86  1  0.16863563  0.49825407  0.66279363  1
  I  I87  1  0.16545569  0.83664820  0.00281026  1
  I  I88  1  0.16631131  0.83613282  0.33137365  1
  I  I89  1  0.16634109  0.83234358  0.66675655  1
  I  I90  1  0.50190286  0.16550379  -0.00100232  1
  I  I91  1  0.50029234  0.16678849  0.33544482  1
  I  I92  1  0.50124348  0.16678035  0.66570720  1
  I  I93  1  0.50019660  0.49773641  -0.00017766  1
  I  I94  1  0.49958534  0.49569320  0.33731632  1
  I  I95  1  0.49960558  0.49620137  0.66267348  1
  I  I96  1  0.50060899  0.83659551  -0.00021476  1
  I  I97  1  0.50048942  0.83726368  0.33681509  1
  I  I98  1  0.49929031  0.83692072  0.66305831  1
  I  I99  1  0.83295319  0.16547149  -0.00353724  1
  I  I100  1  0.83220495  0.16991730  0.33611317  1
  I  I101  1  0.82924463  0.16908881  0.66736297  1
  I  I102  1  0.83389621  0.49617230  -0.00131378  1
  I  I103  1  0.83294819  0.49697321  0.33191362  1
  I  I104  1  0.83263974  0.49942392  0.66920698  1
  I  I105  1  0.83351447  0.84123135  -0.00377665  1
  I  I106  1  0.83337013  0.83285299  0.33336821  1
  I  I107  1  0.83417875  0.82920234  0.66977754  1
  I  I108  1  0.00007759  0.16632882  0.16748199  1
  I  I109  1  0.00040423  0.17218383  0.50742749  1
  I  I110  1  -0.00092158  0.16660426  0.82589833  1
  I  I111  1  -0.00304878  0.49751804  0.16436151  1
  I  I112  1  0.00219430  0.49425159  0.49993644  1
  I  I113  1  -0.00369932  0.49654166  0.83422565  1
  I  I114  1  0.00235466  0.83612717  0.16924386  1
  I  I115  1  -0.00009048  0.83304521  0.49931146  1
  I  I116  1  -0.00329138  0.83611662  0.83219231  1
  I  I117  1  0.33679887  0.16570246  0.16872808  1
  I  I118  1  0.33405338  0.16705905  0.50248954  1
  I  I119  1  0.33372269  0.16536291  0.82849774  1
  I  I120  1  0.33341182  0.49991273  0.16670961  1
  I  I121  1  0.33383315  0.49327297  0.49878019  1
  I  I122  1  0.33329500  0.49869686  0.83414354  1
  I  I123  1  0.33068986  0.83543727  0.16800982  1
  I  I124  1  0.33648273  0.83951365  0.49937976  1
  I  I125  1  0.33342883  0.83582511  0.83321964  1
  I  I126  1  0.66346016  0.16696202  0.16899886  1
  I  I127  1  0.66575094  0.16757942  0.50293167  1
  I  I128  1  0.66714375  0.16714607  0.82934071  1
  I  I129  1  0.66973105  0.49917059  0.16459210  1
  I  I130  1  0.66433639  0.49713029  0.50038824  1
  I  I131  1  0.67020800  0.49655848  0.83363307  1
  I  I132  1  0.66660244  0.83357086  0.16723268  1
  I  I133  1  0.66317082  0.83348150  0.49971145  1
  I  I134  1  0.67002220  0.83647171  0.83273824  1
