# generated using pymatgen
data_Cs27Sn13Pb14I81
_symmetry_space_group_name_H-M   'P 1'
_cell_length_a   18.97954140
_cell_length_b   18.97378019
_cell_length_c   18.97845182
_cell_angle_alpha   89.99824777
_cell_angle_beta   89.99895563
_cell_angle_gamma   89.99951446
_symmetry_Int_Tables_number   1
_chemical_formula_structural   Cs27Sn13Pb14I81
_chemical_formula_sum   'Cs27 Sn13 Pb14 I81'
_cell_volume   6834.39948672
_cell_formula_units_Z   1
loop_
 _symmetry_equiv_pos_site_id
 _symmetry_equiv_pos_as_xyz
  1  'x, y, z'
loop_
 _atom_site_type_symbol
 _atom_site_label
 _atom_site_symmetry_multiplicity
 _atom_site_fract_x
 _atom_site_fract_y
 _atom_site_fract_z
 _atom_site_occupancy
  Cs  Cs0  1  -0.00043268  -0.00163512  0.00117447  1
  Cs  Cs1  1  -0.00055891  -0.00022895  0.33281325  1
  Cs  Cs2  1  -0.00147111  -0.00061420  0.66719563  1
  Cs  Cs3  1  0.00502480  0.33061522  0.00320432  1
  Cs  Cs4  1  0.00099953  0.33486809  0.33413840  1
  Cs  Cs5  1  0.00692412  0.33964260  0.66438845  1
  Cs  Cs6  1  -0.00138195  0.66940712  0.00273412  1
  Cs  Cs7  1  -0.00024078  0.66620816  0.33196230  1
  Cs  Cs8  1  -0.00339270  0.66258816  0.66692379  1
  Cs  Cs9  1  0.33257079  0.00103306  -0.00191570  1
  Cs  Cs10  1  0.33482849  -0.00272390  0.33317573  1
  Cs  Cs11  1  0.33526435  0.00005948  0.66696229  1
  Cs  Cs12  1  0.33451765  0.33548460  -0.00174232  1
  Cs  Cs13  1  0.33287886  0.33065236  0.33426280  1
  Cs  Cs14  1  0.32836502  0.33386158  0.66740261  1
  Cs  Cs15  1  0.33430483  0.66429316  0.00149747  1
  Cs  Cs16  1  0.33508408  0.67101280  0.33126280  1
  Cs  Cs17  1  0.33386060  0.66721070  0.66710416  1
  Cs  Cs18  1  0.66812654  0.00306944  -0.00328022  1
  Cs  Cs19  1  0.66572718  0.00057594  0.33501182  1
  Cs  Cs20  1  0.66626718  0.00090577  0.66682070  1
  Cs  Cs21  1  0.66172500  0.33193037  0.00140662  1
  Cs  Cs22  1  0.66707199  0.33159387  0.33414462  1
  Cs  Cs23  1  0.66649529  0.33154890  0.66461467  1
  Cs  Cs24  1  0.66743734  0.66271397  -0.00149876  1
  Cs  Cs25  1  0.66521419  0.66763963  0.33351595  1
  Cs  Cs26  1  0.67023615  0.66375700  0.66856429  1
  Sn  Sn27  1  0.49965538  0.83366567  0.83338707  1
  Sn  Sn28  1  0.50061301  0.16749344  0.50094094  1
  Sn  Sn29  1  0.50004988  0.49912828  0.50008781  1
  Sn  Sn30  1  0.50076661  0.16576641  0.83208523  1
  Sn  Sn31  1  0.16559184  0.83347974  0.50012127  1
  Sn  Sn32  1  0.83329989  0.16704674  0.83219387  1
  Sn  Sn33  1  0.83348343  0.83276893  0.16747876  1
  Sn  Sn34  1  0.16727924  0.83337328  0.83327992  1
  Sn  Sn35  1  0.83407460  0.83388429  0.49937327  1
  Sn  Sn36  1  0.83317707  0.16612389  0.50118889  1
  Sn  Sn37  1  0.16593568  0.83282446  0.16669537  1
  Sn  Sn38  1  0.83375304  0.50058373  0.16670504  1
  Sn  Sn39  1  0.16603341  0.50089489  0.16689799  1
  Pb  Pb40  1  0.16664368  0.16473099  0.83313560  1
  Pb  Pb41  1  0.16674667  0.16610989  0.16679899  1
  Pb  Pb42  1  0.83331471  0.16640916  0.16708576  1
  Pb  Pb43  1  0.50008611  0.49943284  0.83089566  1
  Pb  Pb44  1  0.49992336  0.50009586  0.16905569  1
  Pb  Pb45  1  0.16650505  0.16437134  0.50002069  1
  Pb  Pb46  1  0.50069499  0.83381357  0.50195224  1
  Pb  Pb47  1  0.49994320  0.16641762  0.16668300  1
  Pb  Pb48  1  0.50063459  0.83348735  0.16361106  1
  Pb  Pb49  1  0.16644446  0.50311573  0.83589079  1
  Pb  Pb50  1  0.16900800  0.50305254  0.49768889  1
  Pb  Pb51  1  0.83339498  0.83446695  0.83335234  1
  Pb  Pb52  1  0.83203983  0.49989921  0.49818894  1
  Pb  Pb53  1  0.83339126  0.49607012  0.83627419  1
  I  I54  1  0.16206870  -0.00436044  0.16639708  1
  I  I55  1  0.16791404  -0.00417468  0.49660719  1
  I  I56  1  0.16820373  -0.00389959  0.83664066  1
  I  I57  1  0.16187395  0.33658929  0.16708343  1
  I  I58  1  0.16506934  0.33358485  0.49767958  1
  I  I59  1  0.16768596  0.33341510  0.83607685  1
  I  I60  1  0.16212283  0.66837284  0.16645553  1
  I  I61  1  0.16265188  0.67123619  0.50229022  1
  I  I62  1  0.17259868  0.67166666  0.83085967  1
  I  I63  1  0.49930023  -0.00031770  0.17142920  1
  I  I64  1  0.50114551  0.00260385  0.50261288  1
  I  I65  1  0.49959386  0.00054542  0.82781239  1
  I  I66  1  0.49992518  0.33341431  0.16264692  1
  I  I67  1  0.50612973  0.33158518  0.50376455  1
  I  I68  1  0.50525340  0.32969786  0.83252311  1
  I  I69  1  0.50036519  0.66691405  0.16778680  1
  I  I70  1  0.49915899  0.66533812  0.50004087  1
  I  I71  1  0.49526619  0.66940502  0.83235868  1
  I  I72  1  0.83847498  -0.00319287  0.16754367  1
  I  I73  1  0.83112676  -0.00051855  0.49747448  1
  I  I74  1  0.83157701  0.00241834  0.83412351  1
  I  I75  1  0.83773317  0.33601190  0.16641887  1
  I  I76  1  0.82924952  0.33036308  0.50153744  1
  I  I77  1  0.82519246  0.32816014  0.82831615  1
  I  I78  1  0.83758304  0.66822223  0.17174009  1
  I  I79  1  0.83515433  0.66974868  0.49784673  1
  I  I80  1  0.83265067  0.66675122  0.83115778  1
  I  I81  1  0.16645976  0.16406679  -0.00017079  1
  I  I82  1  0.16736442  0.16378403  0.33358290  1
  I  I83  1  0.16627405  0.16426325  0.66655786  1
  I  I84  1  0.16366967  0.50506002  0.00401027  1
  I  I85  1  0.16291546  0.50600613  0.32988501  1
  I  I86  1  0.16825250  0.50106445  0.66634244  1
  I  I87  1  0.16632994  0.83034119  0.00062956  1
  I  I88  1  0.16246965  0.83003477  0.33304411  1
  I  I89  1  0.16742994  0.83651336  0.66648237  1
  I  I90  1  0.50450796  0.16202437  -0.00383503  1
  I  I91  1  0.50460468  0.17004196  0.33717035  1
  I  I92  1  0.50528557  0.16537288  0.66650730  1
  I  I93  1  0.49947342  0.49949594  0.00003104  1
  I  I94  1  0.50035968  0.49453584  0.33676571  1
  I  I95  1  0.50121789  0.49981296  0.66315157  1
  I  I96  1  0.49635870  0.83937648  -0.00430534  1
  I  I97  1  0.49722113  0.83407047  0.33358591  1
  I  I98  1  0.49556632  0.83506149  0.66961024  1
  I  I99  1  0.82845490  0.16579845  -0.00265250  1
  I  I100  1  0.82841450  0.16459084  0.33661710  1
  I  I101  1  0.82758483  0.15847512  0.66558506  1
  I  I102  1  0.83613222  0.50747902  0.00426420  1
  I  I103  1  0.83653521  0.50017408  0.33025408  1
  I  I104  1  0.83097774  0.50340508  0.66642934  1
  I  I105  1  0.83643923  0.83184832  0.00252529  1
  I  I106  1  0.84012499  0.83546039  0.33372766  1
  I  I107  1  0.83578316  0.83631873  0.66397663  1
  I  I108  1  -0.00030569  0.16662685  0.16548645  1
  I  I109  1  -0.00345738  0.16329427  0.50323388  1
  I  I110  1  -0.00302937  0.16438043  0.83049315  1
  I  I111  1  -0.00014714  0.50523500  0.16745344  1
  I  I112  1  0.00011730  0.49741291  0.50042948  1
  I  I113  1  -0.00008932  0.49949094  0.82922257  1
  I  I114  1  0.00009785  0.82993311  0.16530382  1
  I  I115  1  -0.00067401  0.83889122  0.50043361  1
  I  I116  1  0.00245075  0.83554535  0.83444655  1
  I  I117  1  0.33333459  0.16653516  0.16689574  1
  I  I118  1  0.33658549  0.16922002  0.50421765  1
  I  I119  1  0.33662852  0.16364138  0.82911229  1
  I  I120  1  0.33025911  0.50614729  0.16759484  1
  I  I121  1  0.33664731  0.49458115  0.49858727  1
  I  I122  1  0.33331247  0.49658684  0.83606937  1
  I  I123  1  0.33008877  0.82921684  0.16981728  1
  I  I124  1  0.33111149  0.83285041  0.49709787  1
  I  I125  1  0.33299924  0.83919930  0.83298775  1
  I  I126  1  0.66695685  0.16660680  0.16599011  1
  I  I127  1  0.66704991  0.16402127  0.50331171  1
  I  I128  1  0.66596463  0.15915756  0.83008769  1
  I  I129  1  0.66965466  0.50472395  0.16756607  1
  I  I130  1  0.66419805  0.50128958  0.49728095  1
  I  I131  1  0.66667378  0.50679849  0.83683338  1
  I  I132  1  0.67022811  0.82968181  0.17130185  1
  I  I133  1  0.66962439  0.83448013  0.49611751  1
  I  I134  1  0.66451298  0.83641828  0.83271753  1
