# generated using pymatgen
data_Cs27Sn14Pb13I81
_symmetry_space_group_name_H-M   'P 1'
_cell_length_a   18.98024863
_cell_length_b   18.97013242
_cell_length_c   18.97977821
_cell_angle_alpha   90.00214096
_cell_angle_beta   90.00039471
_cell_angle_gamma   90.00097226
_symmetry_Int_Tables_number   1
_chemical_formula_structural   Cs27Sn14Pb13I81
_chemical_formula_sum   'Cs27 Sn14 Pb13 I81'
_cell_volume   6833.81774787
_cell_formula_units_Z   1
loop_
 _symmetry_equiv_pos_site_id
 _symmetry_equiv_pos_as_xyz
  1  'x, y, z'
loop_
 _atom_site_type_symbol
 _atom_site_label
 _atom_site_symmetry_multiplicity
 _atom_site_fract_x
 _atom_site_fract_y
 _atom_site_fract_z
 _atom_site_occupancy
  Cs  Cs0  1  -0.00058750  0.00039437  -0.00048925  1
  Cs  Cs1  1  -0.00258236  0.00315315  0.33581555  1
  Cs  Cs2  1  -0.00083340  -0.00256372  0.66441415  1
  Cs  Cs3  1  -0.00244602  0.33371840  -0.00049618  1
  Cs  Cs4  1  -0.00285043  0.33301852  0.33309128  1
  Cs  Cs5  1  0.00053754  0.33489643  0.66897576  1
  Cs  Cs6  1  0.00575798  0.66659113  0.00065891  1
  Cs  Cs7  1  0.00019979  0.66314623  0.33215289  1
  Cs  Cs8  1  -0.00068597  0.66886660  0.66706261  1
  Cs  Cs9  1  0.33514710  -0.00260695  0.00131105  1
  Cs  Cs10  1  0.33385811  -0.00032111  0.33544617  1
  Cs  Cs11  1  0.33386380  0.00271391  0.66297733  1
  Cs  Cs12  1  0.33544091  0.33206393  -0.00098327  1
  Cs  Cs13  1  0.33462586  0.33326131  0.33378807  1
  Cs  Cs14  1  0.33498126  0.33131295  0.66693137  1
  Cs  Cs15  1  0.32641427  0.67436803  0.00249602  1
  Cs  Cs16  1  0.33066260  0.66767347  0.33305235  1
  Cs  Cs17  1  0.32937170  0.66586005  0.66443823  1
  Cs  Cs18  1  0.66499599  -0.00206586  -0.00015955  1
  Cs  Cs19  1  0.66834528  0.00105438  0.33314960  1
  Cs  Cs20  1  0.66706570  -0.00303084  0.66611784  1
  Cs  Cs21  1  0.66663433  0.33445217  -0.00021054  1
  Cs  Cs22  1  0.66794510  0.33460360  0.33109553  1
  Cs  Cs23  1  0.66345354  0.33516315  0.67050443  1
  Cs  Cs24  1  0.66643935  0.66512921  0.00151312  1
  Cs  Cs25  1  0.66759505  0.66374386  0.33246641  1
  Cs  Cs26  1  0.67062310  0.66706464  0.66587240  1
  Sn  Sn27  1  0.50009198  0.49953089  0.16533507  1
  Sn  Sn28  1  0.16737919  0.16649372  0.49990338  1
  Sn  Sn29  1  0.83250614  0.49921981  0.83444774  1
  Sn  Sn30  1  0.49957447  0.83382375  0.49994914  1
  Sn  Sn31  1  0.16690102  0.16666112  0.83336288  1
  Sn  Sn32  1  0.83314147  0.83235583  0.16642938  1
  Sn  Sn33  1  0.50012995  0.16679793  0.83354258  1
  Sn  Sn34  1  0.16761808  0.16689165  0.16673896  1
  Sn  Sn35  1  0.49977742  0.16604439  0.49985045  1
  Sn  Sn36  1  0.83254092  0.50089966  0.16545379  1
  Sn  Sn37  1  0.83283169  0.16702200  0.83320384  1
  Sn  Sn38  1  0.49931329  0.16720064  0.16656543  1
  Sn  Sn39  1  0.16743001  0.83427859  0.49975967  1
  Sn  Sn40  1  0.50020851  0.49991426  0.83467866  1
  Pb  Pb41  1  0.83322406  0.49970088  0.50050422  1
  Pb  Pb42  1  0.50000863  0.49969118  0.50009368  1
  Pb  Pb43  1  0.50122010  0.83316603  0.16870297  1
  Pb  Pb44  1  0.16687916  0.83638419  0.83083673  1
  Pb  Pb45  1  0.16431618  0.83644682  0.16906040  1
  Pb  Pb46  1  0.83314052  0.83259073  0.83569218  1
  Pb  Pb47  1  0.83333613  0.83341971  0.49759417  1
  Pb  Pb48  1  0.16726106  0.49800582  0.83348463  1
  Pb  Pb49  1  0.83279543  0.16734442  0.16459692  1
  Pb  Pb50  1  0.16676471  0.49918568  0.50000322  1
  Pb  Pb51  1  0.16715600  0.49746811  0.16656225  1
  Pb  Pb52  1  0.49997378  0.83266484  0.83104427  1
  Pb  Pb53  1  0.83288340  0.16700371  0.50323266  1
  I  I54  1  0.17131855  0.00459460  0.16364938  1
  I  I55  1  0.17134913  0.00190780  0.50057574  1
  I  I56  1  0.16695933  0.00524866  0.83603989  1
  I  I57  1  0.16539868  0.32898519  0.16974422  1
  I  I58  1  0.17168401  0.32876362  0.50064551  1
  I  I59  1  0.16654283  0.32905145  0.82985941  1
  I  I60  1  0.16838289  0.66683601  0.16928676  1
  I  I61  1  0.17146440  0.66984284  0.49944670  1
  I  I62  1  0.16549121  0.66672575  0.83055803  1
  I  I63  1  0.49811276  0.00338806  0.16412484  1
  I  I64  1  0.49587267  0.00205655  0.50012087  1
  I  I65  1  0.50005793  0.00378150  0.83599537  1
  I  I66  1  0.50238266  0.33217889  0.16865189  1
  I  I67  1  0.49493202  0.32976575  0.50057629  1
  I  I68  1  0.50067077  0.33159760  0.83139517  1
  I  I69  1  0.50394027  0.66358904  0.16391850  1
  I  I70  1  0.49569948  0.66938778  0.49957368  1
  I  I71  1  0.50762053  0.66293725  0.83613982  1
  I  I72  1  0.83402051  -0.00115509  0.16649044  1
  I  I73  1  0.83297334  0.00030351  0.49890825  1
  I  I74  1  0.83322688  0.00306476  0.83442829  1
  I  I75  1  0.83249693  0.33597980  0.16455521  1
  I  I76  1  0.83476775  0.33302142  0.49370677  1
  I  I77  1  0.83300167  0.33301531  0.83914203  1
  I  I78  1  0.82696766  0.66491698  0.16273367  1
  I  I79  1  0.83342533  0.66678893  0.50450713  1
  I  I80  1  0.82669526  0.66290706  0.83389554  1
  I  I81  1  0.16882578  0.16907411  -0.00017593  1
  I  I82  1  0.17329144  0.16319728  0.33362720  1
  I  I83  1  0.16939899  0.16348456  0.66660066  1
  I  I84  1  0.16587683  0.49848671  0.00005662  1
  I  I85  1  0.16578408  0.49673325  0.33307609  1
  I  I86  1  0.16603823  0.49787446  0.66688352  1
  I  I87  1  0.16482827  0.83439629  0.00035666  1
  I  I88  1  0.17078846  0.84015023  0.33674927  1
  I  I89  1  0.16984896  0.83890149  0.66279500  1
  I  I90  1  0.49766802  0.17129352  -0.00011786  1
  I  I91  1  0.49339094  0.16689285  0.33300720  1
  I  I92  1  0.49754813  0.16727979  0.66713407  1
  I  I93  1  0.50603085  0.48915943  0.00011535  1
  I  I94  1  0.50469777  0.49596333  0.33019219  1
  I  I95  1  0.50491913  0.49544567  0.66991926  1
  I  I96  1  0.50247423  0.83685918  0.00022588  1
  I  I97  1  0.49706229  0.83849118  0.33654854  1
  I  I98  1  0.49674133  0.83881447  0.66302715  1
  I  I99  1  0.83434485  0.16741265  -0.00331232  1
  I  I100  1  0.83414793  0.16683498  0.33311901  1
  I  I101  1  0.83333558  0.17241696  0.67142717  1
  I  I102  1  0.82823661  0.49868562  -0.00002631  1
  I  I103  1  0.82931593  0.50350936  0.32972443  1
  I  I104  1  0.82866602  0.49459386  0.67074498  1
  I  I105  1  0.83194426  0.83369674  0.00336034  1
  I  I106  1  0.83291377  0.82805747  0.32989932  1
  I  I107  1  0.83418339  0.83314344  0.66662483  1
  I  I108  1  0.00221149  0.16566396  0.16746752  1
  I  I109  1  0.00323532  0.16195463  0.49889937  1
  I  I110  1  0.00008944  0.17028949  0.83371869  1
  I  I111  1  -0.00307120  0.50259184  0.16286950  1
  I  I112  1  -0.00000267  0.49994704  0.49959616  1
  I  I113  1  -0.00310414  0.49475978  0.83729679  1
  I  I114  1  -0.00332181  0.82819265  0.16798647  1
  I  I115  1  0.00303371  0.83998141  0.49935782  1
  I  I116  1  -0.00005256  0.83440288  0.83047304  1
  I  I117  1  0.33462213  0.17154955  0.16347058  1
  I  I118  1  0.33395370  0.16302190  0.50376062  1
  I  I119  1  0.33415679  0.17074198  0.83220591  1
  I  I120  1  0.33694819  0.49651417  0.16320233  1
  I  I121  1  0.33371969  0.50063050  0.50023004  1
  I  I122  1  0.33705653  0.49462858  0.83597999  1
  I  I123  1  0.33320474  0.83069614  0.16604697  1
  I  I124  1  0.33358772  0.83918436  0.49942429  1
  I  I125  1  0.33343722  0.83114272  0.83745749  1
  I  I126  1  0.66349488  0.16697427  0.16786102  1
  I  I127  1  0.66294955  0.16244129  0.49855366  1
  I  I128  1  0.66563802  0.17063665  0.83348709  1
  I  I129  1  0.66612196  0.49735285  0.16376122  1
  I  I130  1  0.66629946  0.50029284  0.49950010  1
  I  I131  1  0.66631929  0.48995811  0.83709675  1
  I  I132  1  0.66904255  0.83509315  0.16944562  1
  I  I133  1  0.66370969  0.83884967  0.49979645  1
  I  I134  1  0.66658684  0.84031034  0.82918124  1
