# generated using pymatgen
data_Cs27Sn13Pb14I81
_symmetry_space_group_name_H-M   'P 1'
_cell_length_a   19.00198728
_cell_length_b   18.98247679
_cell_length_c   18.98853815
_cell_angle_alpha   89.99686532
_cell_angle_beta   89.99983633
_cell_angle_gamma   89.99926136
_symmetry_Int_Tables_number   1
_chemical_formula_structural   Cs27Sn13Pb14I81
_chemical_formula_sum   'Cs27 Sn13 Pb14 I81'
_cell_volume   6849.25651275
_cell_formula_units_Z   1
loop_
 _symmetry_equiv_pos_site_id
 _symmetry_equiv_pos_as_xyz
  1  'x, y, z'
loop_
 _atom_site_type_symbol
 _atom_site_label
 _atom_site_symmetry_multiplicity
 _atom_site_fract_x
 _atom_site_fract_y
 _atom_site_fract_z
 _atom_site_occupancy
  Cs  Cs0  1  0.00297272  0.00007086  -0.00154058  1
  Cs  Cs1  1  0.00027103  0.00231168  0.33425050  1
  Cs  Cs2  1  0.01211940  -0.00156383  0.66724782  1
  Cs  Cs3  1  0.00124708  0.33221537  0.00019940  1
  Cs  Cs4  1  -0.00202735  0.32808188  0.32899848  1
  Cs  Cs5  1  -0.00133787  0.33617728  0.66824505  1
  Cs  Cs6  1  -0.00292118  0.66677701  0.00311148  1
  Cs  Cs7  1  -0.00076081  0.66707671  0.33318510  1
  Cs  Cs8  1  -0.00068476  0.66601337  0.66493092  1
  Cs  Cs9  1  0.33440227  -0.00277021  -0.00150572  1
  Cs  Cs10  1  0.33438973  0.00725055  0.33591772  1
  Cs  Cs11  1  0.32129173  0.00029025  0.66589664  1
  Cs  Cs12  1  0.33017600  0.33377598  0.00397566  1
  Cs  Cs13  1  0.33438664  0.32859013  0.32371834  1
  Cs  Cs14  1  0.33664000  0.33506895  0.66811709  1
  Cs  Cs15  1  0.33856605  0.66735936  0.00613379  1
  Cs  Cs16  1  0.33361857  0.66615439  0.33203019  1
  Cs  Cs17  1  0.33339835  0.66549996  0.66409457  1
  Cs  Cs18  1  0.66368623  -0.00422637  -0.00089545  1
  Cs  Cs19  1  0.66629342  0.00754776  0.33310265  1
  Cs  Cs20  1  0.66624523  0.00083014  0.66755913  1
  Cs  Cs21  1  0.66779441  0.33418479  -0.00422948  1
  Cs  Cs22  1  0.66716379  0.32459265  0.33377176  1
  Cs  Cs23  1  0.66574921  0.33489963  0.66763963  1
  Cs  Cs24  1  0.66683869  0.67007876  0.00097301  1
  Cs  Cs25  1  0.66845484  0.66650343  0.33598924  1
  Cs  Cs26  1  0.66719504  0.66494099  0.66534149  1
  Sn  Sn27  1  0.50071881  0.16738248  0.83275089  1
  Sn  Sn28  1  0.83329628  0.49968009  0.83349713  1
  Sn  Sn29  1  0.83328217  0.50030564  0.49943042  1
  Sn  Sn30  1  0.50091505  0.83277458  0.50032102  1
  Sn  Sn31  1  0.83277724  0.50047783  0.16700653  1
  Sn  Sn32  1  0.16676635  0.49986778  0.49991484  1
  Sn  Sn33  1  0.16678414  0.50062408  0.83309408  1
  Sn  Sn34  1  0.16592153  0.83298737  0.16715556  1
  Sn  Sn35  1  0.83249742  0.83297024  0.49937455  1
  Sn  Sn36  1  0.83265980  0.16692365  0.83271157  1
  Sn  Sn37  1  0.49998041  0.49969780  0.83289856  1
  Sn  Sn38  1  0.83409246  0.83266647  0.16792264  1
  Sn  Sn39  1  0.49998679  0.50043008  0.50016976  1
  Pb  Pb40  1  0.16676119  0.82957840  0.83590907  1
  Pb  Pb41  1  0.83320265  0.16587163  0.16368945  1
  Pb  Pb42  1  0.50321124  0.49998717  0.16712483  1
  Pb  Pb43  1  0.16635187  0.16320760  0.16640664  1
  Pb  Pb44  1  0.83341882  0.83331363  0.83265217  1
  Pb  Pb45  1  0.49996385  0.83293705  0.83023816  1
  Pb  Pb46  1  0.50031561  0.16670904  0.16291523  1
  Pb  Pb47  1  0.16423468  0.50127375  0.16697629  1
  Pb  Pb48  1  0.50000853  0.16709063  0.50266983  1
  Pb  Pb49  1  0.83360087  0.16628074  0.50302463  1
  Pb  Pb50  1  0.16689139  0.16955217  0.83329924  1
  Pb  Pb51  1  0.16646110  0.83104048  0.49801504  1
  Pb  Pb52  1  0.50090760  0.83321181  0.17005922  1
  Pb  Pb53  1  0.16660845  0.17083828  0.50004621  1
  I  I54  1  0.15790432  -0.00470268  0.16724787  1
  I  I55  1  0.16690352  -0.00036726  0.49888467  1
  I  I56  1  0.16641410  -0.00004235  0.83470739  1
  I  I57  1  0.16600733  0.33363168  0.16662487  1
  I  I58  1  0.16550057  0.33921185  0.50506570  1
  I  I59  1  0.16547219  0.33779321  0.82988491  1
  I  I60  1  0.16333101  0.66894922  0.16589970  1
  I  I61  1  0.16599856  0.66299496  0.50471339  1
  I  I62  1  0.16487169  0.66165462  0.82788119  1
  I  I63  1  0.50159200  -0.00025948  0.16649850  1
  I  I64  1  0.50632375  -0.00291898  0.49910751  1
  I  I65  1  0.50737816  0.00280746  0.83410970  1
  I  I66  1  0.50077573  0.33366794  0.17272027  1
  I  I67  1  0.50171559  0.33720514  0.50299731  1
  I  I68  1  0.50184178  0.33562116  0.82697280  1
  I  I69  1  0.49812719  0.66655575  0.15963289  1
  I  I70  1  0.50145236  0.66483814  0.50616227  1
  I  I71  1  0.50167783  0.66281733  0.83191307  1
  I  I72  1  0.83724832  -0.00364382  0.17088623  1
  I  I73  1  0.82744423  -0.00348954  0.49520044  1
  I  I74  1  0.82666879  0.00275333  0.83458348  1
  I  I75  1  0.83299443  0.33639526  0.16971598  1
  I  I76  1  0.83247306  0.33720906  0.49755422  1
  I  I77  1  0.83284195  0.33610500  0.83329212  1
  I  I78  1  0.83686603  0.66604444  0.16460520  1
  I  I79  1  0.83274410  0.66496397  0.50172139  1
  I  I80  1  0.83248438  0.66294848  0.83342591  1
  I  I81  1  0.16650479  0.16963320  -0.00038725  1
  I  I82  1  0.16701360  0.17004767  0.33319837  1
  I  I83  1  0.16574807  0.16044012  0.66698563  1
  I  I84  1  0.16652373  0.50075861  -0.00274844  1
  I  I85  1  0.16708408  0.50308270  0.33624881  1
  I  I86  1  0.16213005  0.50062158  0.66676973  1
  I  I87  1  0.15853849  0.83157965  0.00351274  1
  I  I88  1  0.16390185  0.82827881  0.33067708  1
  I  I89  1  0.16608825  0.83578357  0.66627051  1
  I  I90  1  0.50490251  0.17384950  -0.00513659  1
  I  I91  1  0.49880168  0.16696741  0.33367821  1
  I  I92  1  0.50586790  0.17046212  0.67030410  1
  I  I93  1  0.49913946  0.49535038  -0.00327427  1
  I  I94  1  0.49867155  0.50608305  0.33696920  1
  I  I95  1  0.50386813  0.50012293  0.66680132  1
  I  I96  1  0.49997585  0.83390945  -0.00000279  1
  I  I97  1  0.50110750  0.82395813  0.33768125  1
  I  I98  1  0.50779364  0.82977624  0.66257704  1
  I  I99  1  0.82944028  0.17267721  -0.00395653  1
  I  I100  1  0.83397290  0.16999481  0.33342898  1
  I  I101  1  0.82854304  0.17312919  0.67058860  1
  I  I102  1  0.83393570  0.50010566  -0.00075389  1
  I  I103  1  0.83421936  0.50617100  0.33423112  1
  I  I104  1  0.83348491  0.50005467  0.66649226  1
  I  I105  1  0.83744573  0.82942177  0.00255548  1
  I  I106  1  0.83364110  0.82332241  0.33389076  1
  I  I107  1  0.82843070  0.82857879  0.66327078  1
  I  I108  1  -0.00048780  0.17027986  0.16328230  1
  I  I109  1  -0.00017712  0.16537076  0.50325916  1
  I  I110  1  -0.00282132  0.17147451  0.83392335  1
  I  I111  1  -0.00379463  0.50233189  0.16564042  1
  I  I112  1  -0.00123988  0.50432193  0.50431951  1
  I  I113  1  -0.00113869  0.49689038  0.83057104  1
  I  I114  1  -0.00193760  0.82762655  0.17169297  1
  I  I115  1  -0.00310260  0.82831216  0.49859944  1
  I  I116  1  -0.00010627  0.83432097  0.82862483  1
  I  I117  1  0.33327184  0.16598546  0.16508417  1
  I  I118  1  0.33344387  0.16346586  0.50334061  1
  I  I119  1  0.33643337  0.17120852  0.83266296  1
  I  I120  1  0.33330451  0.50183871  0.16587083  1
  I  I121  1  0.33402661  0.50518732  0.50971771  1
  I  I122  1  0.33400041  0.49672288  0.82532988  1
  I  I123  1  0.33109870  0.83218550  0.16557257  1
  I  I124  1  0.33570061  0.82814528  0.50016587  1
  I  I125  1  0.33339333  0.83457460  0.83409876  1
  I  I126  1  0.66705289  0.16483652  0.16894367  1
  I  I127  1  0.66685206  0.16987123  0.49873504  1
  I  I128  1  0.66703590  0.17661785  0.83279857  1
  I  I129  1  0.67129586  0.50731307  0.16485943  1
  I  I130  1  0.66720535  0.50494926  0.50385254  1
  I  I131  1  0.66710738  0.49572934  0.83081685  1
  I  I132  1  0.67032045  0.82856337  0.16686377  1
  I  I133  1  0.66783923  0.82354906  0.49539253  1
  I  I134  1  0.66681097  0.83001067  0.83856802  1
