# generated using pymatgen
data_Cs27Sn13Pb14I81
_symmetry_space_group_name_H-M   'P 1'
_cell_length_a   18.97362438
_cell_length_b   18.98266123
_cell_length_c   18.97440451
_cell_angle_alpha   90.00023108
_cell_angle_beta   89.99987787
_cell_angle_gamma   90.00118845
_symmetry_Int_Tables_number   1
_chemical_formula_structural   Cs27Sn13Pb14I81
_chemical_formula_sum   'Cs27 Sn13 Pb14 I81'
_cell_volume   6834.00906721
_cell_formula_units_Z   1
loop_
 _symmetry_equiv_pos_site_id
 _symmetry_equiv_pos_as_xyz
  1  'x, y, z'
loop_
 _atom_site_type_symbol
 _atom_site_label
 _atom_site_symmetry_multiplicity
 _atom_site_fract_x
 _atom_site_fract_y
 _atom_site_fract_z
 _atom_site_occupancy
  Cs  Cs0  1  0.00336854  0.00375154  0.00682731  1
  Cs  Cs1  1  0.00041013  0.00029471  0.33292750  1
  Cs  Cs2  1  -0.00179256  -0.00117173  0.66464405  1
  Cs  Cs3  1  0.00368186  0.33954367  0.00390728  1
  Cs  Cs4  1  -0.00308136  0.33108374  0.32622431  1
  Cs  Cs5  1  0.00179767  0.33286982  0.66984844  1
  Cs  Cs6  1  0.00254097  0.65710269  -0.00065380  1
  Cs  Cs7  1  -0.00085983  0.66693488  0.33178477  1
  Cs  Cs8  1  -0.00640401  0.66749118  0.66875284  1
  Cs  Cs9  1  0.33305079  0.00056417  -0.00339373  1
  Cs  Cs10  1  0.33362555  -0.00201860  0.33411535  1
  Cs  Cs11  1  0.33300854  0.00007817  0.66722118  1
  Cs  Cs12  1  0.32981217  0.33422932  -0.00564129  1
  Cs  Cs13  1  0.33765794  0.33399362  0.33734649  1
  Cs  Cs14  1  0.33234678  0.33291913  0.66641114  1
  Cs  Cs15  1  0.33312267  0.66639113  0.00142614  1
  Cs  Cs16  1  0.33435908  0.66844081  0.33366938  1
  Cs  Cs17  1  0.33324015  0.66779409  0.66479238  1
  Cs  Cs18  1  0.66457692  -0.00128076  -0.00157143  1
  Cs  Cs19  1  0.66621159  0.00027303  0.33232543  1
  Cs  Cs20  1  0.66875698  -0.00057621  0.67028973  1
  Cs  Cs21  1  0.66700319  0.33339919  0.00290520  1
  Cs  Cs22  1  0.66567632  0.33453989  0.33256703  1
  Cs  Cs23  1  0.66696766  0.33341855  0.66499540  1
  Cs  Cs24  1  0.66629462  0.66870333  -0.00294898  1
  Cs  Cs25  1  0.66573001  0.66626991  0.33508529  1
  Cs  Cs26  1  0.67551868  0.66649650  0.66816167  1
  Sn  Sn27  1  0.50029429  0.16548593  0.49960265  1
  Sn  Sn28  1  0.16664581  0.83351145  0.83269655  1
  Sn  Sn29  1  0.83270836  0.83320491  0.16653602  1
  Sn  Sn30  1  0.49980384  0.50013198  0.16555639  1
  Sn  Sn31  1  0.16660118  0.16676050  0.49990255  1
  Sn  Sn32  1  0.50020860  0.50013755  0.83345042  1
  Sn  Sn33  1  0.50090672  0.83360713  0.16732709  1
  Sn  Sn34  1  0.16628257  0.50029041  0.49982318  1
  Sn  Sn35  1  0.16716851  0.83302442  0.50111733  1
  Sn  Sn36  1  0.83346553  0.16667946  0.83353384  1
  Sn  Sn37  1  0.49994812  0.83406463  0.49989397  1
  Sn  Sn38  1  0.49969326  0.16632134  0.16697205  1
  Sn  Sn39  1  0.83307486  0.16651533  0.50068118  1
  Pb  Pb40  1  0.83324210  0.83521680  0.49850874  1
  Pb  Pb41  1  0.83062624  0.50279678  0.16678967  1
  Pb  Pb42  1  0.16983904  0.16679817  0.16907964  1
  Pb  Pb43  1  0.83109700  0.49732861  0.83337091  1
  Pb  Pb44  1  0.50134341  0.16837209  0.83283124  1
  Pb  Pb45  1  0.83663106  0.49688472  0.49988518  1
  Pb  Pb46  1  0.83115372  0.16515712  0.16675788  1
  Pb  Pb47  1  0.16859071  0.50219946  0.83088400  1
  Pb  Pb48  1  0.49880102  0.83162847  0.83284323  1
  Pb  Pb49  1  0.83634054  0.83538003  0.83637205  1
  Pb  Pb50  1  0.16716730  0.83323854  0.16704028  1
  Pb  Pb51  1  0.16950020  0.49986080  0.16929886  1
  Pb  Pb52  1  0.49906786  0.50045710  0.50009080  1
  Pb  Pb53  1  0.16433822  0.16490154  0.83119873  1
  I  I54  1  0.16829305  -0.00012677  0.16798605  1
  I  I55  1  0.16838997  -0.00015730  0.50330856  1
  I  I56  1  0.16910320  -0.00294878  0.82774582  1
  I  I57  1  0.16696091  0.33323502  0.16813678  1
  I  I58  1  0.16912356  0.33219878  0.49883369  1
  I  I59  1  0.16694513  0.33337260  0.83138836  1
  I  I60  1  0.16851241  0.66681830  0.16968097  1
  I  I61  1  0.17444566  0.66811275  0.50249090  1
  I  I62  1  0.16746660  0.66996881  0.82749665  1
  I  I63  1  0.50381551  -0.00044240  0.17271837  1
  I  I64  1  0.49514243  0.00025829  0.49248372  1
  I  I65  1  0.49974614  -0.00001363  0.83559447  1
  I  I66  1  0.49924144  0.33277033  0.16903932  1
  I  I67  1  0.49881688  0.33045593  0.49709146  1
  I  I68  1  0.50027768  0.33612720  0.83679153  1
  I  I69  1  0.50300594  0.66762799  0.16796317  1
  I  I70  1  0.49369779  0.66959726  0.49601252  1
  I  I71  1  0.49782247  0.66396984  0.83715588  1
  I  I72  1  0.82709699  -0.00259767  0.16755074  1
  I  I73  1  0.83652200  0.00327928  0.50198146  1
  I  I74  1  0.83096087  0.00285800  0.82783680  1
  I  I75  1  0.83176500  0.33314779  0.16742347  1
  I  I76  1  0.83004600  0.32847034  0.50227682  1
  I  I77  1  0.83279107  0.32947965  0.82783764  1
  I  I78  1  0.82838192  0.67067718  0.16810152  1
  I  I79  1  0.83247902  0.66689834  0.49871337  1
  I  I80  1  0.83346878  0.66687097  0.83417924  1
  I  I81  1  0.16622716  0.16399886  -0.00011441  1
  I  I82  1  0.16176441  0.16267991  0.33805324  1
  I  I83  1  0.17291453  0.16824578  0.66237062  1
  I  I84  1  0.16632129  0.50229726  -0.00012541  1
  I  I85  1  0.16979440  0.50286713  0.33737330  1
  I  I86  1  0.17197132  0.49670471  0.66306999  1
  I  I87  1  0.16748250  0.83366089  -0.00225918  1
  I  I88  1  0.16872645  0.83424590  0.33695757  1
  I  I89  1  0.17315860  0.83436561  0.66413989  1
  I  I90  1  0.50362464  0.16380263  0.00271797  1
  I  I91  1  0.50113450  0.16810069  0.33449478  1
  I  I92  1  0.49791093  0.16411993  0.66295225  1
  I  I93  1  0.50022638  0.50032394  0.00130392  1
  I  I94  1  0.49786496  0.49988747  0.33094864  1
  I  I95  1  0.49686970  0.49877289  0.66845981  1
  I  I96  1  0.50160465  0.83565464  0.00297381  1
  I  I97  1  0.49768209  0.83245864  0.33366299  1
  I  I98  1  0.49620714  0.83713244  0.66330599  1
  I  I99  1  0.82942437  0.16355954  -0.00200375  1
  I  I100  1  0.83548634  0.16510913  0.33631257  1
  I  I101  1  0.83092782  0.16527109  0.66487535  1
  I  I102  1  0.83570916  0.49718069  0.00014448  1
  I  I103  1  0.83134824  0.49758755  0.33338156  1
  I  I104  1  0.82884472  0.50307970  0.66651919  1
  I  I105  1  0.82559167  0.83676389  0.00367081  1
  I  I106  1  0.83239365  0.83638824  0.33077297  1
  I  I107  1  0.83094270  0.83307566  0.66667095  1
  I  I108  1  -0.00015488  0.16355628  0.16828812  1
  I  I109  1  0.00047084  0.16587396  0.50551304  1
  I  I110  1  -0.00336189  0.16465154  0.82704436  1
  I  I111  1  0.00009170  0.50151855  0.16739452  1
  I  I112  1  0.00467105  0.50342188  0.50161278  1
  I  I113  1  0.00023084  0.50040797  0.83206172  1
  I  I114  1  -0.00214836  0.83600743  0.16795260  1
  I  I115  1  0.00295383  0.83450633  0.50144863  1
  I  I116  1  0.00377581  0.83390689  0.82526664  1
  I  I117  1  0.33827085  0.16274093  0.17155755  1
  I  I118  1  0.33379871  0.16599089  0.49477967  1
  I  I119  1  0.33331180  0.16705875  0.83341496  1
  I  I120  1  0.33779239  0.50349488  0.16395302  1
  I  I121  1  0.33114801  0.49622934  0.49931369  1
  I  I122  1  0.33639842  0.49831814  0.83795946  1
  I  I123  1  0.33697398  0.83309421  0.16905188  1
  I  I124  1  0.33372028  0.83750543  0.49770731  1
  I  I125  1  0.33087478  0.83385114  0.83224636  1
  I  I126  1  0.66290960  0.16846956  0.17317423  1
  I  I127  1  0.66535323  0.16212239  0.49950136  1
  I  I128  1  0.66900045  0.16640733  0.82667612  1
  I  I129  1  0.66214642  0.49691716  0.16577110  1
  I  I130  1  0.66660698  0.49975341  0.49973193  1
  I  I131  1  0.66301892  0.50186489  0.83573441  1
  I  I132  1  0.66420750  0.83370852  0.17226864  1
  I  I133  1  0.66349468  0.83749851  0.49680499  1
  I  I134  1  0.66681019  0.83238975  0.83125814  1
