# generated using pymatgen
data_Cs27Sn14Pb13I81
_symmetry_space_group_name_H-M   'P 1'
_cell_length_a   18.97742477
_cell_length_b   18.98319757
_cell_length_c   18.96741889
_cell_angle_alpha   89.99832137
_cell_angle_beta   89.99986452
_cell_angle_gamma   90.00070137
_symmetry_Int_Tables_number   1
_chemical_formula_structural   Cs27Sn14Pb13I81
_chemical_formula_sum   'Cs27 Sn14 Pb13 I81'
_cell_volume   6833.05445464
_cell_formula_units_Z   1
loop_
 _symmetry_equiv_pos_site_id
 _symmetry_equiv_pos_as_xyz
  1  'x, y, z'
loop_
 _atom_site_type_symbol
 _atom_site_label
 _atom_site_symmetry_multiplicity
 _atom_site_fract_x
 _atom_site_fract_y
 _atom_site_fract_z
 _atom_site_occupancy
  Cs  Cs0  1  -0.00204906  -0.00025252  -0.00771797  1
  Cs  Cs1  1  0.00274460  0.00323750  0.33573407  1
  Cs  Cs2  1  -0.00019371  -0.00144245  0.66562982  1
  Cs  Cs3  1  -0.00126151  0.33448567  -0.00438212  1
  Cs  Cs4  1  0.00238049  0.33021560  0.33240933  1
  Cs  Cs5  1  -0.00138315  0.33496125  0.67394193  1
  Cs  Cs6  1  -0.00778751  0.66626199  -0.00824774  1
  Cs  Cs7  1  0.00158124  0.66611920  0.33366451  1
  Cs  Cs8  1  -0.00083336  0.66676281  0.67185822  1
  Cs  Cs9  1  0.33362296  0.00070312  0.00194701  1
  Cs  Cs10  1  0.33078567  -0.00053302  0.33287648  1
  Cs  Cs11  1  0.33489585  -0.00009936  0.66784459  1
  Cs  Cs12  1  0.33347636  0.33521929  0.00180586  1
  Cs  Cs13  1  0.33200626  0.33344085  0.33214189  1
  Cs  Cs14  1  0.33832668  0.33190586  0.66871724  1
  Cs  Cs15  1  0.33516155  0.66486230  -0.00083562  1
  Cs  Cs16  1  0.33169176  0.66750447  0.33230971  1
  Cs  Cs17  1  0.33409144  0.66754235  0.66758694  1
  Cs  Cs18  1  0.66885097  -0.00275754  0.00012619  1
  Cs  Cs19  1  0.66884737  -0.00114553  0.33205162  1
  Cs  Cs20  1  0.66546790  0.00287490  0.66696782  1
  Cs  Cs21  1  0.66660726  0.33260755  -0.00092784  1
  Cs  Cs22  1  0.66785996  0.33480284  0.33563008  1
  Cs  Cs23  1  0.66285530  0.33379589  0.66551465  1
  Cs  Cs24  1  0.66832501  0.66924190  0.00299056  1
  Cs  Cs25  1  0.67066737  0.66633542  0.33220401  1
  Cs  Cs26  1  0.66406229  0.66344572  0.66390488  1
  Sn  Sn27  1  0.83387913  0.16668417  0.16751097  1
  Sn  Sn28  1  0.49990682  0.83332161  0.50033320  1
  Sn  Sn29  1  0.83369987  0.83384765  0.49956987  1
  Sn  Sn30  1  0.49952686  0.49942238  0.16632732  1
  Sn  Sn31  1  0.83419238  0.16612515  0.49910791  1
  Sn  Sn32  1  0.16610657  0.16700397  0.49989021  1
  Sn  Sn33  1  0.16654123  0.83316564  0.49932243  1
  Sn  Sn34  1  0.16628402  0.16658633  0.16694766  1
  Sn  Sn35  1  0.50003730  0.16735706  0.16714689  1
  Sn  Sn36  1  0.16690358  0.50038129  0.16719873  1
  Sn  Sn37  1  0.49958865  0.83269433  0.83271467  1
  Sn  Sn38  1  0.16677187  0.49976150  0.49958394  1
  Sn  Sn39  1  0.16629860  0.83304945  0.16671134  1
  Sn  Sn40  1  0.49960954  0.50090739  0.83439569  1
  Pb  Pb41  1  0.49976000  0.16452989  0.49754861  1
  Pb  Pb42  1  0.49848181  0.83298570  0.16708779  1
  Pb  Pb43  1  0.49775774  0.50215708  0.49896009  1
  Pb  Pb44  1  0.82949539  0.50000230  0.83327849  1
  Pb  Pb45  1  0.83694139  0.83564268  0.16886417  1
  Pb  Pb46  1  0.83326178  0.16656229  0.83249185  1
  Pb  Pb47  1  0.83008020  0.83347476  0.82992969  1
  Pb  Pb48  1  0.16872674  0.83335118  0.83320353  1
  Pb  Pb49  1  0.16683543  0.16661751  0.83308817  1
  Pb  Pb50  1  0.16870619  0.50003917  0.83372732  1
  Pb  Pb51  1  0.83656563  0.49937638  0.49973907  1
  Pb  Pb52  1  0.49989355  0.16644145  0.83636321  1
  Pb  Pb53  1  0.83396897  0.49760840  0.16695097  1
  I  I54  1  0.16883943  0.00067116  0.17324986  1
  I  I55  1  0.16644209  -0.00020805  0.49406054  1
  I  I56  1  0.17056181  -0.00008549  0.83475186  1
  I  I57  1  0.16861551  0.33296672  0.17297519  1
  I  I58  1  0.16280292  0.33255110  0.49292449  1
  I  I59  1  0.16992564  0.33339138  0.83189938  1
  I  I60  1  0.17490409  0.66630698  0.17501779  1
  I  I61  1  0.16816024  0.66745348  0.49340611  1
  I  I62  1  0.16654730  0.66669567  0.83301005  1
  I  I63  1  0.49820722  0.00229032  0.16747362  1
  I  I64  1  0.49529642  -0.00351240  0.50406569  1
  I  I65  1  0.49971293  -0.00286815  0.82928354  1
  I  I66  1  0.49496428  0.33358059  0.16150859  1
  I  I67  1  0.50057750  0.33334581  0.50358151  1
  I  I68  1  0.49893087  0.33617293  0.83543161  1
  I  I69  1  0.49388358  0.66418099  0.16566701  1
  I  I70  1  0.49971706  0.67026866  0.49950447  1
  I  I71  1  0.49804806  0.66659427  0.83509233  1
  I  I72  1  0.83021499  0.00377179  0.16866619  1
  I  I73  1  0.83777974  0.00014905  0.49599064  1
  I  I74  1  0.82985526  -0.00012569  0.83648407  1
  I  I75  1  0.83653111  0.32927664  0.17386167  1
  I  I76  1  0.83696529  0.32962714  0.49539297  1
  I  I77  1  0.83175747  0.33318399  0.83105512  1
  I  I78  1  0.83214237  0.66694204  0.16752307  1
  I  I79  1  0.83330021  0.66963148  0.50120624  1
  I  I80  1  0.83622554  0.66698812  0.83214019  1
  I  I81  1  0.16675789  0.16672061  0.00431901  1
  I  I82  1  0.16656713  0.16627504  0.33295638  1
  I  I83  1  0.16180985  0.16552079  0.66244500  1
  I  I84  1  0.16961072  0.49837887  0.00376998  1
  I  I85  1  0.17303522  0.49990862  0.33257668  1
  I  I86  1  0.16706268  0.50091788  0.66349884  1
  I  I87  1  0.17038123  0.83483585  0.00327621  1
  I  I88  1  0.17018353  0.83394297  0.33442444  1
  I  I89  1  0.16499056  0.83366654  0.66267419  1
  I  I90  1  0.49837606  0.16536616  0.00470221  1
  I  I91  1  0.49860220  0.17134282  0.32947538  1
  I  I92  1  0.50042825  0.16888835  0.66635842  1
  I  I93  1  0.49345168  0.50129979  0.00129437  1
  I  I94  1  0.49719905  0.49663232  0.33012011  1
  I  I95  1  0.49849067  0.50318909  0.66837684  1
  I  I96  1  0.49664267  0.83288061  -0.00166793  1
  I  I97  1  0.50012167  0.83413231  0.33608678  1
  I  I98  1  0.49776136  0.82810068  0.66571000  1
  I  I99  1  0.83425703  0.16797202  0.00340352  1
  I  I100  1  0.83469548  0.16266150  0.33359312  1
  I  I101  1  0.83861234  0.16207401  0.66246137  1
  I  I102  1  0.83880431  0.49778592  0.00029594  1
  I  I103  1  0.82558209  0.50287254  0.33341124  1
  I  I104  1  0.83413393  0.49759139  0.66628144  1
  I  I105  1  0.83328660  0.83487181  0.00009037  1
  I  I106  1  0.82685863  0.83452056  0.33700864  1
  I  I107  1  0.84033951  0.84029990  0.66181279  1
  I  I108  1  0.00122461  0.16644252  0.17229739  1
  I  I109  1  0.00100247  0.16099808  0.49093859  1
  I  I110  1  0.00002118  0.16697592  0.83788636  1
  I  I111  1  0.00386434  0.49950697  0.17297948  1
  I  I112  1  0.00477204  0.50419426  0.49211570  1
  I  I113  1  0.00009069  0.49934742  0.83368813  1
  I  I114  1  0.00509279  0.83169795  0.17300172  1
  I  I115  1  0.00118784  0.83485560  0.49386925  1
  I  I116  1  -0.00019738  0.83395454  0.83386521  1
  I  I117  1  0.33223567  0.16722088  0.16983017  1
  I  I118  1  0.33016152  0.16566359  0.49583775  1
  I  I119  1  0.33362597  0.16601863  0.83179072  1
  I  I120  1  0.33277854  0.49499503  0.16658318  1
  I  I121  1  0.32961567  0.49916046  0.49831083  1
  I  I122  1  0.33654398  0.50424368  0.83512257  1
  I  I123  1  0.33042188  0.83791176  0.17241785  1
  I  I124  1  0.33217982  0.83354271  0.50022962  1
  I  I125  1  0.33654974  0.82983647  0.82715677  1
  I  I126  1  0.66660884  0.17106208  0.17031623  1
  I  I127  1  0.66912063  0.16113257  0.49565836  1
  I  I128  1  0.66640740  0.16733865  0.83307201  1
  I  I129  1  0.66354478  0.49618136  0.16172300  1
  I  I130  1  0.66644390  0.50055695  0.50140064  1
  I  I131  1  0.66141695  0.50426337  0.83926088  1
  I  I132  1  0.66687708  0.83394712  0.16731638  1
  I  I133  1  0.66664206  0.83854089  0.50512573  1
  I  I134  1  0.66219455  0.82932825  0.83048639  1
