# generated using pymatgen
data_Cs27Sn13Pb14I81
_symmetry_space_group_name_H-M   'P 1'
_cell_length_a   19.00135808
_cell_length_b   18.98915668
_cell_length_c   18.98439079
_cell_angle_alpha   90.00293851
_cell_angle_beta   89.99914746
_cell_angle_gamma   90.00026949
_symmetry_Int_Tables_number   1
_chemical_formula_structural   Cs27Sn13Pb14I81
_chemical_formula_sum   'Cs27 Sn13 Pb14 I81'
_cell_volume   6849.94342691
_cell_formula_units_Z   1
loop_
 _symmetry_equiv_pos_site_id
 _symmetry_equiv_pos_as_xyz
  1  'x, y, z'
loop_
 _atom_site_type_symbol
 _atom_site_label
 _atom_site_symmetry_multiplicity
 _atom_site_fract_x
 _atom_site_fract_y
 _atom_site_fract_z
 _atom_site_occupancy
  Cs  Cs0  1  0.00066358  -0.00015618  0.00091353  1
  Cs  Cs1  1  -0.00013322  -0.00115414  0.33440904  1
  Cs  Cs2  1  0.00021324  0.00171994  0.66549262  1
  Cs  Cs3  1  -0.00515784  0.33227288  0.00227968  1
  Cs  Cs4  1  0.00074689  0.33899520  0.32394178  1
  Cs  Cs5  1  0.00251486  0.32970825  0.66945074  1
  Cs  Cs6  1  -0.00034477  0.66667809  0.00074592  1
  Cs  Cs7  1  0.00177378  0.66120684  0.33795877  1
  Cs  Cs8  1  -0.00227130  0.66554525  0.66435913  1
  Cs  Cs9  1  0.33059129  -0.00250418  -0.00136258  1
  Cs  Cs10  1  0.33357101  0.00059761  0.33320431  1
  Cs  Cs11  1  0.33278431  0.00025791  0.66757798  1
  Cs  Cs12  1  0.33407724  0.33347094  0.00034811  1
  Cs  Cs13  1  0.34402833  0.34330942  0.32865026  1
  Cs  Cs14  1  0.33240782  0.33212628  0.66589629  1
  Cs  Cs15  1  0.33328250  0.66979629  -0.00115636  1
  Cs  Cs16  1  0.33081913  0.66145034  0.33173917  1
  Cs  Cs17  1  0.33271857  0.66771365  0.66873554  1
  Cs  Cs18  1  0.66734888  -0.00267186  -0.00043999  1
  Cs  Cs19  1  0.66632601  0.00000857  0.33420341  1
  Cs  Cs20  1  0.66770615  -0.00014841  0.66619618  1
  Cs  Cs21  1  0.67026227  0.33600386  0.00482283  1
  Cs  Cs22  1  0.65445998  0.33773636  0.32271971  1
  Cs  Cs23  1  0.66585760  0.33247306  0.66607716  1
  Cs  Cs24  1  0.66657328  0.66871160  -0.00151004  1
  Cs  Cs25  1  0.66847081  0.66526723  0.33725826  1
  Cs  Cs26  1  0.67243316  0.66795289  0.66501872  1
  Sn  Sn27  1  0.49950996  0.49902185  0.83268432  1
  Sn  Sn28  1  0.83398436  0.16706122  0.50004572  1
  Sn  Sn29  1  0.16519593  0.83327027  0.83225582  1
  Sn  Sn30  1  0.16731069  0.49981597  0.83297502  1
  Sn  Sn31  1  0.16607466  0.16645823  0.49995455  1
  Sn  Sn32  1  0.50021595  0.16755460  0.83329968  1
  Sn  Sn33  1  0.83293300  0.83368119  0.16633581  1
  Sn  Sn34  1  0.83468009  0.83436471  0.83391527  1
  Sn  Sn35  1  0.50062961  0.83384119  0.16819123  1
  Sn  Sn36  1  0.16660957  0.16674487  0.83307204  1
  Sn  Sn37  1  0.49874386  0.83359689  0.49911724  1
  Sn  Sn38  1  0.83324308  0.16555961  0.83245318  1
  Sn  Sn39  1  0.16760454  0.83433841  0.50098697  1
  Pb  Pb40  1  0.16630499  0.83352320  0.16734462  1
  Pb  Pb41  1  0.83357416  0.49962555  0.83295903  1
  Pb  Pb42  1  0.16686218  0.16655385  0.16778651  1
  Pb  Pb43  1  0.83341834  0.16452150  0.16717292  1
  Pb  Pb44  1  0.83406468  0.83465951  0.50010589  1
  Pb  Pb45  1  0.49979832  0.16383902  0.16355062  1
  Pb  Pb46  1  0.49997505  0.50350874  0.16336256  1
  Pb  Pb47  1  0.50001490  0.50303051  0.50311101  1
  Pb  Pb48  1  0.83337650  0.49485002  0.50030904  1
  Pb  Pb49  1  0.50015429  0.83351788  0.83284681  1
  Pb  Pb50  1  0.83325364  0.50360343  0.16665693  1
  Pb  Pb51  1  0.16648095  0.49894438  0.50229609  1
  Pb  Pb52  1  0.16674117  0.50000146  0.16325810  1
  Pb  Pb53  1  0.49954860  0.16508356  0.50179131  1
  I  I54  1  0.16754720  -0.00031203  0.15966596  1
  I  I55  1  0.16697997  -0.00051790  0.50932199  1
  I  I56  1  0.16705508  -0.00008694  0.83032535  1
  I  I57  1  0.16590865  0.33332754  0.16674568  1
  I  I58  1  0.16076764  0.32937918  0.50739140  1
  I  I59  1  0.16770642  0.33201361  0.82921645  1
  I  I60  1  0.16640673  0.66711324  0.16552877  1
  I  I61  1  0.17046118  0.66974545  0.50404281  1
  I  I62  1  0.16824919  0.66799211  0.83053634  1
  I  I63  1  0.50382030  -0.00401549  0.16705740  1
  I  I64  1  0.49869449  -0.00310618  0.50032505  1
  I  I65  1  0.49801305  0.00222356  0.83349572  1
  I  I66  1  0.49974389  0.33361057  0.16850919  1
  I  I67  1  0.50025026  0.33322198  0.49954446  1
  I  I68  1  0.49609627  0.33230606  0.83180929  1
  I  I69  1  0.50414584  0.67114030  0.16745874  1
  I  I70  1  0.49441301  0.67145521  0.49837978  1
  I  I71  1  0.49569547  0.66516217  0.83443514  1
  I  I72  1  0.82923775  -0.00337198  0.16251029  1
  I  I73  1  0.83439152  0.00247190  0.50341678  1
  I  I74  1  0.83523046  -0.00009303  0.83394679  1
  I  I75  1  0.83415881  0.33315782  0.16557014  1
  I  I76  1  0.84081166  0.32714349  0.51199683  1
  I  I77  1  0.83577557  0.32969992  0.82872101  1
  I  I78  1  0.82916620  0.67193714  0.15803097  1
  I  I79  1  0.83292460  0.66692713  0.50003531  1
  I  I80  1  0.83501397  0.66988273  0.83775408  1
  I  I81  1  0.16600644  0.16504460  -0.00438167  1
  I  I82  1  0.15979025  0.15710476  0.33769316  1
  I  I83  1  0.16581009  0.16501250  0.66846499  1
  I  I84  1  0.17105910  0.50162213  -0.00557463  1
  I  I85  1  0.16556239  0.50138429  0.33367195  1
  I  I86  1  0.17092560  0.50096938  0.67070021  1
  I  I87  1  0.16711756  0.83416097  -0.00347220  1
  I  I88  1  0.16746371  0.83947327  0.33692159  1
  I  I89  1  0.16782669  0.83417066  0.66805309  1
  I  I90  1  0.49963863  0.16796371  -0.00522171  1
  I  I91  1  0.50045094  0.16661650  0.33345787  1
  I  I92  1  0.49974686  0.16621193  0.67040748  1
  I  I93  1  0.49509181  0.49773626  -0.00429265  1
  I  I94  1  0.50053171  0.49798680  0.33315988  1
  I  I95  1  0.49530786  0.49842734  0.67093147  1
  I  I96  1  0.50135515  0.83300875  0.00124812  1
  I  I97  1  0.50087053  0.83559518  0.33377834  1
  I  I98  1  0.49869334  0.83351991  0.66474930  1
  I  I99  1  0.83460083  0.16499474  -0.00357991  1
  I  I100  1  0.84032211  0.16246873  0.33679496  1
  I  I101  1  0.83417540  0.15926818  0.66870826  1
  I  I102  1  0.83406449  0.49585876  -0.00055958  1
  I  I103  1  0.83451241  0.50205035  0.33339171  1
  I  I104  1  0.83185124  0.50880278  0.66716735  1
  I  I105  1  0.83234331  0.83872732  -0.00199943  1
  I  I106  1  0.83122360  0.83576709  0.33133924  1
  I  I107  1  0.83290370  0.83483888  0.66955906  1
  I  I108  1  -0.00002420  0.16359778  0.16125531  1
  I  I109  1  0.00078668  0.15773503  0.51143802  1
  I  I110  1  0.00034762  0.16549976  0.82965522  1
  I  I111  1  -0.00002434  0.50176068  0.16455436  1
  I  I112  1  0.00013925  0.50848466  0.50296589  1
  I  I113  1  0.00307417  0.49907994  0.83289115  1
  I  I114  1  -0.00268395  0.83481160  0.16268367  1
  I  I115  1  0.00289753  0.83535297  0.50185170  1
  I  I116  1  0.00059450  0.83561964  0.83420263  1
  I  I117  1  0.33346751  0.16246558  0.16461057  1
  I  I118  1  0.33016862  0.16189549  0.50748208  1
  I  I119  1  0.33229301  0.16572451  0.83002330  1
  I  I120  1  0.33364018  0.50275841  0.16800070  1
  I  I121  1  0.33325710  0.49649792  0.49942732  1
  I  I122  1  0.33262902  0.49824988  0.83296942  1
  I  I123  1  0.33573663  0.83316874  0.16522907  1
  I  I124  1  0.33209502  0.83942300  0.50238574  1
  I  I125  1  0.33083988  0.83556920  0.83322126  1
  I  I126  1  0.66663440  0.16660561  0.16632340  1
  I  I127  1  0.66898057  0.16222427  0.50761317  1
  I  I128  1  0.66740473  0.16447309  0.82907831  1
  I  I129  1  0.66636666  0.49771486  0.16290922  1
  I  I130  1  0.66655556  0.50328024  0.50455136  1
  I  I131  1  0.66404869  0.49817830  0.83409269  1
  I  I132  1  0.66693096  0.83465138  0.16373475  1
  I  I133  1  0.66506587  0.83490085  0.50068188  1
  I  I134  1  0.66884076  0.83614401  0.83391140  1
