# generated using pymatgen
data_Cs27Sn14Pb13I81
_symmetry_space_group_name_H-M   'P 1'
_cell_length_a   18.98020113
_cell_length_b   18.97228357
_cell_length_c   18.97495599
_cell_angle_alpha   89.99834197
_cell_angle_beta   90.00162277
_cell_angle_gamma   89.99947098
_symmetry_Int_Tables_number   1
_chemical_formula_structural   Cs27Sn14Pb13I81
_chemical_formula_sum   'Cs27 Sn14 Pb13 I81'
_cell_volume   6832.83910200
_cell_formula_units_Z   1
loop_
 _symmetry_equiv_pos_site_id
 _symmetry_equiv_pos_as_xyz
  1  'x, y, z'
loop_
 _atom_site_type_symbol
 _atom_site_label
 _atom_site_symmetry_multiplicity
 _atom_site_fract_x
 _atom_site_fract_y
 _atom_site_fract_z
 _atom_site_occupancy
  Cs  Cs0  1  -0.00053101  -0.00012259  -0.00150288  1
  Cs  Cs1  1  0.00002724  0.00014512  0.33330693  1
  Cs  Cs2  1  -0.00050030  0.00195634  0.66812793  1
  Cs  Cs3  1  -0.00050586  0.34029499  -0.00090014  1
  Cs  Cs4  1  -0.00136444  0.33123588  0.33768817  1
  Cs  Cs5  1  0.00083472  0.33033125  0.66339622  1
  Cs  Cs6  1  0.00164702  0.65718197  0.00129312  1
  Cs  Cs7  1  0.00109080  0.66807907  0.33114402  1
  Cs  Cs8  1  -0.00190080  0.66492899  0.66744569  1
  Cs  Cs9  1  0.33549137  0.00034366  -0.00153225  1
  Cs  Cs10  1  0.33200212  -0.00130740  0.33234067  1
  Cs  Cs11  1  0.33369465  -0.00012426  0.66814365  1
  Cs  Cs12  1  0.33492099  0.33726119  0.00104996  1
  Cs  Cs13  1  0.33736180  0.33052378  0.33205773  1
  Cs  Cs14  1  0.33086282  0.33216313  0.66734699  1
  Cs  Cs15  1  0.32857651  0.66264672  -0.00114761  1
  Cs  Cs16  1  0.33188137  0.67137999  0.33505955  1
  Cs  Cs17  1  0.33864482  0.66730234  0.66581570  1
  Cs  Cs18  1  0.66512716  -0.00093303  -0.00005677  1
  Cs  Cs19  1  0.66780644  0.00017819  0.33098108  1
  Cs  Cs20  1  0.66734542  -0.00008257  0.66926513  1
  Cs  Cs21  1  0.66625639  0.34224163  0.00370776  1
  Cs  Cs22  1  0.66594985  0.33286059  0.33169131  1
  Cs  Cs23  1  0.66649457  0.33302168  0.66672579  1
  Cs  Cs24  1  0.66956289  0.66516134  -0.00141004  1
  Cs  Cs25  1  0.66649325  0.66668175  0.33553170  1
  Cs  Cs26  1  0.66262500  0.66625201  0.66648255  1
  Sn  Sn27  1  0.83277459  0.83432869  0.16713933  1
  Sn  Sn28  1  0.16571696  0.16634156  0.16631079  1
  Sn  Sn29  1  0.49952461  0.16625327  0.83294730  1
  Sn  Sn30  1  0.50042542  0.83365436  0.16574425  1
  Sn  Sn31  1  0.83340904  0.83371408  0.49946882  1
  Sn  Sn32  1  0.16634905  0.49956301  0.49994493  1
  Sn  Sn33  1  0.83298095  0.16619653  0.49932380  1
  Sn  Sn34  1  0.50002915  0.16604491  0.50076541  1
  Sn  Sn35  1  0.16705415  0.83406906  0.83328632  1
  Sn  Sn36  1  0.49903608  0.83434984  0.83467239  1
  Sn  Sn37  1  0.16700063  0.16698972  0.49984663  1
  Sn  Sn38  1  0.83413236  0.49984433  0.49981699  1
  Sn  Sn39  1  0.16733771  0.16589088  0.83387174  1
  Sn  Sn40  1  0.83416420  0.16578666  0.16694963  1
  Pb  Pb41  1  0.49976592  0.49977892  0.83327654  1
  Pb  Pb42  1  0.50029790  0.16539546  0.16608551  1
  Pb  Pb43  1  0.49968262  0.49708842  0.49993611  1
  Pb  Pb44  1  0.16679428  0.49941592  0.83056831  1
  Pb  Pb45  1  0.16605039  0.83529926  0.16421384  1
  Pb  Pb46  1  0.16669422  0.49660621  0.17012622  1
  Pb  Pb47  1  0.16443433  0.83376529  0.50215148  1
  Pb  Pb48  1  0.83338431  0.50001706  0.16941059  1
  Pb  Pb49  1  0.49986928  0.50435484  0.16697173  1
  Pb  Pb50  1  0.50223037  0.83581151  0.50019885  1
  Pb  Pb51  1  0.83340592  0.83343928  0.83411146  1
  Pb  Pb52  1  0.83306849  0.16685313  0.83421181  1
  Pb  Pb53  1  0.83334145  0.49984162  0.83005473  1
  I  I54  1  0.16510159  0.00359049  0.17332319  1
  I  I55  1  0.16567088  0.00363662  0.49879734  1
  I  I56  1  0.17061657  0.00167449  0.83010976  1
  I  I57  1  0.16070184  0.32802210  0.16097887  1
  I  I58  1  0.16136892  0.33086628  0.50207964  1
  I  I59  1  0.17056640  0.32938791  0.83437943  1
  I  I60  1  0.16710503  0.66681228  0.16592965  1
  I  I61  1  0.16102390  0.66460900  0.50259630  1
  I  I62  1  0.17040400  0.66949018  0.83189416  1
  I  I63  1  0.50230950  -0.00237258  0.16555699  1
  I  I64  1  0.49850896  0.00400207  0.50159790  1
  I  I65  1  0.49543408  0.00037491  0.83229631  1
  I  I66  1  0.50075423  0.33292912  0.16646358  1
  I  I67  1  0.50391549  0.32850377  0.50530102  1
  I  I68  1  0.49574395  0.32948886  0.82778387  1
  I  I69  1  0.50715790  0.67252815  0.16119683  1
  I  I70  1  0.50069579  0.66703428  0.50016233  1
  I  I71  1  0.49642992  0.67042114  0.83692887  1
  I  I72  1  0.83353293  0.00043040  0.17600293  1
  I  I73  1  0.83364411  0.00125634  0.49611952  1
  I  I74  1  0.83413819  0.00016581  0.82701748  1
  I  I75  1  0.83718432  0.32989575  0.17001087  1
  I  I76  1  0.83439733  0.33164947  0.49728326  1
  I  I77  1  0.83306141  0.33281656  0.83420636  1
  I  I78  1  0.82808678  0.66998606  0.17025741  1
  I  I79  1  0.83826275  0.66702947  0.49687132  1
  I  I80  1  0.83352658  0.66707608  0.83282956  1
  I  I81  1  0.16683089  0.15964038  -0.00048062  1
  I  I82  1  0.16584163  0.17120274  0.33426117  1
  I  I83  1  0.16659799  0.16717328  0.66596853  1
  I  I84  1  0.16696891  0.49981349  -0.00000418  1
  I  I85  1  0.16123033  0.49575512  0.33797179  1
  I  I86  1  0.16114892  0.49291248  0.66297326  1
  I  I87  1  0.16630221  0.84053738  -0.00357200  1
  I  I88  1  0.16942136  0.83324596  0.33332727  1
  I  I89  1  0.17128906  0.83926648  0.66984316  1
  I  I90  1  0.49628326  0.16315016  -0.00276789  1
  I  I91  1  0.49800196  0.16586133  0.33572889  1
  I  I92  1  0.49765100  0.16149840  0.66654057  1
  I  I93  1  0.50056955  0.49293119  0.00001263  1
  I  I94  1  0.49995795  0.49824322  0.33378388  1
  I  I95  1  0.50195504  0.50554638  0.66636943  1
  I  I96  1  0.50271013  0.84136889  -0.00071430  1
  I  I97  1  0.50297593  0.83535147  0.33117585  1
  I  I98  1  0.49756457  0.83526498  0.66934256  1
  I  I99  1  0.83627069  0.15918873  0.00349153  1
  I  I100  1  0.83603508  0.16620172  0.33470971  1
  I  I101  1  0.83562282  0.16632688  0.66335022  1
  I  I102  1  0.83237243  0.49995374  0.00048830  1
  I  I103  1  0.83782284  0.49884528  0.33736463  1
  I  I104  1  0.83744505  0.49898569  0.66151856  1
  I  I105  1  0.83151492  0.84095008  0.00328828  1
  I  I106  1  0.82810015  0.83467676  0.33344876  1
  I  I107  1  0.83394938  0.83441637  0.66383236  1
  I  I108  1  -0.00051667  0.16060289  0.17098701  1
  I  I109  1  -0.00012208  0.16754340  0.50007763  1
  I  I110  1  0.00317444  0.16203066  0.82963340  1
  I  I111  1  0.00004278  0.50575287  0.16374025  1
  I  I112  1  -0.00052319  0.49354341  0.50071079  1
  I  I113  1  0.00033664  0.50141688  0.83540047  1
  I  I114  1  -0.00300341  0.83617828  0.17088860  1
  I  I115  1  -0.00360490  0.83787398  0.49585347  1
  I  I116  1  0.00271967  0.83946277  0.83080194  1
  I  I117  1  0.33098386  0.16507455  0.17051178  1
  I  I118  1  0.33238517  0.17161702  0.50025258  1
  I  I119  1  0.33277809  0.16233010  0.82886797  1
  I  I120  1  0.33308150  0.49848113  0.16948855  1
  I  I121  1  0.33019737  0.49449328  0.50121198  1
  I  I122  1  0.33316142  0.50058943  0.82942961  1
  I  I123  1  0.33551820  0.83593048  0.16486384  1
  I  I124  1  0.33338895  0.83242158  0.49741293  1
  I  I125  1  0.33392957  0.83848416  0.83750963  1
  I  I126  1  0.66940801  0.16411596  0.17156561  1
  I  I127  1  0.66764126  0.16623053  0.50007368  1
  I  I128  1  0.66354467  0.16082629  0.82807072  1
  I  I129  1  0.66689605  0.49329984  0.16931967  1
  I  I130  1  0.66985267  0.49941594  0.49965087  1
  I  I131  1  0.66646071  0.49974276  0.83106255  1
  I  I132  1  0.66757171  0.84050894  0.16548709  1
  I  I133  1  0.67033230  0.83339985  0.50113950  1
  I  I134  1  0.66373857  0.83872386  0.83330329  1
