# generated using pymatgen
data_Cs27Sn13Pb14I81
_symmetry_space_group_name_H-M   'P 1'
_cell_length_a   18.97498992
_cell_length_b   18.97722595
_cell_length_c   18.97704641
_cell_angle_alpha   89.99867059
_cell_angle_beta   89.99884107
_cell_angle_gamma   90.00065778
_symmetry_Int_Tables_number   1
_chemical_formula_structural   Cs27Sn13Pb14I81
_chemical_formula_sum   'Cs27 Sn13 Pb14 I81'
_cell_volume   6833.49532745
_cell_formula_units_Z   1
loop_
 _symmetry_equiv_pos_site_id
 _symmetry_equiv_pos_as_xyz
  1  'x, y, z'
loop_
 _atom_site_type_symbol
 _atom_site_label
 _atom_site_symmetry_multiplicity
 _atom_site_fract_x
 _atom_site_fract_y
 _atom_site_fract_z
 _atom_site_occupancy
  Cs  Cs0  1  0.00157452  -0.00153338  -0.00072743  1
  Cs  Cs1  1  0.00115299  0.00061708  0.32955527  1
  Cs  Cs2  1  -0.00062641  -0.00232162  0.66951650  1
  Cs  Cs3  1  -0.00190337  0.33389454  0.00105464  1
  Cs  Cs4  1  0.00014456  0.33387605  0.33354150  1
  Cs  Cs5  1  0.00072539  0.33452387  0.66505911  1
  Cs  Cs6  1  -0.00078663  0.66780392  0.00053768  1
  Cs  Cs7  1  -0.00187441  0.66552085  0.33261832  1
  Cs  Cs8  1  0.00080510  0.66719803  0.66674072  1
  Cs  Cs9  1  0.32816789  0.00194418  0.00598927  1
  Cs  Cs10  1  0.33845350  0.00797635  0.32853710  1
  Cs  Cs11  1  0.33392753  -0.00193821  0.66426759  1
  Cs  Cs12  1  0.34366244  0.33600993  -0.00012950  1
  Cs  Cs13  1  0.33086622  0.32368020  0.33308669  1
  Cs  Cs14  1  0.33046828  0.33431095  0.66619261  1
  Cs  Cs15  1  0.33648483  0.66311357  -0.00100489  1
  Cs  Cs16  1  0.33974414  0.66881757  0.33169030  1
  Cs  Cs17  1  0.32974999  0.66687409  0.66899306  1
  Cs  Cs18  1  0.66647469  0.00227373  -0.00265274  1
  Cs  Cs19  1  0.66168263  -0.00317850  0.33489820  1
  Cs  Cs20  1  0.66544728  0.00093759  0.66697721  1
  Cs  Cs21  1  0.66213586  0.33203230  -0.00166467  1
  Cs  Cs22  1  0.66941877  0.33665774  0.33320122  1
  Cs  Cs23  1  0.66819685  0.33086454  0.66814754  1
  Cs  Cs24  1  0.66643600  0.66615386  0.00263986  1
  Cs  Cs25  1  0.66656026  0.66677296  0.33428558  1
  Cs  Cs26  1  0.66841924  0.66798644  0.66413282  1
  Sn  Sn27  1  0.83311665  0.83244097  0.83262299  1
  Sn  Sn28  1  0.83439672  0.83374436  0.50066333  1
  Sn  Sn29  1  0.83278496  0.50001984  0.50019841  1
  Sn  Sn30  1  0.16624002  0.50027264  0.16680371  1
  Sn  Sn31  1  0.16673903  0.83414364  0.83267561  1
  Sn  Sn32  1  0.50018569  0.49972684  0.50027495  1
  Sn  Sn33  1  0.16649854  0.16671604  0.83319634  1
  Sn  Sn34  1  0.83358386  0.16717768  0.16742092  1
  Sn  Sn35  1  0.49999613  0.83340922  0.83343118  1
  Sn  Sn36  1  0.83373334  0.16618852  0.49910570  1
  Sn  Sn37  1  0.83423165  0.49914396  0.16655550  1
  Sn  Sn38  1  0.83356910  0.50066276  0.83324595  1
  Sn  Sn39  1  0.16611678  0.83332323  0.49965852  1
  Pb  Pb40  1  0.83319866  0.83342329  0.16686425  1
  Pb  Pb41  1  0.49987954  0.83181706  0.50156738  1
  Pb  Pb42  1  0.16417823  0.16388508  0.50168585  1
  Pb  Pb43  1  0.16479142  0.50033493  0.83511279  1
  Pb  Pb44  1  0.50262593  0.16938763  0.50034085  1
  Pb  Pb45  1  0.49654679  0.16396637  0.83300046  1
  Pb  Pb46  1  0.49998084  0.83327426  0.16360141  1
  Pb  Pb47  1  0.50350334  0.16683386  0.16665870  1
  Pb  Pb48  1  0.50290632  0.50193387  0.83082143  1
  Pb  Pb49  1  0.16659830  0.83125925  0.16692883  1
  Pb  Pb50  1  0.50055148  0.49990696  0.16927935  1
  Pb  Pb51  1  0.16442651  0.16922369  0.16423539  1
  Pb  Pb52  1  0.83459930  0.16650907  0.83321812  1
  Pb  Pb53  1  0.16649250  0.50206023  0.49796021  1
  I  I54  1  0.16495630  0.00020493  0.16689194  1
  I  I55  1  0.16070250  -0.00427283  0.50285095  1
  I  I56  1  0.16289952  -0.00208828  0.83022050  1
  I  I57  1  0.16198641  0.33686128  0.16669336  1
  I  I58  1  0.16615182  0.33334717  0.50141100  1
  I  I59  1  0.16169188  0.33150396  0.83488281  1
  I  I60  1  0.15786889  0.66359235  0.16484297  1
  I  I61  1  0.15986249  0.66992928  0.50761082  1
  I  I62  1  0.16697953  0.66997157  0.83077281  1
  I  I63  1  0.50102798  0.00010190  0.16801690  1
  I  I64  1  0.50146485  -0.00013093  0.50117516  1
  I  I65  1  0.50846610  -0.00415487  0.83094550  1
  I  I66  1  0.49790480  0.33367095  0.16507962  1
  I  I67  1  0.50610844  0.33739535  0.50019737  1
  I  I68  1  0.50003496  0.33352677  0.83353625  1
  I  I69  1  0.50242175  0.66628238  0.16704782  1
  I  I70  1  0.50766525  0.66411305  0.49999249  1
  I  I71  1  0.49508765  0.66979983  0.83229371  1
  I  I72  1  0.83336769  0.00272163  0.16893012  1
  I  I73  1  0.83825499  -0.00097169  0.50119257  1
  I  I74  1  0.83231923  -0.00319936  0.83058081  1
  I  I75  1  0.83774708  0.33473267  0.16990177  1
  I  I76  1  0.82871949  0.33433317  0.49995485  1
  I  I77  1  0.83637722  0.33587062  0.83087505  1
  I  I78  1  0.83627253  0.66347266  0.16805221  1
  I  I79  1  0.83308695  0.66651368  0.50086362  1
  I  I80  1  0.83558654  0.66735980  0.83070872  1
  I  I81  1  0.16215810  0.15783205  -0.00327505  1
  I  I82  1  0.16719223  0.16583900  0.33322220  1
  I  I83  1  0.16275217  0.16579509  0.66956486  1
  I  I84  1  0.15884362  0.50211802  0.00274488  1
  I  I85  1  0.15893230  0.50193474  0.33049464  1
  I  I86  1  0.16577672  0.49880991  0.66668479  1
  I  I87  1  0.16451455  0.83622074  -0.00359581  1
  I  I88  1  0.15867166  0.82950342  0.33655880  1
  I  I89  1  0.16443268  0.83516744  0.66765583  1
  I  I90  1  0.50312239  0.16695066  -0.00030599  1
  I  I91  1  0.49648509  0.16543164  0.33359876  1
  I  I92  1  0.50424893  0.16748909  0.66671050  1
  I  I93  1  0.50082012  0.50161100  -0.00016903  1
  I  I94  1  0.50784430  0.50320906  0.33673941  1
  I  I95  1  0.50632451  0.50129695  0.66331693  1
  I  I96  1  0.50170173  0.83139561  -0.00488545  1
  I  I97  1  0.50082194  0.83139835  0.33378605  1
  I  I98  1  0.50104736  0.83153114  0.66956164  1
  I  I99  1  0.83549075  0.17019557  0.00203646  1
  I  I100  1  0.83450903  0.17085348  0.33404010  1
  I  I101  1  0.83472675  0.16923400  0.66404152  1
  I  I102  1  0.83876565  0.50069927  -0.00002867  1
  I  I103  1  0.83317644  0.49982839  0.33399298  1
  I  I104  1  0.82938150  0.50083621  0.66606041  1
  I  I105  1  0.83439116  0.83030113  -0.00344384  1
  I  I106  1  0.83799607  0.83059139  0.33688981  1
  I  I107  1  0.83431201  0.83013937  0.66681197  1
  I  I108  1  -0.00356975  0.16919995  0.17033248  1
  I  I109  1  -0.00419155  0.17254968  0.49733763  1
  I  I110  1  0.00198544  0.16006416  0.83330900  1
  I  I111  1  -0.00261938  0.49757478  0.16851883  1
  I  I112  1  -0.00373111  0.49906406  0.50136577  1
  I  I113  1  -0.00381278  0.50509159  0.82887572  1
  I  I114  1  -0.00031796  0.83392965  0.16219058  1
  I  I115  1  -0.00177116  0.83077094  0.50848773  1
  I  I116  1  -0.00065837  0.83313119  0.82927656  1
  I  I117  1  0.33298543  0.16804340  0.16539179  1
  I  I118  1  0.33298383  0.16729000  0.50134205  1
  I  I119  1  0.32868609  0.16254375  0.83334371  1
  I  I120  1  0.33087650  0.50292894  0.16625200  1
  I  I121  1  0.33533037  0.50437360  0.49888589  1
  I  I122  1  0.33334117  0.50084445  0.83430410  1
  I  I123  1  0.33305175  0.82971675  0.16752969  1
  I  I124  1  0.33062524  0.82872528  0.50592572  1
  I  I125  1  0.33213179  0.83747663  0.82848178  1
  I  I126  1  0.67181204  0.17390936  0.16830104  1
  I  I127  1  0.67159515  0.16153805  0.49797184  1
  I  I128  1  0.66690717  0.16600494  0.83424773  1
  I  I129  1  0.67065855  0.49660946  0.16498664  1
  I  I130  1  0.66991069  0.50269369  0.49817344  1
  I  I131  1  0.67145343  0.50406852  0.83773900  1
  I  I132  1  0.66714677  0.83108694  0.16711497  1
  I  I133  1  0.67028200  0.83422475  0.50381035  1
  I  I134  1  0.66847630  0.82819186  0.82956183  1
