# generated using pymatgen
data_Cs27Sn14Pb13I81
_symmetry_space_group_name_H-M   'P 1'
_cell_length_a   18.97969339
_cell_length_b   18.96960820
_cell_length_c   18.97511660
_cell_angle_alpha   90.00268135
_cell_angle_beta   90.00036414
_cell_angle_gamma   90.00285842
_symmetry_Int_Tables_number   1
_chemical_formula_structural   Cs27Sn14Pb13I81
_chemical_formula_sum   'Cs27 Sn14 Pb13 I81'
_cell_volume   6831.75063045
_cell_formula_units_Z   1
loop_
 _symmetry_equiv_pos_site_id
 _symmetry_equiv_pos_as_xyz
  1  'x, y, z'
loop_
 _atom_site_type_symbol
 _atom_site_label
 _atom_site_symmetry_multiplicity
 _atom_site_fract_x
 _atom_site_fract_y
 _atom_site_fract_z
 _atom_site_occupancy
  Cs  Cs0  1  -0.00954893  -0.00313775  -0.00033738  1
  Cs  Cs1  1  -0.00119399  0.00145138  0.33418760  1
  Cs  Cs2  1  0.00097573  0.00201516  0.66574296  1
  Cs  Cs3  1  0.00249844  0.33692671  -0.00190743  1
  Cs  Cs4  1  0.00713939  0.32630884  0.33918366  1
  Cs  Cs5  1  -0.00146848  0.33084161  0.66599120  1
  Cs  Cs6  1  -0.00068768  0.66591219  0.00063276  1
  Cs  Cs7  1  0.00073669  0.66854605  0.33256733  1
  Cs  Cs8  1  0.00114636  0.66691838  0.66677209  1
  Cs  Cs9  1  0.33535457  -0.00136567  -0.00305776  1
  Cs  Cs10  1  0.33303790  0.00395859  0.33363137  1
  Cs  Cs11  1  0.33425930  -0.00226727  0.66803833  1
  Cs  Cs12  1  0.33505585  0.33520693  0.00119668  1
  Cs  Cs13  1  0.32954521  0.32859157  0.32919292  1
  Cs  Cs14  1  0.33369567  0.33292895  0.66780471  1
  Cs  Cs15  1  0.33240584  0.66630568  -0.00108993  1
  Cs  Cs16  1  0.33305715  0.66684750  0.33408195  1
  Cs  Cs17  1  0.33402021  0.67008346  0.66650535  1
  Cs  Cs18  1  0.67066773  0.00276265  0.00531306  1
  Cs  Cs19  1  0.66744123  -0.00103869  0.32358027  1
  Cs  Cs20  1  0.66412048  0.00010827  0.66743827  1
  Cs  Cs21  1  0.66322424  0.33429980  -0.00317420  1
  Cs  Cs22  1  0.66628315  0.33457069  0.33848035  1
  Cs  Cs23  1  0.66830390  0.33452805  0.66624036  1
  Cs  Cs24  1  0.66834618  0.66484040  0.00111907  1
  Cs  Cs25  1  0.66652989  0.66619978  0.33556427  1
  Cs  Cs26  1  0.66474432  0.66593013  0.66298620  1
  Sn  Sn27  1  0.50020096  0.16667623  0.50080894  1
  Sn  Sn28  1  0.16758390  0.83332303  0.16722643  1
  Sn  Sn29  1  0.16698220  0.50069465  0.50085939  1
  Sn  Sn30  1  0.83377599  0.83314580  0.50107876  1
  Sn  Sn31  1  0.50083165  0.50099311  0.16618908  1
  Sn  Sn32  1  0.83289541  0.49973738  0.16664593  1
  Sn  Sn33  1  0.49989515  0.49985539  0.83352036  1
  Sn  Sn34  1  0.49909612  0.16743821  0.83235169  1
  Sn  Sn35  1  0.83315545  0.50103153  0.83368878  1
  Sn  Sn36  1  0.16737081  0.16723901  0.83377213  1
  Sn  Sn37  1  0.16608259  0.83265614  0.49923645  1
  Sn  Sn38  1  0.16690028  0.49953037  0.83222777  1
  Sn  Sn39  1  0.49863984  0.83210831  0.16638474  1
  Sn  Sn40  1  0.83299128  0.83227143  0.83190612  1
  Pb  Pb41  1  0.83294256  0.16744083  0.83340802  1
  Pb  Pb42  1  0.16490890  0.83327500  0.83328631  1
  Pb  Pb43  1  0.83353082  0.17151298  0.16658546  1
  Pb  Pb44  1  0.83343664  0.83148618  0.16690228  1
  Pb  Pb45  1  0.83570864  0.50154251  0.50001204  1
  Pb  Pb46  1  0.16840091  0.16605199  0.50229405  1
  Pb  Pb47  1  0.50004521  0.16756745  0.16586528  1
  Pb  Pb48  1  0.83049074  0.16337465  0.50007916  1
  Pb  Pb49  1  0.16650734  0.16310301  0.16290798  1
  Pb  Pb50  1  0.50271565  0.83326310  0.83548269  1
  Pb  Pb51  1  0.49740397  0.49840093  0.49975921  1
  Pb  Pb52  1  0.49981583  0.83536362  0.49758653  1
  Pb  Pb53  1  0.16681638  0.50133478  0.16653970  1
  I  I54  1  0.17272817  -0.00495181  0.17262092  1
  I  I55  1  0.16375426  -0.00313117  0.49716157  1
  I  I56  1  0.17088365  0.00210723  0.83346590  1
  I  I57  1  0.16663797  0.33348258  0.16998272  1
  I  I58  1  0.16774557  0.33571366  0.50147358  1
  I  I59  1  0.16495585  0.33529297  0.82814853  1
  I  I60  1  0.16776223  0.66930087  0.16567393  1
  I  I61  1  0.16423998  0.66712096  0.50260806  1
  I  I62  1  0.16898109  0.66373570  0.83282299  1
  I  I63  1  0.49642341  -0.00244781  0.16736730  1
  I  I64  1  0.49795652  0.00291906  0.50652942  1
  I  I65  1  0.49573615  0.00245480  0.83078453  1
  I  I66  1  0.50437406  0.33684339  0.16464614  1
  I  I67  1  0.49793215  0.33070972  0.50009390  1
  I  I68  1  0.50095093  0.33472734  0.83561166  1
  I  I69  1  0.49988882  0.66565223  0.16126399  1
  I  I70  1  0.50073779  0.66673006  0.50181815  1
  I  I71  1  0.49695579  0.66346138  0.83612514  1
  I  I72  1  0.83237308  -0.00044795  0.16566268  1
  I  I73  1  0.84106179  -0.00472652  0.50581233  1
  I  I74  1  0.83472955  -0.00265439  0.83013270  1
  I  I75  1  0.82611692  0.33929984  0.15814376  1
  I  I76  1  0.83466915  0.33347958  0.49938111  1
  I  I77  1  0.83344918  0.33710377  0.83831975  1
  I  I78  1  0.83182670  0.66378273  0.16340321  1
  I  I79  1  0.83421098  0.66960627  0.50161622  1
  I  I80  1  0.83440233  0.66531401  0.83408973  1
  I  I81  1  0.17386265  0.17380922  -0.00479834  1
  I  I82  1  0.16878350  0.17000220  0.33346465  1
  I  I83  1  0.16897203  0.16649555  0.67011682  1
  I  I84  1  0.16642940  0.49793090  -0.00306546  1
  I  I85  1  0.16667586  0.50338145  0.33551164  1
  I  I86  1  0.16653402  0.50240457  0.66805311  1
  I  I87  1  0.16904545  0.83288968  0.00200194  1
  I  I88  1  0.16463037  0.82657746  0.33429700  1
  I  I89  1  0.16375082  0.83224983  0.66433370  1
  I  I90  1  0.49626862  0.16832602  -0.00331370  1
  I  I91  1  0.50005274  0.16561275  0.33528171  1
  I  I92  1  0.49634369  0.17116711  0.66858907  1
  I  I93  1  0.49874339  0.49793267  -0.00119923  1
  I  I94  1  0.50413927  0.50274297  0.33044899  1
  I  I95  1  0.50260350  0.49736873  0.66981213  1
  I  I96  1  0.49474719  0.83347785  0.00323025  1
  I  I97  1  0.50141897  0.82867525  0.32979882  1
  I  I98  1  0.49850621  0.83183947  0.66682172  1
  I  I99  1  0.83156468  0.15802483  -0.00039384  1
  I  I100  1  0.83099662  0.16543941  0.33349033  1
  I  I101  1  0.83457742  0.17021895  0.66684010  1
  I  I102  1  0.83480699  0.50657102  -0.00177231  1
  I  I103  1  0.82805683  0.50327043  0.33083934  1
  I  I104  1  0.83082138  0.50207349  0.66988847  1
  I  I105  1  0.83424942  0.83186882  -0.00208114  1
  I  I106  1  0.83442658  0.83200426  0.33543697  1
  I  I107  1  0.83880136  0.82766627  0.66706773  1
  I  I108  1  0.00024669  0.16528816  0.16574965  1
  I  I109  1  0.00028288  0.16837196  0.50109199  1
  I  I110  1  0.00256370  0.16973824  0.83341684  1
  I  I111  1  -0.00210540  0.50354002  0.16158753  1
  I  I112  1  0.00362256  0.50150640  0.50358156  1
  I  I113  1  0.00012044  0.50025475  0.83453154  1
  I  I114  1  0.00202299  0.83137371  0.16707764  1
  I  I115  1  0.00099048  0.82907444  0.49786642  1
  I  I116  1  -0.00285976  0.82946486  0.83528600  1
  I  I117  1  0.33329743  0.17068797  0.16882317  1
  I  I118  1  0.33602664  0.16504788  0.50236387  1
  I  I119  1  0.33401281  0.17381779  0.83016667  1
  I  I120  1  0.33595594  0.50217350  0.16300602  1
  I  I121  1  0.32966798  0.50671388  0.50429959  1
  I  I122  1  0.33348456  0.49504939  0.83446534  1
  I  I123  1  0.33340675  0.82711506  0.17113799  1
  I  I124  1  0.33046543  0.83077362  0.49795847  1
  I  I125  1  0.33348592  0.83176571  0.83199229  1
  I  I126  1  0.66639004  0.15862955  0.16482877  1
  I  I127  1  0.66275545  0.16786820  0.50731992  1
  I  I128  1  0.66347190  0.16979956  0.83034521  1
  I  I129  1  0.66573521  0.50657422  0.15786451  1
  I  I130  1  0.66652521  0.50027373  0.50157955  1
  I  I131  1  0.66629556  0.49965725  0.83874623  1
  I  I132  1  0.66461403  0.83229956  0.16620297  1
  I  I133  1  0.66899115  0.83460563  0.50286227  1
  I  I134  1  0.67042484  0.82934434  0.82909827  1
