# generated using pymatgen
data_Cs27Sn13Pb14I81
_symmetry_space_group_name_H-M   'P 1'
_cell_length_a   18.97719378
_cell_length_b   18.97676796
_cell_length_c   18.97760047
_cell_angle_alpha   89.99886115
_cell_angle_beta   90.00123914
_cell_angle_gamma   89.99585491
_symmetry_Int_Tables_number   1
_chemical_formula_structural   Cs27Sn13Pb14I81
_chemical_formula_sum   'Cs27 Sn13 Pb14 I81'
_cell_volume   6834.32358425
_cell_formula_units_Z   1
loop_
 _symmetry_equiv_pos_site_id
 _symmetry_equiv_pos_as_xyz
  1  'x, y, z'
loop_
 _atom_site_type_symbol
 _atom_site_label
 _atom_site_symmetry_multiplicity
 _atom_site_fract_x
 _atom_site_fract_y
 _atom_site_fract_z
 _atom_site_occupancy
  Cs  Cs0  1  0.00025902  -0.00164618  0.00473903  1
  Cs  Cs1  1  -0.00090492  -0.00013599  0.32984767  1
  Cs  Cs2  1  -0.00442012  0.00392044  0.66647031  1
  Cs  Cs3  1  -0.00179152  0.33639564  -0.00573980  1
  Cs  Cs4  1  0.00207494  0.33142914  0.33609502  1
  Cs  Cs5  1  0.00054697  0.33356932  0.66840631  1
  Cs  Cs6  1  0.00048595  0.66535072  0.00159270  1
  Cs  Cs7  1  0.00139021  0.66899371  0.33119891  1
  Cs  Cs8  1  0.00779227  0.66374617  0.66766293  1
  Cs  Cs9  1  0.33062795  -0.00049799  0.00144209  1
  Cs  Cs10  1  0.33058152  0.00004985  0.33056226  1
  Cs  Cs11  1  0.33597466  -0.00360382  0.66775946  1
  Cs  Cs12  1  0.33620926  0.33156322  0.00497989  1
  Cs  Cs13  1  0.33454592  0.33246118  0.32988836  1
  Cs  Cs14  1  0.33367954  0.33375085  0.66648197  1
  Cs  Cs15  1  0.33256971  0.66858928  -0.00481320  1
  Cs  Cs16  1  0.33038292  0.66731296  0.33706435  1
  Cs  Cs17  1  0.32888488  0.67172356  0.66860840  1
  Cs  Cs18  1  0.66692390  -0.00116908  -0.00182740  1
  Cs  Cs19  1  0.66806788  -0.00002066  0.33507413  1
  Cs  Cs20  1  0.66638126  -0.00014767  0.66678765  1
  Cs  Cs21  1  0.66562576  0.33735923  -0.00079421  1
  Cs  Cs22  1  0.66457705  0.33441559  0.33431345  1
  Cs  Cs23  1  0.66678999  0.33213441  0.66641941  1
  Cs  Cs24  1  0.66822296  0.66506454  0.00589770  1
  Cs  Cs25  1  0.66771084  0.66582428  0.33056497  1
  Cs  Cs26  1  0.66358521  0.66995677  0.66515842  1
  Sn  Sn27  1  0.49916857  0.16736179  0.83252908  1
  Sn  Sn28  1  0.16659820  0.49963407  0.16670098  1
  Sn  Sn29  1  0.83344201  0.83291958  0.83253391  1
  Sn  Sn30  1  0.16772005  0.16661552  0.83257519  1
  Sn  Sn31  1  0.16709689  0.16662138  0.50084839  1
  Sn  Sn32  1  0.50051124  0.49945070  0.50112467  1
  Sn  Sn33  1  0.49996593  0.83359730  0.16697005  1
  Sn  Sn34  1  0.83335699  0.83299342  0.50109019  1
  Sn  Sn35  1  0.49968620  0.16718531  0.50065363  1
  Sn  Sn36  1  0.50018515  0.49945226  0.83222434  1
  Sn  Sn37  1  0.83289673  0.50001322  0.50021257  1
  Sn  Sn38  1  0.83315434  0.16702945  0.49908785  1
  Sn  Sn39  1  0.83276936  0.16743338  0.16703160  1
  Pb  Pb40  1  0.83284181  0.16575166  0.83296455  1
  Pb  Pb41  1  0.16918851  0.83076003  0.16664483  1
  Pb  Pb42  1  0.16721996  0.49779168  0.49898601  1
  Pb  Pb43  1  0.50171037  0.83341536  0.49843957  1
  Pb  Pb44  1  0.50167964  0.83354857  0.83492624  1
  Pb  Pb45  1  0.16939405  0.49747493  0.83512144  1
  Pb  Pb46  1  0.49846822  0.50196070  0.16722262  1
  Pb  Pb47  1  0.50190025  0.16528074  0.16671071  1
  Pb  Pb48  1  0.16371180  0.83629576  0.83314289  1
  Pb  Pb49  1  0.83206476  0.83498272  0.16700873  1
  Pb  Pb50  1  0.83517386  0.49760094  0.16919610  1
  Pb  Pb51  1  0.83108753  0.50265148  0.83057761  1
  Pb  Pb52  1  0.16442111  0.16813578  0.16631109  1
  Pb  Pb53  1  0.16350330  0.83657110  0.50014861  1
  I  I54  1  0.16585043  0.00029794  0.16670052  1
  I  I55  1  0.16826137  0.00506373  0.50199426  1
  I  I56  1  0.17376320  0.00440391  0.83016518  1
  I  I57  1  0.16816335  0.33542082  0.16809594  1
  I  I58  1  0.16127967  0.32962998  0.50264412  1
  I  I59  1  0.16519320  0.32957361  0.82915597  1
  I  I60  1  0.16579647  0.66320307  0.16820605  1
  I  I61  1  0.16652021  0.66649658  0.49738059  1
  I  I62  1  0.16749727  0.66645580  0.83535286  1
  I  I63  1  0.50214841  -0.00216760  0.16685046  1
  I  I64  1  0.50168941  0.00349686  0.50313767  1
  I  I65  1  0.49858568  0.00326838  0.82966290  1
  I  I66  1  0.50006885  0.33335683  0.16640267  1
  I  I67  1  0.50528013  0.33233347  0.50266384  1
  I  I68  1  0.49772837  0.33223678  0.83017313  1
  I  I69  1  0.50161234  0.66928307  0.16645254  1
  I  I70  1  0.50525519  0.66360691  0.50161686  1
  I  I71  1  0.50265302  0.66399318  0.83050730  1
  I  I72  1  0.83362694  0.00285767  0.17266620  1
  I  I73  1  0.83319989  0.00128664  0.50003789  1
  I  I74  1  0.83090486  -0.00189775  0.82768416  1
  I  I75  1  0.83225487  0.32970981  0.17169265  1
  I  I76  1  0.83227722  0.33222680  0.49471531  1
  I  I77  1  0.83501308  0.33347158  0.83405433  1
  I  I78  1  0.83335928  0.66650149  0.16748473  1
  I  I79  1  0.82664605  0.66631482  0.50393127  1
  I  I80  1  0.83026131  0.67024939  0.82945386  1
  I  I81  1  0.16995884  0.16809577  -0.00275634  1
  I  I82  1  0.16806136  0.16850413  0.33626015  1
  I  I83  1  0.16397978  0.16785206  0.66569569  1
  I  I84  1  0.16782908  0.49717072  0.00264384  1
  I  I85  1  0.16841965  0.49672267  0.33142191  1
  I  I86  1  0.16444769  0.50013301  0.66668048  1
  I  I87  1  0.16396139  0.83623842  -0.00010752  1
  I  I88  1  0.16500286  0.83579024  0.33346214  1
  I  I89  1  0.17007019  0.82953229  0.66655595  1
  I  I90  1  0.49769013  0.16913895  -0.00299245  1
  I  I91  1  0.49887465  0.16979004  0.33676338  1
  I  I92  1  0.50212692  0.16950893  0.66565861  1
  I  I93  1  0.49780672  0.49616635  -0.00252079  1
  I  I94  1  0.50295933  0.49601891  0.33678934  1
  I  I95  1  0.50458870  0.49512394  0.66563365  1
  I  I96  1  0.50400753  0.83364540  0.00234599  1
  I  I97  1  0.50348699  0.83374475  0.33105003  1
  I  I98  1  0.50090502  0.83368088  0.66653128  1
  I  I99  1  0.83383253  0.16251100  0.00162571  1
  I  I100  1  0.83355194  0.16392257  0.33614273  1
  I  I101  1  0.83345385  0.16731709  0.66326303  1
  I  I102  1  0.83260240  0.49992267  -0.00009093  1
  I  I103  1  0.82672898  0.50339141  0.33747245  1
  I  I104  1  0.83298542  0.49265004  0.66242452  1
  I  I105  1  0.83082868  0.83780712  -0.00202124  1
  I  I106  1  0.83131497  0.83340058  0.33652781  1
  I  I107  1  0.83058653  0.83829067  0.66514287  1
  I  I108  1  -0.00327425  0.16549966  0.17186706  1
  I  I109  1  -0.00095673  0.16624202  0.49980579  1
  I  I110  1  0.00179562  0.16413736  0.83054934  1
  I  I111  1  0.00262537  0.49878773  0.16816453  1
  I  I112  1  -0.00267781  0.49881599  0.49700197  1
  I  I113  1  0.00002344  0.49941024  0.83375739  1
  I  I114  1  -0.00015313  0.83412366  0.16665168  1
  I  I115  1  -0.00491673  0.83255155  0.50209098  1
  I  I116  1  -0.00416669  0.83571517  0.82949131  1
  I  I117  1  0.33337464  0.16587892  0.16910763  1
  I  I118  1  0.33438611  0.17220847  0.50379080  1
  I  I119  1  0.33440919  0.16973414  0.82632952  1
  I  I120  1  0.33111652  0.49827840  0.16912023  1
  I  I121  1  0.33670296  0.49487062  0.50072377  1
  I  I122  1  0.33737243  0.49993435  0.82685284  1
  I  I123  1  0.33680274  0.83580778  0.16640332  1
  I  I124  1  0.33339118  0.83302833  0.49757262  1
  I  I125  1  0.33348818  0.83206552  0.83585001  1
  I  I126  1  0.66959292  0.16561068  0.17178718  1
  I  I127  1  0.66680542  0.16679062  0.50005993  1
  I  I128  1  0.66375205  0.16805155  0.83032639  1
  I  I129  1  0.66662249  0.50055604  0.16528070  1
  I  I130  1  0.66643677  0.49462367  0.50226431  1
  I  I131  1  0.66315613  0.49200822  0.83341749  1
  I  I132  1  0.66453366  0.83301400  0.16663809  1
  I  I133  1  0.66983652  0.83894066  0.50256286  1
  I  I134  1  0.66927800  0.83765199  0.82922251  1
