# generated using pymatgen
data_Cs27Sn13Pb14I81
_symmetry_space_group_name_H-M   'P 1'
_cell_length_a   18.99771942
_cell_length_b   18.98253205
_cell_length_c   18.99346816
_cell_angle_alpha   89.99892138
_cell_angle_beta   90.00038790
_cell_angle_gamma   90.00023775
_symmetry_Int_Tables_number   1
_chemical_formula_structural   Cs27Sn13Pb14I81
_chemical_formula_sum   'Cs27 Sn13 Pb14 I81'
_cell_volume   6849.51599400
_cell_formula_units_Z   1
loop_
 _symmetry_equiv_pos_site_id
 _symmetry_equiv_pos_as_xyz
  1  'x, y, z'
loop_
 _atom_site_type_symbol
 _atom_site_label
 _atom_site_symmetry_multiplicity
 _atom_site_fract_x
 _atom_site_fract_y
 _atom_site_fract_z
 _atom_site_occupancy
  Cs  Cs0  1  -0.00099055  -0.00973343  -0.00130203  1
  Cs  Cs1  1  0.00638530  -0.00742085  0.34181422  1
  Cs  Cs2  1  0.00130875  -0.00663831  0.66288638  1
  Cs  Cs3  1  -0.00205163  0.33370507  -0.00117681  1
  Cs  Cs4  1  0.00055752  0.33428106  0.33330837  1
  Cs  Cs5  1  -0.00086319  0.33354051  0.66770172  1
  Cs  Cs6  1  0.00107080  0.67420328  0.00239781  1
  Cs  Cs7  1  0.00137377  0.66768258  0.32682243  1
  Cs  Cs8  1  0.00131996  0.66820408  0.66852397  1
  Cs  Cs9  1  0.33473622  0.00239755  0.00067284  1
  Cs  Cs10  1  0.33037344  0.01042198  0.34139872  1
  Cs  Cs11  1  0.33273151  -0.00321979  0.66137427  1
  Cs  Cs12  1  0.33258462  0.33135226  -0.00069894  1
  Cs  Cs13  1  0.33099697  0.32753695  0.32915786  1
  Cs  Cs14  1  0.33097496  0.33641932  0.67099903  1
  Cs  Cs15  1  0.33606196  0.66754265  0.00118901  1
  Cs  Cs16  1  0.33358859  0.66626715  0.33230251  1
  Cs  Cs17  1  0.33430443  0.66560018  0.66615751  1
  Cs  Cs18  1  0.66621167  0.00057711  0.00025718  1
  Cs  Cs19  1  0.66470383  0.00018782  0.34273205  1
  Cs  Cs20  1  0.66693331  -0.00133589  0.65948463  1
  Cs  Cs21  1  0.66736861  0.33332102  -0.00123066  1
  Cs  Cs22  1  0.66788099  0.33332394  0.33153192  1
  Cs  Cs23  1  0.66929873  0.33550192  0.66950325  1
  Cs  Cs24  1  0.66467940  0.66722388  0.00089818  1
  Cs  Cs25  1  0.66603670  0.66638668  0.33115614  1
  Cs  Cs26  1  0.66477144  0.66410050  0.66578205  1
  Sn  Sn27  1  0.83366293  0.16670930  0.16623079  1
  Sn  Sn28  1  0.50041725  0.83471296  0.83402163  1
  Sn  Sn29  1  0.49973956  0.49946516  0.49848333  1
  Sn  Sn30  1  0.83368020  0.49974265  0.49992527  1
  Sn  Sn31  1  0.83456480  0.49977207  0.83386036  1
  Sn  Sn32  1  0.16660022  0.49970698  0.50059137  1
  Sn  Sn33  1  0.16533099  0.49945538  0.83324685  1
  Sn  Sn34  1  0.49998963  0.83370323  0.16649610  1
  Sn  Sn35  1  0.50044532  0.16525883  0.83324276  1
  Sn  Sn36  1  0.83246067  0.49916339  0.16608681  1
  Sn  Sn37  1  0.16578991  0.16711888  0.83374545  1
  Sn  Sn38  1  0.83378245  0.16696666  0.83422294  1
  Sn  Sn39  1  0.50059883  0.50018434  0.16738081  1
  Pb  Pb40  1  0.16695743  0.82988597  0.50008415  1
  Pb  Pb41  1  0.16646725  0.49989276  0.16597137  1
  Pb  Pb42  1  0.17052264  0.83385357  0.16668789  1
  Pb  Pb43  1  0.50007525  0.17025482  0.50315231  1
  Pb  Pb44  1  0.50205994  0.16670269  0.16502536  1
  Pb  Pb45  1  0.50006050  0.49965955  0.83390340  1
  Pb  Pb46  1  0.16956387  0.83320298  0.83347676  1
  Pb  Pb47  1  0.16274852  0.16670588  0.16393208  1
  Pb  Pb48  1  0.83326179  0.82983743  0.49986147  1
  Pb  Pb49  1  0.49990555  0.83089887  0.49939894  1
  Pb  Pb50  1  0.83352561  0.16871093  0.50014718  1
  Pb  Pb51  1  0.83094933  0.83412777  0.16673735  1
  Pb  Pb52  1  0.16633229  0.16954871  0.50285327  1
  Pb  Pb53  1  0.83064453  0.83351158  0.83326393  1
  I  I54  1  0.16604383  0.00030921  0.16321111  1
  I  I55  1  0.16737724  0.00022644  0.50074031  1
  I  I56  1  0.16348394  0.00326744  0.83594206  1
  I  I57  1  0.17353606  0.33353574  0.16862603  1
  I  I58  1  0.16651454  0.33783304  0.50226350  1
  I  I59  1  0.16897096  0.33427066  0.82919693  1
  I  I60  1  0.16203447  0.66627037  0.16450576  1
  I  I61  1  0.16709518  0.66131172  0.50867044  1
  I  I62  1  0.16340832  0.66317350  0.82879152  1
  I  I63  1  0.50180290  -0.00233288  0.16037515  1
  I  I64  1  0.49985572  0.00023112  0.49783763  1
  I  I65  1  0.50006747  0.00063359  0.84104248  1
  I  I66  1  0.50232656  0.33644487  0.16923590  1
  I  I67  1  0.50107099  0.33832683  0.49526344  1
  I  I68  1  0.50019550  0.33122955  0.83257774  1
  I  I69  1  0.50563935  0.66493493  0.16368318  1
  I  I70  1  0.50089954  0.66235896  0.50297029  1
  I  I71  1  0.50007341  0.66796151  0.83368027  1
  I  I72  1  0.83197175  0.00343289  0.15633144  1
  I  I73  1  0.83239723  0.00021684  0.50034046  1
  I  I74  1  0.83585959  0.00364479  0.83997504  1
  I  I75  1  0.82643353  0.33544275  0.16509213  1
  I  I76  1  0.83246558  0.33770795  0.50118760  1
  I  I77  1  0.83083453  0.33448458  0.83338242  1
  I  I78  1  0.83148436  0.66308843  0.16677212  1
  I  I79  1  0.83196391  0.66072047  0.50121959  1
  I  I80  1  0.83620573  0.66290385  0.83308875  1
  I  I81  1  0.17096673  0.17619230  -0.00447671  1
  I  I82  1  0.16736945  0.16715446  0.33339015  1
  I  I83  1  0.16453309  0.16990658  0.67124270  1
  I  I84  1  0.16496739  0.49574441  -0.00351565  1
  I  I85  1  0.16453606  0.50227174  0.33600902  1
  I  I86  1  0.16505050  0.49590473  0.66752747  1
  I  I87  1  0.16486025  0.82891068  -0.00035541  1
  I  I88  1  0.16699114  0.83081446  0.33346164  1
  I  I89  1  0.16977126  0.83459737  0.66706763  1
  I  I90  1  0.49843194  0.16947693  -0.00343906  1
  I  I91  1  0.50176489  0.16378264  0.33338974  1
  I  I92  1  0.50329058  0.16224870  0.67162512  1
  I  I93  1  0.50341099  0.50097846  0.00232291  1
  I  I94  1  0.50366409  0.50672153  0.33268051  1
  I  I95  1  0.50241338  0.49951029  0.66507340  1
  I  I96  1  0.50078667  0.82836311  -0.00024542  1
  I  I97  1  0.50215064  0.82743443  0.33021262  1
  I  I98  1  0.49975396  0.83578518  0.66934190  1
  I  I99  1  0.83182003  0.17720891  -0.00143510  1
  I  I100  1  0.82978818  0.17310161  0.33024702  1
  I  I101  1  0.83236296  0.17230117  0.67050268  1
  I  I102  1  0.83147323  0.49547558  -0.00031907  1
  I  I103  1  0.83166058  0.49640500  0.33281032  1
  I  I104  1  0.83233494  0.49628805  0.66737540  1
  I  I105  1  0.83400374  0.82709504  -0.00009381  1
  I  I106  1  0.82998498  0.83396359  0.33319932  1
  I  I107  1  0.82978362  0.83309441  0.66684040  1
  I  I108  1  -0.00511815  0.17832129  0.16098862  1
  I  I109  1  -0.00010907  0.16983436  0.50079993  1
  I  I110  1  -0.00078071  0.17574685  0.83740192  1
  I  I111  1  -0.00345898  0.49536607  0.16927417  1
  I  I112  1  -0.00049950  0.49883123  0.50189676  1
  I  I113  1  -0.00081715  0.49216413  0.82943572  1
  I  I114  1  -0.00021602  0.83146342  0.16667568  1
  I  I115  1  0.00012871  0.83275023  0.50094887  1
  I  I116  1  0.00001909  0.83439816  0.83255756  1
  I  I117  1  0.33337472  0.16723052  0.16449512  1
  I  I118  1  0.33335656  0.16966855  0.50081027  1
  I  I119  1  0.33330920  0.16927398  0.83255027  1
  I  I120  1  0.33635866  0.50510463  0.16887110  1
  I  I121  1  0.33344668  0.50118536  0.50290090  1
  I  I122  1  0.33142917  0.49741722  0.82964588  1
  I  I123  1  0.33863233  0.82289749  0.15983079  1
  I  I124  1  0.33370801  0.82927527  0.50128269  1
  I  I125  1  0.33733306  0.83475460  0.83759069  1
  I  I126  1  0.66975068  0.17074976  0.15858139  1
  I  I127  1  0.66670977  0.16922523  0.50327968  1
  I  I128  1  0.66738812  0.16935995  0.83751020  1
  I  I129  1  0.66704677  0.50047872  0.16870047  1
  I  I130  1  0.66696634  0.50029717  0.50120451  1
  I  I131  1  0.66915529  0.49749389  0.83102329  1
  I  I132  1  0.66326643  0.82863605  0.16093210  1
  I  I133  1  0.66624772  0.83109842  0.50125907  1
  I  I134  1  0.66294940  0.83443431  0.83743582  1
