# generated using pymatgen
data_Cs27Sn13Pb14I81
_symmetry_space_group_name_H-M   'P 1'
_cell_length_a   19.06661622
_cell_length_b   19.07505768
_cell_length_c   19.08582554
_cell_angle_alpha   89.99992316
_cell_angle_beta   89.99971946
_cell_angle_gamma   89.99943356
_symmetry_Int_Tables_number   1
_chemical_formula_structural   Cs27Sn13Pb14I81
_chemical_formula_sum   'Cs27 Sn13 Pb14 I81'
_cell_volume   6941.45375164
_cell_formula_units_Z   1
loop_
 _symmetry_equiv_pos_site_id
 _symmetry_equiv_pos_as_xyz
  1  'x, y, z'
loop_
 _atom_site_type_symbol
 _atom_site_label
 _atom_site_symmetry_multiplicity
 _atom_site_fract_x
 _atom_site_fract_y
 _atom_site_fract_z
 _atom_site_occupancy
  Cs  Cs0  1  -0.00264111  -0.00283931  0.00310094  1
  Cs  Cs1  1  0.00454812  -0.00016288  0.33551924  1
  Cs  Cs2  1  0.00471145  -0.00030162  0.66312153  1
  Cs  Cs3  1  -0.00106055  0.35694234  -0.00201289  1
  Cs  Cs4  1  -0.00858314  0.33269384  0.33484913  1
  Cs  Cs5  1  -0.00920366  0.33701040  0.66749626  1
  Cs  Cs6  1  -0.01158572  0.65523673  -0.00203162  1
  Cs  Cs7  1  0.00079893  0.66965057  0.32905846  1
  Cs  Cs8  1  0.00069316  0.66589922  0.67134589  1
  Cs  Cs9  1  0.33378821  0.00055613  -0.00035079  1
  Cs  Cs10  1  0.32982731  -0.00263823  0.33660786  1
  Cs  Cs11  1  0.33252998  -0.00100960  0.66569560  1
  Cs  Cs12  1  0.33750676  0.33572679  0.00438352  1
  Cs  Cs13  1  0.33658421  0.33647870  0.33121092  1
  Cs  Cs14  1  0.33231762  0.32962809  0.66717067  1
  Cs  Cs15  1  0.33345917  0.66556719  -0.00482800  1
  Cs  Cs16  1  0.33556617  0.66865483  0.33425720  1
  Cs  Cs17  1  0.33566690  0.66798399  0.66822267  1
  Cs  Cs18  1  0.67648245  0.01140285  0.00111730  1
  Cs  Cs19  1  0.66986090  0.00036538  0.33153140  1
  Cs  Cs20  1  0.66477008  0.00335048  0.66973401  1
  Cs  Cs21  1  0.66728576  0.31017046  0.01194739  1
  Cs  Cs22  1  0.67629607  0.34713174  0.32437079  1
  Cs  Cs23  1  0.68196316  0.33203531  0.66509192  1
  Cs  Cs24  1  0.67974918  0.67026706  -0.00349507  1
  Cs  Cs25  1  0.66315132  0.65651256  0.33336138  1
  Cs  Cs26  1  0.66039985  0.66407634  0.66571965  1
  Sn  Sn27  1  0.49909860  0.83300579  0.83434946  1
  Sn  Sn28  1  0.49891622  0.83331836  0.16560097  1
  Sn  Sn29  1  0.16683994  0.83259545  0.50032788  1
  Sn  Sn30  1  0.16770060  0.49970383  0.50018820  1
  Sn  Sn31  1  0.16829821  0.83408563  0.16529404  1
  Sn  Sn32  1  0.83248559  0.83366624  0.50033005  1
  Sn  Sn33  1  0.49970824  0.49950546  0.83300282  1
  Sn  Sn34  1  0.16684848  0.16575232  0.83431206  1
  Sn  Sn35  1  0.50010132  0.83465700  0.49981478  1
  Sn  Sn36  1  0.16799348  0.16740246  0.49993804  1
  Sn  Sn37  1  0.49930555  0.16670204  0.49992352  1
  Sn  Sn38  1  0.16691964  0.16568978  0.16590540  1
  Sn  Sn39  1  0.16741560  0.83459312  0.83426073  1
  Pb  Pb40  1  0.49779089  0.16608457  0.83088354  1
  Pb  Pb41  1  0.83325070  0.83377973  0.83066461  1
  Pb  Pb42  1  0.83629108  0.50364287  0.50036869  1
  Pb  Pb43  1  0.49798691  0.49901400  0.50194552  1
  Pb  Pb44  1  0.49945905  0.50341562  0.16320605  1
  Pb  Pb45  1  0.16885094  0.50019841  0.83103903  1
  Pb  Pb46  1  0.82824242  0.49984733  0.83272937  1
  Pb  Pb47  1  0.83337596  0.83360978  0.16934383  1
  Pb  Pb48  1  0.83792144  0.16619754  0.83333609  1
  Pb  Pb49  1  0.16750530  0.50070590  0.16928055  1
  Pb  Pb50  1  0.83278262  0.50036995  0.16676236  1
  Pb  Pb51  1  0.83292487  0.16385101  0.49980094  1
  Pb  Pb52  1  0.83811880  0.16606507  0.16705587  1
  Pb  Pb53  1  0.49702920  0.16346050  0.17018806  1
  I  I54  1  0.17126763  -0.00162818  0.17385778  1
  I  I55  1  0.16544891  -0.00102869  0.49997303  1
  I  I56  1  0.17417406  -0.00172959  0.82592620  1
  I  I57  1  0.16484553  0.33050879  0.16633947  1
  I  I58  1  0.17606564  0.33190302  0.50057350  1
  I  I59  1  0.16820908  0.33061053  0.83228660  1
  I  I60  1  0.17052078  0.67050021  0.16918873  1
  I  I61  1  0.16593739  0.66921393  0.50010988  1
  I  I62  1  0.16782850  0.67013953  0.83145990  1
  I  I63  1  0.49830393  -0.00398117  0.15893239  1
  I  I64  1  0.49282752  -0.00223719  0.50341720  1
  I  I65  1  0.49783777  -0.00377208  0.83373236  1
  I  I66  1  0.50049317  0.33310884  0.16583450  1
  I  I67  1  0.48800907  0.33005666  0.50445016  1
  I  I68  1  0.49453938  0.33518729  0.82764602  1
  I  I69  1  0.48969047  0.67144899  0.17961655  1
  I  I70  1  0.49961821  0.67022174  0.49652643  1
  I  I71  1  0.49006531  0.66998812  0.82877197  1
  I  I72  1  0.82800492  -0.00031728  0.16500916  1
  I  I73  1  0.84181347  -0.00323986  0.49963028  1
  I  I74  1  0.82339776  -0.00021565  0.83415573  1
  I  I75  1  0.83350782  0.33298776  0.16802992  1
  I  I76  1  0.83282964  0.33346500  0.50004779  1
  I  I77  1  0.83511879  0.33332660  0.83031158  1
  I  I78  1  0.83885333  0.66724496  0.16659840  1
  I  I79  1  0.83141360  0.67083451  0.49931431  1
  I  I80  1  0.84391508  0.66698456  0.83486749  1
  I  I81  1  0.16635765  0.15233176  -0.00010588  1
  I  I82  1  0.17073163  0.16096876  0.33464026  1
  I  I83  1  0.17184040  0.16117750  0.66546873  1
  I  I84  1  0.16454696  0.49809265  -0.00005575  1
  I  I85  1  0.16798259  0.50269759  0.33703555  1
  I  I86  1  0.16754967  0.50266481  0.66361812  1
  I  I87  1  0.17801164  0.84475626  -0.00017552  1
  I  I88  1  0.16791291  0.83540021  0.33449468  1
  I  I89  1  0.16817202  0.83575482  0.66581716  1
  I  I90  1  0.50119652  0.16963792  0.00034848  1
  I  I91  1  0.49044848  0.15837335  0.33755151  1
  I  I92  1  0.49049384  0.15713062  0.66336771  1
  I  I93  1  0.49353180  0.50752259  -0.00409755  1
  I  I94  1  0.50121267  0.49935458  0.33321466  1
  I  I95  1  0.49650161  0.51234474  0.66858725  1
  I  I96  1  0.48586433  0.82449060  -0.00015044  1
  I  I97  1  0.49528136  0.84052004  0.33453879  1
  I  I98  1  0.49623566  0.83203215  0.66607341  1
  I  I99  1  0.82698104  0.16495031  0.00013784  1
  I  I100  1  0.83602858  0.16657452  0.33368005  1
  I  I101  1  0.83513472  0.16872756  0.66620230  1
  I  I102  1  0.84026172  0.50451683  -0.00053646  1
  I  I103  1  0.83161419  0.49872223  0.33385407  1
  I  I104  1  0.83561775  0.49786938  0.66654710  1
  I  I105  1  0.83385553  0.83125142  -0.00003555  1
  I  I106  1  0.83700606  0.83464337  0.33697417  1
  I  I107  1  0.83715625  0.83372728  0.66321406  1
  I  I108  1  0.00555931  0.15421231  0.17358818  1
  I  I109  1  0.00376887  0.16615991  0.49940425  1
  I  I110  1  0.00585483  0.15600378  0.82626496  1
  I  I111  1  0.00053385  0.50222358  0.16482945  1
  I  I112  1  0.00415632  0.49591167  0.50167360  1
  I  I113  1  -0.00048010  0.49833754  0.83376426  1
  I  I114  1  0.00367252  0.83934974  0.16866922  1
  I  I115  1  0.00287075  0.83352758  0.49962993  1
  I  I116  1  0.00346546  0.84023158  0.83220277  1
  I  I117  1  0.32958389  0.16542983  0.16360634  1
  I  I118  1  0.33123165  0.15828519  0.50092282  1
  I  I119  1  0.32988899  0.16418069  0.83450104  1
  I  I120  1  0.33328951  0.49467540  0.16719304  1
  I  I121  1  0.33060682  0.50789383  0.50002429  1
  I  I122  1  0.33552757  0.50554784  0.83174232  1
  I  I123  1  0.33201393  0.83772250  0.17434457  1
  I  I124  1  0.33254744  0.83347297  0.49999417  1
  I  I125  1  0.33250444  0.83291625  0.82616929  1
  I  I126  1  0.66678533  0.16701698  0.16695932  1
  I  I127  1  0.66335648  0.15738138  0.50442234  1
  I  I128  1  0.66679338  0.16835147  0.83063971  1
  I  I129  1  0.66603140  0.50320161  0.17095690  1
  I  I130  1  0.66674534  0.49895756  0.50126188  1
  I  I131  1  0.66167884  0.51670970  0.82813914  1
  I  I132  1  0.66343698  0.82975224  0.16682451  1
  I  I133  1  0.66505010  0.84133308  0.50087815  1
  I  I134  1  0.66341752  0.82408951  0.83252963  1
