# generated using pymatgen
data_Cs27Sn14Pb13I81
_symmetry_space_group_name_H-M   'P 1'
_cell_length_a   18.97739454
_cell_length_b   18.96584166
_cell_length_c   18.98262833
_cell_angle_alpha   90.00058444
_cell_angle_beta   90.00159271
_cell_angle_gamma   89.99962398
_symmetry_Int_Tables_number   1
_chemical_formula_structural   Cs27Sn14Pb13I81
_chemical_formula_sum   'Cs27 Sn14 Pb13 I81'
_cell_volume   6832.27048648
_cell_formula_units_Z   1
loop_
 _symmetry_equiv_pos_site_id
 _symmetry_equiv_pos_as_xyz
  1  'x, y, z'
loop_
 _atom_site_type_symbol
 _atom_site_label
 _atom_site_symmetry_multiplicity
 _atom_site_fract_x
 _atom_site_fract_y
 _atom_site_fract_z
 _atom_site_occupancy
  Cs  Cs0  1  0.00049342  -0.00344319  0.00216795  1
  Cs  Cs1  1  -0.00885509  -0.00331516  0.33452572  1
  Cs  Cs2  1  -0.00327496  0.00346778  0.66378858  1
  Cs  Cs3  1  0.00186625  0.33507450  -0.00151121  1
  Cs  Cs4  1  0.00477739  0.33644945  0.33393017  1
  Cs  Cs5  1  0.00226288  0.33397308  0.66811017  1
  Cs  Cs6  1  0.00080441  0.66753023  -0.00034900  1
  Cs  Cs7  1  -0.00113949  0.66639134  0.33316396  1
  Cs  Cs8  1  -0.00101591  0.66560030  0.66715554  1
  Cs  Cs9  1  0.33213228  -0.00582186  -0.00187988  1
  Cs  Cs10  1  0.33516491  0.00036676  0.33561686  1
  Cs  Cs11  1  0.33491002  -0.00265951  0.66500118  1
  Cs  Cs12  1  0.33109768  0.33490126  0.00144526  1
  Cs  Cs13  1  0.33222377  0.33303496  0.33303437  1
  Cs  Cs14  1  0.33091570  0.33253353  0.66530458  1
  Cs  Cs15  1  0.33405242  0.66986076  -0.00111745  1
  Cs  Cs16  1  0.33498686  0.66591760  0.33379775  1
  Cs  Cs17  1  0.33556383  0.66784026  0.66594576  1
  Cs  Cs18  1  0.66730799  0.01338268  -0.00025598  1
  Cs  Cs19  1  0.67228796  0.00366646  0.33138468  1
  Cs  Cs20  1  0.67072071  0.00935690  0.66869014  1
  Cs  Cs21  1  0.66567766  0.32764275  -0.00083816  1
  Cs  Cs22  1  0.66302498  0.33286915  0.33004443  1
  Cs  Cs23  1  0.66608340  0.32924089  0.67125599  1
  Cs  Cs24  1  0.66450269  0.66510095  -0.00188627  1
  Cs  Cs25  1  0.66458507  0.66663780  0.33500267  1
  Cs  Cs26  1  0.66609634  0.66615917  0.66572047  1
  Sn  Sn27  1  0.50049456  0.83266072  0.16727167  1
  Sn  Sn28  1  0.49981264  0.50094931  0.16720935  1
  Sn  Sn29  1  0.83400528  0.50123422  0.83347775  1
  Sn  Sn30  1  0.49993364  0.50032022  0.49939806  1
  Sn  Sn31  1  0.83320055  0.50041715  0.16647575  1
  Sn  Sn32  1  0.16678268  0.16707211  0.83441541  1
  Sn  Sn33  1  0.83277814  0.83240491  0.83359095  1
  Sn  Sn34  1  0.16687161  0.49997438  0.16648224  1
  Sn  Sn35  1  0.16673567  0.16668926  0.16600279  1
  Sn  Sn36  1  0.16624727  0.49990566  0.83340278  1
  Sn  Sn37  1  0.83301733  0.50027943  0.50006566  1
  Sn  Sn38  1  0.16688646  0.50121240  0.50009478  1
  Sn  Sn39  1  0.49987127  0.83263754  0.49905268  1
  Sn  Sn40  1  0.16690043  0.83232719  0.49982982  1
  Pb  Pb41  1  0.49991794  0.16669156  0.49974297  1
  Pb  Pb42  1  0.83247951  0.83130732  0.50167164  1
  Pb  Pb43  1  0.83013545  0.83090287  0.16435677  1
  Pb  Pb44  1  0.49977596  0.49991304  0.83332621  1
  Pb  Pb45  1  0.83672637  0.16986210  0.16678805  1
  Pb  Pb46  1  0.49716513  0.16680805  0.16679372  1
  Pb  Pb47  1  0.50312328  0.83330271  0.83290588  1
  Pb  Pb48  1  0.83346128  0.17061134  0.49970874  1
  Pb  Pb49  1  0.16497122  0.83308230  0.83079758  1
  Pb  Pb50  1  0.16669193  0.16647755  0.49955976  1
  Pb  Pb51  1  0.83626565  0.16753773  0.83353456  1
  Pb  Pb52  1  0.49605705  0.16670395  0.83337240  1
  Pb  Pb53  1  0.16815748  0.83298690  0.16904759  1
  I  I54  1  0.17026476  0.00217922  0.16194476  1
  I  I55  1  0.17289492  -0.00309831  0.50123551  1
  I  I56  1  0.16539964  0.00230937  0.83737925  1
  I  I57  1  0.16795597  0.33629198  0.16797837  1
  I  I58  1  0.16656631  0.33717178  0.50014249  1
  I  I59  1  0.16129520  0.33585698  0.83182701  1
  I  I60  1  0.16463345  0.66284441  0.16401912  1
  I  I61  1  0.16736180  0.66416526  0.50023123  1
  I  I62  1  0.16427664  0.66321567  0.83590854  1
  I  I63  1  0.49750725  -0.00304793  0.17094875  1
  I  I64  1  0.49248517  -0.00380173  0.49654145  1
  I  I65  1  0.50091244  -0.00028521  0.83334325  1
  I  I66  1  0.50186382  0.33719152  0.17088006  1
  I  I67  1  0.49864859  0.33764337  0.49559601  1
  I  I68  1  0.50579114  0.33380763  0.83273421  1
  I  I69  1  0.49736802  0.66465563  0.17081976  1
  I  I70  1  0.49832433  0.66515594  0.49579290  1
  I  I71  1  0.49508776  0.66647916  0.83425055  1
  I  I72  1  0.83318848  -0.00014216  0.16459659  1
  I  I73  1  0.83424261  -0.00031846  0.50325361  1
  I  I74  1  0.83348872  -0.00225807  0.83148108  1
  I  I75  1  0.82727665  0.33869034  0.16398874  1
  I  I76  1  0.83538007  0.33950184  0.50346761  1
  I  I77  1  0.83513363  0.33732150  0.83261214  1
  I  I78  1  0.84009101  0.66223433  0.16896248  1
  I  I79  1  0.83458299  0.66252481  0.49830351  1
  I  I80  1  0.83976576  0.66380715  0.83286350  1
  I  I81  1  0.16658902  0.17695437  0.00006039  1
  I  I82  1  0.16815810  0.17330522  0.33053036  1
  I  I83  1  0.16549959  0.17170426  0.66919195  1
  I  I84  1  0.16414428  0.49501017  0.00022370  1
  I  I85  1  0.16456261  0.49916771  0.33327427  1
  I  I86  1  0.16396562  0.49925381  0.66641892  1
  I  I87  1  0.16784336  0.83164774  0.00001506  1
  I  I88  1  0.16742921  0.82828507  0.33688412  1
  I  I89  1  0.17274603  0.82839421  0.66310338  1
  I  I90  1  0.50238219  0.16717233  0.00031518  1
  I  I91  1  0.49603333  0.16834417  0.33318932  1
  I  I92  1  0.49855181  0.16710336  0.66649022  1
  I  I93  1  0.49920069  0.50374754  0.00338504  1
  I  I94  1  0.49968205  0.50313317  0.33329840  1
  I  I95  1  0.49936084  0.50473365  0.66331240  1
  I  I96  1  0.49950869  0.82712801  0.00291380  1
  I  I97  1  0.49493855  0.82691940  0.33400067  1
  I  I98  1  0.49539067  0.82676326  0.66304827  1
  I  I99  1  0.83103526  0.16812855  0.00006915  1
  I  I100  1  0.83614436  0.16536944  0.33306918  1
  I  I101  1  0.83566310  0.16783409  0.66690828  1
  I  I102  1  0.83704808  0.50402846  -0.00007966  1
  I  I103  1  0.83683389  0.49889618  0.33334635  1
  I  I104  1  0.83688886  0.50396633  0.66673282  1
  I  I105  1  0.83488564  0.82541381  -0.00309731  1
  I  I106  1  0.83585382  0.83293466  0.33332521  1
  I  I107  1  0.83356418  0.82558112  0.66926039  1
  I  I108  1  0.00453975  0.17249787  0.16280471  1
  I  I109  1  0.00043611  0.16485221  0.50024726  1
  I  I110  1  0.00376496  0.17041028  0.83656463  1
  I  I111  1  0.00056997  0.49500279  0.16873807  1
  I  I112  1  0.00082090  0.50299799  0.49810642  1
  I  I113  1  0.00061210  0.49958076  0.83278466  1
  I  I114  1  -0.00019226  0.83365061  0.16745932  1
  I  I115  1  0.00222371  0.82927145  0.50196371  1
  I  I116  1  -0.00264801  0.82971739  0.83177717  1
  I  I117  1  0.32961150  0.17514266  0.16305209  1
  I  I118  1  0.33305140  0.17155228  0.50137743  1
  I  I119  1  0.32820732  0.17454778  0.83667154  1
  I  I120  1  0.33280655  0.49887830  0.16919358  1
  I  I121  1  0.33278822  0.50289496  0.49770280  1
  I  I122  1  0.32985459  0.49546561  0.83323272  1
  I  I123  1  0.33608871  0.82700048  0.16703865  1
  I  I124  1  0.33343049  0.82513625  0.49816088  1
  I  I125  1  0.33335694  0.83400741  0.83415539  1
  I  I126  1  0.66667515  0.16727902  0.16679044  1
  I  I127  1  0.66665349  0.16582866  0.50106955  1
  I  I128  1  0.66704598  0.16658672  0.83229605  1
  I  I129  1  0.66636761  0.50569194  0.16982236  1
  I  I130  1  0.66628867  0.50432324  0.49745231  1
  I  I131  1  0.66979961  0.50474619  0.83257720  1
  I  I132  1  0.66238956  0.82602448  0.17417529  1
  I  I133  1  0.66346282  0.82683956  0.49735552  1
  I  I134  1  0.67058425  0.82302622  0.83151412  1
