# generated using pymatgen
data_Cs27Sn13Pb14I81
_symmetry_space_group_name_H-M   'P 1'
_cell_length_a   18.98044492
_cell_length_b   18.98092164
_cell_length_c   18.97078394
_cell_angle_alpha   90.00094166
_cell_angle_beta   90.00079004
_cell_angle_gamma   90.00013358
_symmetry_Int_Tables_number   1
_chemical_formula_structural   Cs27Sn13Pb14I81
_chemical_formula_sum   'Cs27 Sn13 Pb14 I81'
_cell_volume   6834.53485094
_cell_formula_units_Z   1
loop_
 _symmetry_equiv_pos_site_id
 _symmetry_equiv_pos_as_xyz
  1  'x, y, z'
loop_
 _atom_site_type_symbol
 _atom_site_label
 _atom_site_symmetry_multiplicity
 _atom_site_fract_x
 _atom_site_fract_y
 _atom_site_fract_z
 _atom_site_occupancy
  Cs  Cs0  1  -0.00055131  0.00040596  0.00173810  1
  Cs  Cs1  1  -0.00007178  -0.00088332  0.33254145  1
  Cs  Cs2  1  -0.00241135  0.00093837  0.66530548  1
  Cs  Cs3  1  0.00057568  0.33370338  0.00039035  1
  Cs  Cs4  1  -0.00133982  0.34225508  0.32958394  1
  Cs  Cs5  1  -0.00072846  0.33020828  0.66767381  1
  Cs  Cs6  1  0.00047332  0.66643584  0.00032314  1
  Cs  Cs7  1  -0.00182490  0.66337003  0.33279748  1
  Cs  Cs8  1  0.00165957  0.66850153  0.66541513  1
  Cs  Cs9  1  0.33452487  0.00037886  0.00229081  1
  Cs  Cs10  1  0.33281335  0.00128950  0.33559317  1
  Cs  Cs11  1  0.33282500  0.00156006  0.66446997  1
  Cs  Cs12  1  0.33215780  0.33004280  0.00034289  1
  Cs  Cs13  1  0.33387859  0.33639906  0.32898422  1
  Cs  Cs14  1  0.33429553  0.33189246  0.66743710  1
  Cs  Cs15  1  0.33598253  0.66987054  -0.00213140  1
  Cs  Cs16  1  0.33506988  0.66265049  0.33664500  1
  Cs  Cs17  1  0.33226884  0.66668077  0.66687248  1
  Cs  Cs18  1  0.66657004  -0.00332329  0.00108682  1
  Cs  Cs19  1  0.66686533  0.00050605  0.33357015  1
  Cs  Cs20  1  0.67148252  0.00036272  0.66604587  1
  Cs  Cs21  1  0.66690861  0.33389876  -0.00040211  1
  Cs  Cs22  1  0.66756008  0.34304401  0.33240708  1
  Cs  Cs23  1  0.66520997  0.33023222  0.66646009  1
  Cs  Cs24  1  0.66369370  0.66943400  0.00018055  1
  Cs  Cs25  1  0.66713693  0.65705858  0.33303448  1
  Cs  Cs26  1  0.66778592  0.66996482  0.66652881  1
  Sn  Sn27  1  0.83329431  0.50008920  0.83297324  1
  Sn  Sn28  1  0.49943185  0.83417966  0.49996230  1
  Sn  Sn29  1  0.83328224  0.16616360  0.16691084  1
  Sn  Sn30  1  0.49924471  0.16587182  0.50047870  1
  Sn  Sn31  1  0.16664687  0.83406756  0.83327034  1
  Sn  Sn32  1  0.49997254  0.49925252  0.83293207  1
  Sn  Sn33  1  0.16733913  0.83415893  0.49976832  1
  Sn  Sn34  1  0.16672098  0.49970432  0.83312534  1
  Sn  Sn35  1  0.16727547  0.16626706  0.83279218  1
  Sn  Sn36  1  0.49935876  0.16674839  0.83269911  1
  Sn  Sn37  1  0.16715527  0.16632453  0.50019448  1
  Sn  Sn38  1  0.83382857  0.83425351  0.16689438  1
  Sn  Sn39  1  0.16628895  0.83362871  0.16702723  1
  Pb  Pb40  1  0.83354519  0.16677214  0.49738773  1
  Pb  Pb41  1  0.50230823  0.16654273  0.16711453  1
  Pb  Pb42  1  0.83341061  0.50058927  0.16416870  1
  Pb  Pb43  1  0.83590157  0.83144238  0.83528804  1
  Pb  Pb44  1  0.49803893  0.83429727  0.83120858  1
  Pb  Pb45  1  0.49953820  0.49992673  0.16332655  1
  Pb  Pb46  1  0.49962821  0.83351337  0.17000820  1
  Pb  Pb47  1  0.16664339  0.49947895  0.50229864  1
  Pb  Pb48  1  0.16702550  0.50315734  0.16381154  1
  Pb  Pb49  1  0.83350621  0.49986693  0.50331581  1
  Pb  Pb50  1  0.83332694  0.16795474  0.83499309  1
  Pb  Pb51  1  0.49973247  0.49940717  0.50263336  1
  Pb  Pb52  1  0.16524641  0.16495201  0.16713352  1
  Pb  Pb53  1  0.83362993  0.83337892  0.49744028  1
  I  I54  1  0.16420852  -0.00325017  0.16138906  1
  I  I55  1  0.17046667  -0.00042420  0.50511119  1
  I  I56  1  0.17105095  0.00037539  0.83329388  1
  I  I57  1  0.16403031  0.33321459  0.16647323  1
  I  I58  1  0.17048661  0.32954875  0.50533677  1
  I  I59  1  0.16689136  0.33257398  0.82877576  1
  I  I60  1  0.15943463  0.67157371  0.16779627  1
  I  I61  1  0.17006131  0.67005901  0.50084071  1
  I  I62  1  0.16609518  0.66698670  0.83416222  1
  I  I63  1  0.50001986  -0.00007568  0.16022708  1
  I  I64  1  0.49531539  0.00079861  0.50561025  1
  I  I65  1  0.49522705  0.00325401  0.83215626  1
  I  I66  1  0.50301532  0.33306616  0.17094414  1
  I  I67  1  0.49595486  0.32970033  0.50274422  1
  I  I68  1  0.49592907  0.33255864  0.82857764  1
  I  I69  1  0.50243124  0.66700247  0.16632104  1
  I  I70  1  0.49549320  0.66937919  0.50039256  1
  I  I71  1  0.49902841  0.66459166  0.83279800  1
  I  I72  1  0.83780451  -0.00083506  0.16508549  1
  I  I73  1  0.83301580  0.00003319  0.50296858  1
  I  I74  1  0.83338103  -0.00008937  0.83361743  1
  I  I75  1  0.83277368  0.33116919  0.16547848  1
  I  I76  1  0.83365660  0.33303454  0.49578452  1
  I  I77  1  0.83802127  0.33594335  0.83688763  1
  I  I78  1  0.83852120  0.66968729  0.16560232  1
  I  I79  1  0.83305497  0.66692264  0.49760392  1
  I  I80  1  0.83227917  0.66336341  0.83576104  1
  I  I81  1  0.16927424  0.16673369  -0.00327381  1
  I  I82  1  0.17026694  0.16026795  0.33662481  1
  I  I83  1  0.16928137  0.16297693  0.66775510  1
  I  I84  1  0.16629788  0.49837923  -0.00497045  1
  I  I85  1  0.16522561  0.49937955  0.33336244  1
  I  I86  1  0.16693832  0.50516824  0.67100101  1
  I  I87  1  0.16167407  0.83208453  -0.00076246  1
  I  I88  1  0.16622261  0.83986742  0.33426923  1
  I  I89  1  0.17136217  0.83228891  0.66680345  1
  I  I90  1  0.49610172  0.17162313  -0.00340373  1
  I  I91  1  0.49553483  0.16074330  0.33704862  1
  I  I92  1  0.49622208  0.16768921  0.66733992  1
  I  I93  1  0.49952301  0.49512749  -0.00533346  1
  I  I94  1  0.50187390  0.49997914  0.33378015  1
  I  I95  1  0.49865706  0.49876306  0.67080837  1
  I  I96  1  0.49929774  0.83224705  -0.00017671  1
  I  I97  1  0.49424165  0.84059722  0.33782702  1
  I  I98  1  0.49404235  0.83339617  0.66342884  1
  I  I99  1  0.83434879  0.16315664  0.00265034  1
  I  I100  1  0.83411534  0.16113489  0.32974225  1
  I  I101  1  0.83350053  0.16909282  0.66673731  1
  I  I102  1  0.83432122  0.49988858  -0.00366407  1
  I  I103  1  0.83292032  0.49987459  0.33291456  1
  I  I104  1  0.83443413  0.49929887  0.67153767  1
  I  I105  1  0.83856269  0.83646372  0.00317256  1
  I  I106  1  0.83964794  0.83725107  0.32961904  1
  I  I107  1  0.83422768  0.83091587  0.66667675  1
  I  I108  1  -0.00245758  0.16395214  0.16482310  1
  I  I109  1  0.00365951  0.16109027  0.50579651  1
  I  I110  1  0.00340272  0.16729689  0.83047156  1
  I  I111  1  0.00015966  0.49792995  0.16347789  1
  I  I112  1  0.00039923  0.50028367  0.50265540  1
  I  I113  1  0.00122980  0.50060428  0.83423668  1
  I  I114  1  0.00117742  0.83738741  0.16676494  1
  I  I115  1  0.00381711  0.83745882  0.50306745  1
  I  I116  1  0.00459648  0.83389179  0.82870902  1
  I  I117  1  0.33322541  0.16538966  0.16523585  1
  I  I118  1  0.33279542  0.16115123  0.50541401  1
  I  I119  1  0.33244542  0.17133434  0.83086188  1
  I  I120  1  0.33301710  0.50092562  0.16508276  1
  I  I121  1  0.33321619  0.50206141  0.50205164  1
  I  I122  1  0.33280739  0.49980728  0.83300795  1
  I  I123  1  0.32988489  0.83299151  0.16292995  1
  I  I124  1  0.33174082  0.83710061  0.49893303  1
  I  I125  1  0.32948015  0.82846018  0.83822379  1
  I  I126  1  0.67004577  0.15966693  0.16453613  1
  I  I127  1  0.66323842  0.16202248  0.50515828  1
  I  I128  1  0.66364710  0.17206589  0.83032673  1
  I  I129  1  0.66682830  0.50222829  0.16439560  1
  I  I130  1  0.66632218  0.50078330  0.50192321  1
  I  I131  1  0.66581411  0.49419860  0.83389554  1
  I  I132  1  0.66935331  0.83675467  0.16621117  1
  I  I133  1  0.66370853  0.83776472  0.50055349  1
  I  I134  1  0.66654891  0.83197916  0.83365999  1
