# generated using pymatgen
data_Cs27Sn14Pb13I81
_symmetry_space_group_name_H-M   'P 1'
_cell_length_a   18.96567706
_cell_length_b   18.95704697
_cell_length_c   18.96207221
_cell_angle_alpha   89.99664074
_cell_angle_beta   90.00047918
_cell_angle_gamma   89.99840864
_symmetry_Int_Tables_number   1
_chemical_formula_structural   Cs27Sn14Pb13I81
_chemical_formula_sum   'Cs27 Sn14 Pb13 I81'
_cell_volume   6817.49507022
_cell_formula_units_Z   1
loop_
 _symmetry_equiv_pos_site_id
 _symmetry_equiv_pos_as_xyz
  1  'x, y, z'
loop_
 _atom_site_type_symbol
 _atom_site_label
 _atom_site_symmetry_multiplicity
 _atom_site_fract_x
 _atom_site_fract_y
 _atom_site_fract_z
 _atom_site_occupancy
  Cs  Cs0  1  -0.00509157  0.00061472  -0.00383087  1
  Cs  Cs1  1  0.00572596  0.00042621  0.33284526  1
  Cs  Cs2  1  -0.00340534  -0.00183910  0.67075307  1
  Cs  Cs3  1  -0.00011386  0.33080477  0.00044868  1
  Cs  Cs4  1  -0.00021329  0.33483220  0.33272463  1
  Cs  Cs5  1  0.00458548  0.33190194  0.66617750  1
  Cs  Cs6  1  -0.00120019  0.66783981  0.00029188  1
  Cs  Cs7  1  0.00033841  0.66547664  0.33502785  1
  Cs  Cs8  1  -0.00602340  0.66986742  0.66560551  1
  Cs  Cs9  1  0.33367854  -0.00134393  0.00188240  1
  Cs  Cs10  1  0.33322671  -0.00221648  0.33256552  1
  Cs  Cs11  1  0.33402223  0.00129639  0.66534805  1
  Cs  Cs12  1  0.33320379  0.33523810  -0.00068853  1
  Cs  Cs13  1  0.33316844  0.33216962  0.33382706  1
  Cs  Cs14  1  0.33316754  0.33375878  0.66663764  1
  Cs  Cs15  1  0.33315054  0.66547676  0.00016055  1
  Cs  Cs16  1  0.33203979  0.67108056  0.33134669  1
  Cs  Cs17  1  0.33320782  0.66379581  0.66888345  1
  Cs  Cs18  1  0.66946065  -0.00042921  -0.00117460  1
  Cs  Cs19  1  0.66159147  0.00189118  0.33290069  1
  Cs  Cs20  1  0.66766151  -0.00216468  0.66804594  1
  Cs  Cs21  1  0.66642945  0.33378871  0.00364846  1
  Cs  Cs22  1  0.66769404  0.33333590  0.33284713  1
  Cs  Cs23  1  0.66212538  0.33470037  0.66279462  1
  Cs  Cs24  1  0.66733902  0.66637187  -0.00125625  1
  Cs  Cs25  1  0.66820413  0.66642037  0.33495582  1
  Cs  Cs26  1  0.67169613  0.66816312  0.66724596  1
  Sn  Sn27  1  0.49920231  0.49944964  0.16777071  1
  Sn  Sn28  1  0.16752287  0.16752086  0.16701945  1
  Sn  Sn29  1  0.16778251  0.49951217  0.49913536  1
  Sn  Sn30  1  0.49906265  0.16743870  0.16645675  1
  Sn  Sn31  1  0.49900056  0.49963383  0.49880847  1
  Sn  Sn32  1  0.16763941  0.83343071  0.83322562  1
  Sn  Sn33  1  0.16676090  0.16732689  0.49934855  1
  Sn  Sn34  1  0.49976833  0.16726363  0.49993170  1
  Sn  Sn35  1  0.83348436  0.49874696  0.83340136  1
  Sn  Sn36  1  0.16755412  0.49926354  0.16734434  1
  Sn  Sn37  1  0.83348290  0.16662968  0.49988681  1
  Sn  Sn38  1  0.83323766  0.83349760  0.16751306  1
  Sn  Sn39  1  0.49969682  0.16590968  0.83355160  1
  Sn  Sn40  1  0.49893213  0.83390567  0.83333683  1
  Pb  Pb41  1  0.50145780  0.83315399  0.16479142  1
  Pb  Pb42  1  0.50122532  0.49973900  0.83327140  1
  Pb  Pb43  1  0.83329337  0.83629362  0.49706343  1
  Pb  Pb44  1  0.16507453  0.83351218  0.16484968  1
  Pb  Pb45  1  0.83050143  0.16910250  0.83105595  1
  Pb  Pb46  1  0.16467876  0.50171994  0.83320360  1
  Pb  Pb47  1  0.83350294  0.49809516  0.50159763  1
  Pb  Pb48  1  0.49985044  0.83281379  0.50229824  1
  Pb  Pb49  1  0.16688758  0.83320819  0.50229197  1
  Pb  Pb50  1  0.83287691  0.83186443  0.83473527  1
  Pb  Pb51  1  0.83344304  0.50129616  0.16545580  1
  Pb  Pb52  1  0.83346952  0.16505892  0.16864007  1
  Pb  Pb53  1  0.16866817  0.16498949  0.83351074  1
  I  I54  1  0.17031060  0.00330282  0.17076465  1
  I  I55  1  0.16821526  0.00380060  0.49612108  1
  I  I56  1  0.16751101  -0.00277361  0.83377403  1
  I  I57  1  0.16963295  0.33316535  0.16945154  1
  I  I58  1  0.16741706  0.33268015  0.49755829  1
  I  I59  1  0.16651825  0.33324150  0.83325906  1
  I  I60  1  0.16952259  0.66352410  0.16920775  1
  I  I61  1  0.17117224  0.66303020  0.49655786  1
  I  I62  1  0.17263890  0.66944136  0.83435968  1
  I  I63  1  0.49726762  0.00338624  0.16943125  1
  I  I64  1  0.49932515  0.00369385  0.49759059  1
  I  I65  1  0.49718420  0.00103669  0.83314842  1
  I  I66  1  0.49777980  0.33267793  0.16469346  1
  I  I67  1  0.49973714  0.33228676  0.50218220  1
  I  I68  1  0.50219241  0.33057403  0.83261366  1
  I  I69  1  0.49729588  0.66340891  0.16889706  1
  I  I70  1  0.49567137  0.66287598  0.49685473  1
  I  I71  1  0.49893666  0.66862253  0.83398412  1
  I  I72  1  0.83319605  -0.00238787  0.16511578  1
  I  I73  1  0.83244916  0.00448085  0.50156555  1
  I  I74  1  0.83437328  0.00034068  0.83306527  1
  I  I75  1  0.83288053  0.33315421  0.16548738  1
  I  I76  1  0.83184509  0.33014610  0.49970087  1
  I  I77  1  0.83289980  0.33630467  0.83538078  1
  I  I78  1  0.83297545  0.66892261  0.16370442  1
  I  I79  1  0.83310911  0.66639616  0.50186152  1
  I  I80  1  0.83083765  0.66429633  0.83284949  1
  I  I81  1  0.17104177  0.16989729  0.00308183  1
  I  I82  1  0.17015859  0.16902281  0.33356882  1
  I  I83  1  0.16786810  0.17006754  0.66350382  1
  I  I84  1  0.17002170  0.49718697  0.00311027  1
  I  I85  1  0.16911635  0.49660623  0.33325120  1
  I  I86  1  0.17040562  0.49588528  0.66348374  1
  I  I87  1  0.16988855  0.83286683  -0.00280173  1
  I  I88  1  0.16420784  0.83354510  0.33321038  1
  I  I89  1  0.16960474  0.83336832  0.67012436  1
  I  I90  1  0.49580824  0.16716600  0.00115583  1
  I  I91  1  0.50060651  0.17076482  0.33349213  1
  I  I92  1  0.50018530  0.16707892  0.66544604  1
  I  I93  1  0.49759909  0.49716373  0.00274825  1
  I  I94  1  0.49832726  0.49247824  0.33326576  1
  I  I95  1  0.49721789  0.49622722  0.66386990  1
  I  I96  1  0.49782880  0.83681790  -0.00316655  1
  I  I97  1  0.50220986  0.83573322  0.33313360  1
  I  I98  1  0.49792038  0.83723469  0.67042645  1
  I  I99  1  0.83328433  0.16567022  0.00006577  1
  I  I100  1  0.82856618  0.16714790  0.33649496  1
  I  I101  1  0.83464510  0.16707392  0.66309761  1
  I  I102  1  0.83195214  0.50174653  -0.00221078  1
  I  I103  1  0.83291723  0.50131907  0.33349372  1
  I  I104  1  0.83183290  0.50128953  0.66912120  1
  I  I105  1  0.83339508  0.83377228  0.00220400  1
  I  I106  1  0.83346358  0.83065314  0.32977572  1
  I  I107  1  0.83345605  0.83266206  0.66667422  1
  I  I108  1  0.00319596  0.16948091  0.17107725  1
  I  I109  1  0.00165442  0.17059717  0.49512579  1
  I  I110  1  0.00006536  0.16472164  0.83310280  1
  I  I111  1  0.00330759  0.49729950  0.16917063  1
  I  I112  1  0.00316061  0.49592195  0.49732599  1
  I  I113  1  -0.00254113  0.50337824  0.83337478  1
  I  I114  1  -0.00227802  0.83340623  0.16272205  1
  I  I115  1  0.00015172  0.83310421  0.50376222  1
  I  I116  1  0.00183338  0.83138650  0.83472148  1
  I  I117  1  0.33393706  0.16907812  0.17037750  1
  I  I118  1  0.33377426  0.17049236  0.50025608  1
  I  I119  1  0.33698571  0.16637654  0.82932413  1
  I  I120  1  0.33357520  0.49686868  0.16874449  1
  I  I121  1  0.33358077  0.49214894  0.49847891  1
  I  I122  1  0.33337393  0.50022519  0.83325003  1
  I  I123  1  0.33335745  0.83329966  0.16554649  1
  I  I124  1  0.33337577  0.83762870  0.49840471  1
  I  I125  1  0.33423708  0.83595818  0.83442826  1
  I  I126  1  0.66328980  0.16930909  0.16737552  1
  I  I127  1  0.66472082  0.17013205  0.50027943  1
  I  I128  1  0.66218578  0.16076727  0.83422080  1
  I  I129  1  0.66343262  0.49663925  0.16871176  1
  I  I130  1  0.66358304  0.49539667  0.49772061  1
  I  I131  1  0.66855299  0.50202473  0.83333518  1
  I  I132  1  0.66886515  0.83353910  0.16315543  1
  I  I133  1  0.66650556  0.83282687  0.50307546  1
  I  I134  1  0.66396600  0.83628259  0.83462127  1
