# generated using pymatgen
data_Cs27Sn14Pb13I81
_symmetry_space_group_name_H-M   'P 1'
_cell_length_a   18.98167000
_cell_length_b   18.97698954
_cell_length_c   18.97029034
_cell_angle_alpha   90.00030211
_cell_angle_beta   89.99830469
_cell_angle_gamma   90.00222465
_symmetry_Int_Tables_number   1
_chemical_formula_structural   Cs27Sn14Pb13I81
_chemical_formula_sum   'Cs27 Sn14 Pb13 I81'
_cell_volume   6833.38223681
_cell_formula_units_Z   1
loop_
 _symmetry_equiv_pos_site_id
 _symmetry_equiv_pos_as_xyz
  1  'x, y, z'
loop_
 _atom_site_type_symbol
 _atom_site_label
 _atom_site_symmetry_multiplicity
 _atom_site_fract_x
 _atom_site_fract_y
 _atom_site_fract_z
 _atom_site_occupancy
  Cs  Cs0  1  0.00245251  -0.00043503  -0.00085497  1
  Cs  Cs1  1  -0.00040327  -0.00224104  0.33385889  1
  Cs  Cs2  1  -0.00093607  0.00235003  0.66634429  1
  Cs  Cs3  1  -0.00064836  0.32853793  -0.00594787  1
  Cs  Cs4  1  0.00082365  0.33620864  0.33446344  1
  Cs  Cs5  1  0.00092054  0.33184438  0.67298538  1
  Cs  Cs6  1  -0.00324570  0.66973191  0.00412188  1
  Cs  Cs7  1  -0.00066735  0.66732554  0.33326546  1
  Cs  Cs8  1  0.00333120  0.66508413  0.66353276  1
  Cs  Cs9  1  0.32980094  0.00498082  -0.00207559  1
  Cs  Cs10  1  0.33440640  0.00309028  0.33407018  1
  Cs  Cs11  1  0.33721496  -0.00432593  0.66693264  1
  Cs  Cs12  1  0.33398402  0.32595836  -0.00049728  1
  Cs  Cs13  1  0.33343733  0.33335525  0.33235546  1
  Cs  Cs14  1  0.32829661  0.34079796  0.66912162  1
  Cs  Cs15  1  0.33571702  0.66808187  -0.00324410  1
  Cs  Cs16  1  0.33215822  0.66490485  0.33390054  1
  Cs  Cs17  1  0.33414860  0.66664383  0.67457705  1
  Cs  Cs18  1  0.66747019  -0.00069207  0.00242482  1
  Cs  Cs19  1  0.66561018  0.00112755  0.33629125  1
  Cs  Cs20  1  0.66380623  0.00305028  0.66206288  1
  Cs  Cs21  1  0.66630115  0.33510433  -0.00250109  1
  Cs  Cs22  1  0.66563594  0.33381038  0.33370986  1
  Cs  Cs23  1  0.66951817  0.32953531  0.67030879  1
  Cs  Cs24  1  0.66710469  0.66506281  0.00183583  1
  Cs  Cs25  1  0.66793923  0.66669852  0.33181566  1
  Cs  Cs26  1  0.66320144  0.66728785  0.66789373  1
  Sn  Sn27  1  0.16706068  0.83255810  0.16770392  1
  Sn  Sn28  1  0.83384999  0.83244636  0.49994843  1
  Sn  Sn29  1  0.50110629  0.50033838  0.49933612  1
  Sn  Sn30  1  0.16657069  0.50063814  0.16671876  1
  Sn  Sn31  1  0.16623132  0.83413709  0.49901730  1
  Sn  Sn32  1  0.83321432  0.83356594  0.16716080  1
  Sn  Sn33  1  0.83324153  0.83304053  0.83263796  1
  Sn  Sn34  1  0.83335831  0.16687776  0.16722608  1
  Sn  Sn35  1  0.16655562  0.16574812  0.49956020  1
  Sn  Sn36  1  0.83358175  0.49958951  0.16740247  1
  Sn  Sn37  1  0.83236306  0.50067661  0.49942327  1
  Sn  Sn38  1  0.49963292  0.83300785  0.16704242  1
  Sn  Sn39  1  0.50031987  0.16641768  0.83314606  1
  Sn  Sn40  1  0.49983531  0.50084122  0.16748465  1
  Pb  Pb41  1  0.16634762  0.50045851  0.83771497  1
  Pb  Pb42  1  0.83340084  0.50247358  0.83308235  1
  Pb  Pb43  1  0.50028247  0.49840880  0.83386964  1
  Pb  Pb44  1  0.49976196  0.83128352  0.49793214  1
  Pb  Pb45  1  0.16432683  0.16641274  0.16821091  1
  Pb  Pb46  1  0.16871168  0.16617931  0.83003834  1
  Pb  Pb47  1  0.16431417  0.83315706  0.83336694  1
  Pb  Pb48  1  0.16627903  0.50094638  0.49848582  1
  Pb  Pb49  1  0.83183103  0.16387022  0.83577946  1
  Pb  Pb50  1  0.50212654  0.16695483  0.16588013  1
  Pb  Pb51  1  0.50247356  0.83505749  0.83633794  1
  Pb  Pb52  1  0.49756195  0.16993249  0.50190532  1
  Pb  Pb53  1  0.83481504  0.16708803  0.49814787  1
  I  I54  1  0.16586347  -0.00339712  0.16804151  1
  I  I55  1  0.16072519  -0.00212019  0.49383239  1
  I  I56  1  0.16659231  -0.00026636  0.83937521  1
  I  I57  1  0.16703302  0.33609090  0.16943191  1
  I  I58  1  0.16761851  0.33219781  0.49776050  1
  I  I59  1  0.16632565  0.33315529  0.83209548  1
  I  I60  1  0.16219075  0.66769530  0.17264737  1
  I  I61  1  0.16378394  0.66967928  0.49657999  1
  I  I62  1  0.16849843  0.66698817  0.82703751  1
  I  I63  1  0.50125922  -0.00280791  0.16437273  1
  I  I64  1  0.50211113  -0.00014668  0.49958003  1
  I  I65  1  0.50094726  0.00244365  0.83504949  1
  I  I66  1  0.50012873  0.33674000  0.16866874  1
  I  I67  1  0.50487140  0.33763942  0.49186762  1
  I  I68  1  0.50103667  0.33087004  0.83605936  1
  I  I69  1  0.50434886  0.66634309  0.16947650  1
  I  I70  1  0.49995439  0.66335216  0.49763217  1
  I  I71  1  0.50012097  0.66682372  0.83229948  1
  I  I72  1  0.83308665  -0.00205907  0.16619507  1
  I  I73  1  0.83569239  -0.00324565  0.49808267  1
  I  I74  1  0.83277275  -0.00387705  0.83453441  1
  I  I75  1  0.83277083  0.33494279  0.17193178  1
  I  I76  1  0.83117314  0.33649945  0.49348539  1
  I  I77  1  0.83249843  0.33318413  0.83419545  1
  I  I78  1  0.83347492  0.66717239  0.16654431  1
  I  I79  1  0.83570149  0.66747630  0.49467232  1
  I  I80  1  0.83242993  0.67018477  0.83993420  1
  I  I81  1  0.16632971  0.16756178  0.00013035  1
  I  I82  1  0.16694462  0.16461826  0.33578744  1
  I  I83  1  0.16459877  0.16142547  0.66225161  1
  I  I84  1  0.16602124  0.50639311  0.00615409  1
  I  I85  1  0.16621737  0.50147449  0.33008473  1
  I  I86  1  0.16739241  0.49935582  0.66634297  1
  I  I87  1  0.16537312  0.82885306  0.00384608  1
  I  I88  1  0.16064996  0.83317279  0.33231353  1
  I  I89  1  0.16174021  0.83744955  0.66311465  1
  I  I90  1  0.50113335  0.16787701  -0.00181265  1
  I  I91  1  0.49998603  0.16550096  0.33345890  1
  I  I92  1  0.50154229  0.16627400  0.66933270  1
  I  I93  1  0.50148509  0.50332045  0.00398654  1
  I  I94  1  0.50159987  0.50280700  0.33171054  1
  I  I95  1  0.50453573  0.49819953  0.66366265  1
  I  I96  1  0.50077035  0.82665070  0.00474408  1
  I  I97  1  0.50502543  0.83275216  0.32956719  1
  I  I98  1  0.50008153  0.83245677  0.66653655  1
  I  I99  1  0.83378887  0.16781502  0.00395492  1
  I  I100  1  0.83246761  0.16208776  0.33012069  1
  I  I101  1  0.83365307  0.16674320  0.66655469  1
  I  I102  1  0.83245009  0.50120303  0.00396103  1
  I  I103  1  0.83267411  0.50482018  0.33196660  1
  I  I104  1  0.82854451  0.50434923  0.66294517  1
  I  I105  1  0.83305827  0.83328846  0.00257445  1
  I  I106  1  0.83468571  0.83220764  0.33229872  1
  I  I107  1  0.83856932  0.82864038  0.66495309  1
  I  I108  1  -0.00350094  0.16615106  0.16704450  1
  I  I109  1  0.00256675  0.16668604  0.49789273  1
  I  I110  1  -0.00012164  0.16675304  0.83400689  1
  I  I111  1  -0.00107583  0.50369278  0.17129070  1
  I  I112  1  -0.00286464  0.50178880  0.49472644  1
  I  I113  1  -0.00030058  0.49787749  0.83126785  1
  I  I114  1  -0.00091803  0.83082460  0.16673506  1
  I  I115  1  -0.00118370  0.83149194  0.49491869  1
  I  I116  1  -0.00355107  0.83423860  0.83992225  1
  I  I117  1  0.33324476  0.16681237  0.16531204  1
  I  I118  1  0.32994518  0.16062134  0.49829852  1
  I  I119  1  0.33619348  0.16667154  0.83764140  1
  I  I120  1  0.33380338  0.50692635  0.17141577  1
  I  I121  1  0.33528943  0.49803743  0.49475003  1
  I  I122  1  0.33348680  0.50005589  0.83061298  1
  I  I123  1  0.33270899  0.82624590  0.17148700  1
  I  I124  1  0.33056296  0.83629415  0.49425112  1
  I  I125  1  0.33355721  0.83441110  0.83334496  1
  I  I126  1  0.67000633  0.16506439  0.16654424  1
  I  I127  1  0.66667615  0.16441251  0.50037873  1
  I  I128  1  0.66441189  0.16716862  0.83368695  1
  I  I129  1  0.66731615  0.50307658  0.16976995  1
  I  I130  1  0.66792141  0.50517004  0.49116868  1
  I  I131  1  0.66684499  0.49980866  0.83791734  1
  I  I132  1  0.66801736  0.83104909  0.16582843  1
  I  I133  1  0.66982850  0.83145820  0.49847456  1
  I  I134  1  0.67027271  0.83337004  0.83407548  1
