# generated using pymatgen
data_Cs27Sn13Pb14I81
_symmetry_space_group_name_H-M   'P 1'
_cell_length_a   18.97330130
_cell_length_b   18.97700955
_cell_length_c   18.98140229
_cell_angle_alpha   90.00025302
_cell_angle_beta   89.99915390
_cell_angle_gamma   89.99888037
_symmetry_Int_Tables_number   1
_chemical_formula_structural   Cs27Sn13Pb14I81
_chemical_formula_sum   'Cs27 Sn13 Pb14 I81'
_cell_volume   6834.37764867
_cell_formula_units_Z   1
loop_
 _symmetry_equiv_pos_site_id
 _symmetry_equiv_pos_as_xyz
  1  'x, y, z'
loop_
 _atom_site_type_symbol
 _atom_site_label
 _atom_site_symmetry_multiplicity
 _atom_site_fract_x
 _atom_site_fract_y
 _atom_site_fract_z
 _atom_site_occupancy
  Cs  Cs0  1  0.00435518  -0.00395252  -0.00241039  1
  Cs  Cs1  1  0.00115856  0.00262970  0.33337505  1
  Cs  Cs2  1  0.00316384  0.00069012  0.66949978  1
  Cs  Cs3  1  -0.00230119  0.33484743  0.00140113  1
  Cs  Cs4  1  0.00086949  0.33199699  0.33407234  1
  Cs  Cs5  1  -0.00067770  0.33357365  0.66559453  1
  Cs  Cs6  1  0.00280895  0.66966521  -0.00001415  1
  Cs  Cs7  1  0.00170398  0.66685936  0.33260356  1
  Cs  Cs8  1  -0.00593941  0.66654609  0.66702813  1
  Cs  Cs9  1  0.32868751  0.00547046  -0.00880950  1
  Cs  Cs10  1  0.33072551  0.00318476  0.33362401  1
  Cs  Cs11  1  0.33278201  -0.00149112  0.67388457  1
  Cs  Cs12  1  0.33508097  0.33148854  -0.00031870  1
  Cs  Cs13  1  0.33310728  0.33359266  0.33475762  1
  Cs  Cs14  1  0.33249343  0.33473143  0.66505478  1
  Cs  Cs15  1  0.32986813  0.66529811  0.00044666  1
  Cs  Cs16  1  0.33341780  0.66552197  0.33473539  1
  Cs  Cs17  1  0.33518000  0.66548828  0.66466363  1
  Cs  Cs18  1  0.66467995  0.00263382  0.00152608  1
  Cs  Cs19  1  0.66718637  -0.00130659  0.33233590  1
  Cs  Cs20  1  0.66463222  -0.00736126  0.66646101  1
  Cs  Cs21  1  0.66614420  0.33236511  0.00074243  1
  Cs  Cs22  1  0.66660292  0.33327425  0.33302732  1
  Cs  Cs23  1  0.66835329  0.33530230  0.66535035  1
  Cs  Cs24  1  0.66777837  0.66575275  0.00216321  1
  Cs  Cs25  1  0.66630395  0.66823624  0.33343918  1
  Cs  Cs26  1  0.67106103  0.67200274  0.66623583  1
  Sn  Sn27  1  0.83305833  0.16647116  0.16649809  1
  Sn  Sn28  1  0.16688995  0.83240343  0.49989808  1
  Sn  Sn29  1  0.83262988  0.50026320  0.16704164  1
  Sn  Sn30  1  0.49992044  0.49965876  0.50029729  1
  Sn  Sn31  1  0.16709998  0.49986925  0.83231533  1
  Sn  Sn32  1  0.50094350  0.16703231  0.50000492  1
  Sn  Sn33  1  0.50082703  0.50070698  0.16671204  1
  Sn  Sn34  1  0.83285578  0.16662832  0.83317589  1
  Sn  Sn35  1  0.49971067  0.83311510  0.16649661  1
  Sn  Sn36  1  0.83260150  0.83333748  0.16694641  1
  Sn  Sn37  1  0.16710896  0.50112965  0.50092299  1
  Sn  Sn38  1  0.49982831  0.50011433  0.83307227  1
  Sn  Sn39  1  0.83204426  0.16671387  0.50036141  1
  Pb  Pb40  1  0.83314329  0.49873362  0.83567481  1
  Pb  Pb41  1  0.50139576  0.16669468  0.16832190  1
  Pb  Pb42  1  0.50000689  0.83052019  0.83657549  1
  Pb  Pb43  1  0.49834496  0.83330249  0.49805351  1
  Pb  Pb44  1  0.16679373  0.83021606  0.83048773  1
  Pb  Pb45  1  0.83322084  0.49868485  0.49789954  1
  Pb  Pb46  1  0.50220615  0.16903695  0.83048422  1
  Pb  Pb47  1  0.16442410  0.16982485  0.83319947  1
  Pb  Pb48  1  0.16737923  0.49983531  0.16692346  1
  Pb  Pb49  1  0.16409767  0.16669112  0.16640499  1
  Pb  Pb50  1  0.83547333  0.83623940  0.49784807  1
  Pb  Pb51  1  0.16716321  0.16711079  0.50014096  1
  Pb  Pb52  1  0.83309402  0.83610042  0.83621132  1
  Pb  Pb53  1  0.16761611  0.83328189  0.16838842  1
  I  I54  1  0.16661124  -0.00022080  0.17087548  1
  I  I55  1  0.16485317  -0.00209577  0.49588834  1
  I  I56  1  0.16516091  0.00000041  0.83267370  1
  I  I57  1  0.16542171  0.33376275  0.16979020  1
  I  I58  1  0.16763155  0.33661677  0.50312394  1
  I  I59  1  0.17041771  0.33751888  0.82631927  1
  I  I60  1  0.16029204  0.66635470  0.16539679  1
  I  I61  1  0.17257045  0.66463307  0.50196226  1
  I  I62  1  0.16932107  0.66231716  0.83336978  1
  I  I63  1  0.50579566  -0.00236515  0.17122869  1
  I  I64  1  0.50337732  0.00259269  0.49628136  1
  I  I65  1  0.50104986  0.00024580  0.83328265  1
  I  I66  1  0.50402805  0.33669973  0.16568398  1
  I  I67  1  0.49821948  0.33502240  0.49712777  1
  I  I68  1  0.49676731  0.33731109  0.83913505  1
  I  I69  1  0.50870208  0.66491550  0.16873590  1
  I  I70  1  0.49677163  0.66324730  0.50034366  1
  I  I71  1  0.49756611  0.66187712  0.82799027  1
  I  I72  1  0.82924810  0.00023683  0.16802778  1
  I  I73  1  0.82896442  0.00433731  0.49706442  1
  I  I74  1  0.83347330  0.00425258  0.83398021  1
  I  I75  1  0.83001365  0.33333664  0.16659748  1
  I  I76  1  0.83433168  0.33049970  0.49649966  1
  I  I77  1  0.83370773  0.33074966  0.83617799  1
  I  I78  1  0.82906004  0.66615016  0.16705587  1
  I  I79  1  0.83187916  0.66674653  0.49808626  1
  I  I80  1  0.83409058  0.66652101  0.83508509  1
  I  I81  1  0.16580073  0.16805937  -0.00035017  1
  I  I82  1  0.16377293  0.16921746  0.33375123  1
  I  I83  1  0.16234293  0.16469299  0.66640868  1
  I  I84  1  0.16868482  0.49819105  -0.00244579  1
  I  I85  1  0.16923751  0.50267225  0.33639640  1
  I  I86  1  0.17447342  0.50260630  0.66563370  1
  I  I87  1  0.16497122  0.83234288  -0.00014041  1
  I  I88  1  0.16600427  0.82587267  0.33612890  1
  I  I89  1  0.16713666  0.83289582  0.66267457  1
  I  I90  1  0.50210022  0.16790178  -0.00005441  1
  I  I91  1  0.50540276  0.17271310  0.33629268  1
  I  I92  1  0.50528673  0.17206638  0.66251064  1
  I  I93  1  0.50038439  0.50427961  0.00071168  1
  I  I94  1  0.49994125  0.49952772  0.33348533  1
  I  I95  1  0.49408745  0.49359415  0.66580391  1
  I  I96  1  0.50537514  0.82859352  0.00478100  1
  I  I97  1  0.50438861  0.82706161  0.33025634  1
  I  I98  1  0.49846202  0.83351644  0.66650589  1
  I  I99  1  0.83431705  0.16824348  0.00117447  1
  I  I100  1  0.83000996  0.16720498  0.33303224  1
  I  I101  1  0.83079442  0.16997777  0.66583656  1
  I  I102  1  0.83004917  0.49692137  0.00384201  1
  I  I103  1  0.83008632  0.49733479  0.32970952  1
  I  I104  1  0.83194935  0.49673634  0.66656013  1
  I  I105  1  0.83077000  0.83381823  0.00470052  1
  I  I106  1  0.83005958  0.83457182  0.32970537  1
  I  I107  1  0.83476160  0.83453584  0.66648300  1
  I  I108  1  -0.00550141  0.16819147  0.17104786  1
  I  I109  1  -0.00298424  0.16710488  0.49790503  1
  I  I110  1  -0.00380272  0.16914363  0.83191744  1
  I  I111  1  -0.00289524  0.49894189  0.16673745  1
  I  I112  1  0.00253276  0.50138253  0.50260937  1
  I  I113  1  0.00235269  0.49744168  0.82952742  1
  I  I114  1  -0.00311935  0.83356108  0.16809767  1
  I  I115  1  0.00307473  0.82715244  0.49726120  1
  I  I116  1  -0.00007190  0.83140640  0.83586373  1
  I  I117  1  0.33390176  0.16713587  0.16992171  1
  I  I118  1  0.33635295  0.16926075  0.49793418  1
  I  I119  1  0.33366985  0.16527691  0.83189946  1
  I  I120  1  0.33700553  0.50531485  0.16722634  1
  I  I121  1  0.33440152  0.49751907  0.49783163  1
  I  I122  1  0.33412016  0.49984405  0.83473052  1
  I  I123  1  0.33672987  0.82470882  0.16961884  1
  I  I124  1  0.33067202  0.83257312  0.49596303  1
  I  I125  1  0.33336802  0.83722300  0.83667541  1
  I  I126  1  0.67013165  0.16775400  0.16569748  1
  I  I127  1  0.66695055  0.17370299  0.49845393  1
  I  I128  1  0.67006754  0.17069966  0.83723438  1
  I  I129  1  0.66603253  0.49979243  0.16673528  1
  I  I130  1  0.66360402  0.49658992  0.50131003  1
  I  I131  1  0.66371068  0.49738361  0.83183188  1
  I  I132  1  0.66730999  0.83184236  0.16840119  1
  I  I133  1  0.66668285  0.83162157  0.50022478  1
  I  I134  1  0.66662217  0.83026033  0.82933833  1
