# generated using pymatgen
data_Cs27Sn13Pb14I81
_symmetry_space_group_name_H-M   'P 1'
_cell_length_a   18.97303763
_cell_length_b   18.97671276
_cell_length_c   18.98065675
_cell_angle_alpha   89.99976288
_cell_angle_beta   90.00239960
_cell_angle_gamma   90.00206527
_symmetry_Int_Tables_number   1
_chemical_formula_structural   Cs27Sn13Pb14I81
_chemical_formula_sum   'Cs27 Sn13 Pb14 I81'
_cell_volume   6833.90735220
_cell_formula_units_Z   1
loop_
 _symmetry_equiv_pos_site_id
 _symmetry_equiv_pos_as_xyz
  1  'x, y, z'
loop_
 _atom_site_type_symbol
 _atom_site_label
 _atom_site_symmetry_multiplicity
 _atom_site_fract_x
 _atom_site_fract_y
 _atom_site_fract_z
 _atom_site_occupancy
  Cs  Cs0  1  0.00000819  0.00258070  0.00079313  1
  Cs  Cs1  1  0.00127675  -0.00148817  0.33198102  1
  Cs  Cs2  1  -0.00094301  -0.00120214  0.66691744  1
  Cs  Cs3  1  0.00164900  0.33124379  0.00239391  1
  Cs  Cs4  1  -0.00030854  0.33347043  0.33227002  1
  Cs  Cs5  1  0.00225347  0.33351835  0.66464919  1
  Cs  Cs6  1  -0.00150465  0.66550952  -0.00117082  1
  Cs  Cs7  1  0.00097294  0.66646000  0.33555421  1
  Cs  Cs8  1  -0.00455296  0.66826627  0.66550908  1
  Cs  Cs9  1  0.33181355  -0.00040566  -0.00178419  1
  Cs  Cs10  1  0.33459548  -0.00969223  0.33390729  1
  Cs  Cs11  1  0.33556377  -0.00049363  0.66829199  1
  Cs  Cs12  1  0.33178091  0.33336683  -0.00114818  1
  Cs  Cs13  1  0.33401681  0.33390371  0.33675934  1
  Cs  Cs14  1  0.33196906  0.33365780  0.66521136  1
  Cs  Cs15  1  0.33671242  0.66686765  -0.00051099  1
  Cs  Cs16  1  0.33791667  0.67598895  0.33116991  1
  Cs  Cs17  1  0.33182553  0.66731858  0.66902066  1
  Cs  Cs18  1  0.66838152  0.00116616  -0.00080522  1
  Cs  Cs19  1  0.66467211  0.00272142  0.33369506  1
  Cs  Cs20  1  0.66584586  0.00014155  0.66724021  1
  Cs  Cs21  1  0.66636758  0.33261625  0.00051543  1
  Cs  Cs22  1  0.66585938  0.33137264  0.33364495  1
  Cs  Cs23  1  0.66453846  0.33663139  0.66467121  1
  Cs  Cs24  1  0.66467251  0.66472053  -0.00149893  1
  Cs  Cs25  1  0.65987817  0.66715619  0.33658541  1
  Cs  Cs26  1  0.67577089  0.65946089  0.66381792  1
  Sn  Sn27  1  0.49993997  0.16684016  0.16580666  1
  Sn  Sn28  1  0.83372755  0.50028030  0.16670890  1
  Sn  Sn29  1  0.83325036  0.83309549  0.16678443  1
  Sn  Sn30  1  0.16681583  0.83254616  0.83368383  1
  Sn  Sn31  1  0.16673635  0.49965530  0.49941440  1
  Sn  Sn32  1  0.83268374  0.16697583  0.83314114  1
  Sn  Sn33  1  0.16645063  0.49989225  0.16702884  1
  Sn  Sn34  1  0.50075893  0.16617431  0.83432618  1
  Sn  Sn35  1  0.50020402  0.83366493  0.83309932  1
  Sn  Sn36  1  0.83446155  0.16673248  0.49993131  1
  Sn  Sn37  1  0.16614187  0.16668926  0.49967740  1
  Sn  Sn38  1  0.16635334  0.50096207  0.83348933  1
  Sn  Sn39  1  0.83291775  0.16671981  0.16665196  1
  Pb  Pb40  1  0.83305273  0.83514672  0.83495336  1
  Pb  Pb41  1  0.49699891  0.50012080  0.49993629  1
  Pb  Pb42  1  0.16654862  0.83309847  0.50247404  1
  Pb  Pb43  1  0.83531090  0.49782958  0.49724792  1
  Pb  Pb44  1  0.16472788  0.83056801  0.16416462  1
  Pb  Pb45  1  0.49802366  0.49967506  0.83327292  1
  Pb  Pb46  1  0.16719256  0.16801142  0.16909961  1
  Pb  Pb47  1  0.83332027  0.83586840  0.49720095  1
  Pb  Pb48  1  0.16685006  0.16674632  0.83165531  1
  Pb  Pb49  1  0.49983779  0.16657995  0.50025921  1
  Pb  Pb50  1  0.50044340  0.83332133  0.50369353  1
  Pb  Pb51  1  0.83574783  0.49715777  0.83535938  1
  Pb  Pb52  1  0.49996358  0.49768860  0.16666053  1
  Pb  Pb53  1  0.50251578  0.83592561  0.16420626  1
  I  I54  1  0.16540316  -0.00004905  0.16640315  1
  I  I55  1  0.16284114  0.00284949  0.50170081  1
  I  I56  1  0.16746302  -0.00178752  0.83154819  1
  I  I57  1  0.16101564  0.33618919  0.16119775  1
  I  I58  1  0.16261832  0.33342401  0.50283612  1
  I  I59  1  0.16572405  0.33566889  0.83460232  1
  I  I60  1  0.16117269  0.66232416  0.17126621  1
  I  I61  1  0.16699397  0.66330493  0.49838435  1
  I  I62  1  0.17224027  0.66625776  0.83259905  1
  I  I63  1  0.50511545  0.00400039  0.16533231  1
  I  I64  1  0.49673679  0.00048541  0.49735962  1
  I  I65  1  0.49682597  0.00126674  0.83735108  1
  I  I66  1  0.50576286  0.32947853  0.16028534  1
  I  I67  1  0.50091381  0.33283506  0.50232682  1
  I  I68  1  0.50267757  0.32982839  0.83691802  1
  I  I69  1  0.50082121  0.66693610  0.16548483  1
  I  I70  1  0.49810684  0.66678820  0.49955553  1
  I  I71  1  0.49553654  0.66943608  0.83414566  1
  I  I72  1  0.82906659  0.00178724  0.16625842  1
  I  I73  1  0.83995563  0.00471038  0.49843972  1
  I  I74  1  0.83529847  0.00363433  0.83629098  1
  I  I75  1  0.83422734  0.33213559  0.16631132  1
  I  I76  1  0.83551248  0.32944291  0.49846463  1
  I  I77  1  0.82951154  0.32888092  0.83567609  1
  I  I78  1  0.84056964  0.66594107  0.16444359  1
  I  I79  1  0.83496217  0.66633029  0.49980378  1
  I  I80  1  0.83154812  0.66641539  0.83582549  1
  I  I81  1  0.16423935  0.16809712  0.00000158  1
  I  I82  1  0.16226534  0.17296944  0.33677018  1
  I  I83  1  0.16258122  0.17192132  0.66398007  1
  I  I84  1  0.16271741  0.50317803  0.00011334  1
  I  I85  1  0.16087167  0.49215218  0.33310167  1
  I  I86  1  0.16888454  0.49836852  0.66672874  1
  I  I87  1  0.16969252  0.83024218  -0.00368460  1
  I  I88  1  0.16577844  0.83340375  0.33309565  1
  I  I89  1  0.16958220  0.82933884  0.67053098  1
  I  I90  1  0.50775817  0.16415410  -0.00052233  1
  I  I91  1  0.50435920  0.16900396  0.33061404  1
  I  I92  1  0.50260995  0.16262728  0.66997073  1
  I  I93  1  0.49667263  0.50028161  -0.00001750  1
  I  I94  1  0.49858348  0.49664427  0.33301167  1
  I  I95  1  0.49836959  0.49688057  0.66693496  1
  I  I96  1  0.49526377  0.83619451  -0.00337509  1
  I  I97  1  0.49986721  0.83477228  0.33288442  1
  I  I98  1  0.49454468  0.84300254  0.67177799  1
  I  I99  1  0.82923663  0.16666452  0.00077275  1
  I  I100  1  0.83336740  0.16735806  0.33215821  1
  I  I101  1  0.83409187  0.16579085  0.66698768  1
  I  I102  1  0.83960990  0.49662008  0.00341816  1
  I  I103  1  0.83981756  0.49684464  0.32920092  1
  I  I104  1  0.83453973  0.49862886  0.66657479  1
  I  I105  1  0.83451068  0.83682742  0.00291293  1
  I  I106  1  0.83530997  0.83555230  0.32898066  1
  I  I107  1  0.83363734  0.83568242  0.66691510  1
  I  I108  1  -0.00316585  0.16597777  0.16371195  1
  I  I109  1  -0.00063342  0.17068910  0.50039525  1
  I  I110  1  -0.00244597  0.16693219  0.83655976  1
  I  I111  1  -0.00005411  0.49636437  0.16567232  1
  I  I112  1  0.00351024  0.49690365  0.50248486  1
  I  I113  1  0.00398791  0.50401913  0.83156821  1
  I  I114  1  -0.00309327  0.84042092  0.16365214  1
  I  I115  1  0.00002379  0.83332593  0.50307077  1
  I  I116  1  0.00234877  0.83093897  0.83435320  1
  I  I117  1  0.33586851  0.16968301  0.16170219  1
  I  I118  1  0.33043739  0.17236294  0.50143512  1
  I  I119  1  0.33575380  0.16604868  0.83665497  1
  I  I120  1  0.32999365  0.49669307  0.16612220  1
  I  I121  1  0.32806212  0.49066574  0.49887481  1
  I  I122  1  0.32930653  0.49810758  0.83580662  1
  I  I123  1  0.33349083  0.83381300  0.16765044  1
  I  I124  1  0.33313561  0.83606920  0.49673449  1
  I  I125  1  0.33309633  0.83625300  0.83391240  1
  I  I126  1  0.66856232  0.16854875  0.16761127  1
  I  I127  1  0.66980171  0.16554259  0.49880418  1
  I  I128  1  0.66684337  0.16070441  0.83345008  1
  I  I129  1  0.66998772  0.49990303  0.16538841  1
  I  I130  1  0.66720045  0.49861556  0.49929665  1
  I  I131  1  0.66707126  0.50224334  0.83536572  1
  I  I132  1  0.67039692  0.82989918  0.16384109  1
  I  I133  1  0.66697245  0.83589466  0.50137334  1
  I  I134  1  0.66414952  0.83883955  0.83625065  1
