# generated using pymatgen
data_Cs27Sn14Pb13I81
_symmetry_space_group_name_H-M   'P 1'
_cell_length_a   18.96246729
_cell_length_b   18.95762281
_cell_length_c   18.96133675
_cell_angle_alpha   89.99919046
_cell_angle_beta   90.00060561
_cell_angle_gamma   90.00074682
_symmetry_Int_Tables_number   1
_chemical_formula_structural   Cs27Sn14Pb13I81
_chemical_formula_sum   'Cs27 Sn14 Pb13 I81'
_cell_volume   6816.28395138
_cell_formula_units_Z   1
loop_
 _symmetry_equiv_pos_site_id
 _symmetry_equiv_pos_as_xyz
  1  'x, y, z'
loop_
 _atom_site_type_symbol
 _atom_site_label
 _atom_site_symmetry_multiplicity
 _atom_site_fract_x
 _atom_site_fract_y
 _atom_site_fract_z
 _atom_site_occupancy
  Cs  Cs0  1  0.00034953  0.00022956  0.00037273  1
  Cs  Cs1  1  0.00175352  -0.00153146  0.33134207  1
  Cs  Cs2  1  -0.00037181  0.00180351  0.66814131  1
  Cs  Cs3  1  0.00145358  0.33002035  -0.00067037  1
  Cs  Cs4  1  0.00002323  0.33543941  0.33398246  1
  Cs  Cs5  1  -0.00024648  0.33440307  0.66622422  1
  Cs  Cs6  1  -0.00276316  0.67040858  -0.00213639  1
  Cs  Cs7  1  0.00096863  0.66584236  0.33396847  1
  Cs  Cs8  1  0.00098798  0.66552102  0.66601531  1
  Cs  Cs9  1  0.32956710  0.00170854  0.00075993  1
  Cs  Cs10  1  0.33477542  -0.00073812  0.33443253  1
  Cs  Cs11  1  0.33321949  -0.00193318  0.66486275  1
  Cs  Cs12  1  0.33467125  0.33248557  -0.00034340  1
  Cs  Cs13  1  0.32967335  0.33753202  0.33130599  1
  Cs  Cs14  1  0.33466848  0.33063327  0.66984078  1
  Cs  Cs15  1  0.33618251  0.66464980  -0.00125253  1
  Cs  Cs16  1  0.33247412  0.66557390  0.33467162  1
  Cs  Cs17  1  0.33196368  0.66830871  0.66586230  1
  Cs  Cs18  1  0.67027216  -0.00180042  0.00226353  1
  Cs  Cs19  1  0.66501506  0.00209217  0.33374499  1
  Cs  Cs20  1  0.66765447  0.00515985  0.66581359  1
  Cs  Cs21  1  0.66331348  0.33636843  0.00227039  1
  Cs  Cs22  1  0.66812253  0.33094876  0.33256857  1
  Cs  Cs23  1  0.66571653  0.32755241  0.66685287  1
  Cs  Cs24  1  0.66697021  0.66550607  -0.00054999  1
  Cs  Cs25  1  0.66705330  0.66724316  0.33462648  1
  Cs  Cs26  1  0.66653417  0.66732756  0.66581468  1
  Sn  Sn27  1  0.16663334  0.16592033  0.49997125  1
  Sn  Sn28  1  0.83284736  0.16725654  0.16680819  1
  Sn  Sn29  1  0.83344234  0.49942044  0.16673619  1
  Sn  Sn30  1  0.50041166  0.16599115  0.16684282  1
  Sn  Sn31  1  0.16612046  0.50085778  0.83332881  1
  Sn  Sn32  1  0.49958188  0.83341179  0.83311252  1
  Sn  Sn33  1  0.50037089  0.83276610  0.50026684  1
  Sn  Sn34  1  0.83387640  0.50007418  0.83302603  1
  Sn  Sn35  1  0.16654929  0.83431013  0.50063178  1
  Sn  Sn36  1  0.83216646  0.50061948  0.50024783  1
  Sn  Sn37  1  0.50089817  0.50038397  0.50014501  1
  Sn  Sn38  1  0.83320036  0.83301839  0.50001389  1
  Sn  Sn39  1  0.49993092  0.83394415  0.16667669  1
  Sn  Sn40  1  0.16730378  0.83239746  0.83256033  1
  Pb  Pb41  1  0.50174804  0.50029196  0.16893696  1
  Pb  Pb42  1  0.83132962  0.83310390  0.16896829  1
  Pb  Pb43  1  0.16371713  0.50031935  0.16317091  1
  Pb  Pb44  1  0.16930478  0.83301473  0.16641428  1
  Pb  Pb45  1  0.83333362  0.83179373  0.83094208  1
  Pb  Pb46  1  0.83320069  0.16971821  0.83626427  1
  Pb  Pb47  1  0.49809739  0.16675886  0.49811984  1
  Pb  Pb48  1  0.16667385  0.16616534  0.83111601  1
  Pb  Pb49  1  0.16662398  0.50050087  0.50166655  1
  Pb  Pb50  1  0.83522362  0.16688691  0.49819418  1
  Pb  Pb51  1  0.50023334  0.50177840  0.83087556  1
  Pb  Pb52  1  0.50003565  0.16328192  0.83630505  1
  Pb  Pb53  1  0.16673641  0.16662914  0.16889995  1
  I  I54  1  0.16178166  -0.00023580  0.16317002  1
  I  I55  1  0.16720446  -0.00257104  0.50445735  1
  I  I56  1  0.17147527  -0.00368866  0.83104695  1
  I  I57  1  0.17126567  0.33347712  0.16830360  1
  I  I58  1  0.16637741  0.33184152  0.50031740  1
  I  I59  1  0.16152776  0.33616688  0.83144475  1
  I  I60  1  0.16688646  0.66672280  0.17243279  1
  I  I61  1  0.16718850  0.66975153  0.50223455  1
  I  I62  1  0.16643318  0.66772815  0.82684547  1
  I  I63  1  0.50581865  -0.00085171  0.16906233  1
  I  I64  1  0.50173747  -0.00350028  0.50108686  1
  I  I65  1  0.49399931  -0.00507956  0.82693748  1
  I  I66  1  0.50262354  0.33122899  0.16936445  1
  I  I67  1  0.50335180  0.33595675  0.49835623  1
  I  I68  1  0.49923625  0.33357473  0.83300963  1
  I  I69  1  0.50093189  0.66960024  0.16625498  1
  I  I70  1  0.49897242  0.66838407  0.49756576  1
  I  I71  1  0.49874172  0.67013242  0.83713105  1
  I  I72  1  0.83067573  0.00204760  0.16947598  1
  I  I73  1  0.83075078  -0.00287200  0.49823720  1
  I  I74  1  0.83402893  -0.00024971  0.83354232  1
  I  I75  1  0.82754678  0.33399227  0.16860985  1
  I  I76  1  0.83093936  0.33666958  0.50116575  1
  I  I77  1  0.83914223  0.33825020  0.82720976  1
  I  I78  1  0.83207152  0.66385250  0.16593083  1
  I  I79  1  0.83414274  0.66621478  0.49769681  1
  I  I80  1  0.83453624  0.66346425  0.83763467  1
  I  I81  1  0.16636192  0.16663479  0.00001694  1
  I  I82  1  0.16683186  0.16045904  0.33682717  1
  I  I83  1  0.16668725  0.16470172  0.66315871  1
  I  I84  1  0.16340354  0.50589986  -0.00488207  1
  I  I85  1  0.16627470  0.49987091  0.33364159  1
  I  I86  1  0.16128955  0.50194107  0.66933551  1
  I  I87  1  0.17038637  0.82914422  -0.00350326  1
  I  I88  1  0.16712822  0.83692300  0.33680390  1
  I  I89  1  0.17138029  0.83292892  0.66580006  1
  I  I90  1  0.50331029  0.16362719  0.00445465  1
  I  I91  1  0.50362585  0.16072181  0.33036639  1
  I  I92  1  0.49850312  0.16681879  0.66639706  1
  I  I93  1  0.50085985  0.50130963  -0.00004184  1
  I  I94  1  0.50395912  0.50542370  0.33699798  1
  I  I95  1  0.50432998  0.50563845  0.66281355  1
  I  I96  1  0.49567598  0.83726651  -0.00014925  1
  I  I97  1  0.50054286  0.83368607  0.33454494  1
  I  I98  1  0.49825112  0.82748282  0.66551591  1
  I  I99  1  0.83024943  0.16976391  0.00444710  1
  I  I100  1  0.82994969  0.17179318  0.33040011  1
  I  I101  1  0.83472767  0.16716606  0.66638052  1
  I  I102  1  0.83771530  0.49577908  -0.00002374  1
  I  I103  1  0.82842848  0.49992745  0.33426708  1
  I  I104  1  0.83435786  0.50620295  0.66575340  1
  I  I105  1  0.83302589  0.83232713  0.00000507  1
  I  I106  1  0.83401180  0.82822579  0.33731822  1
  I  I107  1  0.83009626  0.82805917  0.66261458  1
  I  I108  1  -0.00291712  0.17188863  0.16827885  1
  I  I109  1  0.00290233  0.16258051  0.49787161  1
  I  I110  1  -0.00003494  0.16239924  0.83586942  1
  I  I111  1  -0.00468417  0.49459667  0.17355668  1
  I  I112  1  -0.00293887  0.50272254  0.49830969  1
  I  I113  1  -0.00040892  0.50591414  0.83127684  1
  I  I114  1  -0.00032757  0.83392813  0.16726225  1
  I  I115  1  0.00029454  0.83269100  0.50375002  1
  I  I116  1  0.00269654  0.83067624  0.82839924  1
  I  I117  1  0.33627598  0.16116443  0.16814490  1
  I  I118  1  0.33043629  0.16268635  0.49814358  1
  I  I119  1  0.33331776  0.17260623  0.83588521  1
  I  I120  1  0.33363239  0.49894039  0.16773966  1
  I  I121  1  0.33556322  0.50329536  0.50073873  1
  I  I122  1  0.33109600  0.50267179  0.83023922  1
  I  I123  1  0.33765219  0.83899661  0.17124451  1
  I  I124  1  0.33393070  0.83323349  0.50026957  1
  I  I125  1  0.33299512  0.82769203  0.82868012  1
  I  I126  1  0.66666175  0.16651609  0.16875572  1
  I  I127  1  0.66667273  0.16471861  0.49977475  1
  I  I128  1  0.66661574  0.16629726  0.82934146  1
  I  I129  1  0.67001628  0.49935287  0.16281649  1
  I  I130  1  0.66769793  0.50807098  0.50101875  1
  I  I131  1  0.66948801  0.50202470  0.83499671  1
  I  I132  1  0.66311631  0.83402287  0.16655990  1
  I  I133  1  0.66592926  0.82778487  0.49943767  1
  I  I134  1  0.66397480  0.83142702  0.83282633  1
