# generated using pymatgen
data_Cs27Sn14Pb13I81
_symmetry_space_group_name_H-M   'P 1'
_cell_length_a   18.96356741
_cell_length_b   18.98827661
_cell_length_c   18.97528393
_cell_angle_alpha   89.99930209
_cell_angle_beta   89.99846794
_cell_angle_gamma   90.00032651
_symmetry_Int_Tables_number   1
_chemical_formula_structural   Cs27Sn14Pb13I81
_chemical_formula_sum   'Cs27 Sn14 Pb13 I81'
_cell_volume   6832.72390470
_cell_formula_units_Z   1
loop_
 _symmetry_equiv_pos_site_id
 _symmetry_equiv_pos_as_xyz
  1  'x, y, z'
loop_
 _atom_site_type_symbol
 _atom_site_label
 _atom_site_symmetry_multiplicity
 _atom_site_fract_x
 _atom_site_fract_y
 _atom_site_fract_z
 _atom_site_occupancy
  Cs  Cs0  1  -0.00075785  -0.00247444  0.00006119  1
  Cs  Cs1  1  0.00032397  -0.00006872  0.33235144  1
  Cs  Cs2  1  0.00078768  0.00162759  0.66724773  1
  Cs  Cs3  1  -0.00111965  0.33555350  -0.00236964  1
  Cs  Cs4  1  -0.00048594  0.33270215  0.33407390  1
  Cs  Cs5  1  0.00065596  0.33273989  0.66747869  1
  Cs  Cs6  1  -0.00106519  0.66700120  -0.00006963  1
  Cs  Cs7  1  -0.00001937  0.66692571  0.32995089  1
  Cs  Cs8  1  0.00149494  0.66532605  0.67083883  1
  Cs  Cs9  1  0.33589017  -0.00003456  0.00027656  1
  Cs  Cs10  1  0.33054755  0.00293093  0.33353203  1
  Cs  Cs11  1  0.33151490  -0.00144433  0.66500857  1
  Cs  Cs12  1  0.34099859  0.33367788  0.00257168  1
  Cs  Cs13  1  0.33486694  0.33114690  0.33165920  1
  Cs  Cs14  1  0.32931853  0.33375026  0.66550319  1
  Cs  Cs15  1  0.33433064  0.66430046  0.00176729  1
  Cs  Cs16  1  0.33254131  0.66346190  0.32962413  1
  Cs  Cs17  1  0.33702693  0.66757898  0.66753244  1
  Cs  Cs18  1  0.66549900  0.00054726  0.00049895  1
  Cs  Cs19  1  0.66800002  -0.00289416  0.33221585  1
  Cs  Cs20  1  0.66574132  -0.00036714  0.66614034  1
  Cs  Cs21  1  0.66129535  0.33083725  -0.00036739  1
  Cs  Cs22  1  0.66454184  0.33703451  0.33387838  1
  Cs  Cs23  1  0.66781925  0.33300441  0.66622605  1
  Cs  Cs24  1  0.67114296  0.66890358  -0.00085053  1
  Cs  Cs25  1  0.66687953  0.66835561  0.34161948  1
  Cs  Cs26  1  0.65778262  0.66785240  0.65930186  1
  Sn  Sn27  1  0.16585858  0.16684175  0.16614450  1
  Sn  Sn28  1  0.16613517  0.50017432  0.50044629  1
  Sn  Sn29  1  0.16697867  0.16672625  0.49996596  1
  Sn  Sn30  1  0.83371335  0.50100533  0.83391137  1
  Sn  Sn31  1  0.83399327  0.16691597  0.16658878  1
  Sn  Sn32  1  0.16646728  0.16673982  0.83390375  1
  Sn  Sn33  1  0.83393462  0.83250150  0.83349379  1
  Sn  Sn34  1  0.16631028  0.50012186  0.83289692  1
  Sn  Sn35  1  0.49961004  0.16646016  0.50024324  1
  Sn  Sn36  1  0.50090573  0.83313752  0.16654652  1
  Sn  Sn37  1  0.16613381  0.83298676  0.50061682  1
  Sn  Sn38  1  0.83353166  0.50002482  0.16595656  1
  Sn  Sn39  1  0.83245396  0.83316425  0.16604160  1
  Sn  Sn40  1  0.16600527  0.83317070  0.83274521  1
  Pb  Pb41  1  0.50013451  0.83330149  0.83509386  1
  Pb  Pb42  1  0.83507685  0.16662330  0.83539996  1
  Pb  Pb43  1  0.83378142  0.16664069  0.49769518  1
  Pb  Pb44  1  0.16496501  0.49729144  0.16600793  1
  Pb  Pb45  1  0.83574702  0.83329998  0.50085457  1
  Pb  Pb46  1  0.49682286  0.83531433  0.49764081  1
  Pb  Pb47  1  0.83562520  0.50017061  0.50096811  1
  Pb  Pb48  1  0.50386962  0.50290586  0.16658601  1
  Pb  Pb49  1  0.49673092  0.49749314  0.50003461  1
  Pb  Pb50  1  0.49713655  0.16648636  0.83052063  1
  Pb  Pb51  1  0.50040208  0.16506136  0.16844147  1
  Pb  Pb52  1  0.50052866  0.50011467  0.83333919  1
  Pb  Pb53  1  0.16611800  0.83498954  0.16608554  1
  I  I54  1  0.16201602  0.00303862  0.16798235  1
  I  I55  1  0.17002969  0.00062158  0.50205184  1
  I  I56  1  0.16293257  -0.00022624  0.83059151  1
  I  I57  1  0.16167091  0.32924478  0.16811707  1
  I  I58  1  0.16970552  0.33271869  0.50248635  1
  I  I59  1  0.16217706  0.33349590  0.82957587  1
  I  I60  1  0.16706594  0.66655135  0.16885926  1
  I  I61  1  0.16407252  0.66676259  0.50612000  1
  I  I62  1  0.16219859  0.66681025  0.82600778  1
  I  I63  1  0.50526684  -0.00249444  0.16725769  1
  I  I64  1  0.49194077  0.00281465  0.49912980  1
  I  I65  1  0.50013231  -0.00007294  0.83393611  1
  I  I66  1  0.49998972  0.33331662  0.16816257  1
  I  I67  1  0.49336024  0.32977850  0.49742184  1
  I  I68  1  0.50068901  0.33318616  0.83467467  1
  I  I69  1  0.50107165  0.67064998  0.16673608  1
  I  I70  1  0.49924120  0.66683313  0.49887309  1
  I  I71  1  0.49402259  0.66681320  0.83377952  1
  I  I72  1  0.83395724  -0.00049318  0.16386621  1
  I  I73  1  0.83662417  0.00000135  0.49922346  1
  I  I74  1  0.83872322  -0.00286907  0.83806984  1
  I  I75  1  0.84081453  0.33325172  0.16413799  1
  I  I76  1  0.83577869  0.33332653  0.49937527  1
  I  I77  1  0.83914267  0.33606133  0.83742212  1
  I  I78  1  0.83005322  0.66716107  0.16234256  1
  I  I79  1  0.83559213  0.66675427  0.49310028  1
  I  I80  1  0.84421132  0.66704666  0.84393832  1
  I  I81  1  0.16046757  0.16510158  -0.00015334  1
  I  I82  1  0.16678400  0.16562999  0.33372362  1
  I  I83  1  0.17125833  0.16651777  0.66666385  1
  I  I84  1  0.16396845  0.50145687  -0.00327150  1
  I  I85  1  0.16536825  0.49977618  0.33564501  1
  I  I86  1  0.16097929  0.49518948  0.66743947  1
  I  I87  1  0.16555053  0.83354584  -0.00302706  1
  I  I88  1  0.16705881  0.83500772  0.33538767  1
  I  I89  1  0.16150695  0.83826359  0.66756025  1
  I  I90  1  0.49813175  0.16594166  0.00017026  1
  I  I91  1  0.49112928  0.16532579  0.33591207  1
  I  I92  1  0.49373456  0.16577762  0.66267396  1
  I  I93  1  0.49240655  0.49820168  0.00021435  1
  I  I94  1  0.49932390  0.50011907  0.33323382  1
  I  I95  1  0.50517507  0.50043917  0.66651588  1
  I  I96  1  0.49882495  0.83599036  0.00301706  1
  I  I97  1  0.50658574  0.83457595  0.33005067  1
  I  I98  1  0.50258457  0.83442044  0.66639678  1
  I  I99  1  0.83959980  0.16560912  0.00362850  1
  I  I100  1  0.84022866  0.16563746  0.32922881  1
  I  I101  1  0.83361492  0.16663181  0.66691160  1
  I  I102  1  0.84099963  0.50155616  -0.00025062  1
  I  I103  1  0.83500269  0.49997892  0.33044483  1
  I  I104  1  0.83685068  0.50424010  0.67051967  1
  I  I105  1  0.83647680  0.83288205  0.00033440  1
  I  I106  1  0.83130039  0.83357077  0.33020491  1
  I  I107  1  0.83711799  0.82896298  0.67041755  1
  I  I108  1  0.00059050  0.16347875  0.16953687  1
  I  I109  1  0.00411200  0.16670235  0.50130254  1
  I  I110  1  0.00386568  0.16640765  0.82795544  1
  I  I111  1  -0.00306530  0.50556197  0.16589363  1
  I  I112  1  0.00404522  0.49552516  0.50094584  1
  I  I113  1  0.00107408  0.50064881  0.83352255  1
  I  I114  1  -0.00289798  0.83256833  0.16601694  1
  I  I115  1  0.00414579  0.83799661  0.49791532  1
  I  I116  1  0.00091787  0.83305447  0.83623149  1
  I  I117  1  0.33030526  0.16409650  0.16569569  1
  I  I118  1  0.33014275  0.16643164  0.49756816  1
  I  I119  1  0.32789547  0.16633256  0.83908286  1
  I  I120  1  0.33326858  0.50010707  0.16705505  1
  I  I121  1  0.32819219  0.50235694  0.50603591  1
  I  I122  1  0.32930002  0.50034894  0.82841739  1
  I  I123  1  0.33457738  0.83773689  0.16788057  1
  I  I124  1  0.32858533  0.83241096  0.50481953  1
  I  I125  1  0.32956045  0.83371367  0.83067485  1
  I  I126  1  0.66990692  0.16783898  0.16845644  1
  I  I127  1  0.66418607  0.16596386  0.49674531  1
  I  I128  1  0.66687131  0.16666635  0.83313109  1
  I  I129  1  0.67202308  0.49242243  0.15986273  1
  I  I130  1  0.66664311  0.49772032  0.49974647  1
  I  I131  1  0.67081823  0.50465704  0.83920763  1
  I  I132  1  0.66901664  0.83661945  0.16079315  1
  I  I133  1  0.66651920  0.83572607  0.50191280  1
  I  I134  1  0.67036726  0.82883425  0.83689112  1
