# generated using pymatgen
data_Cs27Sn13Pb14I81
_symmetry_space_group_name_H-M   'P 1'
_cell_length_a   18.97340181
_cell_length_b   18.97734029
_cell_length_c   18.97770439
_cell_angle_alpha   89.99899269
_cell_angle_beta   89.99884845
_cell_angle_gamma   89.99764519
_symmetry_Int_Tables_number   1
_chemical_formula_structural   Cs27Sn13Pb14I81
_chemical_formula_sum   'Cs27 Sn13 Pb14 I81'
_cell_volume   6833.20147759
_cell_formula_units_Z   1
loop_
 _symmetry_equiv_pos_site_id
 _symmetry_equiv_pos_as_xyz
  1  'x, y, z'
loop_
 _atom_site_type_symbol
 _atom_site_label
 _atom_site_symmetry_multiplicity
 _atom_site_fract_x
 _atom_site_fract_y
 _atom_site_fract_z
 _atom_site_occupancy
  Cs  Cs0  1  0.00233848  -0.00081303  0.00220896  1
  Cs  Cs1  1  -0.00088214  0.00138547  0.33298434  1
  Cs  Cs2  1  0.00334949  0.00110623  0.66787879  1
  Cs  Cs3  1  0.00033006  0.33490540  -0.00050264  1
  Cs  Cs4  1  0.00049783  0.33148679  0.33217992  1
  Cs  Cs5  1  -0.00477516  0.32844209  0.67225327  1
  Cs  Cs6  1  -0.00122218  0.66625189  0.00059901  1
  Cs  Cs7  1  -0.00006271  0.66599485  0.33253025  1
  Cs  Cs8  1  0.00274969  0.66878911  0.66680040  1
  Cs  Cs9  1  0.33441049  0.00288580  -0.00064465  1
  Cs  Cs10  1  0.33427266  0.00074435  0.33356175  1
  Cs  Cs11  1  0.32984696  -0.00109071  0.66713023  1
  Cs  Cs12  1  0.34057921  0.33390036  -0.00171058  1
  Cs  Cs13  1  0.33273975  0.33962423  0.33350339  1
  Cs  Cs14  1  0.33686120  0.33523524  0.66694695  1
  Cs  Cs15  1  0.33361039  0.66368984  0.00441758  1
  Cs  Cs16  1  0.33189678  0.65652663  0.33425612  1
  Cs  Cs17  1  0.32992422  0.66671356  0.66253774  1
  Cs  Cs18  1  0.66208846  -0.00352080  0.00228018  1
  Cs  Cs19  1  0.66667453  -0.00038473  0.33442806  1
  Cs  Cs20  1  0.66781958  -0.00078915  0.66282659  1
  Cs  Cs21  1  0.65998530  0.33369839  -0.00950072  1
  Cs  Cs22  1  0.66781882  0.33199550  0.33509123  1
  Cs  Cs23  1  0.66769239  0.33440739  0.67354674  1
  Cs  Cs24  1  0.66749564  0.66888296  -0.00198919  1
  Cs  Cs25  1  0.66777159  0.66905375  0.33389007  1
  Cs  Cs26  1  0.66659949  0.66682823  0.66701025  1
  Sn  Sn27  1  0.83312675  0.83267777  0.50014111  1
  Sn  Sn28  1  0.83318710  0.49969715  0.16708848  1
  Sn  Sn29  1  0.16631725  0.83385015  0.16721374  1
  Sn  Sn30  1  0.50025740  0.83392864  0.50061420  1
  Sn  Sn31  1  0.49908395  0.16599920  0.49966162  1
  Sn  Sn32  1  0.16647122  0.50009524  0.83330663  1
  Sn  Sn33  1  0.16620243  0.16598465  0.16758408  1
  Sn  Sn34  1  0.16753392  0.16652290  0.49930205  1
  Sn  Sn35  1  0.83419146  0.83349903  0.16678725  1
  Sn  Sn36  1  0.83358898  0.50060299  0.49954248  1
  Sn  Sn37  1  0.50016508  0.83341646  0.83225365  1
  Sn  Sn38  1  0.83310167  0.83365640  0.83315044  1
  Sn  Sn39  1  0.83345524  0.16679301  0.16642455  1
  Pb  Pb40  1  0.16680675  0.16882133  0.83407403  1
  Pb  Pb41  1  0.16710413  0.83202216  0.83587741  1
  Pb  Pb42  1  0.49969623  0.83317299  0.16756507  1
  Pb  Pb43  1  0.83453440  0.50232394  0.83335831  1
  Pb  Pb44  1  0.83333246  0.16645591  0.49859946  1
  Pb  Pb45  1  0.49979745  0.16670649  0.16898072  1
  Pb  Pb46  1  0.50004023  0.16370228  0.83014291  1
  Pb  Pb47  1  0.50276444  0.50028259  0.50002748  1
  Pb  Pb48  1  0.16345392  0.49675368  0.50201168  1
  Pb  Pb49  1  0.49733783  0.50344847  0.83294533  1
  Pb  Pb50  1  0.16670066  0.83470384  0.49761104  1
  Pb  Pb51  1  0.83333033  0.16329223  0.83700732  1
  Pb  Pb52  1  0.50385246  0.49991392  0.16672727  1
  Pb  Pb53  1  0.16465466  0.49926174  0.16527233  1
  I  I54  1  0.15768008  0.00009098  0.16914174  1
  I  I55  1  0.16491346  0.00272051  0.49870417  1
  I  I56  1  0.16631301  -0.00015235  0.83265233  1
  I  I57  1  0.16123369  0.33011845  0.16975032  1
  I  I58  1  0.17133173  0.32912845  0.49280559  1
  I  I59  1  0.16360867  0.33632625  0.83442091  1
  I  I60  1  0.16251741  0.66902055  0.16426622  1
  I  I61  1  0.16896396  0.66655771  0.49898713  1
  I  I62  1  0.16525835  0.66460714  0.83532283  1
  I  I63  1  0.50443472  -0.00024087  0.16474592  1
  I  I64  1  0.50330380  -0.00121931  0.50304810  1
  I  I65  1  0.50366355  -0.00415809  0.83328209  1
  I  I66  1  0.49918230  0.33314271  0.16868315  1
  I  I67  1  0.49687477  0.33048298  0.49687858  1
  I  I68  1  0.49934176  0.33342571  0.83314083  1
  I  I69  1  0.49763063  0.66702254  0.16851167  1
  I  I70  1  0.50317168  0.67018998  0.50351481  1
  I  I71  1  0.50553899  0.67112513  0.82753156  1
  I  I72  1  0.83757614  -0.00103189  0.16711781  1
  I  I73  1  0.83181130  -0.00306630  0.49883761  1
  I  I74  1  0.83136063  -0.00493933  0.83066379  1
  I  I75  1  0.83866922  0.33319935  0.17423537  1
  I  I76  1  0.83450404  0.33534823  0.49426974  1
  I  I77  1  0.83482566  0.33341407  0.83254519  1
  I  I78  1  0.83710721  0.66803477  0.16735161  1
  I  I79  1  0.82844818  0.66852284  0.49535078  1
  I  I80  1  0.83053941  0.67042510  0.83783303  1
  I  I81  1  0.16060367  0.16299626  0.00375373  1
  I  I82  1  0.16544071  0.16246852  0.33254587  1
  I  I83  1  0.16993418  0.16731167  0.66382992  1
  I  I84  1  0.16283657  0.50077828  -0.00206272  1
  I  I85  1  0.16737613  0.50166483  0.33334183  1
  I  I86  1  0.16434141  0.50165311  0.66920364  1
  I  I87  1  0.16143024  0.83846263  0.00371973  1
  I  I88  1  0.16125431  0.83466849  0.32970237  1
  I  I89  1  0.16370948  0.83409302  0.66652486  1
  I  I90  1  0.49982579  0.16605907  -0.00009895  1
  I  I91  1  0.50047108  0.15804411  0.33681423  1
  I  I92  1  0.49490289  0.16494816  0.66216359  1
  I  I93  1  0.50124571  0.50118611  -0.00030318  1
  I  I94  1  0.49632461  0.50313972  0.33365125  1
  I  I95  1  0.50258633  0.49713292  0.66643843  1
  I  I96  1  0.50413057  0.83175808  -0.00214634  1
  I  I97  1  0.50524050  0.83812917  0.33678188  1
  I  I98  1  0.50862900  0.83700187  0.66574478  1
  I  I99  1  0.84100632  0.16797340  0.00521994  1
  I  I100  1  0.83453237  0.16218941  0.33046689  1
  I  I101  1  0.83398933  0.16760776  0.66661581  1
  I  I102  1  0.83627456  0.50160305  0.00282771  1
  I  I103  1  0.83416107  0.50563791  0.33286469  1
  I  I104  1  0.83473544  0.50423981  0.66405903  1
  I  I105  1  0.83314477  0.83308959  0.00099458  1
  I  I106  1  0.83265344  0.83274445  0.33313999  1
  I  I107  1  0.82853707  0.82814072  0.66573539  1
  I  I108  1  -0.00016497  0.16475074  0.17316197  1
  I  I109  1  0.00208132  0.16686230  0.49709147  1
  I  I110  1  -0.00003598  0.16460086  0.82721165  1
  I  I111  1  -0.00352666  0.50172317  0.16965730  1
  I  I112  1  -0.00412900  0.50635464  0.49569524  1
  I  I113  1  0.00195009  0.50264819  0.83385666  1
  I  I114  1  -0.00198037  0.83406461  0.16635940  1
  I  I115  1  -0.00320003  0.83118460  0.50167166  1
  I  I116  1  -0.00279618  0.83126259  0.83169803  1
  I  I117  1  0.32987195  0.16004397  0.16797201  1
  I  I118  1  0.33321626  0.16005182  0.49497328  1
  I  I119  1  0.33337126  0.16482228  0.83792668  1
  I  I120  1  0.33295618  0.50118325  0.16487628  1
  I  I121  1  0.33305024  0.50251583  0.50132120  1
  I  I122  1  0.32996746  0.50081921  0.83473429  1
  I  I123  1  0.33031213  0.83936806  0.16491720  1
  I  I124  1  0.33594150  0.83691111  0.50416142  1
  I  I125  1  0.33601302  0.83192494  0.82903861  1
  I  I126  1  0.66995468  0.16433233  0.16901104  1
  I  I127  1  0.66478791  0.16424684  0.49777037  1
  I  I128  1  0.66682994  0.17069757  0.83332200  1
  I  I129  1  0.67234724  0.50238058  0.17029215  1
  I  I130  1  0.67082497  0.50002434  0.49600907  1
  I  I131  1  0.66673517  0.49879628  0.83386029  1
  I  I132  1  0.67025622  0.83379111  0.16641644  1
  I  I133  1  0.66785460  0.83563214  0.49861568  1
  I  I134  1  0.66788990  0.83265443  0.83547216  1
