# generated using pymatgen
data_Cs27Sn13Pb14I81
_symmetry_space_group_name_H-M   'P 1'
_cell_length_a   18.98011018
_cell_length_b   18.97491744
_cell_length_c   18.97398136
_cell_angle_alpha   89.99844596
_cell_angle_beta   89.99996347
_cell_angle_gamma   89.99785381
_symmetry_Int_Tables_number   1
_chemical_formula_structural   Cs27Sn13Pb14I81
_chemical_formula_sum   'Cs27 Sn13 Pb14 I81'
_cell_volume   6833.40393460
_cell_formula_units_Z   1
loop_
 _symmetry_equiv_pos_site_id
 _symmetry_equiv_pos_as_xyz
  1  'x, y, z'
loop_
 _atom_site_type_symbol
 _atom_site_label
 _atom_site_symmetry_multiplicity
 _atom_site_fract_x
 _atom_site_fract_y
 _atom_site_fract_z
 _atom_site_occupancy
  Cs  Cs0  1  0.00169960  -0.00006814  0.00082047  1
  Cs  Cs1  1  0.00092200  0.00281130  0.33380738  1
  Cs  Cs2  1  -0.00281764  -0.00125020  0.66587994  1
  Cs  Cs3  1  -0.00163361  0.33169173  0.00182982  1
  Cs  Cs4  1  0.00065938  0.33222232  0.33498872  1
  Cs  Cs5  1  0.00256503  0.33491675  0.66195955  1
  Cs  Cs6  1  -0.00026084  0.66748942  -0.00317816  1
  Cs  Cs7  1  0.00028211  0.66536359  0.33104396  1
  Cs  Cs8  1  0.00111314  0.66658775  0.67827057  1
  Cs  Cs9  1  0.33417131  0.00079319  -0.00009836  1
  Cs  Cs10  1  0.33191630  -0.00042431  0.33244724  1
  Cs  Cs11  1  0.33668122  -0.00059975  0.67056308  1
  Cs  Cs12  1  0.33948717  0.33073127  -0.00192380  1
  Cs  Cs13  1  0.32964341  0.33537936  0.33606289  1
  Cs  Cs14  1  0.33399475  0.34074017  0.66780325  1
  Cs  Cs15  1  0.33136382  0.66840727  0.00085584  1
  Cs  Cs16  1  0.33494342  0.66658784  0.33499890  1
  Cs  Cs17  1  0.32901283  0.66047490  0.66142514  1
  Cs  Cs18  1  0.66400377  0.00204247  0.00105893  1
  Cs  Cs19  1  0.66671469  -0.00053430  0.33512708  1
  Cs  Cs20  1  0.66638620  -0.00068379  0.66149653  1
  Cs  Cs21  1  0.66512159  0.33219540  -0.00167450  1
  Cs  Cs22  1  0.66864168  0.33446192  0.33193139  1
  Cs  Cs23  1  0.66482096  0.33144562  0.67380243  1
  Cs  Cs24  1  0.66880203  0.66416763  0.00199091  1
  Cs  Cs25  1  0.66451451  0.66654226  0.33347186  1
  Cs  Cs26  1  0.66999628  0.66839261  0.66251947  1
  Sn  Sn27  1  0.16619748  0.83370416  0.49957896  1
  Sn  Sn28  1  0.83427946  0.49993008  0.16749481  1
  Sn  Sn29  1  0.83336685  0.83357494  0.16676320  1
  Sn  Sn30  1  0.49980363  0.16696828  0.49872509  1
  Sn  Sn31  1  0.83264370  0.16647001  0.16623149  1
  Sn  Sn32  1  0.50005313  0.83278333  0.83386725  1
  Sn  Sn33  1  0.83328174  0.50015866  0.49942730  1
  Sn  Sn34  1  0.16569211  0.16669249  0.83333149  1
  Sn  Sn35  1  0.50064147  0.16595650  0.16826737  1
  Sn  Sn36  1  0.16610849  0.50044109  0.16635155  1
  Sn  Sn37  1  0.16656446  0.83262829  0.16754404  1
  Sn  Sn38  1  0.50009586  0.83414034  0.16571927  1
  Sn  Sn39  1  0.83474633  0.16623562  0.83397084  1
  Pb  Pb40  1  0.16425129  0.50236080  0.49772870  1
  Pb  Pb41  1  0.16901209  0.16477924  0.50275184  1
  Pb  Pb42  1  0.50017402  0.50413097  0.83345794  1
  Pb  Pb43  1  0.16841002  0.83486771  0.83386912  1
  Pb  Pb44  1  0.50260767  0.49729889  0.49971263  1
  Pb  Pb45  1  0.83101563  0.83581786  0.83577701  1
  Pb  Pb46  1  0.49822858  0.83458561  0.49939001  1
  Pb  Pb47  1  0.50006750  0.50003074  0.16656158  1
  Pb  Pb48  1  0.16661902  0.49723725  0.83664739  1
  Pb  Pb49  1  0.83330181  0.49761642  0.83399233  1
  Pb  Pb50  1  0.83183694  0.16832112  0.49964627  1
  Pb  Pb51  1  0.16692526  0.16665936  0.16568979  1
  Pb  Pb52  1  0.50036059  0.16541088  0.83360476  1
  Pb  Pb53  1  0.83577365  0.83113738  0.49773187  1
  I  I54  1  0.16502968  -0.00285290  0.16801884  1
  I  I55  1  0.16629903  -0.00290140  0.49120371  1
  I  I56  1  0.16401679  0.00259872  0.83706388  1
  I  I57  1  0.16288507  0.33548726  0.16436892  1
  I  I58  1  0.16740865  0.33351336  0.49963608  1
  I  I59  1  0.16416675  0.32935311  0.83462217  1
  I  I60  1  0.16415795  0.66796514  0.16957593  1
  I  I61  1  0.16929587  0.67019835  0.49772628  1
  I  I62  1  0.16879153  0.66676244  0.83163705  1
  I  I63  1  0.50254543  -0.00023558  0.16620580  1
  I  I64  1  0.50146929  0.00259752  0.49817268  1
  I  I65  1  0.49926054  -0.00219455  0.83691192  1
  I  I66  1  0.50297169  0.33007270  0.16903323  1
  I  I67  1  0.49920626  0.32915485  0.49388730  1
  I  I68  1  0.49984423  0.33297306  0.83369535  1
  I  I69  1  0.50207421  0.67010290  0.16245595  1
  I  I70  1  0.49950193  0.66670099  0.50055481  1
  I  I71  1  0.49907210  0.67188392  0.84228006  1
  I  I72  1  0.83268142  0.00015710  0.16189034  1
  I  I73  1  0.83292509  -0.00005701  0.49966742  1
  I  I74  1  0.83642980  0.00374610  0.83886486  1
  I  I75  1  0.83340379  0.33285861  0.16635970  1
  I  I76  1  0.83334575  0.33593851  0.49260967  1
  I  I77  1  0.83428536  0.32949446  0.83999029  1
  I  I78  1  0.83321444  0.66695405  0.17133762  1
  I  I79  1  0.83214530  0.66345693  0.49297539  1
  I  I80  1  0.83162993  0.66690259  0.83375762  1
  I  I81  1  0.16743008  0.16461677  -0.00194964  1
  I  I82  1  0.16539614  0.16778807  0.33320120  1
  I  I83  1  0.16171500  0.16319123  0.67035520  1
  I  I84  1  0.15985419  0.50761412  0.00459405  1
  I  I85  1  0.16465805  0.50008004  0.32953685  1
  I  I86  1  0.16533016  0.50139239  0.66661991  1
  I  I87  1  0.16531719  0.83108076  0.00366302  1
  I  I88  1  0.16925841  0.83102487  0.33067822  1
  I  I89  1  0.16952846  0.83653236  0.66466449  1
  I  I90  1  0.50098919  0.16445516  0.00295868  1
  I  I91  1  0.50552121  0.16050854  0.33098051  1
  I  I92  1  0.50061077  0.16387435  0.66504260  1
  I  I93  1  0.50197011  0.49372417  0.00051705  1
  I  I94  1  0.49868490  0.50354315  0.33291640  1
  I  I95  1  0.50174623  0.49794787  0.66648033  1
  I  I96  1  0.49786012  0.84054744  0.00279261  1
  I  I97  1  0.50157755  0.83572990  0.32955031  1
  I  I98  1  0.49803840  0.83774223  0.66865293  1
  I  I99  1  0.83092486  0.16835367  0.00215912  1
  I  I100  1  0.83071553  0.16500725  0.32971825  1
  I  I101  1  0.83438931  0.16881643  0.66912056  1
  I  I102  1  0.83665605  0.50201554  0.00400798  1
  I  I103  1  0.83658798  0.49732720  0.33055576  1
  I  I104  1  0.83197431  0.49784215  0.66419638  1
  I  I105  1  0.83824223  0.82885986  0.00457471  1
  I  I106  1  0.82847030  0.83839324  0.32877387  1
  I  I107  1  0.83291131  0.83298991  0.66672660  1
  I  I108  1  -0.00277581  0.16464473  0.16363791  1
  I  I109  1  -0.00002365  0.16688009  0.49846707  1
  I  I110  1  -0.00097666  0.16552258  0.84092428  1
  I  I111  1  -0.00112605  0.50238463  0.16983754  1
  I  I112  1  -0.00327824  0.49723541  0.49534269  1
  I  I113  1  -0.00005585  0.50284184  0.83235831  1
  I  I114  1  -0.00005829  0.83343984  0.17109957  1
  I  I115  1  0.00340598  0.83510510  0.49378439  1
  I  I116  1  -0.00012653  0.83345059  0.83370141  1
  I  I117  1  0.33596706  0.16319149  0.16693458  1
  I  I118  1  0.33672972  0.16478766  0.49372932  1
  I  I119  1  0.33184992  0.16379319  0.83498799  1
  I  I120  1  0.33058626  0.50319604  0.16592656  1
  I  I121  1  0.33301312  0.49985531  0.49929845  1
  I  I122  1  0.33317319  0.49495666  0.83482386  1
  I  I123  1  0.33344499  0.83409962  0.16616445  1
  I  I124  1  0.33058509  0.83461676  0.49355843  1
  I  I125  1  0.33602839  0.83935807  0.84068280  1
  I  I126  1  0.66730034  0.16415751  0.16432915  1
  I  I127  1  0.66392989  0.16524234  0.49997798  1
  I  I128  1  0.66901498  0.16630409  0.83565155  1
  I  I129  1  0.67002465  0.50196030  0.16973184  1
  I  I130  1  0.67031243  0.50135288  0.49130533  1
  I  I131  1  0.66698020  0.49558445  0.83625750  1
  I  I132  1  0.66670836  0.83434409  0.16184257  1
  I  I133  1  0.66682728  0.83319334  0.50019838  1
  I  I134  1  0.66331939  0.83704924  0.83874077  1
