# generated using pymatgen
data_Cs27Sn14Pb13I81
_symmetry_space_group_name_H-M   'P 1'
_cell_length_a   18.98978105
_cell_length_b   18.95228439
_cell_length_c   18.98978093
_cell_angle_alpha   90.00033915
_cell_angle_beta   90.00104294
_cell_angle_gamma   89.99966073
_symmetry_Int_Tables_number   1
_chemical_formula_structural   Cs27Sn14Pb13I81
_chemical_formula_sum   'Cs27 Sn14 Pb13 I81'
_cell_volume   6834.41704730
_cell_formula_units_Z   1
loop_
 _symmetry_equiv_pos_site_id
 _symmetry_equiv_pos_as_xyz
  1  'x, y, z'
loop_
 _atom_site_type_symbol
 _atom_site_label
 _atom_site_symmetry_multiplicity
 _atom_site_fract_x
 _atom_site_fract_y
 _atom_site_fract_z
 _atom_site_occupancy
  Cs  Cs0  1  0.00086288  -0.00087696  0.00126974  1
  Cs  Cs1  1  -0.00147312  -0.00146150  0.33504964  1
  Cs  Cs2  1  0.00292620  -0.00114509  0.66374029  1
  Cs  Cs3  1  -0.00036512  0.33362442  -0.00080830  1
  Cs  Cs4  1  -0.00094330  0.33308236  0.33473363  1
  Cs  Cs5  1  0.00081324  0.33393289  0.66585348  1
  Cs  Cs6  1  -0.00113830  0.67304862  0.00058462  1
  Cs  Cs7  1  0.00193861  0.67127133  0.33149192  1
  Cs  Cs8  1  -0.00216485  0.66770868  0.66883148  1
  Cs  Cs9  1  0.33424126  -0.00007123  -0.00341032  1
  Cs  Cs10  1  0.33127695  0.00018586  0.33538982  1
  Cs  Cs11  1  0.33161718  -0.00146158  0.66813977  1
  Cs  Cs12  1  0.33213330  0.33298695  -0.00128404  1
  Cs  Cs13  1  0.33307733  0.33535193  0.33358928  1
  Cs  Cs14  1  0.33193320  0.33308235  0.66760988  1
  Cs  Cs15  1  0.33286109  0.67107885  0.00828146  1
  Cs  Cs16  1  0.34131516  0.66853939  0.32535125  1
  Cs  Cs17  1  0.33517473  0.67127137  0.66472802  1
  Cs  Cs18  1  0.66516975  -0.00020685  0.00149678  1
  Cs  Cs19  1  0.67007688  -0.00007132  0.33242546  1
  Cs  Cs20  1  0.66539690  -0.00087697  0.66580369  1
  Cs  Cs21  1  0.66847305  0.33231551  -0.00180642  1
  Cs  Cs22  1  0.66795076  0.33298706  0.33453316  1
  Cs  Cs23  1  0.66747492  0.33362441  0.66703185  1
  Cs  Cs24  1  0.66919160  0.67665313  -0.00252498  1
  Cs  Cs25  1  0.65838529  0.67107865  0.33380541  1
  Cs  Cs26  1  0.66608214  0.67304831  0.66780525  1
  Sn  Sn27  1  0.49988414  0.16750947  0.50016879  1
  Sn  Sn28  1  0.83343791  0.16745803  0.50020372  1
  Sn  Sn29  1  0.83360935  0.16728694  0.83305730  1
  Sn  Sn30  1  0.49992418  0.16778709  0.83312942  1
  Sn  Sn31  1  0.83353723  0.16778710  0.16674252  1
  Sn  Sn32  1  0.16777965  0.49925479  0.83272970  1
  Sn  Sn33  1  0.83393696  0.49925480  0.49888706  1
  Sn  Sn34  1  0.49897424  0.49909284  0.83350805  1
  Sn  Sn35  1  0.16665515  0.16761843  0.50001153  1
  Sn  Sn36  1  0.16646293  0.16745801  0.83322869  1
  Sn  Sn37  1  0.16649785  0.16750948  0.16678254  1
  Sn  Sn38  1  0.16628266  0.49946877  0.50038405  1
  Sn  Sn39  1  0.83315862  0.49909284  0.16769232  1
  Sn  Sn40  1  0.49993139  0.16767384  0.16673532  1
  Pb  Pb41  1  0.49983574  0.83651645  0.50006644  1
  Pb  Pb42  1  0.83357219  0.49846792  0.83309450  1
  Pb  Pb43  1  0.49965715  0.83316648  0.83328802  1
  Pb  Pb44  1  0.16472952  0.49804757  0.16674146  1
  Pb  Pb45  1  0.16667790  0.83177598  0.49998877  1
  Pb  Pb46  1  0.50004806  0.83669892  0.16661861  1
  Pb  Pb47  1  0.83351221  0.83236189  0.49990774  1
  Pb  Pb48  1  0.83360143  0.83728274  0.83306520  1
  Pb  Pb49  1  0.16675890  0.83236193  0.83315447  1
  Pb  Pb50  1  0.16660023  0.83651654  0.16683094  1
  Pb  Pb51  1  0.50299084  0.49756963  0.16367586  1
  Pb  Pb52  1  0.49992525  0.49804762  0.50193712  1
  Pb  Pb53  1  0.83337865  0.83316648  0.16700955  1
  I  I54  1  0.16390569  0.00620658  0.16626183  1
  I  I55  1  0.16622866  0.00432906  0.50043782  1
  I  I56  1  0.16714681  0.00439475  0.83324172  1
  I  I57  1  0.16847980  0.32905335  0.16597460  1
  I  I58  1  0.16515035  0.33139793  0.50151614  1
  I  I59  1  0.16766156  0.33130952  0.83228441  1
  I  I60  1  0.16383871  0.66616311  0.16592087  1
  I  I61  1  0.15947961  0.66209667  0.50718736  1
  I  I62  1  0.17056213  0.66236557  0.82723678  1
  I  I63  1  0.50324597  0.00596276  0.16342063  1
  I  I64  1  0.50040478  0.00620658  0.50276094  1
  I  I65  1  0.50003782  0.00456872  0.83392669  1
  I  I66  1  0.49816718  0.32887482  0.16849949  1
  I  I67  1  0.50069208  0.32905331  0.49818709  1
  I  I68  1  0.49898624  0.33067551  0.83323455  1
  I  I69  1  0.50168472  0.66615037  0.16498231  1
  I  I70  1  0.50074572  0.66616307  0.50282803  1
  I  I71  1  0.49613143  0.66314806  0.83203773  1
  I  I72  1  0.83274024  0.00456872  0.16662843  1
  I  I73  1  0.83342523  0.00439472  0.49952009  1
  I  I74  1  0.83266715  0.00649454  0.83399974  1
  I  I75  1  0.83343206  0.33067551  0.16768058  1
  I  I76  1  0.83438242  0.33130948  0.49900487  1
  I  I77  1  0.83271617  0.32946049  0.83395051  1
  I  I78  1  0.83462853  0.66314808  0.17053559  1
  I  I79  1  0.83942973  0.66236561  0.49610457  1
  I  I80  1  0.83271590  0.66636445  0.83395035  1
  I  I81  1  0.16624093  0.16958257  -0.00068065  1
  I  I82  1  0.16716561  0.16928383  0.33404693  1
  I  I83  1  0.16638386  0.16893708  0.66664024  1
  I  I84  1  0.16888322  0.49381026  -0.00289869  1
  I  I85  1  0.16329507  0.49351983  0.33633151  1
  I  I86  1  0.16380452  0.49005527  0.66651573  1
  I  I87  1  0.16619527  0.83394375  -0.00009955  1
  I  I88  1  0.16599174  0.83546037  0.33348133  1
  I  I89  1  0.16674244  0.84076296  0.66660186  1
  I  I90  1  0.50068748  0.16948261  -0.00055463  1
  I  I91  1  0.50020749  0.16527712  0.33350268  1
  I  I92  1  0.50115295  0.16966486  0.66706241  1
  I  I93  1  0.49456170  0.49125050  -0.00396115  1
  I  I94  1  0.49762674  0.49897816  0.33319791  1
  I  I95  1  0.50126967  0.49146534  0.66972594  1
  I  I96  1  0.50075804  0.83615988  -0.00013302  1
  I  I97  1  0.49988093  0.83324232  0.33325859  1
  I  I98  1  0.50102923  0.83667053  0.66685096  1
  I  I99  1  0.83313115  0.17020408  0.00028023  1
  I  I100  1  0.83276378  0.16891029  0.33356920  1
  I  I101  1  0.83250507  0.17016470  0.66616407  1
  I  I102  1  0.83298294  0.49312294  0.00197596  1
  I  I103  1  0.83950256  0.48891723  0.33431545  1
  I  I104  1  0.83446275  0.49392927  0.66398793  1
  I  I105  1  0.83324445  0.83239457  0.00008988  1
  I  I106  1  0.83377275  0.84046897  0.33342299  1
  I  I107  1  0.83259636  0.83342361  0.66647922  1
  I  I108  1  -0.00039570  0.16966501  0.16551335  1
  I  I109  1  0.00002643  0.16893704  0.50028291  1
  I  I110  1  0.00050259  0.17016460  0.83416173  1
  I  I111  1  -0.00305933  0.49146538  0.16539713  1
  I  I112  1  0.00015097  0.49005550  0.50286202  1
  I  I113  1  0.00267873  0.49392940  0.83220380  1
  I  I114  1  -0.00018433  0.83667015  0.16563769  1
  I  I115  1  0.00006479  0.84076266  0.49992423  1
  I  I116  1  0.00018749  0.83342347  0.83407010  1
  I  I117  1  0.33316397  0.16527711  0.16645920  1
  I  I118  1  0.33261974  0.16928389  0.49950083  1
  I  I119  1  0.33309745  0.16891055  0.83390312  1
  I  I120  1  0.33346876  0.49897831  0.16903943  1
  I  I121  1  0.33033516  0.49351957  0.50337198  1
  I  I122  1  0.33235120  0.48891715  0.82716419  1
  I  I123  1  0.33340805  0.83324196  0.16678536  1
  I  I124  1  0.33318533  0.83546064  0.50067535  1
  I  I125  1  0.33324367  0.84046860  0.83289400  1
  I  I126  1  0.66722129  0.16948258  0.16597926  1
  I  I127  1  0.66734734  0.16958248  0.50042595  1
  I  I128  1  0.66638641  0.17020391  0.83353535  1
  I  I129  1  0.67062779  0.49125037  0.17210556  1
  I  I130  1  0.66956529  0.49381024  0.49778320  1
  I  I131  1  0.66469076  0.49312283  0.83368353  1
  I  I132  1  0.66679966  0.83616006  0.16590867  1
  I  I133  1  0.66676623  0.83394405  0.50047099  1
  I  I134  1  0.66657682  0.83239513  0.83342249  1
