# generated using pymatgen
data_Cs27Sn13Pb14I81
_symmetry_space_group_name_H-M   'P 1'
_cell_length_a   18.97702924
_cell_length_b   18.97138143
_cell_length_c   18.98088840
_cell_angle_alpha   90.00281258
_cell_angle_beta   89.99907313
_cell_angle_gamma   90.00039944
_symmetry_Int_Tables_number   1
_chemical_formula_structural   Cs27Sn13Pb14I81
_chemical_formula_sum   'Cs27 Sn13 Pb14 I81'
_cell_volume   6833.50816398
_cell_formula_units_Z   1
loop_
 _symmetry_equiv_pos_site_id
 _symmetry_equiv_pos_as_xyz
  1  'x, y, z'
loop_
 _atom_site_type_symbol
 _atom_site_label
 _atom_site_symmetry_multiplicity
 _atom_site_fract_x
 _atom_site_fract_y
 _atom_site_fract_z
 _atom_site_occupancy
  Cs  Cs0  1  0.00093662  0.00105854  0.00141424  1
  Cs  Cs1  1  0.00780262  -0.00520350  0.33503393  1
  Cs  Cs2  1  0.00018714  -0.00265230  0.66450514  1
  Cs  Cs3  1  0.00005583  0.33468072  0.00062788  1
  Cs  Cs4  1  -0.00114281  0.33278567  0.33250168  1
  Cs  Cs5  1  -0.00124487  0.33687112  0.66722122  1
  Cs  Cs6  1  -0.00293369  0.66313837  -0.00427346  1
  Cs  Cs7  1  0.00054196  0.66805865  0.33568379  1
  Cs  Cs8  1  -0.00157389  0.66541757  0.66791469  1
  Cs  Cs9  1  0.33213234  -0.00040901  -0.00116998  1
  Cs  Cs10  1  0.32074784  -0.00089613  0.33351058  1
  Cs  Cs11  1  0.33512647  0.00019316  0.66710988  1
  Cs  Cs12  1  0.33219858  0.33309754  -0.00123588  1
  Cs  Cs13  1  0.33308544  0.33463764  0.33656822  1
  Cs  Cs14  1  0.33721689  0.33123400  0.66525085  1
  Cs  Cs15  1  0.33603588  0.66714353  -0.00119368  1
  Cs  Cs16  1  0.33707264  0.66541574  0.33057944  1
  Cs  Cs17  1  0.33465250  0.66731626  0.66878236  1
  Cs  Cs18  1  0.66762191  0.00207287  0.00074441  1
  Cs  Cs19  1  0.66984657  -0.00136669  0.32911304  1
  Cs  Cs20  1  0.66488117  -0.00007234  0.66762582  1
  Cs  Cs21  1  0.66827210  0.32976645  0.00210515  1
  Cs  Cs22  1  0.66768323  0.33510654  0.33338374  1
  Cs  Cs23  1  0.66520581  0.33045404  0.66375248  1
  Cs  Cs24  1  0.66532522  0.67045347  0.00029201  1
  Cs  Cs25  1  0.66317615  0.66598688  0.33012318  1
  Cs  Cs26  1  0.66622978  0.66987883  0.66815256  1
  Sn  Sn27  1  0.16600826  0.49987068  0.16739831  1
  Sn  Sn28  1  0.83387811  0.49948647  0.49922455  1
  Sn  Sn29  1  0.49970554  0.16654024  0.16729568  1
  Sn  Sn30  1  0.83300485  0.16719236  0.16736295  1
  Sn  Sn31  1  0.50004901  0.83374638  0.49997981  1
  Sn  Sn32  1  0.16699755  0.83397684  0.83326554  1
  Sn  Sn33  1  0.16632280  0.49984585  0.49936029  1
  Sn  Sn34  1  0.83345723  0.16684174  0.49952143  1
  Sn  Sn35  1  0.83441556  0.16668247  0.83311958  1
  Sn  Sn36  1  0.16573258  0.16613942  0.83299558  1
  Sn  Sn37  1  0.49931666  0.83266811  0.83264611  1
  Sn  Sn38  1  0.50050551  0.50018002  0.83334628  1
  Sn  Sn39  1  0.83415368  0.49949030  0.16744498  1
  Pb  Pb40  1  0.50207895  0.16409636  0.49686903  1
  Pb  Pb41  1  0.16821461  0.49986786  0.83311392  1
  Pb  Pb42  1  0.16427159  0.16883765  0.50256518  1
  Pb  Pb43  1  0.50067240  0.50141481  0.50180100  1
  Pb  Pb44  1  0.83369266  0.83299724  0.16678245  1
  Pb  Pb45  1  0.83072725  0.49785333  0.83329716  1
  Pb  Pb46  1  0.16593817  0.16859788  0.16502693  1
  Pb  Pb47  1  0.49975256  0.83640086  0.16644596  1
  Pb  Pb48  1  0.50005453  0.16605377  0.83456200  1
  Pb  Pb49  1  0.16649030  0.82978859  0.16381101  1
  Pb  Pb50  1  0.16876818  0.83047991  0.50232266  1
  Pb  Pb51  1  0.50045159  0.49814106  0.16470335  1
  Pb  Pb52  1  0.83320297  0.83619760  0.83335449  1
  Pb  Pb53  1  0.83138113  0.83282099  0.49987644  1
  I  I54  1  0.16692837  0.00010016  0.16655103  1
  I  I55  1  0.16596260  -0.00003480  0.49946893  1
  I  I56  1  0.16912515  0.00026977  0.83403466  1
  I  I57  1  0.16528110  0.33647797  0.16635619  1
  I  I58  1  0.16666548  0.33681721  0.49915793  1
  I  I59  1  0.16441102  0.33110546  0.83436039  1
  I  I60  1  0.16165823  0.66181859  0.16845117  1
  I  I61  1  0.15952552  0.66267117  0.49903914  1
  I  I62  1  0.17110527  0.66867738  0.83361363  1
  I  I63  1  0.50840102  0.00403150  0.16320554  1
  I  I64  1  0.50194476  -0.00321549  0.50916341  1
  I  I65  1  0.49893804  -0.00262668  0.83101164  1
  I  I66  1  0.50276713  0.33054687  0.16285614  1
  I  I67  1  0.49843386  0.33324361  0.50239223  1
  I  I68  1  0.49923441  0.33479564  0.83525364  1
  I  I69  1  0.50061131  0.66665095  0.16641161  1
  I  I70  1  0.50149350  0.66926459  0.50312853  1
  I  I71  1  0.49446591  0.66758245  0.83122238  1
  I  I72  1  0.82753831  0.00383105  0.16533523  1
  I  I73  1  0.83016670  0.00319960  0.50054348  1
  I  I74  1  0.83180005  0.00460314  0.83395906  1
  I  I75  1  0.83288200  0.33293508  0.16645295  1
  I  I76  1  0.83588299  0.33348641  0.49987673  1
  I  I77  1  0.83738228  0.32979057  0.83424000  1
  I  I78  1  0.83664182  0.66255699  0.17111961  1
  I  I79  1  0.83611020  0.66291164  0.49577415  1
  I  I80  1  0.83488274  0.66643069  0.83353332  1
  I  I81  1  0.16230950  0.16614832  -0.00303632  1
  I  I82  1  0.16750340  0.16571417  0.33349390  1
  I  I83  1  0.16324671  0.16583231  0.67054882  1
  I  I84  1  0.16312767  0.49927937  0.00205266  1
  I  I85  1  0.16349693  0.49871076  0.33330228  1
  I  I86  1  0.16265841  0.50017802  0.66444534  1
  I  I87  1  0.17394648  0.83591061  -0.00412165  1
  I  I88  1  0.16850388  0.83503313  0.33355270  1
  I  I89  1  0.16885370  0.83524252  0.67021484  1
  I  I90  1  0.50641016  0.16644406  0.00212279  1
  I  I91  1  0.50614959  0.16786613  0.32948197  1
  I  I92  1  0.50127922  0.16830033  0.66653887  1
  I  I93  1  0.49876925  0.50532316  -0.00303320  1
  I  I94  1  0.49932314  0.50165889  0.33331704  1
  I  I95  1  0.49885240  0.50049159  0.66967898  1
  I  I96  1  0.49627366  0.83014219  -0.00329402  1
  I  I97  1  0.50306003  0.83284780  0.33575468  1
  I  I98  1  0.49711023  0.82967673  0.66829455  1
  I  I99  1  0.83240175  0.17016471  0.00048411  1
  I  I100  1  0.82610522  0.17220091  0.33291630  1
  I  I101  1  0.83731062  0.17098005  0.66651898  1
  I  I102  1  0.83707261  0.49537522  0.00269106  1
  I  I103  1  0.83633787  0.49164500  0.33326629  1
  I  I104  1  0.83686030  0.49570434  0.66395473  1
  I  I105  1  0.83065010  0.83248904  -0.00022725  1
  I  I106  1  0.83004614  0.83782527  0.33347248  1
  I  I107  1  0.83423902  0.83301595  0.66677230  1
  I  I108  1  -0.00337008  0.16988991  0.16632886  1
  I  I109  1  -0.00408337  0.16750648  0.49531458  1
  I  I110  1  -0.00047624  0.16258609  0.83592497  1
  I  I111  1  -0.00101432  0.49369539  0.16841892  1
  I  I112  1  -0.00086769  0.49625955  0.49762336  1
  I  I113  1  -0.00023427  0.50218383  0.83352717  1
  I  I114  1  0.00025475  0.83873136  0.16503804  1
  I  I115  1  0.00023166  0.83482766  0.50148850  1
  I  I116  1  0.00280568  0.83491729  0.83432817  1
  I  I117  1  0.33497136  0.16795234  0.16190307  1
  I  I118  1  0.33316417  0.16805364  0.50067443  1
  I  I119  1  0.33128271  0.16660835  0.83657032  1
  I  I120  1  0.33104319  0.49826626  0.16890354  1
  I  I121  1  0.33108215  0.50232188  0.49738915  1
  I  I122  1  0.33585863  0.49906088  0.83370080  1
  I  I123  1  0.33324867  0.83394838  0.16804523  1
  I  I124  1  0.33648609  0.83214979  0.50297966  1
  I  I125  1  0.33387942  0.83520884  0.82973568  1
  I  I126  1  0.66867602  0.17158916  0.16319656  1
  I  I127  1  0.67045858  0.17364570  0.50598794  1
  I  I128  1  0.66934642  0.16791869  0.83294151  1
  I  I129  1  0.66982459  0.49697676  0.17004285  1
  I  I130  1  0.66994098  0.49673881  0.49683585  1
  I  I131  1  0.66329755  0.50463639  0.83347387  1
  I  I132  1  0.66645888  0.82973254  0.16396949  1
  I  I133  1  0.66365281  0.83185908  0.50836649  1
  I  I134  1  0.66356031  0.83023640  0.82999908  1
