# generated using pymatgen
data_Cs27Sn13Pb14I81
_symmetry_space_group_name_H-M   'P 1'
_cell_length_a   18.99659847
_cell_length_b   18.99047590
_cell_length_c   18.98853662
_cell_angle_alpha   90.00033357
_cell_angle_beta   89.99967196
_cell_angle_gamma   89.99968175
_symmetry_Int_Tables_number   1
_chemical_formula_structural   Cs27Sn13Pb14I81
_chemical_formula_sum   'Cs27 Sn13 Pb14 I81'
_cell_volume   6850.19900052
_cell_formula_units_Z   1
loop_
 _symmetry_equiv_pos_site_id
 _symmetry_equiv_pos_as_xyz
  1  'x, y, z'
loop_
 _atom_site_type_symbol
 _atom_site_label
 _atom_site_symmetry_multiplicity
 _atom_site_fract_x
 _atom_site_fract_y
 _atom_site_fract_z
 _atom_site_occupancy
  Cs  Cs0  1  0.00960904  0.00599031  0.00599680  1
  Cs  Cs1  1  -0.00178849  0.00019053  0.32752028  1
  Cs  Cs2  1  -0.00047342  0.00259636  0.66924281  1
  Cs  Cs3  1  0.00128800  0.33191358  -0.00330770  1
  Cs  Cs4  1  -0.00023413  0.33761465  0.33336268  1
  Cs  Cs5  1  -0.00129834  0.33389049  0.66938313  1
  Cs  Cs6  1  -0.00086698  0.66569996  -0.00022860  1
  Cs  Cs7  1  -0.00051385  0.66401092  0.33315649  1
  Cs  Cs8  1  -0.00181012  0.66459125  0.66625431  1
  Cs  Cs9  1  0.32378750  -0.00639735  0.00462893  1
  Cs  Cs10  1  0.33288677  0.00170681  0.33239459  1
  Cs  Cs11  1  0.33378816  0.00034975  0.66699414  1
  Cs  Cs12  1  0.33603627  0.33304171  0.00386459  1
  Cs  Cs13  1  0.33380420  0.33277945  0.33443584  1
  Cs  Cs14  1  0.33495929  0.33224342  0.66428763  1
  Cs  Cs15  1  0.34100561  0.67270593  -0.00315795  1
  Cs  Cs16  1  0.33198608  0.66589545  0.33719408  1
  Cs  Cs17  1  0.33372698  0.66877476  0.66620460  1
  Cs  Cs18  1  0.66756984  -0.00021105  0.01338372  1
  Cs  Cs19  1  0.66892759  0.00073388  0.33028719  1
  Cs  Cs20  1  0.66629008  0.00194541  0.66436279  1
  Cs  Cs21  1  0.66297814  0.33466214  0.00168178  1
  Cs  Cs22  1  0.66594808  0.33170741  0.33318980  1
  Cs  Cs23  1  0.66691434  0.33070952  0.66652703  1
  Cs  Cs24  1  0.66215510  0.66640454  -0.00161379  1
  Cs  Cs25  1  0.66889125  0.66716568  0.33422952  1
  Cs  Cs26  1  0.66796072  0.66742174  0.66767908  1
  Sn  Sn27  1  0.16682629  0.50027900  0.83450525  1
  Sn  Sn28  1  0.83341928  0.83355744  0.83286278  1
  Sn  Sn29  1  0.50011330  0.16569617  0.83314606  1
  Sn  Sn30  1  0.83401742  0.50029861  0.16625654  1
  Sn  Sn31  1  0.16580978  0.83473421  0.50045656  1
  Sn  Sn32  1  0.50129988  0.50008895  0.50047058  1
  Sn  Sn33  1  0.16639362  0.50053450  0.16477951  1
  Sn  Sn34  1  0.83225865  0.50055765  0.50033829  1
  Sn  Sn35  1  0.16675902  0.16570621  0.50054695  1
  Sn  Sn36  1  0.50039792  0.83361194  0.50044439  1
  Sn  Sn37  1  0.49920257  0.16633621  0.50094424  1
  Sn  Sn38  1  0.83378534  0.50070963  0.83337930  1
  Sn  Sn39  1  0.83374754  0.83268260  0.50112949  1
  Pb  Pb40  1  0.16893874  0.16895564  0.83120347  1
  Pb  Pb41  1  0.83113248  0.16605689  0.83339577  1
  Pb  Pb42  1  0.16632457  0.50003366  0.50047963  1
  Pb  Pb43  1  0.83354897  0.16995067  0.16634169  1
  Pb  Pb44  1  0.16420599  0.83117479  0.83102555  1
  Pb  Pb45  1  0.49990431  0.50026559  0.16935710  1
  Pb  Pb46  1  0.83340441  0.16628443  0.50001906  1
  Pb  Pb47  1  0.50275271  0.83638129  0.83142586  1
  Pb  Pb48  1  0.50027740  0.49868877  0.83094433  1
  Pb  Pb49  1  0.49991490  0.83311116  0.16945453  1
  Pb  Pb50  1  0.16671999  0.16960503  0.16952140  1
  Pb  Pb51  1  0.83357142  0.83088365  0.16625881  1
  Pb  Pb52  1  0.49963947  0.16655861  0.16680343  1
  Pb  Pb53  1  0.16650560  0.83009615  0.16919860  1
  I  I54  1  0.16738605  -0.00010701  0.16587149  1
  I  I55  1  0.17057287  -0.00055258  0.50115161  1
  I  I56  1  0.16529170  -0.00010568  0.83319504  1
  I  I57  1  0.16152257  0.33742590  0.16667983  1
  I  I58  1  0.17117806  0.33174516  0.49927562  1
  I  I59  1  0.15880855  0.33704326  0.83289210  1
  I  I60  1  0.16081260  0.66235105  0.16776325  1
  I  I61  1  0.16936777  0.66870601  0.49928886  1
  I  I62  1  0.16556189  0.66292613  0.83314341  1
  I  I63  1  0.50179514  0.00003605  0.16930787  1
  I  I64  1  0.49929689  0.00000504  0.50438568  1
  I  I65  1  0.50170707  0.00357620  0.82287659  1
  I  I66  1  0.50132128  0.33364062  0.17123286  1
  I  I67  1  0.49903403  0.33336631  0.50292901  1
  I  I68  1  0.50167818  0.33119876  0.82417523  1
  I  I69  1  0.49981645  0.66628298  0.16799247  1
  I  I70  1  0.49972207  0.66670665  0.49838196  1
  I  I71  1  0.49797564  0.66688216  0.83190167  1
  I  I72  1  0.83134200  -0.00042845  0.16830317  1
  I  I73  1  0.83096961  -0.00352221  0.50544251  1
  I  I74  1  0.83017461  -0.00346194  0.82247796  1
  I  I75  1  0.83677649  0.33867421  0.16920887  1
  I  I76  1  0.83102736  0.33672268  0.50008915  1
  I  I77  1  0.83634623  0.33700461  0.83149681  1
  I  I78  1  0.83789112  0.66271910  0.16991268  1
  I  I79  1  0.83071082  0.66573765  0.49986840  1
  I  I80  1  0.83670476  0.66504770  0.83042920  1
  I  I81  1  0.16832762  0.16610166  -0.00004715  1
  I  I82  1  0.17410006  0.16527317  0.33774477  1
  I  I83  1  0.16887703  0.16659983  0.66299726  1
  I  I84  1  0.15621279  0.49837399  -0.00042765  1
  I  I85  1  0.16329421  0.49988402  0.33208168  1
  I  I86  1  0.16286373  0.49971946  0.66847647  1
  I  I87  1  0.16519735  0.83485899  -0.00023071  1
  I  I88  1  0.16492123  0.83428886  0.33814579  1
  I  I89  1  0.16930894  0.83296123  0.66250006  1
  I  I90  1  0.50381489  0.17158195  -0.00298587  1
  I  I91  1  0.49629146  0.16741551  0.33749735  1
  I  I92  1  0.49680338  0.16818707  0.66386322  1
  I  I93  1  0.50221354  0.49604336  -0.00020051  1
  I  I94  1  0.50277946  0.49781716  0.33811855  1
  I  I95  1  0.50285422  0.50142348  0.66250552  1
  I  I96  1  0.50201807  0.83464560  -0.00059111  1
  I  I97  1  0.50361018  0.83504402  0.33909339  1
  I  I98  1  0.49809726  0.83014269  0.66242390  1
  I  I99  1  0.82947243  0.16586767  -0.00023557  1
  I  I100  1  0.83071495  0.16703280  0.33369196  1
  I  I101  1  0.83509263  0.17323182  0.66638535  1
  I  I102  1  0.83892569  0.50318691  -0.00078829  1
  I  I103  1  0.83415068  0.50320173  0.33459738  1
  I  I104  1  0.83416793  0.50376079  0.66617001  1
  I  I105  1  0.83126119  0.82756420  -0.00331108  1
  I  I106  1  0.83221709  0.82932592  0.33699124  1
  I  I107  1  0.83319432  0.82339250  0.66481690  1
  I  I108  1  0.00029884  0.16464500  0.16930598  1
  I  I109  1  0.00270352  0.16559272  0.49914920  1
  I  I110  1  0.00008431  0.16675492  0.83113391  1
  I  I111  1  -0.00093405  0.50025700  0.17117377  1
  I  I112  1  -0.00283095  0.50270716  0.49951196  1
  I  I113  1  -0.00134255  0.50245168  0.83010512  1
  I  I114  1  -0.00003554  0.83442688  0.17175095  1
  I  I115  1  -0.00076823  0.83066319  0.50328164  1
  I  I116  1  -0.00367422  0.83018837  0.82459775  1
  I  I117  1  0.33314841  0.17190437  0.16717784  1
  I  I118  1  0.33431835  0.16585410  0.50340019  1
  I  I119  1  0.33661026  0.17032392  0.82713037  1
  I  I120  1  0.33038330  0.49840913  0.16537832  1
  I  I121  1  0.33531028  0.50183395  0.49977991  1
  I  I122  1  0.33098127  0.49687778  0.83492569  1
  I  I123  1  0.33307865  0.83001298  0.16817044  1
  I  I124  1  0.33365330  0.83177811  0.49833683  1
  I  I125  1  0.33337915  0.83130462  0.83130714  1
  I  I126  1  0.66647816  0.16868057  0.16985627  1
  I  I127  1  0.66364420  0.16639169  0.50340133  1
  I  I128  1  0.66356626  0.17082536  0.82194224  1
  I  I129  1  0.66986893  0.50020381  0.16507556  1
  I  I130  1  0.66768702  0.50204701  0.49968031  1
  I  I131  1  0.66999691  0.50237732  0.83490667  1
  I  I132  1  0.66695981  0.83123906  0.16903732  1
  I  I133  1  0.66707615  0.83144178  0.50368092  1
  I  I134  1  0.67038502  0.82328415  0.82520325  1
