# generated using pymatgen
data_Cs27Sn14Pb13I81
_symmetry_space_group_name_H-M   'P 1'
_cell_length_a   18.97331562
_cell_length_b   18.98019526
_cell_length_c   18.97410614
_cell_angle_alpha   89.99819479
_cell_angle_beta   89.99766387
_cell_angle_gamma   90.00032399
_symmetry_Int_Tables_number   1
_chemical_formula_structural   Cs27Sn14Pb13I81
_chemical_formula_sum   'Cs27 Sn14 Pb13 I81'
_cell_volume   6832.90263655
_cell_formula_units_Z   1
loop_
 _symmetry_equiv_pos_site_id
 _symmetry_equiv_pos_as_xyz
  1  'x, y, z'
loop_
 _atom_site_type_symbol
 _atom_site_label
 _atom_site_symmetry_multiplicity
 _atom_site_fract_x
 _atom_site_fract_y
 _atom_site_fract_z
 _atom_site_occupancy
  Cs  Cs0  1  -0.00147655  -0.00285116  0.00162356  1
  Cs  Cs1  1  -0.01246130  -0.00927814  0.32608417  1
  Cs  Cs2  1  0.00197814  -0.00017669  0.66772910  1
  Cs  Cs3  1  0.00588897  0.33385137  0.00011135  1
  Cs  Cs4  1  0.00009968  0.33225333  0.33280596  1
  Cs  Cs5  1  0.00067248  0.33249786  0.66659753  1
  Cs  Cs6  1  0.00433664  0.66898546  0.00412091  1
  Cs  Cs7  1  -0.00245817  0.67487836  0.33066809  1
  Cs  Cs8  1  0.00083151  0.66789616  0.66368337  1
  Cs  Cs9  1  0.33373393  0.00221040  -0.00146508  1
  Cs  Cs10  1  0.33570142  0.00251506  0.33579762  1
  Cs  Cs11  1  0.33314971  0.00124855  0.66692933  1
  Cs  Cs12  1  0.33100481  0.33247118  0.00090391  1
  Cs  Cs13  1  0.33297215  0.33455042  0.33484248  1
  Cs  Cs14  1  0.33286159  0.33233417  0.66563573  1
  Cs  Cs15  1  0.33291150  0.66593779  0.00092448  1
  Cs  Cs16  1  0.33512084  0.66406041  0.33487839  1
  Cs  Cs17  1  0.33372804  0.66701487  0.66523981  1
  Cs  Cs18  1  0.66581753  0.00049117  -0.00110632  1
  Cs  Cs19  1  0.67056632  0.00108818  0.33015398  1
  Cs  Cs20  1  0.66486607  0.00129500  0.66890390  1
  Cs  Cs21  1  0.66623916  0.33569384  -0.00174654  1
  Cs  Cs22  1  0.66852855  0.33249292  0.33338616  1
  Cs  Cs23  1  0.66897910  0.33532476  0.66816942  1
  Cs  Cs24  1  0.66542465  0.66444114  -0.00103690  1
  Cs  Cs25  1  0.66524305  0.66604018  0.33228860  1
  Cs  Cs26  1  0.66647666  0.66233442  0.66857400  1
  Sn  Sn27  1  0.50078543  0.50029574  0.16744806  1
  Sn  Sn28  1  0.50068221  0.83392315  0.83330121  1
  Sn  Sn29  1  0.16680990  0.16682603  0.50016626  1
  Sn  Sn30  1  0.50005225  0.16631089  0.83249566  1
  Sn  Sn31  1  0.49965911  0.49954763  0.49941011  1
  Sn  Sn32  1  0.83238983  0.83346145  0.83289629  1
  Sn  Sn33  1  0.50008933  0.83357249  0.50016508  1
  Sn  Sn34  1  0.83329744  0.16634015  0.83319214  1
  Sn  Sn35  1  0.49978461  0.83274289  0.16643738  1
  Sn  Sn36  1  0.49963033  0.16696626  0.50097479  1
  Sn  Sn37  1  0.16719563  0.49940395  0.50088050  1
  Sn  Sn38  1  0.16706785  0.49962826  0.83218031  1
  Sn  Sn39  1  0.16675104  0.16751964  0.83247905  1
  Sn  Sn40  1  0.83266442  0.49953902  0.16664329  1
  Pb  Pb41  1  0.83322180  0.16913563  0.16355578  1
  Pb  Pb42  1  0.16712662  0.83382656  0.83327713  1
  Pb  Pb43  1  0.16720747  0.49992914  0.16788035  1
  Pb  Pb44  1  0.83006736  0.83336103  0.50289415  1
  Pb  Pb45  1  0.17003038  0.83366211  0.16698086  1
  Pb  Pb46  1  0.83367178  0.16668804  0.50210489  1
  Pb  Pb47  1  0.83398557  0.49995437  0.49793593  1
  Pb  Pb48  1  0.83642216  0.50036609  0.83502122  1
  Pb  Pb49  1  0.16664880  0.16630244  0.16798520  1
  Pb  Pb50  1  0.49988585  0.16707513  0.16695446  1
  Pb  Pb51  1  0.83027992  0.83123728  0.16377657  1
  Pb  Pb52  1  0.49820726  0.49984439  0.83318193  1
  Pb  Pb53  1  0.16856654  0.83408850  0.49985149  1
  I  I54  1  0.16796213  0.00005150  0.16462518  1
  I  I55  1  0.17355327  0.00380403  0.50790026  1
  I  I56  1  0.16747924  0.00353609  0.82856544  1
  I  I57  1  0.16939584  0.33344682  0.16371283  1
  I  I58  1  0.17660934  0.33343536  0.50532438  1
  I  I59  1  0.16711083  0.33228830  0.83076106  1
  I  I60  1  0.16407897  0.66630466  0.16422582  1
  I  I61  1  0.17175152  0.66361127  0.50452746  1
  I  I62  1  0.16736598  0.66407547  0.83026702  1
  I  I63  1  0.49922586  -0.00278428  0.16803662  1
  I  I64  1  0.49537253  0.00049426  0.50148492  1
  I  I65  1  0.49868724  0.00043799  0.83134639  1
  I  I66  1  0.50263161  0.33648955  0.16915089  1
  I  I67  1  0.49596624  0.33336979  0.49974110  1
  I  I68  1  0.50230960  0.33043585  0.83117222  1
  I  I69  1  0.50358239  0.66629732  0.16895982  1
  I  I70  1  0.49637089  0.66630085  0.49954965  1
  I  I71  1  0.50328555  0.66915078  0.83144832  1
  I  I72  1  0.83304256  -0.00034590  0.16814324  1
  I  I73  1  0.83451141  0.00001957  0.49681520  1
  I  I74  1  0.83345173  0.00059884  0.83309926  1
  I  I75  1  0.82521211  0.33682844  0.16527079  1
  I  I76  1  0.82702023  0.33335772  0.50203854  1
  I  I77  1  0.82987767  0.33054673  0.83487143  1
  I  I78  1  0.83160811  0.66366184  0.16420671  1
  I  I79  1  0.83401462  0.66663426  0.50331873  1
  I  I80  1  0.82726254  0.66916403  0.83492077  1
  I  I81  1  0.16829903  0.17136273  -0.00372629  1
  I  I82  1  0.17629175  0.17408943  0.33783656  1
  I  I83  1  0.16860637  0.17149996  0.66760069  1
  I  I84  1  0.16692721  0.49581554  -0.00231080  1
  I  I85  1  0.16970926  0.49434550  0.33701608  1
  I  I86  1  0.17260485  0.49625542  0.66611122  1
  I  I87  1  0.16916883  0.83181593  -0.00042219  1
  I  I88  1  0.16756346  0.83206691  0.33367481  1
  I  I89  1  0.16855201  0.83103038  0.66675186  1
  I  I90  1  0.49958601  0.16364624  -0.00343728  1
  I  I91  1  0.49403235  0.16477355  0.33691210  1
  I  I92  1  0.49915404  0.16366242  0.66718663  1
  I  I93  1  0.50177737  0.50328602  0.00204044  1
  I  I94  1  0.49787279  0.50330878  0.33432332  1
  I  I95  1  0.49746958  0.50249906  0.66392019  1
  I  I96  1  0.50389650  0.83286164  -0.00087624  1
  I  I97  1  0.49670518  0.83180105  0.33386052  1
  I  I98  1  0.50334112  0.83384819  0.66692566  1
  I  I99  1  0.83199535  0.16228588  -0.00490939  1
  I  I100  1  0.83341310  0.16751081  0.33330668  1
  I  I101  1  0.83217623  0.16458327  0.67059505  1
  I  I102  1  0.82576295  0.49986895  0.00253033  1
  I  I103  1  0.83212327  0.50054285  0.33004802  1
  I  I104  1  0.83043493  0.50015951  0.66694850  1
  I  I105  1  0.82751515  0.83772115  -0.00379486  1
  I  I106  1  0.83406673  0.83231179  0.33296149  1
  I  I107  1  0.82781363  0.83615886  0.67086557  1
  I  I108  1  -0.00015474  0.17010607  0.16646593  1
  I  I109  1  0.00365640  0.17542165  0.50593327  1
  I  I110  1  0.00079157  0.16743653  0.82983694  1
  I  I111  1  -0.00205704  0.49824615  0.16351349  1
  I  I112  1  0.00374171  0.49337376  0.50371274  1
  I  I113  1  0.00408359  0.49574693  0.82946385  1
  I  I114  1  -0.00074106  0.83144243  0.16514183  1
  I  I115  1  -0.00016985  0.83213623  0.50112421  1
  I  I116  1  -0.00247982  0.83600868  0.83463927  1
  I  I117  1  0.33364995  0.16795479  0.15987877  1
  I  I118  1  0.33465527  0.16739350  0.50817626  1
  I  I119  1  0.33391947  0.16596118  0.83013051  1
  I  I120  1  0.33651654  0.50481490  0.16771339  1
  I  I121  1  0.33480430  0.49974397  0.49801859  1
  I  I122  1  0.33050505  0.49660677  0.83460812  1
  I  I123  1  0.33865829  0.82552795  0.16255556  1
  I  I124  1  0.33763813  0.83262053  0.50382440  1
  I  I125  1  0.33706453  0.83609864  0.83331408  1
  I  I126  1  0.66632061  0.16575503  0.16697829  1
  I  I127  1  0.66303864  0.16704579  0.50383582  1
  I  I128  1  0.66550196  0.16176496  0.83029792  1
  I  I129  1  0.66447845  0.50392072  0.17065392  1
  I  I130  1  0.66310882  0.50009331  0.49816107  1
  I  I131  1  0.66649126  0.49758302  0.83188540  1
  I  I132  1  0.66235519  0.83124205  0.16926358  1
  I  I133  1  0.66131293  0.83321713  0.49718790  1
  I  I134  1  0.66479340  0.84126506  0.83349504  1
