# generated using pymatgen
data_Cs27Sn13Pb14I81
_symmetry_space_group_name_H-M   'P 1'
_cell_length_a   18.98323718
_cell_length_b   18.97320495
_cell_length_c   18.97486482
_cell_angle_alpha   89.99994033
_cell_angle_beta   90.00138665
_cell_angle_gamma   89.99945157
_symmetry_Int_Tables_number   1
_chemical_formula_structural   Cs27Sn13Pb14I81
_chemical_formula_sum   'Cs27 Sn13 Pb14 I81'
_cell_volume   6834.23112798
_cell_formula_units_Z   1
loop_
 _symmetry_equiv_pos_site_id
 _symmetry_equiv_pos_as_xyz
  1  'x, y, z'
loop_
 _atom_site_type_symbol
 _atom_site_label
 _atom_site_symmetry_multiplicity
 _atom_site_fract_x
 _atom_site_fract_y
 _atom_site_fract_z
 _atom_site_occupancy
  Cs  Cs0  1  -0.00002079  0.00099384  -0.00166048  1
  Cs  Cs1  1  0.00304847  -0.00692238  0.34174738  1
  Cs  Cs2  1  0.00110952  0.00023181  0.66161834  1
  Cs  Cs3  1  -0.00021992  0.33320834  0.00059131  1
  Cs  Cs4  1  0.00000876  0.33339265  0.33231605  1
  Cs  Cs5  1  -0.00058324  0.33071050  0.66768513  1
  Cs  Cs6  1  -0.00069831  0.66556562  0.00139696  1
  Cs  Cs7  1  0.00149362  0.67202928  0.33370527  1
  Cs  Cs8  1  -0.00207744  0.66908954  0.66632704  1
  Cs  Cs9  1  0.33485106  0.00108164  0.00149265  1
  Cs  Cs10  1  0.33377899  -0.00340756  0.33446871  1
  Cs  Cs11  1  0.33253758  0.00135650  0.66442398  1
  Cs  Cs12  1  0.33121916  0.33297845  0.00020365  1
  Cs  Cs13  1  0.33299962  0.33354098  0.33112800  1
  Cs  Cs14  1  0.33336795  0.33470759  0.66795577  1
  Cs  Cs15  1  0.33379747  0.66712455  -0.00353332  1
  Cs  Cs16  1  0.33046785  0.66661847  0.33275942  1
  Cs  Cs17  1  0.33749480  0.66146196  0.67097277  1
  Cs  Cs18  1  0.66515706  -0.00328882  -0.00014589  1
  Cs  Cs19  1  0.66228025  -0.00238001  0.33224060  1
  Cs  Cs20  1  0.66634443  -0.00088447  0.66791555  1
  Cs  Cs21  1  0.67168267  0.33022192  0.00331954  1
  Cs  Cs22  1  0.66758204  0.33557234  0.33216736  1
  Cs  Cs23  1  0.66659862  0.33407419  0.66365321  1
  Cs  Cs24  1  0.66801700  0.67442553  -0.00215465  1
  Cs  Cs25  1  0.66990140  0.66280674  0.33625362  1
  Cs  Cs26  1  0.66352790  0.66812545  0.66528040  1
  Sn  Sn27  1  0.16652983  0.16578906  0.83401200  1
  Sn  Sn28  1  0.83476580  0.16657749  0.16639775  1
  Sn  Sn29  1  0.16630672  0.49932403  0.49941905  1
  Sn  Sn30  1  0.16659526  0.49915776  0.16740335  1
  Sn  Sn31  1  0.16661463  0.83444228  0.83371957  1
  Sn  Sn32  1  0.83315745  0.49924041  0.83395208  1
  Sn  Sn33  1  0.50011473  0.50010676  0.16591256  1
  Sn  Sn34  1  0.49992776  0.16641170  0.50039294  1
  Sn  Sn35  1  0.16548177  0.16693673  0.16636182  1
  Sn  Sn36  1  0.49985620  0.83363711  0.50004859  1
  Sn  Sn37  1  0.83336952  0.16746812  0.83400562  1
  Sn  Sn38  1  0.50016884  0.16727287  0.83271444  1
  Sn  Sn39  1  0.83350895  0.49934391  0.16553642  1
  Pb  Pb40  1  0.83057393  0.83342692  0.50016674  1
  Pb  Pb41  1  0.49986246  0.83001529  0.16885403  1
  Pb  Pb42  1  0.16877298  0.83054681  0.50280995  1
  Pb  Pb43  1  0.49818972  0.49947255  0.49818797  1
  Pb  Pb44  1  0.49781470  0.83592897  0.83171517  1
  Pb  Pb45  1  0.16668083  0.83376975  0.16463667  1
  Pb  Pb46  1  0.83092577  0.16661425  0.49938273  1
  Pb  Pb47  1  0.50000451  0.16790578  0.16650966  1
  Pb  Pb48  1  0.83588238  0.49972311  0.49974261  1
  Pb  Pb49  1  0.16854236  0.16819845  0.49964895  1
  Pb  Pb50  1  0.50306431  0.49748651  0.83587811  1
  Pb  Pb51  1  0.16473872  0.49922719  0.83399497  1
  Pb  Pb52  1  0.83541407  0.83411821  0.83336211  1
  Pb  Pb53  1  0.83353441  0.83407472  0.16670829  1
  I  I54  1  0.16278210  0.00382859  0.16379979  1
  I  I55  1  0.16658853  0.00004794  0.49789627  1
  I  I56  1  0.16542902  0.00267326  0.83820129  1
  I  I57  1  0.16654752  0.33342141  0.16444224  1
  I  I58  1  0.16982003  0.33596812  0.49994902  1
  I  I59  1  0.16845773  0.33008365  0.83417877  1
  I  I60  1  0.16606482  0.66318556  0.16931124  1
  I  I61  1  0.16843907  0.66293051  0.49436589  1
  I  I62  1  0.16520660  0.66796757  0.83243009  1
  I  I63  1  0.50011658  0.00026258  0.16564986  1
  I  I64  1  0.49900445  0.00120845  0.50384371  1
  I  I65  1  0.50482751  0.00435717  0.83365862  1
  I  I66  1  0.49945185  0.33584542  0.16905946  1
  I  I67  1  0.49894448  0.33069598  0.50337402  1
  I  I68  1  0.49357833  0.32935149  0.82664753  1
  I  I69  1  0.49939362  0.66178555  0.16845825  1
  I  I70  1  0.49781988  0.66854825  0.49746622  1
  I  I71  1  0.49908407  0.66641547  0.83197671  1
  I  I72  1  0.83676485  0.00436629  0.16095571  1
  I  I73  1  0.83691296  0.00035790  0.50020943  1
  I  I74  1  0.83073605  0.00414601  0.83832389  1
  I  I75  1  0.83411677  0.33359629  0.16227853  1
  I  I76  1  0.82965348  0.33325618  0.50101997  1
  I  I77  1  0.83585205  0.33203848  0.83762440  1
  I  I78  1  0.83381628  0.66280083  0.16266038  1
  I  I79  1  0.83123124  0.66621473  0.50057822  1
  I  I80  1  0.83631432  0.66380240  0.83814589  1
  I  I81  1  0.16859328  0.16912990  -0.00032681  1
  I  I82  1  0.16400856  0.17082925  0.33011929  1
  I  I83  1  0.16458066  0.16525227  0.66968656  1
  I  I84  1  0.16809029  0.49881587  0.00314566  1
  I  I85  1  0.16601066  0.49450853  0.33117129  1
  I  I86  1  0.16654267  0.50023148  0.66527028  1
  I  I87  1  0.16749266  0.83311041  -0.00321272  1
  I  I88  1  0.16758751  0.83481948  0.33358487  1
  I  I89  1  0.16621903  0.83922849  0.67026938  1
  I  I90  1  0.49923367  0.16967687  -0.00268103  1
  I  I91  1  0.49952900  0.16472246  0.33537494  1
  I  I92  1  0.49945430  0.16377146  0.66767299  1
  I  I93  1  0.49270576  0.49737566  0.00366803  1
  I  I94  1  0.50422232  0.49709385  0.33017325  1
  I  I95  1  0.49908886  0.50149686  0.66691326  1
  I  I96  1  0.49968283  0.83342293  -0.00025346  1
  I  I97  1  0.49854300  0.84241739  0.33660820  1
  I  I98  1  0.49867040  0.83333108  0.66384707  1
  I  I99  1  0.83254516  0.17170521  -0.00053403  1
  I  I100  1  0.83606954  0.17304872  0.32953289  1
  I  I101  1  0.83590349  0.17076898  0.67017184  1
  I  I102  1  0.83602861  0.49488988  0.00103442  1
  I  I103  1  0.83066388  0.49506786  0.32953041  1
  I  I104  1  0.83595330  0.49521605  0.66969649  1
  I  I105  1  0.83194708  0.83193831  -0.00011269  1
  I  I106  1  0.83416327  0.83268806  0.33328273  1
  I  I107  1  0.83469806  0.83195715  0.66711087  1
  I  I108  1  0.00043191  0.17616762  0.15735170  1
  I  I109  1  0.00023225  0.16855303  0.50258393  1
  I  I110  1  0.00014395  0.16732515  0.83841381  1
  I  I111  1  0.00011194  0.49528656  0.16612745  1
  I  I112  1  0.00363223  0.49914273  0.49524083  1
  I  I113  1  -0.00290784  0.49507009  0.83784477  1
  I  I114  1  0.00022112  0.82856233  0.16695375  1
  I  I115  1  0.00057606  0.83182257  0.50044127  1
  I  I116  1  0.00321331  0.83805221  0.83313682  1
  I  I117  1  0.33067647  0.17199731  0.16316912  1
  I  I118  1  0.33638918  0.16483811  0.50373955  1
  I  I119  1  0.33259392  0.16230594  0.83378591  1
  I  I120  1  0.33203555  0.49562505  0.17202905  1
  I  I121  1  0.33040375  0.49951047  0.49496903  1
  I  I122  1  0.33331049  0.49986847  0.83385440  1
  I  I123  1  0.33320490  0.83343017  0.16610284  1
  I  I124  1  0.33617473  0.83840370  0.49999214  1
  I  I125  1  0.33002835  0.83675260  0.83331091  1
  I  I126  1  0.66924577  0.17233126  0.16369803  1
  I  I127  1  0.66288173  0.16417430  0.50370812  1
  I  I128  1  0.66725413  0.17208790  0.83347667  1
  I  I129  1  0.66783573  0.49477325  0.16383470  1
  I  I130  1  0.66657667  0.50105096  0.49871438  1
  I  I131  1  0.67086753  0.49499980  0.83749162  1
  I  I132  1  0.66662086  0.83416278  0.16671426  1
  I  I133  1  0.66250746  0.83646264  0.50086182  1
  I  I134  1  0.66649074  0.83292104  0.83160120  1
