# generated using pymatgen
data_Cs27Sn13Pb14I81
_symmetry_space_group_name_H-M   'P 1'
_cell_length_a   18.97950009
_cell_length_b   18.97086205
_cell_length_c   18.98060871
_cell_angle_alpha   90.00411176
_cell_angle_beta   89.99996047
_cell_angle_gamma   90.00104649
_symmetry_Int_Tables_number   1
_chemical_formula_structural   Cs27Sn13Pb14I81
_chemical_formula_sum   'Cs27 Sn13 Pb14 I81'
_cell_volume   6834.11008202
_cell_formula_units_Z   1
loop_
 _symmetry_equiv_pos_site_id
 _symmetry_equiv_pos_as_xyz
  1  'x, y, z'
loop_
 _atom_site_type_symbol
 _atom_site_label
 _atom_site_symmetry_multiplicity
 _atom_site_fract_x
 _atom_site_fract_y
 _atom_site_fract_z
 _atom_site_occupancy
  Cs  Cs0  1  0.00755497  -0.00269568  -0.00028062  1
  Cs  Cs1  1  0.00038736  -0.00011863  0.33152542  1
  Cs  Cs2  1  0.00019300  -0.00047534  0.66937934  1
  Cs  Cs3  1  -0.00177880  0.33584470  -0.00037927  1
  Cs  Cs4  1  0.00074779  0.33448130  0.33613355  1
  Cs  Cs5  1  0.00121342  0.33398691  0.66447571  1
  Cs  Cs6  1  0.00008463  0.66756750  0.00007703  1
  Cs  Cs7  1  -0.00102645  0.66558022  0.33261163  1
  Cs  Cs8  1  -0.00196016  0.66612536  0.66762864  1
  Cs  Cs9  1  0.32625841  -0.00081742  0.00075296  1
  Cs  Cs10  1  0.33037163  -0.00118315  0.33216848  1
  Cs  Cs11  1  0.33526019  0.00263131  0.66668995  1
  Cs  Cs12  1  0.33683368  0.33638580  0.00104526  1
  Cs  Cs13  1  0.33133715  0.33278111  0.33151173  1
  Cs  Cs14  1  0.32956225  0.33170523  0.66651328  1
  Cs  Cs15  1  0.33195824  0.66435594  0.00092235  1
  Cs  Cs16  1  0.33662255  0.66854216  0.33659863  1
  Cs  Cs17  1  0.34065947  0.66475325  0.66145842  1
  Cs  Cs18  1  0.66777221  0.00062066  -0.00109662  1
  Cs  Cs19  1  0.66718763  -0.00004211  0.33433340  1
  Cs  Cs20  1  0.66657648  -0.00013697  0.66676941  1
  Cs  Cs21  1  0.66517358  0.33261913  0.00081535  1
  Cs  Cs22  1  0.66739920  0.33101512  0.32899033  1
  Cs  Cs23  1  0.66909414  0.33044322  0.66915111  1
  Cs  Cs24  1  0.66758670  0.66666492  -0.00065400  1
  Cs  Cs25  1  0.66669882  0.66869612  0.33562108  1
  Cs  Cs26  1  0.66482158  0.66713533  0.66446064  1
  Sn  Sn27  1  0.50078297  0.16554410  0.83286239  1
  Sn  Sn28  1  0.83388522  0.50091758  0.16583994  1
  Sn  Sn29  1  0.16533776  0.83335354  0.50041461  1
  Sn  Sn30  1  0.16576641  0.50035357  0.16609449  1
  Sn  Sn31  1  0.50023652  0.83416716  0.83458699  1
  Sn  Sn32  1  0.83259345  0.16563464  0.50075721  1
  Sn  Sn33  1  0.16591699  0.50026000  0.83371567  1
  Sn  Sn34  1  0.83267944  0.83286013  0.16703030  1
  Sn  Sn35  1  0.50087744  0.83353366  0.16529022  1
  Sn  Sn36  1  0.83307897  0.16711173  0.83295186  1
  Sn  Sn37  1  0.83385803  0.49934359  0.83395943  1
  Sn  Sn38  1  0.50089845  0.16664766  0.50044868  1
  Sn  Sn39  1  0.83437972  0.83420891  0.49941661  1
  Pb  Pb40  1  0.50067939  0.50251896  0.16677947  1
  Pb  Pb41  1  0.50077278  0.83519034  0.49997301  1
  Pb  Pb42  1  0.16626485  0.83121959  0.16823385  1
  Pb  Pb43  1  0.50003767  0.16382037  0.16612282  1
  Pb  Pb44  1  0.83210170  0.83340790  0.83343535  1
  Pb  Pb45  1  0.50041715  0.49568803  0.49995676  1
  Pb  Pb46  1  0.83298509  0.49966600  0.49997051  1
  Pb  Pb47  1  0.16646308  0.17008523  0.16654338  1
  Pb  Pb48  1  0.16651877  0.50231123  0.49999351  1
  Pb  Pb49  1  0.16980199  0.83046968  0.83091693  1
  Pb  Pb50  1  0.50057624  0.49943023  0.83317459  1
  Pb  Pb51  1  0.83358363  0.16638297  0.16621398  1
  Pb  Pb52  1  0.16651327  0.16904114  0.83345908  1
  Pb  Pb53  1  0.16603109  0.16438056  0.50012394  1
  I  I54  1  0.16666202  -0.00065595  0.16830466  1
  I  I55  1  0.16552885  -0.00348321  0.49890130  1
  I  I56  1  0.16467409  -0.00030117  0.83217185  1
  I  I57  1  0.16062764  0.33841218  0.16404615  1
  I  I58  1  0.16768241  0.33337953  0.49923914  1
  I  I59  1  0.16728058  0.33706018  0.83650048  1
  I  I60  1  0.16456222  0.66350014  0.16261409  1
  I  I61  1  0.16114799  0.67015880  0.49980315  1
  I  I62  1  0.16021837  0.66289265  0.83736003  1
  I  I63  1  0.50729924  -0.00414246  0.16641174  1
  I  I64  1  0.50216927  0.00282837  0.50214031  1
  I  I65  1  0.50679534  0.00062008  0.83239403  1
  I  I66  1  0.49929408  0.33327609  0.16730505  1
  I  I67  1  0.50615005  0.32771773  0.50701230  1
  I  I68  1  0.50103725  0.33011568  0.82812088  1
  I  I69  1  0.50145813  0.67061329  0.16129245  1
  I  I70  1  0.49942075  0.66722338  0.50072485  1
  I  I71  1  0.50001357  0.66921897  0.83710954  1
  I  I72  1  0.82787030  -0.00323829  0.16874510  1
  I  I73  1  0.83276615  -0.00021875  0.49996506  1
  I  I74  1  0.82909018  0.00252117  0.83152197  1
  I  I75  1  0.83774067  0.33629324  0.16624102  1
  I  I76  1  0.82855778  0.33015920  0.50095909  1
  I  I77  1  0.83112697  0.33316601  0.83297061  1
  I  I78  1  0.83319333  0.66686788  0.16659358  1
  I  I79  1  0.83703653  0.66960746  0.49909997  1
  I  I80  1  0.83537341  0.66425026  0.83432131  1
  I  I81  1  0.16674792  0.16194557  -0.00031957  1
  I  I82  1  0.16790241  0.16893725  0.33366094  1
  I  I83  1  0.16732421  0.16972937  0.66676205  1
  I  I84  1  0.16206621  0.50095288  -0.00007569  1
  I  I85  1  0.16159030  0.50101059  0.33031222  1
  I  I86  1  0.16239733  0.50024193  0.66964482  1
  I  I87  1  0.16524466  0.83427309  -0.00010696  1
  I  I88  1  0.16791283  0.83124396  0.33600809  1
  I  I89  1  0.16062565  0.83175526  0.66343077  1
  I  I90  1  0.50538551  0.16604503  -0.00357049  1
  I  I91  1  0.50503572  0.16573103  0.33619133  1
  I  I92  1  0.50453992  0.16009315  0.66760474  1
  I  I93  1  0.49948793  0.49617305  -0.00008558  1
  I  I94  1  0.49900105  0.50158436  0.33310660  1
  I  I95  1  0.49938273  0.50796353  0.66700409  1
  I  I96  1  0.50617693  0.83789106  -0.00007468  1
  I  I97  1  0.50082081  0.83316109  0.33130615  1
  I  I98  1  0.49978423  0.83451355  0.66886640  1
  I  I99  1  0.82781442  0.16888016  -0.00332764  1
  I  I100  1  0.82861373  0.16582433  0.33626472  1
  I  I101  1  0.82895732  0.16683089  0.66688620  1
  I  I102  1  0.83709148  0.50026832  -0.00018250  1
  I  I103  1  0.83772267  0.50112935  0.33027112  1
  I  I104  1  0.83713691  0.49913593  0.66972765  1
  I  I105  1  0.82993458  0.83178419  0.00244577  1
  I  I106  1  0.83093713  0.83252768  0.33316279  1
  I  I107  1  0.83472393  0.83373516  0.66423259  1
  I  I108  1  -0.00046161  0.16082644  0.16721497  1
  I  I109  1  -0.00373254  0.16532171  0.50409742  1
  I  I110  1  -0.00350530  0.16908068  0.82868081  1
  I  I111  1  -0.00143944  0.50604369  0.16208188  1
  I  I112  1  -0.00030815  0.49611682  0.50032618  1
  I  I113  1  -0.00150618  0.49523585  0.83706152  1
  I  I114  1  -0.00313815  0.83131539  0.16955426  1
  I  I115  1  -0.00214975  0.83819489  0.49434934  1
  I  I116  1  -0.00001083  0.83579608  0.83505247  1
  I  I117  1  0.33359013  0.16618159  0.16790138  1
  I  I118  1  0.33619406  0.16529130  0.50487520  1
  I  I119  1  0.33663029  0.16403081  0.82836706  1
  I  I120  1  0.33058687  0.50040700  0.16195635  1
  I  I121  1  0.33320256  0.50264119  0.50017078  1
  I  I122  1  0.33089456  0.50096614  0.83789129  1
  I  I123  1  0.33568584  0.83281062  0.16531175  1
  I  I124  1  0.33204189  0.83297852  0.49993809  1
  I  I125  1  0.33759687  0.83835358  0.83751856  1
  I  I126  1  0.66687609  0.17183437  0.16723799  1
  I  I127  1  0.66788637  0.16033426  0.50458148  1
  I  I128  1  0.66724933  0.16893123  0.82894146  1
  I  I129  1  0.67033775  0.50142563  0.16222621  1
  I  I130  1  0.66709600  0.50741691  0.50028503  1
  I  I131  1  0.66998958  0.49857427  0.83773136  1
  I  I132  1  0.66793033  0.82738884  0.16942506  1
  I  I133  1  0.66956633  0.83506124  0.49841141  1
  I  I134  1  0.66413365  0.83222222  0.83230628  1
