# generated using pymatgen
data_Cs27Sn14Pb13I81
_symmetry_space_group_name_H-M   'P 1'
_cell_length_a   18.97925320
_cell_length_b   18.97706154
_cell_length_c   18.97297890
_cell_angle_alpha   89.99961759
_cell_angle_beta   89.99961323
_cell_angle_gamma   90.00138539
_symmetry_Int_Tables_number   1
_chemical_formula_structural   Cs27Sn14Pb13I81
_chemical_formula_sum   'Cs27 Sn14 Pb13 I81'
_cell_volume   6833.50645920
_cell_formula_units_Z   1
loop_
 _symmetry_equiv_pos_site_id
 _symmetry_equiv_pos_as_xyz
  1  'x, y, z'
loop_
 _atom_site_type_symbol
 _atom_site_label
 _atom_site_symmetry_multiplicity
 _atom_site_fract_x
 _atom_site_fract_y
 _atom_site_fract_z
 _atom_site_occupancy
  Cs  Cs0  1  -0.00121197  0.00090390  -0.00086872  1
  Cs  Cs1  1  0.00011482  -0.00029843  0.33181040  1
  Cs  Cs2  1  0.00070913  -0.00064081  0.66701620  1
  Cs  Cs3  1  -0.00010386  0.33483042  -0.00272750  1
  Cs  Cs4  1  -0.00425154  0.33030350  0.33521133  1
  Cs  Cs5  1  0.00018670  0.33303657  0.66696371  1
  Cs  Cs6  1  0.00303278  0.66198597  0.00599367  1
  Cs  Cs7  1  -0.00038565  0.66895434  0.33065395  1
  Cs  Cs8  1  -0.00136309  0.66808362  0.66546907  1
  Cs  Cs9  1  0.33316497  -0.00018650  -0.00120508  1
  Cs  Cs10  1  0.33337715  0.00042827  0.33427052  1
  Cs  Cs11  1  0.33328331  0.00042251  0.66662192  1
  Cs  Cs12  1  0.33397914  0.34068980  0.00077958  1
  Cs  Cs13  1  0.33435675  0.33157720  0.33493427  1
  Cs  Cs14  1  0.33265421  0.32926484  0.66562010  1
  Cs  Cs15  1  0.33484444  0.65625033  0.00202021  1
  Cs  Cs16  1  0.33360013  0.66750334  0.33353141  1
  Cs  Cs17  1  0.33223478  0.66974961  0.66511781  1
  Cs  Cs18  1  0.66863930  -0.00045290  -0.00112716  1
  Cs  Cs19  1  0.66641131  0.00021015  0.33238844  1
  Cs  Cs20  1  0.66647044  -0.00071006  0.66795622  1
  Cs  Cs21  1  0.66541959  0.34316726  0.00350159  1
  Cs  Cs22  1  0.66849402  0.33521871  0.33156718  1
  Cs  Cs23  1  0.66856879  0.33156477  0.66776941  1
  Cs  Cs24  1  0.66154243  0.65702909  0.00011508  1
  Cs  Cs25  1  0.66580013  0.66570149  0.33449140  1
  Cs  Cs26  1  0.67032460  0.66873323  0.66651127  1
  Sn  Sn27  1  0.16760957  0.16617493  0.16642038  1
  Sn  Sn28  1  0.16620627  0.16563517  0.83345491  1
  Sn  Sn29  1  0.16647619  0.83337015  0.50037339  1
  Sn  Sn30  1  0.49993873  0.83289067  0.49936673  1
  Sn  Sn31  1  0.49982894  0.83459570  0.16695107  1
  Sn  Sn32  1  0.83404960  0.16532020  0.50093676  1
  Sn  Sn33  1  0.83449931  0.83387606  0.83313680  1
  Sn  Sn34  1  0.83384982  0.16574434  0.83251586  1
  Sn  Sn35  1  0.49927589  0.50071007  0.50039617  1
  Sn  Sn36  1  0.16733717  0.50015008  0.50012246  1
  Sn  Sn37  1  0.49930088  0.16540359  0.16647368  1
  Sn  Sn38  1  0.16589688  0.83384173  0.83316178  1
  Sn  Sn39  1  0.83361608  0.83468076  0.50036824  1
  Sn  Sn40  1  0.16590918  0.16647867  0.50008421  1
  Pb  Pb41  1  0.49968336  0.50002477  0.16965705  1
  Pb  Pb42  1  0.83380421  0.50026324  0.16689481  1
  Pb  Pb43  1  0.83369682  0.50016642  0.50008078  1
  Pb  Pb44  1  0.16648749  0.49662447  0.17009894  1
  Pb  Pb45  1  0.83348336  0.16648133  0.16610598  1
  Pb  Pb46  1  0.50024353  0.16667644  0.83639709  1
  Pb  Pb47  1  0.49978849  0.50001053  0.82920666  1
  Pb  Pb48  1  0.16658144  0.50029758  0.83057215  1
  Pb  Pb49  1  0.49972434  0.83338485  0.83334991  1
  Pb  Pb50  1  0.50059219  0.16630259  0.49877893  1
  Pb  Pb51  1  0.16858109  0.83511226  0.16600000  1
  Pb  Pb52  1  0.83077294  0.83329881  0.16587958  1
  Pb  Pb53  1  0.83377699  0.50045976  0.83293139  1
  I  I54  1  0.16894350  0.00329935  0.17254826  1
  I  I55  1  0.16703529  0.00006793  0.50012751  1
  I  I56  1  0.16343034  0.00051407  0.82797460  1
  I  I57  1  0.17346109  0.32820154  0.16521731  1
  I  I58  1  0.16754936  0.33180564  0.49938934  1
  I  I59  1  0.16269457  0.32968310  0.83291622  1
  I  I60  1  0.16819633  0.66672318  0.16578734  1
  I  I61  1  0.16763485  0.66825986  0.50508479  1
  I  I62  1  0.16311001  0.67039044  0.82782040  1
  I  I63  1  0.49646268  -0.00017705  0.17447177  1
  I  I64  1  0.49777146  -0.00294922  0.49763298  1
  I  I65  1  0.49962451  0.00001975  0.82867063  1
  I  I66  1  0.49663010  0.33050926  0.16737275  1
  I  I67  1  0.49634925  0.33503490  0.49808418  1
  I  I68  1  0.50034398  0.33304616  0.83390727  1
  I  I69  1  0.50137574  0.66957275  0.16868134  1
  I  I70  1  0.49695738  0.66848772  0.49429152  1
  I  I71  1  0.50028480  0.66706169  0.83965330  1
  I  I72  1  0.83314924  0.00004722  0.16850495  1
  I  I73  1  0.83565214  -0.00026425  0.50316193  1
  I  I74  1  0.83740859  0.00013051  0.82829832  1
  I  I75  1  0.82979365  0.33255250  0.16851719  1
  I  I76  1  0.83620426  0.32994805  0.50296484  1
  I  I77  1  0.83798581  0.32959380  0.82848420  1
  I  I78  1  0.83131403  0.66733558  0.16795315  1
  I  I79  1  0.83464886  0.67034177  0.50388185  1
  I  I80  1  0.83648031  0.67071842  0.82676429  1
  I  I81  1  0.16612852  0.16008086  -0.00101946  1
  I  I82  1  0.16695268  0.16700656  0.33491984  1
  I  I83  1  0.16257786  0.16698830  0.66571497  1
  I  I84  1  0.16655572  0.50073166  0.00000127  1
  I  I85  1  0.17122299  0.50223246  0.33826217  1
  I  I86  1  0.17101731  0.49526569  0.66247901  1
  I  I87  1  0.16288276  0.83975137  -0.00324832  1
  I  I88  1  0.16469328  0.83384243  0.33676659  1
  I  I89  1  0.16869063  0.83735609  0.66496760  1
  I  I90  1  0.49623261  0.15909434  0.00433803  1
  I  I91  1  0.49554057  0.16556219  0.33099418  1
  I  I92  1  0.49774456  0.16737719  0.66657340  1
  I  I93  1  0.50156332  0.50061785  0.00033698  1
  I  I94  1  0.49564505  0.50165158  0.33716131  1
  I  I95  1  0.49577076  0.50645457  0.66139825  1
  I  I96  1  0.50029968  0.83963024  0.00275882  1
  I  I97  1  0.49952644  0.83335169  0.33534008  1
  I  I98  1  0.49979705  0.82897980  0.66317490  1
  I  I99  1  0.83684757  0.16118387  -0.00348126  1
  I  I100  1  0.83683058  0.16338686  0.33642452  1
  I  I101  1  0.84047973  0.16363276  0.66579310  1
  I  I102  1  0.83163142  0.49907966  -0.00038905  1
  I  I103  1  0.83260816  0.49799054  0.33430947  1
  I  I104  1  0.83113340  0.49895701  0.66622291  1
  I  I105  1  0.83753317  0.84003217  -0.00382627  1
  I  I106  1  0.83612243  0.83730134  0.33690443  1
  I  I107  1  0.83149686  0.83701201  0.66515485  1
  I  I108  1  0.00311247  0.16705039  0.16859824  1
  I  I109  1  0.00128273  0.16529243  0.49766319  1
  I  I110  1  0.00099688  0.16285109  0.83379467  1
  I  I111  1  0.00065560  0.49919080  0.16944654  1
  I  I112  1  0.00317272  0.50090073  0.50053975  1
  I  I113  1  0.00026457  0.49922330  0.83042878  1
  I  I114  1  0.00018618  0.83459003  0.17021881  1
  I  I115  1  0.00061011  0.83354464  0.50430980  1
  I  I116  1  0.00048258  0.83865185  0.82325644  1
  I  I117  1  0.33247966  0.16240231  0.16907534  1
  I  I118  1  0.33030044  0.16504099  0.50197457  1
  I  I119  1  0.32968982  0.16201072  0.82880546  1
  I  I120  1  0.33318801  0.50121110  0.16474971  1
  I  I121  1  0.33263787  0.50278749  0.49955528  1
  I  I122  1  0.33293205  0.49994427  0.83559514  1
  I  I123  1  0.33641468  0.83638166  0.17263325  1
  I  I124  1  0.33245685  0.83306477  0.50018281  1
  I  I125  1  0.32994404  0.83913637  0.82811999  1
  I  I126  1  0.66400648  0.16322981  0.16898994  1
  I  I127  1  0.66960607  0.16421043  0.50277785  1
  I  I128  1  0.67023247  0.16143836  0.82752353  1
  I  I129  1  0.66602023  0.49702303  0.16882668  1
  I  I130  1  0.66405594  0.50326244  0.49830561  1
  I  I131  1  0.66683937  0.49935182  0.83291290  1
  I  I132  1  0.66278771  0.84039935  0.17262572  1
  I  I133  1  0.66695309  0.83311823  0.49995162  1
  I  I134  1  0.66977058  0.83889042  0.82884181  1
