# generated using pymatgen
data_Cs27Sn14Pb13I81
_symmetry_space_group_name_H-M   'P 1'
_cell_length_a   18.97183720
_cell_length_b   18.97966249
_cell_length_c   18.97656847
_cell_angle_alpha   90.00035160
_cell_angle_beta   89.99812415
_cell_angle_gamma   89.99868251
_symmetry_Int_Tables_number   1
_chemical_formula_structural   Cs27Sn14Pb13I81
_chemical_formula_sum   'Cs27 Sn14 Pb13 I81'
_cell_volume   6833.06506140
_cell_formula_units_Z   1
loop_
 _symmetry_equiv_pos_site_id
 _symmetry_equiv_pos_as_xyz
  1  'x, y, z'
loop_
 _atom_site_type_symbol
 _atom_site_label
 _atom_site_symmetry_multiplicity
 _atom_site_fract_x
 _atom_site_fract_y
 _atom_site_fract_z
 _atom_site_occupancy
  Cs  Cs0  1  0.00033406  0.00382178  0.00104232  1
  Cs  Cs1  1  0.00124429  -0.00287295  0.33030516  1
  Cs  Cs2  1  -0.00529809  0.00139082  0.67019685  1
  Cs  Cs3  1  0.00137722  0.33440967  0.00034299  1
  Cs  Cs4  1  -0.00053996  0.33644815  0.33214921  1
  Cs  Cs5  1  -0.00080633  0.33556393  0.66817240  1
  Cs  Cs6  1  0.00161239  0.66437522  0.00184583  1
  Cs  Cs7  1  0.00047664  0.66622716  0.33315858  1
  Cs  Cs8  1  0.00127461  0.66479234  0.66600755  1
  Cs  Cs9  1  0.33246416  0.00563375  -0.00114777  1
  Cs  Cs10  1  0.33291457  -0.00186850  0.33445781  1
  Cs  Cs11  1  0.33416796  0.00047927  0.66479053  1
  Cs  Cs12  1  0.34027201  0.32806193  0.00022314  1
  Cs  Cs13  1  0.33562846  0.33147841  0.33372697  1
  Cs  Cs14  1  0.33385630  0.33280822  0.66556835  1
  Cs  Cs15  1  0.33435413  0.66580327  -0.00072832  1
  Cs  Cs16  1  0.33190181  0.66774957  0.33442664  1
  Cs  Cs17  1  0.33103790  0.66654643  0.66501305  1
  Cs  Cs18  1  0.66930379  -0.00221543  -0.00839536  1
  Cs  Cs19  1  0.66515114  0.00073427  0.33487413  1
  Cs  Cs20  1  0.67419179  0.00703916  0.67488691  1
  Cs  Cs21  1  0.65878627  0.33674545  0.00149394  1
  Cs  Cs22  1  0.66464646  0.32944113  0.33503910  1
  Cs  Cs23  1  0.66693284  0.32343977  0.66342853  1
  Cs  Cs24  1  0.66342032  0.66572971  -0.00113604  1
  Cs  Cs25  1  0.66694396  0.66720998  0.33287817  1
  Cs  Cs26  1  0.66780013  0.66949621  0.66889824  1
  Sn  Sn27  1  0.16664554  0.83266570  0.83350073  1
  Sn  Sn28  1  0.16697151  0.83262061  0.16610267  1
  Sn  Sn29  1  0.83324273  0.83310130  0.16686899  1
  Sn  Sn30  1  0.16606906  0.16654298  0.49977345  1
  Sn  Sn31  1  0.16672952  0.50035812  0.16627559  1
  Sn  Sn32  1  0.83368846  0.50031403  0.83415380  1
  Sn  Sn33  1  0.49948973  0.50127040  0.50004951  1
  Sn  Sn34  1  0.16744048  0.49990571  0.49975347  1
  Sn  Sn35  1  0.49980808  0.83246836  0.49976333  1
  Sn  Sn36  1  0.16643708  0.50076858  0.83392068  1
  Sn  Sn37  1  0.16690237  0.83346285  0.50037544  1
  Sn  Sn38  1  0.83371057  0.49993340  0.16586690  1
  Sn  Sn39  1  0.49958252  0.83312204  0.16714330  1
  Sn  Sn40  1  0.83333782  0.16706079  0.16682097  1
  Pb  Pb41  1  0.83386831  0.17035190  0.83649067  1
  Pb  Pb42  1  0.83626537  0.16653562  0.49763658  1
  Pb  Pb43  1  0.83316512  0.83334463  0.49835420  1
  Pb  Pb44  1  0.83303061  0.50014084  0.49988711  1
  Pb  Pb45  1  0.83618245  0.83081479  0.83618866  1
  Pb  Pb46  1  0.49977076  0.50017417  0.83003882  1
  Pb  Pb47  1  0.49980968  0.16657672  0.83325536  1
  Pb  Pb48  1  0.49786707  0.16554110  0.49986573  1
  Pb  Pb49  1  0.16659418  0.16718410  0.83082209  1
  Pb  Pb50  1  0.49732717  0.83319557  0.83265290  1
  Pb  Pb51  1  0.49976615  0.50189764  0.16878934  1
  Pb  Pb52  1  0.50298751  0.16285687  0.16685397  1
  Pb  Pb53  1  0.16544405  0.16696923  0.16844561  1
  I  I54  1  0.16554747  -0.00353846  0.16735775  1
  I  I55  1  0.17056000  -0.00181047  0.49814242  1
  I  I56  1  0.16829047  -0.00325632  0.83441690  1
  I  I57  1  0.16106601  0.33680693  0.16752015  1
  I  I58  1  0.16956028  0.33508017  0.49950686  1
  I  I59  1  0.16221434  0.33731808  0.83290921  1
  I  I60  1  0.16212080  0.66702562  0.17067884  1
  I  I61  1  0.17028113  0.66668864  0.49944883  1
  I  I62  1  0.16304948  0.66600015  0.82975426  1
  I  I63  1  0.49644893  -0.00530393  0.17442149  1
  I  I64  1  0.49348826  -0.00395608  0.49377809  1
  I  I65  1  0.49844728  -0.00065930  0.83195139  1
  I  I66  1  0.50009374  0.33342302  0.16802205  1
  I  I67  1  0.49560880  0.33595777  0.50060087  1
  I  I68  1  0.49779688  0.33401037  0.83222990  1
  I  I69  1  0.50326357  0.66997204  0.16882992  1
  I  I70  1  0.49065037  0.66739872  0.49561909  1
  I  I71  1  0.50284847  0.66664089  0.83563870  1
  I  I72  1  0.83483158  -0.00130487  0.17042250  1
  I  I73  1  0.83416214  -0.00018544  0.49716359  1
  I  I74  1  0.83367504  -0.00009134  0.83388819  1
  I  I75  1  0.84067265  0.33499129  0.16375149  1
  I  I76  1  0.83336397  0.33363120  0.49734561  1
  I  I77  1  0.84200747  0.33800953  0.83715754  1
  I  I78  1  0.83562356  0.66640646  0.16382435  1
  I  I79  1  0.83724707  0.66659140  0.49707267  1
  I  I80  1  0.83585900  0.66314320  0.83858944  1
  I  I81  1  0.16512133  0.16571515  0.00016493  1
  I  I82  1  0.16532146  0.16669339  0.33634913  1
  I  I83  1  0.16778620  0.16664201  0.66270759  1
  I  I84  1  0.15999640  0.50834853  0.00074739  1
  I  I85  1  0.16524138  0.50268346  0.33313814  1
  I  I86  1  0.16586510  0.50289924  0.66627132  1
  I  I87  1  0.16586897  0.82623026  0.00132691  1
  I  I88  1  0.16634246  0.83127544  0.33297349  1
  I  I89  1  0.17198846  0.82997351  0.66561668  1
  I  I90  1  0.49797262  0.16665762  0.00061037  1
  I  I91  1  0.50110603  0.16938276  0.33334974  1
  I  I92  1  0.50022545  0.16581453  0.66599002  1
  I  I93  1  0.49795078  0.50055065  0.00012812  1
  I  I94  1  0.49511405  0.50214653  0.33656927  1
  I  I95  1  0.49446493  0.50700409  0.66219110  1
  I  I96  1  0.50020799  0.83347026  0.00300900  1
  I  I97  1  0.49497002  0.82955169  0.33339598  1
  I  I98  1  0.49286414  0.82837480  0.66294324  1
  I  I99  1  0.83686849  0.16145120  0.00413332  1
  I  I100  1  0.83394566  0.16986579  0.32969714  1
  I  I101  1  0.83249602  0.16754827  0.66703997  1
  I  I102  1  0.84245503  0.50032022  0.00158847  1
  I  I103  1  0.83785785  0.50089878  0.32976246  1
  I  I104  1  0.83846208  0.50100883  0.66918953  1
  I  I105  1  0.83226103  0.83594673  0.00467427  1
  I  I106  1  0.83903224  0.82928878  0.32934913  1
  I  I107  1  0.83322671  0.83202781  0.66718420  1
  I  I108  1  -0.00252112  0.16228348  0.16880349  1
  I  I109  1  0.00425144  0.16715845  0.49978805  1
  I  I110  1  0.00016333  0.16375837  0.83178760  1
  I  I111  1  0.00093290  0.50417172  0.16877152  1
  I  I112  1  0.00363371  0.50153522  0.49946038  1
  I  I113  1  0.00175555  0.50367172  0.83209246  1
  I  I114  1  0.00106971  0.83275778  0.16762508  1
  I  I115  1  0.00392240  0.83120484  0.49855901  1
  I  I116  1  0.00431837  0.83156688  0.83055341  1
  I  I117  1  0.33342800  0.16723347  0.16755361  1
  I  I118  1  0.32977105  0.16723488  0.49806485  1
  I  I119  1  0.33258657  0.16870537  0.83492819  1
  I  I120  1  0.32987121  0.50478887  0.16487064  1
  I  I121  1  0.33088532  0.50076613  0.49963872  1
  I  I122  1  0.32949973  0.50443143  0.83553555  1
  I  I123  1  0.33175783  0.82778935  0.16839685  1
  I  I124  1  0.33147977  0.83242247  0.49474726  1
  I  I125  1  0.32897346  0.82590012  0.83723051  1
  I  I126  1  0.67095015  0.17058030  0.16786944  1
  I  I127  1  0.66665627  0.16797579  0.49953758  1
  I  I128  1  0.66736370  0.16697642  0.83205118  1
  I  I129  1  0.66956072  0.50125215  0.16329522  1
  I  I130  1  0.66366588  0.50555679  0.49856022  1
  I  I131  1  0.66949388  0.49965722  0.83952221  1
  I  I132  1  0.66687904  0.83277149  0.17320116  1
  I  I133  1  0.66326063  0.82670745  0.49292269  1
  I  I134  1  0.66701614  0.83273552  0.83332135  1
