# generated using pymatgen
data_Cs27Sn14Pb13I81
_symmetry_space_group_name_H-M   'P 1'
_cell_length_a   18.97669973
_cell_length_b   18.97571669
_cell_length_c   18.97459599
_cell_angle_alpha   90.00236070
_cell_angle_beta   90.00110612
_cell_angle_gamma   90.00054849
_symmetry_Int_Tables_number   1
_chemical_formula_structural   Cs27Sn14Pb13I81
_chemical_formula_sum   'Cs27 Sn14 Pb13 I81'
_cell_volume   6832.68517620
_cell_formula_units_Z   1
loop_
 _symmetry_equiv_pos_site_id
 _symmetry_equiv_pos_as_xyz
  1  'x, y, z'
loop_
 _atom_site_type_symbol
 _atom_site_label
 _atom_site_symmetry_multiplicity
 _atom_site_fract_x
 _atom_site_fract_y
 _atom_site_fract_z
 _atom_site_occupancy
  Cs  Cs0  1  -0.00492251  0.00010252  -0.00740792  1
  Cs  Cs1  1  -0.00047659  -0.00049297  0.33583073  1
  Cs  Cs2  1  0.00539952  0.00147696  0.67090289  1
  Cs  Cs3  1  0.00056962  0.33436831  -0.00251600  1
  Cs  Cs4  1  -0.00057352  0.33449946  0.33339261  1
  Cs  Cs5  1  0.00063891  0.33124141  0.67083364  1
  Cs  Cs6  1  -0.00318967  0.66545815  0.00288208  1
  Cs  Cs7  1  -0.00214549  0.66553725  0.33102985  1
  Cs  Cs8  1  0.00393143  0.66564290  0.66685726  1
  Cs  Cs9  1  0.33544112  -0.00134123  0.00287099  1
  Cs  Cs10  1  0.33513411  -0.00058559  0.33333099  1
  Cs  Cs11  1  0.32658345  -0.00214930  0.66558525  1
  Cs  Cs12  1  0.33344690  0.33481887  0.00475928  1
  Cs  Cs13  1  0.33252255  0.33256694  0.32941129  1
  Cs  Cs14  1  0.33420279  0.33484627  0.66687685  1
  Cs  Cs15  1  0.33376050  0.66553336  -0.00000024  1
  Cs  Cs16  1  0.33204884  0.66818091  0.33226916  1
  Cs  Cs17  1  0.33645899  0.66709901  0.67061011  1
  Cs  Cs18  1  0.66940771  -0.00029627  -0.00335695  1
  Cs  Cs19  1  0.66490658  0.00108707  0.33427946  1
  Cs  Cs20  1  0.66764164  0.00128084  0.66469751  1
  Cs  Cs21  1  0.66545137  0.32957043  -0.00017214  1
  Cs  Cs22  1  0.66830517  0.33086615  0.33633830  1
  Cs  Cs23  1  0.66515255  0.33451218  0.66451913  1
  Cs  Cs24  1  0.66909492  0.67077934  -0.00148829  1
  Cs  Cs25  1  0.67136775  0.66774490  0.33579493  1
  Cs  Cs26  1  0.65970014  0.66455881  0.66470166  1
  Sn  Sn27  1  0.83453666  0.16670043  0.16727421  1
  Sn  Sn28  1  0.50058825  0.83419050  0.49905676  1
  Sn  Sn29  1  0.83322456  0.16572039  0.49947834  1
  Sn  Sn30  1  0.16606190  0.49993709  0.83368785  1
  Sn  Sn31  1  0.49973573  0.83200932  0.16752487  1
  Sn  Sn32  1  0.16500944  0.16617156  0.16679996  1
  Sn  Sn33  1  0.16695476  0.49986064  0.49971168  1
  Sn  Sn34  1  0.83327581  0.50021441  0.83318424  1
  Sn  Sn35  1  0.16683356  0.83344348  0.16678573  1
  Sn  Sn36  1  0.49952509  0.16634342  0.83183849  1
  Sn  Sn37  1  0.50024300  0.50131734  0.16717341  1
  Sn  Sn38  1  0.50008264  0.16599233  0.50109006  1
  Sn  Sn39  1  0.16713316  0.50026231  0.16687317  1
  Sn  Sn40  1  0.83305107  0.83406614  0.50013167  1
  Pb  Pb41  1  0.83174120  0.16820233  0.83252369  1
  Pb  Pb42  1  0.49998148  0.83589116  0.83318634  1
  Pb  Pb43  1  0.83317212  0.49789354  0.16524898  1
  Pb  Pb44  1  0.16667792  0.83069266  0.83667814  1
  Pb  Pb45  1  0.50010747  0.16612134  0.16740249  1
  Pb  Pb46  1  0.49985288  0.49833379  0.83600427  1
  Pb  Pb47  1  0.16695088  0.83123586  0.49811425  1
  Pb  Pb48  1  0.83316215  0.83066004  0.82950052  1
  Pb  Pb49  1  0.16672881  0.16844307  0.49817723  1
  Pb  Pb50  1  0.83548404  0.49969344  0.50204253  1
  Pb  Pb51  1  0.49801898  0.50007039  0.49756797  1
  Pb  Pb52  1  0.83309688  0.83587607  0.16829362  1
  Pb  Pb53  1  0.16923232  0.16859922  0.83624645  1
  I  I54  1  0.16954835  -0.00001052  0.16918824  1
  I  I55  1  0.16680059  -0.00005918  0.49731728  1
  I  I56  1  0.16729112  0.00016741  0.83428451  1
  I  I57  1  0.16840617  0.33434513  0.16661518  1
  I  I58  1  0.16676059  0.33641910  0.49635050  1
  I  I59  1  0.16339156  0.33673111  0.83604866  1
  I  I60  1  0.17243600  0.66575040  0.16655641  1
  I  I61  1  0.16617852  0.66331424  0.49727032  1
  I  I62  1  0.16450708  0.66228569  0.83451005  1
  I  I63  1  0.49583669  -0.00246644  0.16795347  1
  I  I64  1  0.50377822  0.00008416  0.49663272  1
  I  I65  1  0.50210777  0.00371764  0.83644000  1
  I  I66  1  0.49570797  0.33492855  0.16577974  1
  I  I67  1  0.50370148  0.33063342  0.50143963  1
  I  I68  1  0.50027811  0.33060833  0.82960604  1
  I  I69  1  0.49099348  0.66721554  0.17078299  1
  I  I70  1  0.50358176  0.66938348  0.49701845  1
  I  I71  1  0.49954514  0.66654148  0.83132678  1
  I  I72  1  0.83615542  0.00382296  0.16763606  1
  I  I73  1  0.82852457  0.00095467  0.49445043  1
  I  I74  1  0.83122588  0.00015683  0.83635773  1
  I  I75  1  0.83570171  0.32998302  0.17238666  1
  I  I76  1  0.82936091  0.33030116  0.49692210  1
  I  I77  1  0.83781369  0.33588473  0.83262313  1
  I  I78  1  0.83524145  0.66680672  0.16728008  1
  I  I79  1  0.82943808  0.66907315  0.50106920  1
  I  I80  1  0.83781800  0.66286962  0.83520775  1
  I  I81  1  0.16332632  0.16944837  0.00455182  1
  I  I82  1  0.16851641  0.17072848  0.32985748  1
  I  I83  1  0.16485826  0.16968576  0.66671200  1
  I  I84  1  0.16714294  0.49923058  0.00140510  1
  I  I85  1  0.17137747  0.49945876  0.33153111  1
  I  I86  1  0.16140343  0.49914854  0.66694930  1
  I  I87  1  0.17370561  0.83217285  0.00510908  1
  I  I88  1  0.16851894  0.83025901  0.32989621  1
  I  I89  1  0.16713536  0.83062553  0.66648192  1
  I  I90  1  0.49940495  0.16909920  -0.00097375  1
  I  I91  1  0.50112034  0.16593087  0.33581290  1
  I  I92  1  0.50665155  0.16389264  0.66477738  1
  I  I93  1  0.49381989  0.50200283  0.00390043  1
  I  I94  1  0.49342940  0.49788496  0.32970514  1
  I  I95  1  0.49794909  0.50159817  0.66652906  1
  I  I96  1  0.49445283  0.83088884  0.00339487  1
  I  I97  1  0.49908079  0.83605868  0.33320626  1
  I  I98  1  0.50490711  0.83434301  0.66311921  1
  I  I99  1  0.83506042  0.16919834  0.00225480  1
  I  I100  1  0.83040617  0.16547773  0.33396255  1
  I  I101  1  0.82988762  0.16489916  0.66332468  1
  I  I102  1  0.83874970  0.49709774  -0.00240939  1
  I  I103  1  0.83466231  0.50042478  0.33351869  1
  I  I104  1  0.83941918  0.49788794  0.66960374  1
  I  I105  1  0.83331256  0.83443274  0.00009244  1
  I  I106  1  0.83190736  0.83357629  0.33619908  1
  I  I107  1  0.82698780  0.84023706  0.66162476  1
  I  I108  1  0.00046831  0.16877146  0.17252028  1
  I  I109  1  -0.00269996  0.16415197  0.49644154  1
  I  I110  1  0.00027315  0.16700359  0.83201893  1
  I  I111  1  0.00328664  0.50213723  0.16782327  1
  I  I112  1  0.00331787  0.50041531  0.49372745  1
  I  I113  1  0.00139803  0.49826562  0.83591435  1
  I  I114  1  0.00264115  0.82897721  0.16876331  1
  I  I115  1  -0.00232750  0.83615167  0.49819684  1
  I  I116  1  -0.00002001  0.83616599  0.83304957  1
  I  I117  1  0.33120417  0.16868808  0.16623002  1
  I  I118  1  0.33622541  0.16363970  0.50147696  1
  I  I119  1  0.33677419  0.16914688  0.82860662  1
  I  I120  1  0.33176760  0.49737093  0.16472099  1
  I  I121  1  0.33010230  0.49938604  0.50321378  1
  I  I122  1  0.33050844  0.49817744  0.83335100  1
  I  I123  1  0.33363004  0.83436574  0.17242746  1
  I  I124  1  0.33633719  0.83735738  0.49692746  1
  I  I125  1  0.33335396  0.83142231  0.82857338  1
  I  I126  1  0.66853196  0.16800792  0.16725736  1
  I  I127  1  0.66655269  0.16444673  0.49676100  1
  I  I128  1  0.66401546  0.17063420  0.83636839  1
  I  I129  1  0.66407147  0.50213223  0.16462142  1
  I  I130  1  0.66655403  0.49983247  0.50047240  1
  I  I131  1  0.66859056  0.49742387  0.83455920  1
  I  I132  1  0.66365277  0.82974315  0.16878430  1
  I  I133  1  0.66560262  0.83629584  0.49332240  1
  I  I134  1  0.66654180  0.82990886  0.84024996  1
