# generated using pymatgen
data_Cs27Sn14Pb13I81
_symmetry_space_group_name_H-M   'P 1'
_cell_length_a   18.98015226
_cell_length_b   18.97897958
_cell_length_c   18.97004877
_cell_angle_alpha   89.99932328
_cell_angle_beta   90.00156710
_cell_angle_gamma   90.00105089
_symmetry_Int_Tables_number   1
_chemical_formula_structural   Cs27Sn14Pb13I81
_chemical_formula_sum   'Cs27 Sn14 Pb13 I81'
_cell_volume   6833.46536904
_cell_formula_units_Z   1
loop_
 _symmetry_equiv_pos_site_id
 _symmetry_equiv_pos_as_xyz
  1  'x, y, z'
loop_
 _atom_site_type_symbol
 _atom_site_label
 _atom_site_symmetry_multiplicity
 _atom_site_fract_x
 _atom_site_fract_y
 _atom_site_fract_z
 _atom_site_occupancy
  Cs  Cs0  1  0.00116877  0.00098216  -0.00148098  1
  Cs  Cs1  1  -0.00019040  -0.00281042  0.33679765  1
  Cs  Cs2  1  0.00139673  0.00012622  0.66537918  1
  Cs  Cs3  1  -0.00198514  0.33333557  0.00188023  1
  Cs  Cs4  1  -0.00337403  0.33571464  0.33064661  1
  Cs  Cs5  1  0.00132162  0.33176479  0.66678383  1
  Cs  Cs6  1  0.00172221  0.66544713  -0.00167180  1
  Cs  Cs7  1  -0.00025845  0.66631404  0.33659727  1
  Cs  Cs8  1  -0.00226364  0.66809724  0.66749148  1
  Cs  Cs9  1  0.33127883  -0.00236766  0.00340397  1
  Cs  Cs10  1  0.33447327  0.00170223  0.32975022  1
  Cs  Cs11  1  0.33272695  0.00834889  0.66443909  1
  Cs  Cs12  1  0.33279470  0.33466913  -0.00034661  1
  Cs  Cs13  1  0.33382090  0.33347046  0.33705592  1
  Cs  Cs14  1  0.34284126  0.32685924  0.65824458  1
  Cs  Cs15  1  0.33200451  0.66805977  0.00079694  1
  Cs  Cs16  1  0.33182745  0.66473040  0.33170535  1
  Cs  Cs17  1  0.33421018  0.66264967  0.66729429  1
  Cs  Cs18  1  0.66777411  -0.00136639  -0.00033576  1
  Cs  Cs19  1  0.66520071  -0.00268817  0.33405716  1
  Cs  Cs20  1  0.66726544  0.00003768  0.66593318  1
  Cs  Cs21  1  0.67004992  0.33136715  -0.00029067  1
  Cs  Cs22  1  0.67047707  0.33259858  0.33237438  1
  Cs  Cs23  1  0.65922472  0.33259318  0.66622337  1
  Cs  Cs24  1  0.66600495  0.66778763  -0.00148503  1
  Cs  Cs25  1  0.66785501  0.66936306  0.33184885  1
  Cs  Cs26  1  0.66795209  0.66651850  0.66791389  1
  Sn  Sn27  1  0.16714364  0.16698222  0.16649012  1
  Sn  Sn28  1  0.83340068  0.49906361  0.50149443  1
  Sn  Sn29  1  0.49917730  0.83279354  0.50129652  1
  Sn  Sn30  1  0.49929319  0.83335922  0.83196944  1
  Sn  Sn31  1  0.83476724  0.83311335  0.16570648  1
  Sn  Sn32  1  0.16749465  0.49995699  0.16589575  1
  Sn  Sn33  1  0.16646762  0.50018740  0.83348941  1
  Sn  Sn34  1  0.49959749  0.16822496  0.16619508  1
  Sn  Sn35  1  0.83356912  0.16777309  0.50028910  1
  Sn  Sn36  1  0.49934756  0.49879910  0.16625236  1
  Sn  Sn37  1  0.16523236  0.83306547  0.16614306  1
  Sn  Sn38  1  0.83369124  0.83263636  0.83424669  1
  Sn  Sn39  1  0.83398656  0.50044261  0.83245635  1
  Sn  Sn40  1  0.16695143  0.83257668  0.83376293  1
  Pb  Pb41  1  0.50252516  0.50203122  0.49735479  1
  Pb  Pb42  1  0.49949698  0.83309799  0.16599463  1
  Pb  Pb43  1  0.83364487  0.16367132  0.16809534  1
  Pb  Pb44  1  0.16436768  0.16687461  0.49703205  1
  Pb  Pb45  1  0.83212946  0.83290383  0.50074846  1
  Pb  Pb46  1  0.49963277  0.50158202  0.83530060  1
  Pb  Pb47  1  0.83375598  0.50211487  0.16590352  1
  Pb  Pb48  1  0.16473462  0.50007388  0.50083265  1
  Pb  Pb49  1  0.49990122  0.16383625  0.83619899  1
  Pb  Pb50  1  0.50200516  0.16458716  0.49733956  1
  Pb  Pb51  1  0.83342932  0.16696092  0.83109030  1
  Pb  Pb52  1  0.16670644  0.16748209  0.83529671  1
  Pb  Pb53  1  0.16949436  0.83309960  0.50070650  1
  I  I54  1  0.16756628  -0.00104832  0.16323606  1
  I  I55  1  0.16322896  -0.00014879  0.49961434  1
  I  I56  1  0.16546815  -0.00342241  0.83780171  1
  I  I57  1  0.17111707  0.33427088  0.16300167  1
  I  I58  1  0.16785603  0.33348154  0.50019276  1
  I  I59  1  0.15898501  0.33721027  0.83956500  1
  I  I60  1  0.16783456  0.66678970  0.16277278  1
  I  I61  1  0.16436288  0.66670691  0.49272367  1
  I  I62  1  0.16530548  0.66741485  0.84264136  1
  I  I63  1  0.49743146  0.00147334  0.16728309  1
  I  I64  1  0.50404784  -0.00314795  0.50124433  1
  I  I65  1  0.50129931  -0.00494045  0.83212748  1
  I  I66  1  0.49259344  0.33372246  0.16735351  1
  I  I67  1  0.50000197  0.33341579  0.50016421  1
  I  I68  1  0.50083592  0.33352804  0.83333325  1
  I  I69  1  0.49765028  0.66483283  0.16686673  1
  I  I70  1  0.50334720  0.66967457  0.50037434  1
  I  I71  1  0.50111180  0.67005632  0.83380492  1
  I  I72  1  0.83523529  -0.00427017  0.16319705  1
  I  I73  1  0.83078010  0.00130937  0.49718639  1
  I  I74  1  0.83374739  -0.00360459  0.83636147  1
  I  I75  1  0.83459845  0.33342727  0.16561169  1
  I  I76  1  0.83371356  0.33437993  0.50257182  1
  I  I77  1  0.83870301  0.33696275  0.83278739  1
  I  I78  1  0.83464143  0.67002137  0.16844903  1
  I  I79  1  0.83173099  0.66447673  0.50038315  1
  I  I80  1  0.83401682  0.66746928  0.83135228  1
  I  I81  1  0.16901123  0.16486785  0.00388350  1
  I  I82  1  0.17098302  0.16506181  0.32842091  1
  I  I83  1  0.16521785  0.16493652  0.66667037  1
  I  I84  1  0.16413179  0.50183390  0.00077677  1
  I  I85  1  0.16892814  0.50118066  0.32985530  1
  I  I86  1  0.16253745  0.50864523  0.67056285  1
  I  I87  1  0.16804239  0.83296741  0.00054155  1
  I  I88  1  0.16340647  0.83301898  0.32980573  1
  I  I89  1  0.16230178  0.82769401  0.67068331  1
  I  I90  1  0.49766883  0.16767291  0.00429867  1
  I  I91  1  0.49593676  0.16604084  0.32954309  1
  I  I92  1  0.50089469  0.16689514  0.66647361  1
  I  I93  1  0.50112494  0.50006967  0.00344772  1
  I  I94  1  0.49513720  0.50047565  0.32931504  1
  I  I95  1  0.49784466  0.50030380  0.66679932  1
  I  I96  1  0.50105233  0.83333520  -0.00251213  1
  I  I97  1  0.50283936  0.83396499  0.33437625  1
  I  I98  1  0.50291517  0.83197501  0.66802628  1
  I  I99  1  0.83271342  0.16796988  0.00018751  1
  I  I100  1  0.83328792  0.17134458  0.33576184  1
  I  I101  1  0.83266408  0.16429172  0.66330046  1
  I  I102  1  0.83395349  0.50387375  -0.00273033  1
  I  I103  1  0.83247850  0.49874496  0.33476550  1
  I  I104  1  0.83901201  0.50417846  0.66812445  1
  I  I105  1  0.83059682  0.82855522  -0.00090480  1
  I  I106  1  0.83468379  0.83323608  0.33118377  1
  I  I107  1  0.83541332  0.83242999  0.66997949  1
  I  I108  1  0.00294477  0.16883285  0.16800739  1
  I  I109  1  -0.00348432  0.16768656  0.49795141  1
  I  I110  1  0.00000201  0.16164960  0.83532423  1
  I  I111  1  0.00289009  0.49786441  0.16631130  1
  I  I112  1  -0.00348241  0.49891227  0.49740244  1
  I  I113  1  0.00006578  0.50873707  0.83599436  1
  I  I114  1  0.00095170  0.83364107  0.16067260  1
  I  I115  1  0.00006567  0.83406874  0.49974270  1
  I  I116  1  -0.00004199  0.82929088  0.83927044  1
  I  I117  1  0.33264251  0.16287547  0.16648596  1
  I  I118  1  0.33357837  0.16501006  0.50107349  1
  I  I119  1  0.33329153  0.16601191  0.83083257  1
  I  I120  1  0.33184683  0.50312083  0.16145252  1
  I  I121  1  0.33360766  0.50140899  0.50135011  1
  I  I122  1  0.33026697  0.50672729  0.83892285  1
  I  I123  1  0.33045284  0.83351480  0.16397932  1
  I  I124  1  0.33722684  0.83379586  0.50120817  1
  I  I125  1  0.33215557  0.82893870  0.83622689  1
  I  I126  1  0.66446339  0.16902662  0.16879515  1
  I  I127  1  0.66960364  0.16956119  0.49676184  1
  I  I128  1  0.66673254  0.16561094  0.83698061  1
  I  I129  1  0.66486436  0.49830739  0.16752553  1
  I  I130  1  0.67042149  0.49764394  0.50451554  1
  I  I131  1  0.66931679  0.50545204  0.83161150  1
  I  I132  1  0.66835581  0.83308626  0.16464365  1
  I  I133  1  0.66438953  0.83334514  0.50097965  1
  I  I134  1  0.66762005  0.82967833  0.83475185  1
