# generated using pymatgen
data_Cs27Sn13Pb14I81
_symmetry_space_group_name_H-M   'P 1'
_cell_length_a   19.02428086
_cell_length_b   19.02279955
_cell_length_c   19.01334634
_cell_angle_alpha   90.00120465
_cell_angle_beta   89.99872816
_cell_angle_gamma   89.99872618
_symmetry_Int_Tables_number   1
_chemical_formula_structural   Cs27Sn13Pb14I81
_chemical_formula_sum   'Cs27 Sn13 Pb14 I81'
_cell_volume   6880.83651546
_cell_formula_units_Z   1
loop_
 _symmetry_equiv_pos_site_id
 _symmetry_equiv_pos_as_xyz
  1  'x, y, z'
loop_
 _atom_site_type_symbol
 _atom_site_label
 _atom_site_symmetry_multiplicity
 _atom_site_fract_x
 _atom_site_fract_y
 _atom_site_fract_z
 _atom_site_occupancy
  Cs  Cs0  1  0.01365815  0.00579227  -0.01313056  1
  Cs  Cs1  1  -0.00521614  -0.00199211  0.33576221  1
  Cs  Cs2  1  -0.01133737  0.00206296  0.67449115  1
  Cs  Cs3  1  -0.00157281  0.32864964  0.00702187  1
  Cs  Cs4  1  -0.00470643  0.33665333  0.32628936  1
  Cs  Cs5  1  0.00070100  0.33564378  0.66677205  1
  Cs  Cs6  1  0.00481806  0.66566128  0.00781458  1
  Cs  Cs7  1  0.00076267  0.66554351  0.33008666  1
  Cs  Cs8  1  -0.00262178  0.66356547  0.66545956  1
  Cs  Cs9  1  0.32115308  0.00222918  -0.00105674  1
  Cs  Cs10  1  0.33633188  -0.00115338  0.33387510  1
  Cs  Cs11  1  0.33318083  0.00289435  0.66453896  1
  Cs  Cs12  1  0.33372756  0.32661204  0.00135559  1
  Cs  Cs13  1  0.33584165  0.33213409  0.33706517  1
  Cs  Cs14  1  0.33403412  0.33465748  0.66497803  1
  Cs  Cs15  1  0.33416802  0.67113516  -0.00256801  1
  Cs  Cs16  1  0.33382259  0.66823686  0.33519423  1
  Cs  Cs17  1  0.33482022  0.66400595  0.66595878  1
  Cs  Cs18  1  0.66961020  0.00054231  0.00129938  1
  Cs  Cs19  1  0.66657243  -0.00240134  0.33300184  1
  Cs  Cs20  1  0.67629522  -0.00106553  0.66919780  1
  Cs  Cs21  1  0.66681112  0.33117333  0.00641945  1
  Cs  Cs22  1  0.66603402  0.33169853  0.32984540  1
  Cs  Cs23  1  0.66512321  0.33595797  0.66716918  1
  Cs  Cs24  1  0.66340287  0.66759350  -0.00039507  1
  Cs  Cs25  1  0.66603000  0.66890356  0.33227511  1
  Cs  Cs26  1  0.66691955  0.66542607  0.67094748  1
  Sn  Sn27  1  0.83295639  0.50006922  0.50031694  1
  Sn  Sn28  1  0.49973603  0.16627690  0.50142416  1
  Sn  Sn29  1  0.83302814  0.83367594  0.16601356  1
  Sn  Sn30  1  0.16648276  0.49984228  0.50039403  1
  Sn  Sn31  1  0.50033078  0.16650039  0.83199912  1
  Sn  Sn32  1  0.49958714  0.83319874  0.50019374  1
  Sn  Sn33  1  0.16696748  0.83370683  0.50050343  1
  Sn  Sn34  1  0.50041802  0.50032034  0.49932243  1
  Sn  Sn35  1  0.50062567  0.83259376  0.16712968  1
  Sn  Sn36  1  0.16683135  0.16644955  0.49981872  1
  Sn  Sn37  1  0.49934924  0.50121787  0.16744793  1
  Sn  Sn38  1  0.83457558  0.50007337  0.83342133  1
  Sn  Sn39  1  0.16574052  0.49998139  0.83289551  1
  Pb  Pb40  1  0.16729183  0.83343983  0.16931166  1
  Pb  Pb41  1  0.83349761  0.16267457  0.16661094  1
  Pb  Pb42  1  0.49970090  0.49843890  0.83367573  1
  Pb  Pb43  1  0.49991371  0.83614224  0.83309380  1
  Pb  Pb44  1  0.16677693  0.16664259  0.17062643  1
  Pb  Pb45  1  0.83311977  0.16956510  0.49979528  1
  Pb  Pb46  1  0.16985139  0.49995770  0.16699106  1
  Pb  Pb47  1  0.83082139  0.16993086  0.83322924  1
  Pb  Pb48  1  0.16862033  0.16980622  0.82994865  1
  Pb  Pb49  1  0.83083559  0.50156909  0.16649675  1
  Pb  Pb50  1  0.16686729  0.83048243  0.82927121  1
  Pb  Pb51  1  0.49989161  0.16551964  0.16733690  1
  Pb  Pb52  1  0.83342478  0.83016471  0.83680133  1
  Pb  Pb53  1  0.83310571  0.83062130  0.49895895  1
  I  I54  1  0.16944785  -0.00018256  0.16661977  1
  I  I55  1  0.17843336  -0.00013775  0.49560719  1
  I  I56  1  0.16797660  0.00033203  0.83515749  1
  I  I57  1  0.16858226  0.33368947  0.16835256  1
  I  I58  1  0.17181196  0.33440425  0.50503400  1
  I  I59  1  0.16418898  0.33710654  0.82513506  1
  I  I60  1  0.16448045  0.66654621  0.16867037  1
  I  I61  1  0.17079542  0.66576397  0.50346068  1
  I  I62  1  0.16516390  0.66267968  0.82658633  1
  I  I63  1  0.50541123  -0.00341431  0.17220855  1
  I  I64  1  0.49075258  -0.00033043  0.49861158  1
  I  I65  1  0.49958934  0.00368196  0.82743529  1
  I  I66  1  0.49965643  0.33556007  0.17045939  1
  I  I67  1  0.49707167  0.33427166  0.49996293  1
  I  I68  1  0.49937861  0.33113489  0.82715304  1
  I  I69  1  0.50373904  0.66668066  0.17620855  1
  I  I70  1  0.49691699  0.66605228  0.49439559  1
  I  I71  1  0.50026872  0.66661611  0.83164248  1
  I  I72  1  0.82104123  -0.00488373  0.17214212  1
  I  I73  1  0.83397281  -0.00011400  0.49706520  1
  I  I74  1  0.83227027  0.00010304  0.83463328  1
  I  I75  1  0.83198747  0.33361934  0.16647907  1
  I  I76  1  0.83246140  0.33776009  0.50343820  1
  I  I77  1  0.83742246  0.33757481  0.82736645  1
  I  I78  1  0.82968349  0.66889738  0.16810327  1
  I  I79  1  0.83304523  0.66287717  0.50339802  1
  I  I80  1  0.83418720  0.66258982  0.82569233  1
  I  I81  1  0.16865197  0.16757392  -0.00060507  1
  I  I82  1  0.17686115  0.17099395  0.33891909  1
  I  I83  1  0.17102258  0.16498382  0.66236715  1
  I  I84  1  0.16218518  0.50030514  -0.00270599  1
  I  I85  1  0.16358330  0.49999974  0.33741854  1
  I  I86  1  0.16902708  0.50028342  0.66406979  1
  I  I87  1  0.16729141  0.83181100  -0.00014894  1
  I  I88  1  0.16908086  0.82855515  0.33748527  1
  I  I89  1  0.17588647  0.83467894  0.66139885  1
  I  I90  1  0.50234792  0.17100740  -0.00207741  1
  I  I91  1  0.49484265  0.16819015  0.33697468  1
  I  I92  1  0.49473411  0.16956985  0.66404555  1
  I  I93  1  0.50113639  0.50316999  0.00265494  1
  I  I94  1  0.50011757  0.49770578  0.33577776  1
  I  I95  1  0.49972494  0.50253069  0.66315003  1
  I  I96  1  0.50611410  0.82678564  0.00319518  1
  I  I97  1  0.49975291  0.83398599  0.33494127  1
  I  I98  1  0.49438200  0.82818177  0.66293257  1
  I  I99  1  0.82829759  0.17197814  -0.00014989  1
  I  I100  1  0.83176814  0.17201572  0.33350645  1
  I  I101  1  0.83424484  0.16140720  0.66635616  1
  I  I102  1  0.83668394  0.50153547  -0.00253867  1
  I  I103  1  0.83693616  0.50060671  0.33617483  1
  I  I104  1  0.83102109  0.50086404  0.66517699  1
  I  I105  1  0.82078079  0.82967348  0.00427519  1
  I  I106  1  0.83095253  0.82907340  0.33144317  1
  I  I107  1  0.83333817  0.83523152  0.66683186  1
  I  I108  1  0.00000383  0.16763677  0.16836356  1
  I  I109  1  0.00306493  0.16585244  0.49860748  1
  I  I110  1  0.00018333  0.16395582  0.83318247  1
  I  I111  1  0.00006751  0.50206524  0.16965319  1
  I  I112  1  0.00064905  0.50045871  0.50593363  1
  I  I113  1  0.00027240  0.50104126  0.82088568  1
  I  I114  1  -0.00226882  0.83031784  0.17041160  1
  I  I115  1  0.00272566  0.83226812  0.49706436  1
  I  I116  1  0.00009138  0.83759625  0.83393703  1
  I  I117  1  0.33383800  0.16533181  0.16182510  1
  I  I118  1  0.33456225  0.17203320  0.50368934  1
  I  I119  1  0.33618667  0.17013513  0.83211614  1
  I  I120  1  0.33754998  0.50675430  0.17180969  1
  I  I121  1  0.33355316  0.49997473  0.50015826  1
  I  I122  1  0.33118776  0.49856773  0.82808667  1
  I  I123  1  0.33687356  0.82878922  0.16978831  1
  I  I124  1  0.33455857  0.82845913  0.49374618  1
  I  I125  1  0.33348501  0.82962707  0.84021062  1
  I  I126  1  0.66612205  0.17152888  0.16906477  1
  I  I127  1  0.66311421  0.16674390  0.50281811  1
  I  I128  1  0.66319147  0.16902323  0.82431969  1
  I  I129  1  0.66324459  0.50079811  0.17142754  1
  I  I130  1  0.66558453  0.49999443  0.50051364  1
  I  I131  1  0.66840617  0.49820777  0.82855721  1
  I  I132  1  0.66464015  0.82795063  0.17500346  1
  I  I133  1  0.66335332  0.83367194  0.49727364  1
  I  I134  1  0.66654459  0.83061766  0.82696744  1
