# generated using pymatgen
data_Cs27Sn13Pb14I81
_symmetry_space_group_name_H-M   'P 1'
_cell_length_a   18.97381261
_cell_length_b   18.98563615
_cell_length_c   18.97210170
_cell_angle_alpha   89.99959055
_cell_angle_beta   90.00116184
_cell_angle_gamma   89.99985008
_symmetry_Int_Tables_number   1
_chemical_formula_structural   Cs27Sn13Pb14I81
_chemical_formula_sum   'Cs27 Sn13 Pb14 I81'
_cell_volume   6834.31834690
_cell_formula_units_Z   1
loop_
 _symmetry_equiv_pos_site_id
 _symmetry_equiv_pos_as_xyz
  1  'x, y, z'
loop_
 _atom_site_type_symbol
 _atom_site_label
 _atom_site_symmetry_multiplicity
 _atom_site_fract_x
 _atom_site_fract_y
 _atom_site_fract_z
 _atom_site_occupancy
  Cs  Cs0  1  0.00262812  -0.00055004  0.00002977  1
  Cs  Cs1  1  0.00463919  0.00061059  0.33355326  1
  Cs  Cs2  1  -0.00148140  0.00042757  0.66600044  1
  Cs  Cs3  1  -0.00005696  0.33661888  -0.00169095  1
  Cs  Cs4  1  0.00081897  0.33130522  0.33544164  1
  Cs  Cs5  1  -0.00189971  0.32869561  0.66713735  1
  Cs  Cs6  1  -0.00026440  0.66482906  -0.00032868  1
  Cs  Cs7  1  -0.00218388  0.66847705  0.33595560  1
  Cs  Cs8  1  0.00090306  0.66843893  0.66485306  1
  Cs  Cs9  1  0.33256551  0.00045110  0.00076556  1
  Cs  Cs10  1  0.32679514  0.00034483  0.33099741  1
  Cs  Cs11  1  0.33622225  0.00184390  0.66931208  1
  Cs  Cs12  1  0.33056144  0.33424869  0.00127687  1
  Cs  Cs13  1  0.33336850  0.33358637  0.33819907  1
  Cs  Cs14  1  0.34020024  0.33597798  0.65868539  1
  Cs  Cs15  1  0.33334706  0.66612166  -0.00091762  1
  Cs  Cs16  1  0.33234769  0.66637787  0.33520293  1
  Cs  Cs17  1  0.33479892  0.66312048  0.66572683  1
  Cs  Cs18  1  0.66452052  -0.00129613  0.00184099  1
  Cs  Cs19  1  0.66766606  -0.00208954  0.33181490  1
  Cs  Cs20  1  0.66673211  0.00393917  0.66679983  1
  Cs  Cs21  1  0.66975996  0.33511127  -0.00151504  1
  Cs  Cs22  1  0.66563316  0.33188611  0.33204755  1
  Cs  Cs23  1  0.66164624  0.32551292  0.66985224  1
  Cs  Cs24  1  0.66716334  0.66584631  0.00041976  1
  Cs  Cs25  1  0.66928466  0.66837733  0.33224811  1
  Cs  Cs26  1  0.66501987  0.66751687  0.66553214  1
  Sn  Sn27  1  0.83305736  0.16576457  0.16640856  1
  Sn  Sn28  1  0.49923897  0.50028095  0.16654976  1
  Sn  Sn29  1  0.16696918  0.16701426  0.83324114  1
  Sn  Sn30  1  0.50060867  0.83336446  0.49888759  1
  Sn  Sn31  1  0.83247401  0.83263697  0.49989906  1
  Sn  Sn32  1  0.16663831  0.49988256  0.83350516  1
  Sn  Sn33  1  0.50052958  0.16648726  0.16651656  1
  Sn  Sn34  1  0.83385273  0.83306224  0.83353258  1
  Sn  Sn35  1  0.83304080  0.83416736  0.16655614  1
  Sn  Sn36  1  0.83287458  0.50001296  0.50051403  1
  Sn  Sn37  1  0.50039622  0.83328454  0.16762670  1
  Sn  Sn38  1  0.16608960  0.83315981  0.83356847  1
  Sn  Sn39  1  0.16717099  0.50045509  0.16662424  1
  Pb  Pb40  1  0.16651136  0.16912193  0.16531018  1
  Pb  Pb41  1  0.50016388  0.16347889  0.49701913  1
  Pb  Pb42  1  0.16692882  0.83345486  0.50284765  1
  Pb  Pb43  1  0.83340215  0.50019667  0.16795315  1
  Pb  Pb44  1  0.16444997  0.50012332  0.50015096  1
  Pb  Pb45  1  0.83490360  0.16422829  0.83602444  1
  Pb  Pb46  1  0.83317600  0.16585101  0.49763326  1
  Pb  Pb47  1  0.50274420  0.50211099  0.49745435  1
  Pb  Pb48  1  0.16660129  0.83129231  0.16489428  1
  Pb  Pb49  1  0.16677756  0.16664623  0.50325061  1
  Pb  Pb50  1  0.50032743  0.83326460  0.83352497  1
  Pb  Pb51  1  0.83507643  0.50194650  0.83049460  1
  Pb  Pb52  1  0.49771973  0.16678245  0.83608117  1
  Pb  Pb53  1  0.49801644  0.49995711  0.83540100  1
  I  I54  1  0.16872596  -0.00007992  0.16432586  1
  I  I55  1  0.16425414  -0.00034183  0.49957232  1
  I  I56  1  0.16239654  -0.00075953  0.83361783  1
  I  I57  1  0.16886996  0.33684418  0.16056899  1
  I  I58  1  0.16395987  0.33361702  0.50051104  1
  I  I59  1  0.16667685  0.33399633  0.84051727  1
  I  I60  1  0.16961622  0.66360971  0.16044799  1
  I  I61  1  0.16759950  0.66689248  0.50208381  1
  I  I62  1  0.16245096  0.66682048  0.83788684  1
  I  I63  1  0.50529535  -0.00100343  0.16951815  1
  I  I64  1  0.50713671  -0.00452906  0.49640730  1
  I  I65  1  0.49614692  -0.00030114  0.83550045  1
  I  I66  1  0.50011951  0.33337525  0.16406192  1
  I  I67  1  0.50035556  0.33338799  0.49918950  1
  I  I68  1  0.49890934  0.33334696  0.83473593  1
  I  I69  1  0.50038592  0.66765091  0.16956194  1
  I  I70  1  0.50177422  0.67009786  0.49439769  1
  I  I71  1  0.49697369  0.66694166  0.83658594  1
  I  I72  1  0.82639620  -0.00169287  0.16740129  1
  I  I73  1  0.82959788  -0.00402331  0.50221013  1
  I  I74  1  0.83915188  -0.00420263  0.82919295  1
  I  I75  1  0.83094124  0.33131892  0.16882288  1
  I  I76  1  0.83681483  0.33558206  0.49623837  1
  I  I77  1  0.83608783  0.33321138  0.83390376  1
  I  I78  1  0.83085170  0.66984207  0.16530131  1
  I  I79  1  0.83132987  0.66890617  0.49669259  1
  I  I80  1  0.83886245  0.67058938  0.83921512  1
  I  I81  1  0.16668261  0.16392279  -0.00255692  1
  I  I82  1  0.16642879  0.16815229  0.33285600  1
  I  I83  1  0.16436135  0.16735320  0.67158832  1
  I  I84  1  0.16962344  0.50066691  -0.00001228  1
  I  I85  1  0.16987288  0.50023506  0.33040824  1
  I  I86  1  0.16356712  0.50152502  0.66994617  1
  I  I87  1  0.16288570  0.83432566  -0.00316650  1
  I  I88  1  0.16430753  0.83135536  0.33317239  1
  I  I89  1  0.16248494  0.83088634  0.67107728  1
  I  I90  1  0.50357043  0.16219903  0.00450001  1
  I  I91  1  0.50331837  0.16953750  0.32873278  1
  I  I92  1  0.49783790  0.16529609  0.66653967  1
  I  I93  1  0.50013639  0.50399969  0.00438420  1
  I  I94  1  0.49304088  0.49807310  0.32907423  1
  I  I95  1  0.49803301  0.50262750  0.66614928  1
  I  I96  1  0.50278036  0.83355901  0.00364215  1
  I  I97  1  0.50852767  0.83269374  0.33175813  1
  I  I98  1  0.50255667  0.83231100  0.66395904  1
  I  I99  1  0.82957830  0.16231593  0.00405567  1
  I  I100  1  0.83051060  0.16166180  0.32935498  1
  I  I101  1  0.83648638  0.16603066  0.66690570  1
  I  I102  1  0.83254825  0.50103055  0.00007195  1
  I  I103  1  0.83514320  0.50699749  0.33542713  1
  I  I104  1  0.83655445  0.50749828  0.66294489  1
  I  I105  1  0.83349208  0.83748667  0.00091934  1
  I  I106  1  0.82823968  0.83259703  0.33269116  1
  I  I107  1  0.83459828  0.82761403  0.66640919  1
  I  I108  1  -0.00258660  0.16226731  0.16569534  1
  I  I109  1  -0.00031121  0.16478792  0.49578989  1
  I  I110  1  0.00300796  0.16837498  0.83716416  1
  I  I111  1  0.00222502  0.50018402  0.16333450  1
  I  I112  1  -0.00314427  0.50820557  0.49664332  1
  I  I113  1  0.00350106  0.49926487  0.84148348  1
  I  I114  1  -0.00310679  0.83623769  0.16875789  1
  I  I115  1  -0.00343356  0.82992659  0.49731596  1
  I  I116  1  -0.00044407  0.83303033  0.83428354  1
  I  I117  1  0.33611371  0.16308282  0.16443384  1
  I  I118  1  0.33365969  0.16522600  0.49745298  1
  I  I119  1  0.32944054  0.16190158  0.83691448  1
  I  I120  1  0.33378670  0.50076114  0.16197917  1
  I  I121  1  0.33365419  0.50150502  0.50159476  1
  I  I122  1  0.32912605  0.50456687  0.83519185  1
  I  I123  1  0.33630409  0.83557370  0.16939612  1
  I  I124  1  0.33644382  0.83391087  0.49498530  1
  I  I125  1  0.33042904  0.83320316  0.83445010  1
  I  I126  1  0.66644553  0.16698379  0.16673920  1
  I  I127  1  0.66670877  0.16941829  0.50345712  1
  I  I128  1  0.66676272  0.16478992  0.83230452  1
  I  I129  1  0.66413281  0.50064100  0.16964236  1
  I  I130  1  0.67026246  0.50478011  0.49663865  1
  I  I131  1  0.66692888  0.50269032  0.83507061  1
  I  I132  1  0.66701350  0.83205605  0.16511825  1
  I  I133  1  0.66788468  0.82868499  0.49996048  1
  I  I134  1  0.66987134  0.83313810  0.83419052  1
