# generated using pymatgen
data_Cs27Sn14Pb13I81
_symmetry_space_group_name_H-M   'P 1'
_cell_length_a   18.96424328
_cell_length_b   18.98416711
_cell_length_c   18.97965415
_cell_angle_alpha   89.99966888
_cell_angle_beta   89.99974960
_cell_angle_gamma   89.99979737
_symmetry_Int_Tables_number   1
_chemical_formula_structural   Cs27Sn14Pb13I81
_chemical_formula_sum   'Cs27 Sn14 Pb13 I81'
_cell_volume   6833.06198778
_cell_formula_units_Z   1
loop_
 _symmetry_equiv_pos_site_id
 _symmetry_equiv_pos_as_xyz
  1  'x, y, z'
loop_
 _atom_site_type_symbol
 _atom_site_label
 _atom_site_symmetry_multiplicity
 _atom_site_fract_x
 _atom_site_fract_y
 _atom_site_fract_z
 _atom_site_occupancy
  Cs  Cs0  1  -0.00093594  0.00001664  -0.00079769  1
  Cs  Cs1  1  -0.00068298  -0.00267094  0.33299274  1
  Cs  Cs2  1  0.00010776  -0.00149001  0.66775498  1
  Cs  Cs3  1  -0.00013097  0.33169655  0.00081966  1
  Cs  Cs4  1  -0.00084906  0.33642792  0.33579499  1
  Cs  Cs5  1  -0.00015682  0.33357227  0.66422583  1
  Cs  Cs6  1  -0.00056536  0.66831461  0.00144750  1
  Cs  Cs7  1  0.00039591  0.66639015  0.33237362  1
  Cs  Cs8  1  0.00148774  0.66882529  0.66634919  1
  Cs  Cs9  1  0.33212992  0.00517254  0.00030778  1
  Cs  Cs10  1  0.34065583  0.00115305  0.33138215  1
  Cs  Cs11  1  0.33187744  -0.00090058  0.66854837  1
  Cs  Cs12  1  0.33526974  0.33002517  0.00228966  1
  Cs  Cs13  1  0.33452167  0.32660083  0.33032497  1
  Cs  Cs14  1  0.33294345  0.33777154  0.66727071  1
  Cs  Cs15  1  0.33470047  0.66531235  -0.00027584  1
  Cs  Cs16  1  0.33286819  0.66988072  0.33432866  1
  Cs  Cs17  1  0.33248444  0.66490250  0.66650586  1
  Cs  Cs18  1  0.67001889  -0.00086633  -0.00205033  1
  Cs  Cs19  1  0.65934568  0.00023510  0.33467522  1
  Cs  Cs20  1  0.66834306  0.00092533  0.66758048  1
  Cs  Cs21  1  0.66688875  0.33612553  -0.00177796  1
  Cs  Cs22  1  0.66265803  0.33839754  0.34096023  1
  Cs  Cs23  1  0.66521196  0.33179566  0.66359352  1
  Cs  Cs24  1  0.66651241  0.66512122  -0.00019634  1
  Cs  Cs25  1  0.65981041  0.66252395  0.33091441  1
  Cs  Cs26  1  0.66275946  0.66679356  0.66911328  1
  Sn  Sn27  1  0.16617745  0.50067729  0.16660502  1
  Sn  Sn28  1  0.16629768  0.16595042  0.49996274  1
  Sn  Sn29  1  0.83275465  0.83325043  0.83326495  1
  Sn  Sn30  1  0.16554388  0.50003595  0.83384849  1
  Sn  Sn31  1  0.16623204  0.50007653  0.49952429  1
  Sn  Sn32  1  0.83289730  0.16673458  0.83390468  1
  Sn  Sn33  1  0.83335723  0.16635524  0.16692642  1
  Sn  Sn34  1  0.16575748  0.83377807  0.49896701  1
  Sn  Sn35  1  0.50065321  0.83443541  0.83355971  1
  Sn  Sn36  1  0.83377428  0.83408569  0.16720482  1
  Sn  Sn37  1  0.16599655  0.83296610  0.16734299  1
  Sn  Sn38  1  0.83455058  0.50006664  0.83309462  1
  Sn  Sn39  1  0.83352007  0.83319557  0.49950279  1
  Sn  Sn40  1  0.50082463  0.16558289  0.83324251  1
  Pb  Pb41  1  0.16609755  0.16923649  0.83173586  1
  Pb  Pb42  1  0.16437675  0.16607982  0.16883739  1
  Pb  Pb43  1  0.83482476  0.16454309  0.49974251  1
  Pb  Pb44  1  0.83506909  0.50295570  0.50234862  1
  Pb  Pb45  1  0.16651446  0.83175200  0.83377895  1
  Pb  Pb46  1  0.49730542  0.16642841  0.50288229  1
  Pb  Pb47  1  0.50031739  0.49976842  0.83337725  1
  Pb  Pb48  1  0.49679757  0.50001892  0.16659139  1
  Pb  Pb49  1  0.49688669  0.50017553  0.49995879  1
  Pb  Pb50  1  0.50018945  0.83339661  0.16384717  1
  Pb  Pb51  1  0.83491639  0.50011453  0.16500400  1
  Pb  Pb52  1  0.49992712  0.83332578  0.50252287  1
  Pb  Pb53  1  0.50403890  0.16654505  0.16417403  1
  I  I54  1  0.16430794  -0.00319299  0.17038424  1
  I  I55  1  0.16228266  -0.00147936  0.49737889  1
  I  I56  1  0.16563612  0.00003103  0.83226421  1
  I  I57  1  0.16531965  0.33579022  0.16673254  1
  I  I58  1  0.16714728  0.33413763  0.50227847  1
  I  I59  1  0.16340613  0.33722792  0.83301129  1
  I  I60  1  0.16077163  0.66742811  0.17016266  1
  I  I61  1  0.16256543  0.66713679  0.50023070  1
  I  I62  1  0.16331754  0.66379368  0.82929741  1
  I  I63  1  0.49288658  -0.00006057  0.16753493  1
  I  I64  1  0.49557752  -0.00018806  0.49970875  1
  I  I65  1  0.50786188  -0.00032698  0.83268954  1
  I  I66  1  0.49843079  0.33307892  0.16250914  1
  I  I67  1  0.49935667  0.33319851  0.50362280  1
  I  I68  1  0.50253208  0.33054171  0.83327359  1
  I  I69  1  0.50438026  0.66698898  0.16278369  1
  I  I70  1  0.49831607  0.66701624  0.50418813  1
  I  I71  1  0.50329137  0.66923642  0.83301743  1
  I  I72  1  0.84050779  -0.00160506  0.16003660  1
  I  I73  1  0.84124090  -0.00351924  0.50594335  1
  I  I74  1  0.82887163  -0.00065652  0.83354725  1
  I  I75  1  0.83624078  0.33095099  0.15910964  1
  I  I76  1  0.83623804  0.33345736  0.50105662  1
  I  I77  1  0.83417427  0.33281832  0.83863770  1
  I  I78  1  0.83665273  0.66997692  0.16484930  1
  I  I79  1  0.84057568  0.67111692  0.50017984  1
  I  I80  1  0.83395836  0.66773065  0.83313038  1
  I  I81  1  0.16899925  0.16717523  -0.00003444  1
  I  I82  1  0.16343508  0.17162575  0.33659319  1
  I  I83  1  0.16487984  0.16505435  0.66389462  1
  I  I84  1  0.16252959  0.50558681  -0.00009656  1
  I  I85  1  0.16689548  0.50172732  0.33347910  1
  I  I86  1  0.16316398  0.50039685  0.66666271  1
  I  I87  1  0.16362543  0.82832265  0.00257121  1
  I  I88  1  0.15822633  0.82778273  0.33361854  1
  I  I89  1  0.16410442  0.83214671  0.66428215  1
  I  I90  1  0.49795626  0.16248259  -0.00395272  1
  I  I91  1  0.49962215  0.16770630  0.33333533  1
  I  I92  1  0.50765393  0.16293121  0.67077644  1
  I  I93  1  0.49590613  0.50056280  -0.00055650  1
  I  I94  1  0.50171360  0.50007339  0.33332619  1
  I  I95  1  0.49635878  0.50076658  0.66716346  1
  I  I96  1  0.50355714  0.83629226  -0.00408345  1
  I  I97  1  0.50171029  0.83243823  0.33323230  1
  I  I98  1  0.50362060  0.83638857  0.67051304  1
  I  I99  1  0.83179984  0.16167665  -0.00152812  1
  I  I100  1  0.83892187  0.16156413  0.33070823  1
  I  I101  1  0.83130998  0.16585393  0.66986673  1
  I  I102  1  0.83953039  0.50392756  -0.00346815  1
  I  I103  1  0.83524292  0.49859995  0.33339934  1
  I  I104  1  0.83962221  0.49916312  0.67077969  1
  I  I105  1  0.83421018  0.83391667  -0.00048678  1
  I  I106  1  0.84167742  0.83912302  0.33277743  1
  I  I107  1  0.83483244  0.83333367  0.66751651  1
  I  I108  1  -0.00315706  0.16438604  0.15764551  1
  I  I109  1  0.00294405  0.16878071  0.50383293  1
  I  I110  1  -0.00332450  0.16315338  0.83555433  1
  I  I111  1  0.00343406  0.50197576  0.16824749  1
  I  I112  1  0.00377894  0.49837555  0.49912793  1
  I  I113  1  -0.00004873  0.50073957  0.83277535  1
  I  I114  1  -0.00034784  0.83280670  0.16442969  1
  I  I115  1  0.00082459  0.83300724  0.50298867  1
  I  I116  1  -0.00308146  0.83576646  0.83307070  1
  I  I117  1  0.33318872  0.16761144  0.16605193  1
  I  I118  1  0.32889530  0.16529980  0.50082515  1
  I  I119  1  0.33532875  0.16295223  0.82999072  1
  I  I120  1  0.32764739  0.50633738  0.16323975  1
  I  I121  1  0.32769636  0.50401189  0.50548803  1
  I  I122  1  0.33015926  0.50090885  0.83181548  1
  I  I123  1  0.32995233  0.82805552  0.17048175  1
  I  I124  1  0.32946631  0.83171064  0.49727716  1
  I  I125  1  0.33531512  0.83572825  0.83255161  1
  I  I126  1  0.67196569  0.15809664  0.16491541  1
  I  I127  1  0.66686507  0.16457023  0.49850026  1
  I  I128  1  0.66843480  0.16728315  0.83698906  1
  I  I129  1  0.66713046  0.50106136  0.16294849  1
  I  I130  1  0.66709811  0.50079136  0.50244731  1
  I  I131  1  0.67008956  0.50101404  0.83444722  1
  I  I132  1  0.67046734  0.83807966  0.16861337  1
  I  I133  1  0.67004889  0.83516931  0.49876502  1
  I  I134  1  0.66900652  0.83149598  0.83292332  1
