# generated using pymatgen
data_Cs27Sn13Pb14I81
_symmetry_space_group_name_H-M   'P 1'
_cell_length_a   19.00571337
_cell_length_b   18.98673008
_cell_length_c   18.98673006
_cell_angle_alpha   89.99873928
_cell_angle_beta   89.99972144
_cell_angle_gamma   89.99972134
_symmetry_Int_Tables_number   1
_chemical_formula_structural   Cs27Sn13Pb14I81
_chemical_formula_sum   'Cs27 Sn13 Pb14 I81'
_cell_volume   6851.48210105
_cell_formula_units_Z   1
loop_
 _symmetry_equiv_pos_site_id
 _symmetry_equiv_pos_as_xyz
  1  'x, y, z'
loop_
 _atom_site_type_symbol
 _atom_site_label
 _atom_site_symmetry_multiplicity
 _atom_site_fract_x
 _atom_site_fract_y
 _atom_site_fract_z
 _atom_site_occupancy
  Cs  Cs0  1  0.00262876  -0.00069703  -0.00149222  1
  Cs  Cs1  1  -0.00302636  0.00134055  0.33275233  1
  Cs  Cs2  1  -0.00368364  0.00156503  0.66823178  1
  Cs  Cs3  1  0.00759880  0.33905428  0.00572108  1
  Cs  Cs4  1  -0.00485994  0.33254834  0.33079092  1
  Cs  Cs5  1  0.00262859  0.33184115  0.66596962  1
  Cs  Cs6  1  -0.00485998  0.66412432  -0.00078494  1
  Cs  Cs7  1  0.00303662  0.66656775  0.33323455  1
  Cs  Cs8  1  -0.00302627  0.66608561  0.66800710  1
  Cs  Cs9  1  0.33332767  0.00054870  -0.00124961  1
  Cs  Cs10  1  0.33437013  -0.00253234  0.33266215  1
  Cs  Cs11  1  0.33460876  0.00162181  0.66828845  1
  Cs  Cs12  1  0.32825411  0.33944716  0.00611368  1
  Cs  Cs13  1  0.33506752  0.33308506  0.33277807  1
  Cs  Cs14  1  0.33332772  0.33208387  0.66721537  1
  Cs  Cs15  1  0.33506746  0.66611136  -0.00024825  1
  Cs  Cs16  1  0.33171733  0.66923692  0.33590353  1
  Cs  Cs17  1  0.33437026  0.66599543  0.66413441  1
  Cs  Cs18  1  0.66459924  0.00022805  -0.00253884  1
  Cs  Cs19  1  0.66971186  0.00095383  0.33456139  1
  Cs  Cs20  1  0.66772738  0.00113891  0.66780550  1
  Cs  Cs21  1  0.66573764  0.33996320  0.00662998  1
  Cs  Cs22  1  0.66885907  0.33064146  0.32769347  1
  Cs  Cs23  1  0.66459919  0.33079438  0.66689479  1
  Cs  Cs24  1  0.66885919  0.66102692  -0.00269178  1
  Cs  Cs25  1  0.66605349  0.66932855  0.33599541  1
  Cs  Cs26  1  0.66971187  0.66789464  0.66762050  1
  Sn  Sn27  1  0.16654667  0.83397982  0.50064649  1
  Sn  Sn28  1  0.16655579  0.83348952  0.16631991  1
  Sn  Sn29  1  0.49928593  0.83387533  0.83390018  1
  Sn  Sn30  1  0.83300065  0.49989491  0.50042379  1
  Sn  Sn31  1  0.83253479  0.16741978  0.83408643  1
  Sn  Sn32  1  0.16744164  0.16630037  0.49990956  1
  Sn  Sn33  1  0.50037120  0.83364752  0.16546138  1
  Sn  Sn34  1  0.50037115  0.49879476  0.50031419  1
  Sn  Sn35  1  0.16655578  0.49965324  0.50015622  1
  Sn  Sn36  1  0.49928593  0.16723348  0.50054198  1
  Sn  Sn37  1  0.16744165  0.83324287  0.83296701  1
  Sn  Sn38  1  0.83300066  0.83375714  0.16656157  1
  Sn  Sn39  1  0.50055870  0.16671892  0.83338560  1
  Pb  Pb40  1  0.49993576  0.49961065  0.83129903  1
  Pb  Pb41  1  0.83326639  0.50243788  0.16910455  1
  Pb  Pb42  1  0.83326627  0.16467920  0.16309110  1
  Pb  Pb43  1  0.83301366  0.83463612  0.83534022  1
  Pb  Pb44  1  0.16687141  0.50266374  0.16933046  1
  Pb  Pb45  1  0.16678742  0.16433759  0.16948322  1
  Pb  Pb46  1  0.16747388  0.16513930  0.83180593  1
  Pb  Pb47  1  0.49987666  0.50306338  0.16973006  1
  Pb  Pb48  1  0.83301369  0.16867359  0.50130275  1
  Pb  Pb49  1  0.49866792  0.83395528  0.50062195  1
  Pb  Pb50  1  0.49993574  0.16463239  0.16627731  1
  Pb  Pb51  1  0.83632393  0.83170321  0.49836985  1
  Pb  Pb52  1  0.83326626  0.49642448  0.83134579  1
  Pb  Pb53  1  0.16678738  0.50281658  0.83100429  1
  I  I54  1  0.16716063  -0.00459278  0.17018666  1
  I  I55  1  0.17258002  -0.00045662  0.49913532  1
  I  I56  1  0.16778589  -0.00355293  0.83048289  1
  I  I57  1  0.16588218  0.33347697  0.16678745  1
  I  I58  1  0.16764020  0.33320621  0.50222832  1
  I  I59  1  0.16637526  0.33322474  0.83034173  1
  I  I60  1  0.16739194  0.67136271  0.17007736  1
  I  I61  1  0.16746980  0.66714798  0.49863933  1
  I  I62  1  0.17231569  0.67167390  0.83150703  1
  I  I63  1  0.49832215  -0.00398671  0.16930072  1
  I  I64  1  0.49462016  0.00260795  0.50052060  1
  I  I65  1  0.49987046  -0.00061609  0.83003165  1
  I  I66  1  0.50100784  0.33342417  0.16463582  1
  I  I67  1  0.49417640  0.33258068  0.50655312  1
  I  I68  1  0.50497202  0.32982178  0.82753926  1
  I  I69  1  0.49851378  0.67148462  0.16230351  1
  I  I70  1  0.49828457  0.66480159  0.49856467  1
  I  I71  1  0.49526439  0.67000236  0.83594770  1
  I  I72  1  0.83447871  -0.00375332  0.17024720  1
  I  I73  1  0.83373377  0.00012156  0.49907075  1
  I  I74  1  0.83184761  0.00221210  0.83079233  1
  I  I75  1  0.83299459  0.33348420  0.16730483  1
  I  I76  1  0.83911721  0.33642660  0.50152881  1
  I  I77  1  0.82556724  0.32873006  0.83017262  1
  I  I78  1  0.83469326  0.67068511  0.16588926  1
  I  I79  1  0.83170532  0.66370885  0.49942444  1
  I  I80  1  0.83363401  0.66664539  0.83354982  1
  I  I81  1  0.16637493  0.16367543  -0.00010860  1
  I  I82  1  0.17231563  0.16484053  0.33834055  1
  I  I83  1  0.16778607  0.16381565  0.66311374  1
  I  I84  1  0.16588212  0.50012056  0.00014366  1
  I  I85  1  0.16739176  0.50341111  0.33802942  1
  I  I86  1  0.16716088  0.50351993  0.66207391  1
  I  I87  1  0.16764047  0.83556155  -0.00012709  1
  I  I88  1  0.16747012  0.83197227  0.33381465  1
  I  I89  1  0.17257961  0.83246918  0.66621006  1
  I  I90  1  0.50497223  0.16087241  -0.00351154  1
  I  I91  1  0.49526469  0.16928149  0.33666899  1
  I  I92  1  0.49987018  0.16336483  0.66605065  1
  I  I93  1  0.50100788  0.49796956  0.00009086  1
  I  I94  1  0.49851391  0.49563666  0.33815131  1
  I  I95  1  0.49832192  0.50263392  0.66267996  1
  I  I96  1  0.49417609  0.83988631  -0.00075267  1
  I  I97  1  0.49828458  0.83189789  0.33146828  1
  I  I98  1  0.49462048  0.83385427  0.66927464  1
  I  I99  1  0.82556735  0.16350610  -0.00460328  1
  I  I100  1  0.83363381  0.16688264  0.33331207  1
  I  I101  1  0.83184772  0.16412602  0.66887871  1
  I  I102  1  0.83299453  0.50063776  0.00015086  1
  I  I103  1  0.83469332  0.49922265  0.33735175  1
  I  I104  1  0.83447867  0.50358087  0.66291338  1
  I  I105  1  0.83911727  0.83486225  0.00309324  1
  I  I106  1  0.83170506  0.83275820  0.33037550  1
  I  I107  1  0.83373383  0.83240350  0.66678822  1
  I  I108  1  0.00001689  0.16241617  0.16767369  1
  I  I109  1  0.00277629  0.16581459  0.50173158  1
  I  I110  1  -0.00147057  0.16299178  0.82965837  1
  I  I111  1  0.00012495  0.50300589  0.16967252  1
  I  I112  1  0.00106485  0.50241133  0.50006438  1
  I  I113  1  0.00001691  0.50100688  0.82908267  1
  I  I114  1  0.00106482  0.83339754  0.16907811  1
  I  I115  1  0.00484242  0.83401220  0.50067856  1
  I  I116  1  0.00277624  0.83506495  0.83248147  1
  I  I117  1  0.33336334  0.16319494  0.16364337  1
  I  I118  1  0.33356955  0.17013575  0.50565190  1
  I  I119  1  0.33650336  0.16158115  0.82824807  1
  I  I120  1  0.33336492  0.50223056  0.16889740  1
  I  I121  1  0.33300585  0.50102025  0.50021505  1
  I  I122  1  0.33336339  0.49697685  0.82986182  1
  I  I123  1  0.33300585  0.83354861  0.16768705  1
  I  I124  1  0.33042586  0.82908676  0.49575376  1
  I  I125  1  0.33356958  0.83898543  0.83680203  1
  I  I126  1  0.66654036  0.16169740  0.17354185  1
  I  I127  1  0.66353463  0.17038769  0.50193505  1
  I  I128  1  0.66478570  0.15798103  0.82464749  1
  I  I129  1  0.66654043  0.50378601  0.17045274  1
  I  I130  1  0.66586368  0.49612057  0.50012895  1
  I  I131  1  0.66654040  0.50687536  0.82836390  1
  I  I132  1  0.66586365  0.83346219  0.16278685  1
  I  I133  1  0.66675839  0.83212647  0.49879307  1
  I  I134  1  0.66353464  0.83526809  0.83705466  1
