# generated using pymatgen
data_Cs27Sn14Pb13I81
_symmetry_space_group_name_H-M   'P 1'
_cell_length_a   18.97610702
_cell_length_b   18.97411491
_cell_length_c   18.97690973
_cell_angle_alpha   89.99817778
_cell_angle_beta   90.00094908
_cell_angle_gamma   89.99923736
_symmetry_Int_Tables_number   1
_chemical_formula_structural   Cs27Sn14Pb13I81
_chemical_formula_sum   'Cs27 Sn14 Pb13 I81'
_cell_volume   6832.72810049
_cell_formula_units_Z   1
loop_
 _symmetry_equiv_pos_site_id
 _symmetry_equiv_pos_as_xyz
  1  'x, y, z'
loop_
 _atom_site_type_symbol
 _atom_site_label
 _atom_site_symmetry_multiplicity
 _atom_site_fract_x
 _atom_site_fract_y
 _atom_site_fract_z
 _atom_site_occupancy
  Cs  Cs0  1  -0.00226037  0.00020031  -0.00198216  1
  Cs  Cs1  1  -0.00050986  -0.00005593  0.33535156  1
  Cs  Cs2  1  -0.00009758  -0.00108017  0.66572776  1
  Cs  Cs3  1  0.00337686  0.33284146  -0.00038009  1
  Cs  Cs4  1  0.00087301  0.33255268  0.33185243  1
  Cs  Cs5  1  0.00066657  0.32827846  0.66731529  1
  Cs  Cs6  1  -0.00104553  0.66673139  0.00123743  1
  Cs  Cs7  1  -0.00119710  0.66637355  0.33439007  1
  Cs  Cs8  1  -0.00060220  0.66891538  0.66407150  1
  Cs  Cs9  1  0.33617247  0.00193156  0.00482999  1
  Cs  Cs10  1  0.33616680  0.00071097  0.33286409  1
  Cs  Cs11  1  0.33219305  -0.00337780  0.66398710  1
  Cs  Cs12  1  0.32559021  0.33112850  -0.00612676  1
  Cs  Cs13  1  0.33275621  0.32850282  0.33295596  1
  Cs  Cs14  1  0.34328121  0.33594570  0.67143051  1
  Cs  Cs15  1  0.33344902  0.66619275  -0.00141895  1
  Cs  Cs16  1  0.33094632  0.66904201  0.33274962  1
  Cs  Cs17  1  0.33334050  0.66776160  0.66817285  1
  Cs  Cs18  1  0.66716040  0.00069900  0.00142371  1
  Cs  Cs19  1  0.66534765  0.00065551  0.33100689  1
  Cs  Cs20  1  0.66663890  0.00084627  0.66866605  1
  Cs  Cs21  1  0.66937126  0.33524752  -0.00282160  1
  Cs  Cs22  1  0.66569902  0.33590749  0.33551166  1
  Cs  Cs23  1  0.65609090  0.33412200  0.66765719  1
  Cs  Cs24  1  0.66804264  0.66710566  0.00275929  1
  Cs  Cs25  1  0.66973986  0.66428087  0.33128522  1
  Cs  Cs26  1  0.66752099  0.66505217  0.66483707  1
  Sn  Sn27  1  0.16611025  0.16687861  0.50033302  1
  Sn  Sn28  1  0.83278199  0.49982395  0.16602084  1
  Sn  Sn29  1  0.83341535  0.16681122  0.16768871  1
  Sn  Sn30  1  0.49960493  0.49966539  0.16650510  1
  Sn  Sn31  1  0.16727340  0.83331029  0.49976634  1
  Sn  Sn32  1  0.50043879  0.83310527  0.83273622  1
  Sn  Sn33  1  0.83420957  0.83344502  0.16616729  1
  Sn  Sn34  1  0.83387722  0.50088760  0.83334281  1
  Sn  Sn35  1  0.16669637  0.49962686  0.50023050  1
  Sn  Sn36  1  0.49977863  0.83293444  0.50027606  1
  Sn  Sn37  1  0.16574615  0.83330472  0.16673370  1
  Sn  Sn38  1  0.83358378  0.16680402  0.49948947  1
  Sn  Sn39  1  0.16666178  0.83332589  0.83368361  1
  Sn  Sn40  1  0.83312967  0.83228304  0.83404116  1
  Pb  Pb41  1  0.49990133  0.16428251  0.49990074  1
  Pb  Pb42  1  0.50026917  0.83200157  0.16658381  1
  Pb  Pb43  1  0.49988965  0.16391142  0.83369353  1
  Pb  Pb44  1  0.83330259  0.16679401  0.83324466  1
  Pb  Pb45  1  0.16627280  0.50173999  0.16814914  1
  Pb  Pb46  1  0.83320207  0.83478165  0.50002930  1
  Pb  Pb47  1  0.83496943  0.49724048  0.50041553  1
  Pb  Pb48  1  0.16674158  0.16401929  0.83051289  1
  Pb  Pb49  1  0.50220832  0.50258665  0.83574830  1
  Pb  Pb50  1  0.16452663  0.16399126  0.16851045  1
  Pb  Pb51  1  0.50257525  0.17027628  0.16652202  1
  Pb  Pb52  1  0.49735153  0.50269097  0.49780605  1
  Pb  Pb53  1  0.16414950  0.50217976  0.83090651  1
  I  I54  1  0.16243218  -0.00464018  0.16818155  1
  I  I55  1  0.16599485  -0.00149838  0.50055961  1
  I  I56  1  0.16217825  -0.00504631  0.83108510  1
  I  I57  1  0.16609607  0.33321160  0.17028576  1
  I  I58  1  0.15846093  0.33287658  0.49708348  1
  I  I59  1  0.16423478  0.33355304  0.83212984  1
  I  I60  1  0.16091483  0.67038580  0.17002561  1
  I  I61  1  0.17062151  0.66860340  0.49980681  1
  I  I62  1  0.16812999  0.67094413  0.83058306  1
  I  I63  1  0.50045618  -0.00021981  0.16681480  1
  I  I64  1  0.49437541  -0.00390264  0.50254780  1
  I  I65  1  0.50355201  -0.00526382  0.82995042  1
  I  I66  1  0.50594757  0.33795434  0.16930350  1
  I  I67  1  0.49924885  0.33355856  0.49879137  1
  I  I68  1  0.50265807  0.33409507  0.83324784  1
  I  I69  1  0.50722671  0.66469193  0.16739949  1
  I  I70  1  0.49494186  0.67063961  0.50373876  1
  I  I71  1  0.49740913  0.67081002  0.82932996  1
  I  I72  1  0.83849618  -0.00119782  0.16663744  1
  I  I73  1  0.83872161  0.00244436  0.49618200  1
  I  I74  1  0.83379656  -0.00358983  0.83605537  1
  I  I75  1  0.82785663  0.33391530  0.16735381  1
  I  I76  1  0.84033368  0.32964594  0.49553514  1
  I  I77  1  0.83403444  0.33625866  0.83698990  1
  I  I78  1  0.83323812  0.66723449  0.16227093  1
  I  I79  1  0.83435038  0.66673666  0.49757115  1
  I  I80  1  0.83360911  0.66840347  0.84117092  1
  I  I81  1  0.16534349  0.16552731  0.00005304  1
  I  I82  1  0.16412434  0.16310800  0.33675974  1
  I  I83  1  0.15779369  0.16292710  0.66215348  1
  I  I84  1  0.16843268  0.50229415  -0.00009114  1
  I  I85  1  0.16370464  0.50493973  0.33615686  1
  I  I86  1  0.16399886  0.50368459  0.66298579  1
  I  I87  1  0.16532310  0.83187945  0.00000516  1
  I  I88  1  0.16656735  0.83299176  0.33409390  1
  I  I89  1  0.16671495  0.83378640  0.66610930  1
  I  I90  1  0.50275317  0.16187948  0.00034588  1
  I  I91  1  0.49879926  0.16242651  0.33327646  1
  I  I92  1  0.50368492  0.16928554  0.66641229  1
  I  I93  1  0.50277563  0.50475060  0.00329604  1
  I  I94  1  0.50905660  0.50400451  0.33048247  1
  I  I95  1  0.50117953  0.49908228  0.66678447  1
  I  I96  1  0.49795204  0.83132576  -0.00252882  1
  I  I97  1  0.49562265  0.83246649  0.33543669  1
  I  I98  1  0.49664632  0.83336925  0.66679341  1
  I  I99  1  0.83194245  0.16526679  0.00302253  1
  I  I100  1  0.83782072  0.16512787  0.33270715  1
  I  I101  1  0.83883447  0.16398704  0.66390330  1
  I  I102  1  0.82958149  0.50033972  0.00116787  1
  I  I103  1  0.83143479  0.50373237  0.33035937  1
  I  I104  1  0.83672654  0.50642527  0.66921353  1
  I  I105  1  0.83606737  0.83465673  0.00050748  1
  I  I106  1  0.83611475  0.83083479  0.33050470  1
  I  I107  1  0.83546130  0.83069322  0.66932802  1
  I  I108  1  -0.00379442  0.17081565  0.16860099  1
  I  I109  1  0.00040663  0.16279629  0.49621086  1
  I  I110  1  -0.00016617  0.16353598  0.83391497  1
  I  I111  1  -0.00345598  0.49951624  0.16440981  1
  I  I112  1  0.00272348  0.50775065  0.49776971  1
  I  I113  1  -0.00372340  0.50643771  0.84077827  1
  I  I114  1  -0.00099644  0.83122709  0.16513875  1
  I  I115  1  0.00286320  0.83247708  0.50169194  1
  I  I116  1  -0.00032245  0.83012313  0.83318440  1
  I  I117  1  0.33306901  0.16531120  0.16888079  1
  I  I118  1  0.33006535  0.16600908  0.50011108  1
  I  I119  1  0.33310798  0.16646566  0.83179202  1
  I  I120  1  0.33509620  0.50588118  0.17069596  1
  I  I121  1  0.32939683  0.49707927  0.49778738  1
  I  I122  1  0.33327638  0.50127688  0.83406175  1
  I  I123  1  0.33079475  0.83043579  0.16568895  1
  I  I124  1  0.33142664  0.83514813  0.50241190  1
  I  I125  1  0.33268663  0.83452557  0.83120059  1
  I  I126  1  0.67136420  0.15854986  0.17327896  1
  I  I127  1  0.66956680  0.16414537  0.49596378  1
  I  I128  1  0.66715094  0.16344839  0.83009224  1
  I  I129  1  0.66911296  0.50385262  0.16446061  1
  I  I130  1  0.66671185  0.50023262  0.50142682  1
  I  I131  1  0.67033640  0.50596407  0.83379947  1
  I  I132  1  0.66994202  0.83473738  0.16422554  1
  I  I133  1  0.66455385  0.83557993  0.50282391  1
  I  I134  1  0.66765481  0.83006641  0.83333678  1
