# generated using pymatgen
data_Cs27Sn14Pb13I81
_symmetry_space_group_name_H-M   'P 1'
_cell_length_a   18.97027246
_cell_length_b   18.97823059
_cell_length_c   18.97927913
_cell_angle_alpha   90.00163317
_cell_angle_beta   89.99966217
_cell_angle_gamma   90.00131852
_symmetry_Int_Tables_number   1
_chemical_formula_structural   Cs27Sn14Pb13I81
_chemical_formula_sum   'Cs27 Sn14 Pb13 I81'
_cell_volume   6832.96191730
_cell_formula_units_Z   1
loop_
 _symmetry_equiv_pos_site_id
 _symmetry_equiv_pos_as_xyz
  1  'x, y, z'
loop_
 _atom_site_type_symbol
 _atom_site_label
 _atom_site_symmetry_multiplicity
 _atom_site_fract_x
 _atom_site_fract_y
 _atom_site_fract_z
 _atom_site_occupancy
  Cs  Cs0  1  0.00131986  -0.00070560  0.00081377  1
  Cs  Cs1  1  0.00019638  -0.00105469  0.33012937  1
  Cs  Cs2  1  -0.00184138  0.00308388  0.66873231  1
  Cs  Cs3  1  -0.00005198  0.33840406  0.00190828  1
  Cs  Cs4  1  -0.00249930  0.33572369  0.33400178  1
  Cs  Cs5  1  0.00375139  0.32767577  0.66500096  1
  Cs  Cs6  1  -0.00404553  0.66436025  0.00015833  1
  Cs  Cs7  1  -0.00014403  0.66616050  0.33587362  1
  Cs  Cs8  1  0.00142644  0.66796846  0.66375237  1
  Cs  Cs9  1  0.33158047  0.00104929  0.00351061  1
  Cs  Cs10  1  0.33304312  -0.00004221  0.32691911  1
  Cs  Cs11  1  0.33271056  -0.00087128  0.66772773  1
  Cs  Cs12  1  0.33383777  0.33183966  -0.00078080  1
  Cs  Cs13  1  0.33471076  0.33314701  0.33155428  1
  Cs  Cs14  1  0.33147235  0.33326137  0.66934687  1
  Cs  Cs15  1  0.33462017  0.66687923  -0.00025836  1
  Cs  Cs16  1  0.33435422  0.66733559  0.33535208  1
  Cs  Cs17  1  0.33351122  0.66615007  0.66471511  1
  Cs  Cs18  1  0.66757222  -0.00167878  0.00005310  1
  Cs  Cs19  1  0.66651913  -0.00009305  0.33467663  1
  Cs  Cs20  1  0.67100206  0.00408457  0.66431660  1
  Cs  Cs21  1  0.66629055  0.33749903  -0.00740567  1
  Cs  Cs22  1  0.66805649  0.33275129  0.33486466  1
  Cs  Cs23  1  0.66582362  0.32491126  0.67045197  1
  Cs  Cs24  1  0.66817742  0.66577827  0.00109343  1
  Cs  Cs25  1  0.66585813  0.66733828  0.33246725  1
  Cs  Cs26  1  0.66409139  0.66839295  0.66566318  1
  Sn  Sn27  1  0.16733104  0.16623051  0.49959952  1
  Sn  Sn28  1  0.83269423  0.83244913  0.49916115  1
  Sn  Sn29  1  0.16721277  0.83301770  0.83337637  1
  Sn  Sn30  1  0.83257664  0.83410491  0.16763255  1
  Sn  Sn31  1  0.50055746  0.83287763  0.49992945  1
  Sn  Sn32  1  0.16769941  0.50060846  0.16622549  1
  Sn  Sn33  1  0.83276821  0.16612095  0.16646622  1
  Sn  Sn34  1  0.49935164  0.83330570  0.83328084  1
  Sn  Sn35  1  0.16678732  0.16640428  0.83296061  1
  Sn  Sn36  1  0.49930282  0.50069172  0.16732015  1
  Sn  Sn37  1  0.50072696  0.83249973  0.16676938  1
  Sn  Sn38  1  0.50116688  0.50023463  0.49959489  1
  Sn  Sn39  1  0.16675016  0.50056862  0.83411449  1
  Sn  Sn40  1  0.83195383  0.50045945  0.50046077  1
  Pb  Pb41  1  0.83243481  0.50066932  0.16821992  1
  Pb  Pb42  1  0.16732428  0.49860224  0.49996838  1
  Pb  Pb43  1  0.83512358  0.16620462  0.49838867  1
  Pb  Pb44  1  0.83576624  0.16670197  0.83638571  1
  Pb  Pb45  1  0.16647662  0.83099617  0.16458402  1
  Pb  Pb46  1  0.16675259  0.83539723  0.50188172  1
  Pb  Pb47  1  0.49767078  0.16654417  0.49981667  1
  Pb  Pb48  1  0.16489399  0.16924281  0.16632341  1
  Pb  Pb49  1  0.83579387  0.50015844  0.82935430  1
  Pb  Pb50  1  0.83294512  0.83312487  0.83305417  1
  Pb  Pb51  1  0.49834567  0.50196636  0.83292479  1
  Pb  Pb52  1  0.50261074  0.16714366  0.16662463  1
  Pb  Pb53  1  0.49768023  0.16343430  0.83349731  1
  I  I54  1  0.16836405  -0.00024360  0.16571855  1
  I  I55  1  0.16580402  0.00288159  0.50586590  1
  I  I56  1  0.17048898  -0.00031530  0.82813254  1
  I  I57  1  0.17011741  0.33705988  0.16201375  1
  I  I58  1  0.16550783  0.33102016  0.50538386  1
  I  I59  1  0.16489901  0.33356644  0.83261285  1
  I  I60  1  0.16584024  0.66319596  0.16244491  1
  I  I61  1  0.16539762  0.66682448  0.50157347  1
  I  I62  1  0.17069140  0.66680890  0.83750800  1
  I  I63  1  0.50108077  -0.00361412  0.16781075  1
  I  I64  1  0.50343377  -0.00385188  0.49976966  1
  I  I65  1  0.49438515  -0.00507716  0.83353275  1
  I  I66  1  0.49655944  0.33696073  0.17186953  1
  I  I67  1  0.50264541  0.33678865  0.49428509  1
  I  I68  1  0.49853281  0.33355769  0.83370639  1
  I  I69  1  0.50144179  0.66754849  0.16710340  1
  I  I70  1  0.50263612  0.66734829  0.49919026  1
  I  I71  1  0.49299169  0.67011996  0.83299866  1
  I  I72  1  0.82975596  -0.00219962  0.17248699  1
  I  I73  1  0.82960537  -0.00327525  0.49845260  1
  I  I74  1  0.83592233  -0.00026482  0.82923537  1
  I  I75  1  0.83666420  0.33208084  0.16908781  1
  I  I76  1  0.83163383  0.33579592  0.49720041  1
  I  I77  1  0.83472990  0.33346672  0.83455489  1
  I  I78  1  0.83254768  0.66956143  0.16830274  1
  I  I79  1  0.83181506  0.66766492  0.49370151  1
  I  I80  1  0.83823810  0.66679106  0.83872321  1
  I  I81  1  0.16508846  0.16478486  -0.00286054  1
  I  I82  1  0.16493714  0.16872792  0.33511812  1
  I  I83  1  0.16576444  0.16949251  0.66769883  1
  I  I84  1  0.17155500  0.49783903  0.00002794  1
  I  I85  1  0.16705438  0.49747606  0.33121339  1
  I  I86  1  0.16612399  0.50098701  0.66910678  1
  I  I87  1  0.17069875  0.83827450  -0.00346016  1
  I  I88  1  0.16830933  0.83412208  0.33322719  1
  I  I89  1  0.17050861  0.82836252  0.66998101  1
  I  I90  1  0.49789447  0.16691689  0.00014080  1
  I  I91  1  0.49477007  0.16273675  0.33324498  1
  I  I92  1  0.50158571  0.16745127  0.66660332  1
  I  I93  1  0.49736301  0.50404652  0.00273575  1
  I  I94  1  0.49682044  0.50784076  0.33314933  1
  I  I95  1  0.50124278  0.50524990  0.66367701  1
  I  I96  1  0.49957827  0.82986178  0.00100223  1
  I  I97  1  0.50490896  0.82908866  0.33327884  1
  I  I98  1  0.49858017  0.82874230  0.66576955  1
  I  I99  1  0.83507287  0.15969440  0.00411643  1
  I  I100  1  0.83777669  0.16497667  0.33083959  1
  I  I101  1  0.83395394  0.16640009  0.66659475  1
  I  I102  1  0.83259569  0.49955350  0.00003605  1
  I  I103  1  0.83626063  0.50106481  0.33605133  1
  I  I104  1  0.82887584  0.50741742  0.66149162  1
  I  I105  1  0.83110592  0.83739153  0.00294412  1
  I  I106  1  0.82656445  0.83358595  0.33338415  1
  I  I107  1  0.83118966  0.82893447  0.66343721  1
  I  I108  1  -0.00272676  0.16091048  0.16688924  1
  I  I109  1  0.00287692  0.16785866  0.50441769  1
  I  I110  1  0.00418281  0.16332179  0.82840138  1
  I  I111  1  0.00176706  0.49922009  0.16389505  1
  I  I112  1  -0.00192732  0.50317888  0.49941670  1
  I  I113  1  0.00447180  0.50280547  0.83984059  1
  I  I114  1  -0.00268964  0.83547651  0.16978432  1
  I  I115  1  -0.00281639  0.82978181  0.49650923  1
  I  I116  1  0.00296412  0.83408002  0.83326798  1
  I  I117  1  0.33321934  0.16446201  0.16634046  1
  I  I118  1  0.32981608  0.16758727  0.50431238  1
  I  I119  1  0.32927029  0.16957353  0.83040548  1
  I  I120  1  0.33430597  0.50492268  0.16915638  1
  I  I121  1  0.33621135  0.50456230  0.49888258  1
  I  I122  1  0.32993854  0.49823920  0.83230291  1
  I  I123  1  0.33631549  0.83109973  0.16964448  1
  I  I124  1  0.33654638  0.82927162  0.49794188  1
  I  I125  1  0.33345651  0.83337877  0.83277122  1
  I  I126  1  0.67031791  0.16574610  0.17014568  1
  I  I127  1  0.66670123  0.16718990  0.49871386  1
  I  I128  1  0.66669342  0.16595150  0.83335979  1
  I  I129  1  0.66359593  0.50164119  0.16948514  1
  I  I130  1  0.66579037  0.50454518  0.49233300  1
  I  I131  1  0.66641156  0.50220369  0.83742901  1
  I  I132  1  0.66580295  0.83140776  0.16476660  1
  I  I133  1  0.66613674  0.82963478  0.50118297  1
  I  I134  1  0.66341637  0.83162012  0.83403441  1
