# generated using pymatgen
data_Cs27Sn13Pb14I81
_symmetry_space_group_name_H-M   'P 1'
_cell_length_a   18.97875245
_cell_length_b   18.96758282
_cell_length_c   18.98389109
_cell_angle_alpha   90.00140872
_cell_angle_beta   89.99887922
_cell_angle_gamma   90.00137200
_symmetry_Int_Tables_number   1
_chemical_formula_structural   Cs27Sn13Pb14I81
_chemical_formula_sum   'Cs27 Sn13 Pb14 I81'
_cell_volume   6833.84120858
_cell_formula_units_Z   1
loop_
 _symmetry_equiv_pos_site_id
 _symmetry_equiv_pos_as_xyz
  1  'x, y, z'
loop_
 _atom_site_type_symbol
 _atom_site_label
 _atom_site_symmetry_multiplicity
 _atom_site_fract_x
 _atom_site_fract_y
 _atom_site_fract_z
 _atom_site_occupancy
  Cs  Cs0  1  -0.00436648  0.00220934  -0.00115913  1
  Cs  Cs1  1  -0.00136659  -0.00055756  0.33107612  1
  Cs  Cs2  1  -0.00074905  -0.00092553  0.66897153  1
  Cs  Cs3  1  0.00072482  0.32958869  0.00320681  1
  Cs  Cs4  1  0.01070334  0.33647369  0.33664039  1
  Cs  Cs5  1  -0.00080639  0.33418085  0.66143432  1
  Cs  Cs6  1  0.00119691  0.66707562  -0.00034905  1
  Cs  Cs7  1  -0.00170502  0.66482828  0.33400105  1
  Cs  Cs8  1  -0.00019211  0.66566954  0.66681787  1
  Cs  Cs9  1  0.33228265  -0.00121412  0.00078229  1
  Cs  Cs10  1  0.33401572  0.00250475  0.33488901  1
  Cs  Cs11  1  0.33142072  -0.00140196  0.66418658  1
  Cs  Cs12  1  0.33252391  0.33496533  -0.00037583  1
  Cs  Cs13  1  0.32583083  0.32485723  0.33260638  1
  Cs  Cs14  1  0.33334134  0.33039375  0.66900078  1
  Cs  Cs15  1  0.33277649  0.66567711  -0.00173663  1
  Cs  Cs16  1  0.33799818  0.66899361  0.33130484  1
  Cs  Cs17  1  0.33431009  0.66850161  0.67172255  1
  Cs  Cs18  1  0.67116234  0.00536910  0.00088223  1
  Cs  Cs19  1  0.66668769  -0.00077595  0.33174211  1
  Cs  Cs20  1  0.66793578  0.00045521  0.66654278  1
  Cs  Cs21  1  0.66623919  0.32894980  -0.00392185  1
  Cs  Cs22  1  0.66479180  0.33823465  0.33368419  1
  Cs  Cs23  1  0.66642636  0.33170132  0.67077916  1
  Cs  Cs24  1  0.66622771  0.66658478  0.00221769  1
  Cs  Cs25  1  0.66600226  0.66685420  0.33267602  1
  Cs  Cs26  1  0.66715572  0.66666501  0.66521519  1
  Sn  Sn27  1  0.83329493  0.83414832  0.50064449  1
  Sn  Sn28  1  0.16674880  0.16658263  0.83321811  1
  Sn  Sn29  1  0.50126151  0.83336143  0.83362517  1
  Sn  Sn30  1  0.83238157  0.83237788  0.83277373  1
  Sn  Sn31  1  0.50080275  0.50064492  0.16751815  1
  Sn  Sn32  1  0.83286967  0.16602701  0.49930428  1
  Sn  Sn33  1  0.49972273  0.50055984  0.49936933  1
  Sn  Sn34  1  0.16653927  0.83285891  0.49905826  1
  Sn  Sn35  1  0.83269240  0.50008202  0.16579422  1
  Sn  Sn36  1  0.83336096  0.50084949  0.83446999  1
  Sn  Sn37  1  0.16724914  0.83300458  0.16743681  1
  Sn  Sn38  1  0.50014042  0.83264583  0.50001722  1
  Sn  Sn39  1  0.49941292  0.83302356  0.16651002  1
  Pb  Pb40  1  0.16441214  0.16388928  0.50159705  1
  Pb  Pb41  1  0.17059279  0.50287984  0.50012368  1
  Pb  Pb42  1  0.16367455  0.49733150  0.83329939  1
  Pb  Pb43  1  0.50020670  0.16698778  0.16675693  1
  Pb  Pb44  1  0.50177615  0.50191879  0.83358118  1
  Pb  Pb45  1  0.83299831  0.83203950  0.16674151  1
  Pb  Pb46  1  0.16744273  0.50236657  0.16672307  1
  Pb  Pb47  1  0.83328465  0.17070305  0.17004429  1
  Pb  Pb48  1  0.16664183  0.16341411  0.16453240  1
  Pb  Pb49  1  0.16626644  0.83420638  0.83348046  1
  Pb  Pb50  1  0.83472986  0.16668845  0.83163479  1
  Pb  Pb51  1  0.49773561  0.16349747  0.83323843  1
  Pb  Pb52  1  0.50199666  0.16652671  0.49992437  1
  Pb  Pb53  1  0.83166577  0.50048913  0.49987424  1
  I  I54  1  0.17259369  -0.00477210  0.17097627  1
  I  I55  1  0.17211403  -0.00447537  0.49738718  1
  I  I56  1  0.16459773  0.00150324  0.83279222  1
  I  I57  1  0.16663746  0.33334777  0.16544682  1
  I  I58  1  0.16525508  0.33320112  0.50133940  1
  I  I59  1  0.16547446  0.32976087  0.83267781  1
  I  I60  1  0.16825517  0.67058632  0.16903423  1
  I  I61  1  0.15969606  0.67135643  0.49824360  1
  I  I62  1  0.16755258  0.66697909  0.83321748  1
  I  I63  1  0.49590582  -0.00413028  0.16821464  1
  I  I64  1  0.49809516  -0.00414668  0.49970577  1
  I  I65  1  0.50647589  -0.00534178  0.83240496  1
  I  I66  1  0.50498449  0.33740182  0.17137904  1
  I  I67  1  0.50401770  0.33657364  0.49545246  1
  I  I68  1  0.50092878  0.33361460  0.83280220  1
  I  I69  1  0.50031277  0.66799366  0.16823394  1
  I  I70  1  0.50283141  0.66880304  0.49889494  1
  I  I71  1  0.50026403  0.67055821  0.83233472  1
  I  I72  1  0.83361636  -0.00013166  0.16403691  1
  I  I73  1  0.83182768  -0.00295812  0.50621418  1
  I  I74  1  0.83130029  -0.00323365  0.83079345  1
  I  I75  1  0.82595611  0.33851711  0.16019171  1
  I  I76  1  0.83082517  0.33174378  0.50113752  1
  I  I77  1  0.83473820  0.33609999  0.83512065  1
  I  I78  1  0.83169378  0.66421989  0.16751021  1
  I  I79  1  0.83445343  0.67000750  0.50161186  1
  I  I80  1  0.83050217  0.66815681  0.83032990  1
  I  I81  1  0.16431191  0.16346643  -0.00295764  1
  I  I82  1  0.16562096  0.16782152  0.33350552  1
  I  I83  1  0.16570674  0.16276138  0.66899376  1
  I  I84  1  0.17042395  0.50322068  0.00006698  1
  I  I85  1  0.15958859  0.49759004  0.33344745  1
  I  I86  1  0.16568556  0.50288551  0.66655572  1
  I  I87  1  0.17034598  0.83459500  0.00232637  1
  I  I88  1  0.16922403  0.83328076  0.33397989  1
  I  I89  1  0.16890348  0.83545496  0.66413780  1
  I  I90  1  0.50064175  0.16587063  -0.00011633  1
  I  I91  1  0.50028352  0.16222214  0.33346812  1
  I  I92  1  0.50005227  0.16756323  0.66658740  1
  I  I93  1  0.50199045  0.50563545  0.00296495  1
  I  I94  1  0.50824785  0.51049431  0.33285626  1
  I  I95  1  0.50205082  0.50546921  0.66419465  1
  I  I96  1  0.49826598  0.82921092  0.00050560  1
  I  I97  1  0.49978473  0.82944788  0.33376937  1
  I  I98  1  0.50003316  0.82972809  0.66580801  1
  I  I99  1  0.83509930  0.16407195  0.00000029  1
  I  I100  1  0.83275500  0.15732356  0.33746497  1
  I  I101  1  0.83421481  0.16561807  0.66396326  1
  I  I102  1  0.82826217  0.50674090  -0.00021796  1
  I  I103  1  0.83009081  0.50119301  0.33115013  1
  I  I104  1  0.83209803  0.50151217  0.66862341  1
  I  I105  1  0.83145263  0.83103303  -0.00255270  1
  I  I106  1  0.83177800  0.83519098  0.33616945  1
  I  I107  1  0.83107030  0.83169485  0.66636902  1
  I  I108  1  -0.00017012  0.16532949  0.16599625  1
  I  I109  1  -0.00343448  0.16233240  0.50161992  1
  I  I110  1  0.00207929  0.16231931  0.83202020  1
  I  I111  1  -0.00267433  0.50187680  0.16260028  1
  I  I112  1  -0.00008587  0.50015105  0.49991604  1
  I  I113  1  -0.00468751  0.50822971  0.83754121  1
  I  I114  1  0.00183090  0.83185985  0.16942214  1
  I  I115  1  -0.00081049  0.83822187  0.50081129  1
  I  I116  1  -0.00296022  0.83177711  0.83007492  1
  I  I117  1  0.33330346  0.16989901  0.16662065  1
  I  I118  1  0.33312838  0.16639174  0.50113745  1
  I  I119  1  0.33023062  0.16413924  0.83235473  1
  I  I120  1  0.33712310  0.50347734  0.17050475  1
  I  I121  1  0.33856652  0.50545640  0.49428318  1
  I  I122  1  0.33367932  0.50087475  0.83352765  1
  I  I123  1  0.33480375  0.82866240  0.16850208  1
  I  I124  1  0.33432837  0.82880404  0.50033086  1
  I  I125  1  0.33591543  0.83529219  0.83083609  1
  I  I126  1  0.66696123  0.16047237  0.16531894  1
  I  I127  1  0.66978043  0.15966924  0.50255592  1
  I  I128  1  0.66688615  0.16755444  0.83207706  1
  I  I129  1  0.66581178  0.50760730  0.16773566  1
  I  I130  1  0.66392215  0.50687770  0.49845487  1
  I  I131  1  0.66985429  0.50186575  0.83358424  1
  I  I132  1  0.66377945  0.83043390  0.16916539  1
  I  I133  1  0.66643093  0.83324689  0.50088960  1
  I  I134  1  0.66704970  0.82988244  0.82944190  1
