# generated using pymatgen
data_Cs27Sn14Pb13I81
_symmetry_space_group_name_H-M   'P 1'
_cell_length_a   18.98258578
_cell_length_b   18.97219091
_cell_length_c   18.97087551
_cell_angle_alpha   90.00120951
_cell_angle_beta   90.00136882
_cell_angle_gamma   89.99889352
_symmetry_Int_Tables_number   1
_chemical_formula_structural   Cs27Sn14Pb13I81
_chemical_formula_sum   'Cs27 Sn14 Pb13 I81'
_cell_volume   6832.19464890
_cell_formula_units_Z   1
loop_
 _symmetry_equiv_pos_site_id
 _symmetry_equiv_pos_as_xyz
  1  'x, y, z'
loop_
 _atom_site_type_symbol
 _atom_site_label
 _atom_site_symmetry_multiplicity
 _atom_site_fract_x
 _atom_site_fract_y
 _atom_site_fract_z
 _atom_site_occupancy
  Cs  Cs0  1  -0.00426156  -0.00111011  -0.00185290  1
  Cs  Cs1  1  -0.00048116  0.00149252  0.33501146  1
  Cs  Cs2  1  0.01129406  -0.00048336  0.66583847  1
  Cs  Cs3  1  -0.00279882  0.33636155  0.00289829  1
  Cs  Cs4  1  0.00105978  0.33412445  0.33124845  1
  Cs  Cs5  1  0.00159001  0.33270427  0.66562193  1
  Cs  Cs6  1  -0.00013275  0.66596970  -0.00000010  1
  Cs  Cs7  1  -0.00200819  0.66380939  0.33228821  1
  Cs  Cs8  1  -0.00247913  0.66911238  0.66757683  1
  Cs  Cs9  1  0.33407378  -0.00281671  -0.00072102  1
  Cs  Cs10  1  0.33669556  0.00065694  0.33431843  1
  Cs  Cs11  1  0.31980754  0.00175015  0.66786551  1
  Cs  Cs12  1  0.33521631  0.33561966  0.00154636  1
  Cs  Cs13  1  0.33161330  0.33227786  0.33164702  1
  Cs  Cs14  1  0.33751885  0.33170147  0.66859612  1
  Cs  Cs15  1  0.33245952  0.66611611  0.00167540  1
  Cs  Cs16  1  0.33679148  0.66821577  0.33026416  1
  Cs  Cs17  1  0.33578669  0.66711072  0.66631403  1
  Cs  Cs18  1  0.66971825  -0.00156207  -0.00132917  1
  Cs  Cs19  1  0.66403782  0.00101906  0.33428718  1
  Cs  Cs20  1  0.66788689  0.00117411  0.66819493  1
  Cs  Cs21  1  0.66767086  0.33116972  -0.00179702  1
  Cs  Cs22  1  0.66682839  0.33077675  0.33505863  1
  Cs  Cs23  1  0.66104672  0.33334780  0.66617730  1
  Cs  Cs24  1  0.66852275  0.66947762  -0.00056608  1
  Cs  Cs25  1  0.66593187  0.66941483  0.33981421  1
  Cs  Cs26  1  0.66708054  0.66534102  0.66155384  1
  Sn  Sn27  1  0.83245873  0.83243533  0.83373895  1
  Sn  Sn28  1  0.83396709  0.83247732  0.16651377  1
  Sn  Sn29  1  0.50087113  0.49947883  0.16668482  1
  Sn  Sn30  1  0.16604749  0.50004240  0.83329384  1
  Sn  Sn31  1  0.16676002  0.50032766  0.50005036  1
  Sn  Sn32  1  0.83295891  0.16664263  0.50018942  1
  Sn  Sn33  1  0.16561111  0.83347330  0.16668777  1
  Sn  Sn34  1  0.16670220  0.50008211  0.16655823  1
  Sn  Sn35  1  0.83247878  0.50087004  0.16630788  1
  Sn  Sn36  1  0.50070537  0.83341588  0.83309290  1
  Sn  Sn37  1  0.50063622  0.16635555  0.49955810  1
  Sn  Sn38  1  0.49956326  0.16731738  0.16688075  1
  Sn  Sn39  1  0.16723395  0.16633521  0.16639004  1
  Sn  Sn40  1  0.83370883  0.50060401  0.83390233  1
  Pb  Pb41  1  0.16709403  0.16870962  0.49777295  1
  Pb  Pb42  1  0.16646781  0.16992666  0.83690123  1
  Pb  Pb43  1  0.83353537  0.16686466  0.83047149  1
  Pb  Pb44  1  0.83305575  0.16658482  0.16777956  1
  Pb  Pb45  1  0.50060190  0.83352042  0.16564236  1
  Pb  Pb46  1  0.49991242  0.16401782  0.83389694  1
  Pb  Pb47  1  0.83485707  0.49824114  0.50016494  1
  Pb  Pb48  1  0.49981493  0.83642392  0.50348771  1
  Pb  Pb49  1  0.16594347  0.83095506  0.83552622  1
  Pb  Pb50  1  0.50064897  0.50174674  0.83551450  1
  Pb  Pb51  1  0.83344649  0.83571269  0.50024966  1
  Pb  Pb52  1  0.16657843  0.83024686  0.49665826  1
  Pb  Pb53  1  0.49760595  0.49812201  0.49730783  1
  I  I54  1  0.16708483  -0.00004983  0.16712347  1
  I  I55  1  0.16675193  0.00022368  0.49914926  1
  I  I56  1  0.16650288  -0.00025455  0.83398092  1
  I  I57  1  0.16691157  0.33485561  0.16709048  1
  I  I58  1  0.16572506  0.33646282  0.49633560  1
  I  I59  1  0.16111730  0.33811049  0.83575523  1
  I  I60  1  0.16680943  0.66515830  0.16627709  1
  I  I61  1  0.16502541  0.66225716  0.49751066  1
  I  I62  1  0.16568325  0.66294917  0.83705146  1
  I  I63  1  0.49612325  0.00265946  0.16932308  1
  I  I64  1  0.50383768  0.00420269  0.48989722  1
  I  I65  1  0.50751234  -0.00367403  0.83711952  1
  I  I66  1  0.49592840  0.33366505  0.16925100  1
  I  I67  1  0.50369323  0.33021651  0.49881253  1
  I  I68  1  0.49976802  0.33343763  0.83204168  1
  I  I69  1  0.49578542  0.66411874  0.16363880  1
  I  I70  1  0.49866869  0.66654645  0.49841576  1
  I  I71  1  0.50071980  0.66934132  0.83772230  1
  I  I72  1  0.83664091  -0.00272167  0.16344258  1
  I  I73  1  0.82938146  0.00346686  0.49727723  1
  I  I74  1  0.82827031  -0.00325562  0.83895770  1
  I  I75  1  0.83648208  0.33639422  0.16398099  1
  I  I76  1  0.83051821  0.33063596  0.49799557  1
  I  I77  1  0.83809986  0.33691197  0.83879107  1
  I  I78  1  0.83732861  0.66577323  0.16312371  1
  I  I79  1  0.83520536  0.66651071  0.49934929  1
  I  I80  1  0.83416334  0.66614975  0.83841417  1
  I  I81  1  0.17247139  0.16872433  0.00505554  1
  I  I82  1  0.16731915  0.17014990  0.32956715  1
  I  I83  1  0.16724723  0.16776772  0.66661349  1
  I  I84  1  0.16601031  0.49988312  0.00173517  1
  I  I85  1  0.16605364  0.49896299  0.33099541  1
  I  I86  1  0.16076779  0.49941722  0.66741474  1
  I  I87  1  0.16618038  0.83108965  0.00378071  1
  I  I88  1  0.16156690  0.83114367  0.32824194  1
  I  I89  1  0.16671397  0.83300766  0.66689836  1
  I  I90  1  0.49509501  0.17050811  0.00352631  1
  I  I91  1  0.49979955  0.17044089  0.33184087  1
  I  I92  1  0.50536931  0.16617227  0.66397489  1
  I  I93  1  0.49448290  0.49389759  0.00389494  1
  I  I94  1  0.49984201  0.49981783  0.32877620  1
  I  I95  1  0.49873868  0.49908440  0.66670088  1
  I  I96  1  0.50138298  0.83481267  -0.00194479  1
  I  I97  1  0.49955566  0.83174165  0.33319097  1
  I  I98  1  0.50765639  0.83127642  0.67118041  1
  I  I99  1  0.83339785  0.16661074  0.00008000  1
  I  I100  1  0.83265377  0.16765869  0.33533006  1
  I  I101  1  0.82624420  0.16832534  0.66282737  1
  I  I102  1  0.83866306  0.50253772  0.00124890  1
  I  I103  1  0.83533621  0.50248091  0.32986687  1
  I  I104  1  0.83888511  0.50329319  0.66979909  1
  I  I105  1  0.83356868  0.83028748  0.00076581  1
  I  I106  1  0.83784861  0.82893308  0.32994328  1
  I  I107  1  0.82806328  0.82840233  0.67014422  1
  I  I108  1  0.00230706  0.16991158  0.16882465  1
  I  I109  1  -0.00156826  0.16804282  0.49835974  1
  I  I110  1  0.00002366  0.16175638  0.83162008  1
  I  I111  1  0.00061897  0.49973109  0.16622770  1
  I  I112  1  0.00267965  0.49604999  0.49386377  1
  I  I113  1  -0.00041566  0.50483061  0.83891120  1
  I  I114  1  -0.00039877  0.83040136  0.16129034  1
  I  I115  1  0.00005047  0.83837741  0.50421545  1
  I  I116  1  -0.00298989  0.83111891  0.83610537  1
  I  I117  1  0.33338103  0.17042957  0.17223641  1
  I  I118  1  0.33582916  0.16822321  0.49655086  1
  I  I119  1  0.33319214  0.16520079  0.82831058  1
  I  I120  1  0.33197269  0.49933970  0.16673392  1
  I  I121  1  0.32963881  0.49750153  0.49988829  1
  I  I122  1  0.33086839  0.50116502  0.83546605  1
  I  I123  1  0.33111351  0.83023028  0.16477199  1
  I  I124  1  0.33318471  0.83539055  0.50036644  1
  I  I125  1  0.33470890  0.83292680  0.83571612  1
  I  I126  1  0.66411811  0.17010957  0.16929571  1
  I  I127  1  0.66587341  0.16764148  0.49258669  1
  I  I128  1  0.66674004  0.17051240  0.83741969  1
  I  I129  1  0.66756816  0.49908905  0.16111256  1
  I  I130  1  0.66647940  0.49964359  0.49955748  1
  I  I131  1  0.66987356  0.50164101  0.83896213  1
  I  I132  1  0.66963738  0.83056515  0.16380219  1
  I  I133  1  0.66665633  0.83115551  0.49459456  1
  I  I134  1  0.66846935  0.82879324  0.84117959  1
