# generated using pymatgen
data_Cs27Sn14Pb13I81
_symmetry_space_group_name_H-M   'P 1'
_cell_length_a   18.95944711
_cell_length_b   18.95966203
_cell_length_c   18.96444140
_cell_angle_alpha   90.00057298
_cell_angle_beta   90.00061290
_cell_angle_gamma   90.00145244
_symmetry_Int_Tables_number   1
_chemical_formula_structural   Cs27Sn14Pb13I81
_chemical_formula_sum   'Cs27 Sn14 Pb13 I81'
_cell_volume   6817.04741875
_cell_formula_units_Z   1
loop_
 _symmetry_equiv_pos_site_id
 _symmetry_equiv_pos_as_xyz
  1  'x, y, z'
loop_
 _atom_site_type_symbol
 _atom_site_label
 _atom_site_symmetry_multiplicity
 _atom_site_fract_x
 _atom_site_fract_y
 _atom_site_fract_z
 _atom_site_occupancy
  Cs  Cs0  1  0.00374476  -0.00120468  -0.00462128  1
  Cs  Cs1  1  -0.00166823  0.00227752  0.33512534  1
  Cs  Cs2  1  0.00220264  0.00215249  0.66891733  1
  Cs  Cs3  1  -0.00276951  0.33314197  -0.00237985  1
  Cs  Cs4  1  0.00179994  0.33304970  0.33237446  1
  Cs  Cs5  1  -0.00067912  0.32959058  0.67168926  1
  Cs  Cs6  1  0.00248062  0.66721672  0.00121050  1
  Cs  Cs7  1  -0.00180583  0.66614965  0.33440429  1
  Cs  Cs8  1  -0.00072328  0.66768391  0.66339293  1
  Cs  Cs9  1  0.33113678  -0.00252352  0.00442551  1
  Cs  Cs10  1  0.33464908  0.00234797  0.33021008  1
  Cs  Cs11  1  0.33480262  -0.00116585  0.66591085  1
  Cs  Cs12  1  0.33419113  0.33545856  0.00338062  1
  Cs  Cs13  1  0.33174778  0.33208640  0.33354086  1
  Cs  Cs14  1  0.33553785  0.33348441  0.66442865  1
  Cs  Cs15  1  0.33096607  0.66816929  0.00021718  1
  Cs  Cs16  1  0.33304966  0.66595700  0.33360893  1
  Cs  Cs17  1  0.33445675  0.66676373  0.66662331  1
  Cs  Cs18  1  0.66538795  -0.00037027  -0.00042121  1
  Cs  Cs19  1  0.66651197  0.00034680  0.33377878  1
  Cs  Cs20  1  0.66530739  -0.00091359  0.66620546  1
  Cs  Cs21  1  0.66860227  0.33307770  -0.00208700  1
  Cs  Cs22  1  0.66604198  0.33200791  0.33282009  1
  Cs  Cs23  1  0.66507521  0.33640078  0.66985942  1
  Cs  Cs24  1  0.66599583  0.66776037  -0.00008494  1
  Cs  Cs25  1  0.66938768  0.66726708  0.33550803  1
  Cs  Cs26  1  0.66602080  0.66496876  0.66515753  1
  Sn  Sn27  1  0.83297958  0.50001614  0.16682688  1
  Sn  Sn28  1  0.50059510  0.83412913  0.83282491  1
  Sn  Sn29  1  0.16663754  0.50018661  0.16667704  1
  Sn  Sn30  1  0.83237493  0.16691746  0.49979209  1
  Sn  Sn31  1  0.16764926  0.83299302  0.49974018  1
  Sn  Sn32  1  0.49921762  0.83389590  0.50045784  1
  Sn  Sn33  1  0.49985650  0.16590237  0.83294986  1
  Sn  Sn34  1  0.83269393  0.83309302  0.83388445  1
  Sn  Sn35  1  0.16655561  0.50061835  0.50044383  1
  Sn  Sn36  1  0.83322476  0.16647220  0.16711057  1
  Sn  Sn37  1  0.50106916  0.16592888  0.50072504  1
  Sn  Sn38  1  0.83327370  0.83359302  0.16572178  1
  Sn  Sn39  1  0.16667868  0.49992141  0.83298987  1
  Sn  Sn40  1  0.50034533  0.50030693  0.16688881  1
  Pb  Pb41  1  0.17022710  0.16891652  0.83341205  1
  Pb  Pb42  1  0.49843017  0.49995418  0.49810012  1
  Pb  Pb43  1  0.16405006  0.83159181  0.16934139  1
  Pb  Pb44  1  0.83134313  0.16448835  0.83338543  1
  Pb  Pb45  1  0.16712681  0.83169616  0.83127458  1
  Pb  Pb46  1  0.83526636  0.50263053  0.83539245  1
  Pb  Pb47  1  0.50176562  0.83148006  0.16694538  1
  Pb  Pb48  1  0.49834414  0.50054738  0.83532207  1
  Pb  Pb49  1  0.50187584  0.16848839  0.16673868  1
  Pb  Pb50  1  0.16374470  0.16881265  0.16637200  1
  Pb  Pb51  1  0.83571066  0.49707771  0.49828605  1
  Pb  Pb52  1  0.16711717  0.16646624  0.50005678  1
  Pb  Pb53  1  0.83311575  0.83507253  0.50015132  1
  I  I54  1  0.16575194  -0.00030748  0.16829837  1
  I  I55  1  0.16687090  -0.00278483  0.50109092  1
  I  I56  1  0.16401167  -0.00034303  0.83077479  1
  I  I57  1  0.16567010  0.33778264  0.17031214  1
  I  I58  1  0.16644271  0.33628343  0.49781668  1
  I  I59  1  0.16657782  0.33734267  0.83186091  1
  I  I60  1  0.16453552  0.66298093  0.16505823  1
  I  I61  1  0.17151969  0.66641016  0.49926378  1
  I  I62  1  0.16833701  0.66361385  0.83641510  1
  I  I63  1  0.50236417  -0.00008224  0.16679785  1
  I  I64  1  0.49817554  -0.00035006  0.50314693  1
  I  I65  1  0.50429631  -0.00086021  0.82928884  1
  I  I66  1  0.50087374  0.33663887  0.16682376  1
  I  I67  1  0.50236309  0.33056903  0.50251912  1
  I  I68  1  0.49829969  0.33108597  0.82995331  1
  I  I69  1  0.50147987  0.66338279  0.16650186  1
  I  I70  1  0.49779684  0.66944352  0.50306309  1
  I  I71  1  0.50266103  0.66981055  0.82990257  1
  I  I72  1  0.83115093  -0.00005563  0.16802263  1
  I  I73  1  0.83388325  0.00280473  0.49375481  1
  I  I74  1  0.83273663  -0.00341819  0.83869430  1
  I  I75  1  0.83418347  0.33373572  0.17208274  1
  I  I76  1  0.82869325  0.32923470  0.49482266  1
  I  I77  1  0.83319040  0.33328876  0.83415314  1
  I  I78  1  0.83407033  0.66632481  0.16233879  1
  I  I79  1  0.83195643  0.66671906  0.49865763  1
  I  I80  1  0.82730926  0.67058335  0.83728279  1
  I  I81  1  0.16670713  0.16850952  -0.00008069  1
  I  I82  1  0.17018885  0.16911683  0.33340598  1
  I  I83  1  0.16043603  0.17065740  0.66650257  1
  I  I84  1  0.16635429  0.49910202  0.00104230  1
  I  I85  1  0.16600266  0.50369708  0.33297928  1
  I  I86  1  0.16840316  0.50414572  0.66584178  1
  I  I87  1  0.16818325  0.83102345  0.00008187  1
  I  I88  1  0.17104456  0.82778600  0.33719939  1
  I  I89  1  0.16534257  0.82682126  0.66338731  1
  I  I90  1  0.50130819  0.16432336  -0.00241936  1
  I  I91  1  0.50195439  0.16369168  0.33619147  1
  I  I92  1  0.50532311  0.16398604  0.66560071  1
  I  I93  1  0.49836681  0.49947857  0.00338308  1
  I  I94  1  0.49863452  0.49996466  0.33006568  1
  I  I95  1  0.49701200  0.49941603  0.66660109  1
  I  I96  1  0.50288499  0.83576888  -0.00260740  1
  I  I97  1  0.49762657  0.83607623  0.33630787  1
  I  I98  1  0.50188935  0.83623477  0.66650566  1
  I  I99  1  0.83200866  0.16996267  0.00274962  1
  I  I100  1  0.82815623  0.16513261  0.33296566  1
  I  I101  1  0.83239719  0.16427676  0.66423387  1
  I  I102  1  0.83546479  0.49490119  0.00402192  1
  I  I103  1  0.83523743  0.50522003  0.32961515  1
  I  I104  1  0.83550212  0.50006760  0.66670357  1
  I  I105  1  0.82795139  0.83380119  0.00046725  1
  I  I106  1  0.83386407  0.83091933  0.33090322  1
  I  I107  1  0.83290426  0.83540852  0.66883880  1
  I  I108  1  -0.00477217  0.16825950  0.17333550  1
  I  I109  1  -0.00256991  0.16704131  0.49435056  1
  I  I110  1  -0.00022610  0.16634382  0.83305436  1
  I  I111  1  -0.00012615  0.50008057  0.16737412  1
  I  I112  1  0.00388785  0.50575510  0.49738393  1
  I  I113  1  0.00336272  0.50139813  0.83480176  1
  I  I114  1  -0.00423864  0.83130552  0.16253130  1
  I  I115  1  0.00191771  0.82966766  0.49889803  1
  I  I116  1  -0.00226823  0.83120865  0.83658027  1
  I  I117  1  0.33365154  0.16989227  0.16757095  1
  I  I118  1  0.33664547  0.16650427  0.50426127  1
  I  I119  1  0.33814476  0.16091751  0.82649798  1
  I  I120  1  0.33252483  0.49985513  0.16657434  1
  I  I121  1  0.33017094  0.49943982  0.49656337  1
  I  I122  1  0.33032008  0.50139144  0.83634142  1
  I  I123  1  0.33331970  0.83041747  0.16445498  1
  I  I124  1  0.33447876  0.83403020  0.50554830  1
  I  I125  1  0.33644588  0.83505836  0.83048004  1
  I  I126  1  0.67009263  0.16987347  0.16836945  1
  I  I127  1  0.66580734  0.16068631  0.49847018  1
  I  I128  1  0.66344406  0.16636808  0.83221772  1
  I  I129  1  0.66773281  0.49981495  0.16659461  1
  I  I130  1  0.66672560  0.50239855  0.49713315  1
  I  I131  1  0.66657364  0.49869773  0.83609342  1
  I  I132  1  0.67005906  0.82998519  0.16786705  1
  I  I133  1  0.66399009  0.83592946  0.50046926  1
  I  I134  1  0.66583558  0.83597792  0.83199065  1
