# generated using pymatgen
data_Cs27Sn14Pb13I81
_symmetry_space_group_name_H-M   'P 1'
_cell_length_a   18.97549592
_cell_length_b   18.98689299
_cell_length_c   18.97052938
_cell_angle_alpha   89.99997110
_cell_angle_beta   89.99940119
_cell_angle_gamma   90.00067081
_symmetry_Int_Tables_number   1
_chemical_formula_structural   Cs27Sn14Pb13I81
_chemical_formula_sum   'Cs27 Sn14 Pb13 I81'
_cell_volume   6834.81065623
_cell_formula_units_Z   1
loop_
 _symmetry_equiv_pos_site_id
 _symmetry_equiv_pos_as_xyz
  1  'x, y, z'
loop_
 _atom_site_type_symbol
 _atom_site_label
 _atom_site_symmetry_multiplicity
 _atom_site_fract_x
 _atom_site_fract_y
 _atom_site_fract_z
 _atom_site_occupancy
  Cs  Cs0  1  -0.00036383  -0.00107078  0.00633909  1
  Cs  Cs1  1  -0.00743450  0.00085582  0.32629728  1
  Cs  Cs2  1  0.00133977  0.00026107  0.66553309  1
  Cs  Cs3  1  0.00122385  0.33588416  -0.00012275  1
  Cs  Cs4  1  -0.00126319  0.33179107  0.33154411  1
  Cs  Cs5  1  0.00143093  0.33282396  0.66716321  1
  Cs  Cs6  1  -0.00213297  0.66434630  -0.00014922  1
  Cs  Cs7  1  0.00043865  0.66774145  0.33210860  1
  Cs  Cs8  1  -0.00198070  0.66750961  0.66740461  1
  Cs  Cs9  1  0.33350820  -0.00031386  0.00099723  1
  Cs  Cs10  1  0.33177768  -0.00186161  0.33354744  1
  Cs  Cs11  1  0.33432749  -0.00019799  0.66666937  1
  Cs  Cs12  1  0.33321243  0.33244785  -0.00249016  1
  Cs  Cs13  1  0.33529474  0.33482573  0.33392457  1
  Cs  Cs14  1  0.33230554  0.33126398  0.66808708  1
  Cs  Cs15  1  0.33326581  0.66742734  -0.00107089  1
  Cs  Cs16  1  0.33540732  0.66672139  0.33442565  1
  Cs  Cs17  1  0.33234389  0.66962627  0.66631126  1
  Cs  Cs18  1  0.66687088  -0.00110725  0.00439119  1
  Cs  Cs19  1  0.67580278  0.00102108  0.32744695  1
  Cs  Cs20  1  0.66262010  0.00046589  0.66721383  1
  Cs  Cs21  1  0.66412676  0.33254280  -0.00091736  1
  Cs  Cs22  1  0.66725155  0.33588866  0.33280493  1
  Cs  Cs23  1  0.66708027  0.33301941  0.66553991  1
  Cs  Cs24  1  0.66924781  0.66919793  0.00003698  1
  Cs  Cs25  1  0.66413441  0.66320690  0.33404373  1
  Cs  Cs26  1  0.67276468  0.66682815  0.66570989  1
  Sn  Sn27  1  0.16704035  0.83390326  0.50081026  1
  Sn  Sn28  1  0.16649478  0.16614186  0.83277442  1
  Sn  Sn29  1  0.16722039  0.83349634  0.83265470  1
  Sn  Sn30  1  0.49984143  0.16634967  0.83269337  1
  Sn  Sn31  1  0.49910255  0.16562075  0.50055210  1
  Sn  Sn32  1  0.16736793  0.50030578  0.83297498  1
  Sn  Sn33  1  0.16641363  0.49989293  0.16662434  1
  Sn  Sn34  1  0.49929917  0.50038388  0.83289391  1
  Sn  Sn35  1  0.83383916  0.49985962  0.16649497  1
  Sn  Sn36  1  0.49932713  0.83454644  0.50091438  1
  Sn  Sn37  1  0.16688190  0.49993953  0.50019470  1
  Sn  Sn38  1  0.16742599  0.16617442  0.50060314  1
  Sn  Sn39  1  0.49908403  0.83334079  0.83237708  1
  Sn  Sn40  1  0.83358808  0.16635804  0.83296450  1
  Pb  Pb41  1  0.16709834  0.16889489  0.16705250  1
  Pb  Pb42  1  0.83313948  0.83349917  0.50032211  1
  Pb  Pb43  1  0.83348137  0.49813924  0.83444332  1
  Pb  Pb44  1  0.83334387  0.83031030  0.16654029  1
  Pb  Pb45  1  0.16691754  0.83084293  0.16678638  1
  Pb  Pb46  1  0.49963278  0.83345947  0.16723850  1
  Pb  Pb47  1  0.83350868  0.83609878  0.83315633  1
  Pb  Pb48  1  0.49932940  0.50003170  0.16385814  1
  Pb  Pb49  1  0.83635442  0.49982021  0.49782257  1
  Pb  Pb50  1  0.83338492  0.16919358  0.16368066  1
  Pb  Pb51  1  0.49794613  0.50000299  0.50264071  1
  Pb  Pb52  1  0.83323040  0.16661563  0.50209786  1
  Pb  Pb53  1  0.49959353  0.16655664  0.16762225  1
  I  I54  1  0.16627237  -0.00006797  0.16560491  1
  I  I55  1  0.17129675  0.00020430  0.50921789  1
  I  I56  1  0.16871392  0.00030896  0.82676946  1
  I  I57  1  0.16292838  0.33710928  0.16509743  1
  I  I58  1  0.16978320  0.33293619  0.50308203  1
  I  I59  1  0.16860522  0.33330387  0.83200438  1
  I  I60  1  0.16261338  0.66266630  0.16536880  1
  I  I61  1  0.17001033  0.66693364  0.50225258  1
  I  I62  1  0.17297278  0.66638001  0.83187067  1
  I  I63  1  0.50081086  0.00000890  0.16050460  1
  I  I64  1  0.49064433  0.00031063  0.51007783  1
  I  I65  1  0.49755474  0.00028522  0.82972567  1
  I  I66  1  0.50015128  0.33357295  0.16604762  1
  I  I67  1  0.49596296  0.33054879  0.50445871  1
  I  I68  1  0.49742564  0.33258567  0.83146651  1
  I  I69  1  0.50076821  0.66646623  0.16671912  1
  I  I70  1  0.49559812  0.66939217  0.50335751  1
  I  I71  1  0.49219331  0.66711970  0.83133327  1
  I  I72  1  0.83258835  0.00024963  0.16670388  1
  I  I73  1  0.83868890  0.00015816  0.49948646  1
  I  I74  1  0.83395443  0.00398237  0.83248003  1
  I  I75  1  0.83971138  0.33657777  0.16637892  1
  I  I76  1  0.83254398  0.33323157  0.49995354  1
  I  I77  1  0.83361468  0.33034189  0.83434953  1
  I  I78  1  0.83950348  0.66256860  0.16358928  1
  I  I79  1  0.83261748  0.66655021  0.49969774  1
  I  I80  1  0.83291151  0.66665714  0.83615576  1
  I  I81  1  0.16759177  0.16691433  -0.00389822  1
  I  I82  1  0.17185663  0.16712333  0.33724506  1
  I  I83  1  0.16700008  0.17141291  0.66776704  1
  I  I84  1  0.16618251  0.49944134  -0.00172085  1
  I  I85  1  0.16132536  0.49980341  0.33408964  1
  I  I86  1  0.17153451  0.49916239  0.66753668  1
  I  I87  1  0.17078899  0.83416485  -0.00379287  1
  I  I88  1  0.17141032  0.83270372  0.33712138  1
  I  I89  1  0.17016893  0.82919817  0.66732948  1
  I  I90  1  0.49911131  0.16704129  -0.00426020  1
  I  I91  1  0.49359725  0.16300553  0.33765267  1
  I  I92  1  0.49882553  0.16636268  0.66814206  1
  I  I93  1  0.49416159  0.49879560  -0.00467453  1
  I  I94  1  0.49975233  0.49984098  0.33366721  1
  I  I95  1  0.49480984  0.49846282  0.67086957  1
  I  I96  1  0.49582413  0.83370269  -0.00406912  1
  I  I97  1  0.49422860  0.83680531  0.33756709  1
  I  I98  1  0.49471123  0.83478229  0.66774314  1
  I  I99  1  0.83356172  0.16706765  -0.00440426  1
  I  I100  1  0.83333182  0.16707665  0.33326283  1
  I  I101  1  0.83403309  0.16927641  0.67013568  1
  I  I102  1  0.84061759  0.49813920  0.00223170  1
  I  I103  1  0.83832520  0.49949206  0.32971244  1
  I  I104  1  0.83370905  0.49955048  0.66680444  1
  I  I105  1  0.83314976  0.83457966  -0.00048700  1
  I  I106  1  0.83392293  0.83440733  0.33342346  1
  I  I107  1  0.83450607  0.83000196  0.66701351  1
  I  I108  1  0.00028371  0.16572656  0.16644100  1
  I  I109  1  0.00378027  0.16752854  0.50479450  1
  I  I110  1  0.00202613  0.16874436  0.82954830  1
  I  I111  1  0.00191665  0.49949775  0.16376662  1
  I  I112  1  0.00545151  0.49966654  0.50685224  1
  I  I113  1  0.00380911  0.49965624  0.83192350  1
  I  I114  1  0.00044445  0.83499688  0.16636916  1
  I  I115  1  0.00422697  0.83251339  0.50495336  1
  I  I116  1  0.00390940  0.83159248  0.82923548  1
  I  I117  1  0.33315367  0.17073144  0.16072126  1
  I  I118  1  0.33237589  0.16714185  0.50813230  1
  I  I119  1  0.33298440  0.16826173  0.83028443  1
  I  I120  1  0.32991412  0.50009935  0.16784874  1
  I  I121  1  0.32936841  0.49972292  0.49494299  1
  I  I122  1  0.33174869  0.49579488  0.83575196  1
  I  I123  1  0.33307474  0.82955159  0.16542927  1
  I  I124  1  0.33233003  0.83339246  0.50456081  1
  I  I125  1  0.33272982  0.83562993  0.83029709  1
  I  I126  1  0.66665060  0.17037878  0.16624067  1
  I  I127  1  0.66295288  0.16222366  0.50515036  1
  I  I128  1  0.66494038  0.16840854  0.83006292  1
  I  I129  1  0.66898742  0.49937819  0.16378783  1
  I  I130  1  0.66627133  0.50007811  0.49891213  1
  I  I131  1  0.66368770  0.49947800  0.83605027  1
  I  I132  1  0.66649370  0.83049931  0.16556458  1
  I  I133  1  0.66260819  0.83782638  0.50559089  1
  I  I134  1  0.66291396  0.83185883  0.82944710  1
