# generated using pymatgen
data_Cs27Sn14Pb13I81
_symmetry_space_group_name_H-M   'P 1'
_cell_length_a   18.96284078
_cell_length_b   18.95895156
_cell_length_c   18.95913857
_cell_angle_alpha   90.00242512
_cell_angle_beta   90.00124796
_cell_angle_gamma   90.00067014
_symmetry_Int_Tables_number   1
_chemical_formula_structural   Cs27Sn14Pb13I81
_chemical_formula_sum   'Cs27 Sn14 Pb13 I81'
_cell_volume   6816.10568678
_cell_formula_units_Z   1
loop_
 _symmetry_equiv_pos_site_id
 _symmetry_equiv_pos_as_xyz
  1  'x, y, z'
loop_
 _atom_site_type_symbol
 _atom_site_label
 _atom_site_symmetry_multiplicity
 _atom_site_fract_x
 _atom_site_fract_y
 _atom_site_fract_z
 _atom_site_occupancy
  Cs  Cs0  1  -0.00102170  -0.00056190  -0.00005175  1
  Cs  Cs1  1  -0.00019969  -0.00218884  0.33332390  1
  Cs  Cs2  1  0.00200899  0.00101573  0.66724239  1
  Cs  Cs3  1  0.00140833  0.32737819  -0.00028149  1
  Cs  Cs4  1  0.00178627  0.33392585  0.33399907  1
  Cs  Cs5  1  -0.00049984  0.33357091  0.66640375  1
  Cs  Cs6  1  0.00086972  0.67017631  0.00266257  1
  Cs  Cs7  1  -0.00216456  0.66868759  0.33337206  1
  Cs  Cs8  1  0.00108039  0.66458293  0.66491066  1
  Cs  Cs9  1  0.33130513  -0.00017142  -0.00326455  1
  Cs  Cs10  1  0.33774186  0.00141974  0.33822858  1
  Cs  Cs11  1  0.33428739  0.00103397  0.66542151  1
  Cs  Cs12  1  0.33279930  0.33588672  0.00553491  1
  Cs  Cs13  1  0.33583526  0.33353845  0.32871928  1
  Cs  Cs14  1  0.33133580  0.33103162  0.66593339  1
  Cs  Cs15  1  0.33587303  0.66442252  -0.00006257  1
  Cs  Cs16  1  0.33252261  0.66586668  0.33422094  1
  Cs  Cs17  1  0.33358226  0.66791247  0.66664615  1
  Cs  Cs18  1  0.67112959  -0.00113163  0.00070814  1
  Cs  Cs19  1  0.66501253  0.00205784  0.33368333  1
  Cs  Cs20  1  0.66182266  0.00049991  0.66565865  1
  Cs  Cs21  1  0.66612884  0.33245444  -0.00204816  1
  Cs  Cs22  1  0.66205258  0.33126910  0.33426522  1
  Cs  Cs23  1  0.66997011  0.33706857  0.66747474  1
  Cs  Cs24  1  0.66339068  0.66717323  0.00006022  1
  Cs  Cs25  1  0.67271136  0.66718991  0.33156995  1
  Cs  Cs26  1  0.66498075  0.66194284  0.66979517  1
  Sn  Sn27  1  0.16639679  0.50002394  0.83295637  1
  Sn  Sn28  1  0.16767188  0.16684144  0.83267572  1
  Sn  Sn29  1  0.83418106  0.16580987  0.50000663  1
  Sn  Sn30  1  0.83387358  0.83314715  0.83284759  1
  Sn  Sn31  1  0.83342151  0.83419558  0.50064942  1
  Sn  Sn32  1  0.16588102  0.16747549  0.50047397  1
  Sn  Sn33  1  0.16761915  0.49922342  0.50045730  1
  Sn  Sn34  1  0.49977341  0.83350626  0.16683542  1
  Sn  Sn35  1  0.83335279  0.83260040  0.16654784  1
  Sn  Sn36  1  0.49897003  0.50025367  0.50011475  1
  Sn  Sn37  1  0.16722768  0.83351072  0.16618644  1
  Sn  Sn38  1  0.49928241  0.16675323  0.83354684  1
  Sn  Sn39  1  0.83367923  0.49993538  0.16621059  1
  Sn  Sn40  1  0.16602345  0.83303048  0.83393732  1
  Pb  Pb41  1  0.50308801  0.83107175  0.49809785  1
  Pb  Pb42  1  0.83403664  0.49982329  0.49863879  1
  Pb  Pb43  1  0.49973547  0.16863219  0.50172149  1
  Pb  Pb44  1  0.49965131  0.83472416  0.83495771  1
  Pb  Pb45  1  0.83341890  0.16639786  0.16926995  1
  Pb  Pb46  1  0.16536956  0.83334665  0.50034455  1
  Pb  Pb47  1  0.16673747  0.16387979  0.16699262  1
  Pb  Pb48  1  0.83385695  0.16454932  0.83116853  1
  Pb  Pb49  1  0.16497615  0.50207366  0.16687370  1
  Pb  Pb50  1  0.83590238  0.50239182  0.83601827  1
  Pb  Pb51  1  0.49745069  0.49762539  0.83175720  1
  Pb  Pb52  1  0.49993466  0.16433767  0.16371400  1
  Pb  Pb53  1  0.50236585  0.50197704  0.16859217  1
  I  I54  1  0.16196881  -0.00455681  0.16273173  1
  I  I55  1  0.16369260  0.00238652  0.50252255  1
  I  I56  1  0.16636643  -0.00023395  0.83358272  1
  I  I57  1  0.16408769  0.33346259  0.16436698  1
  I  I58  1  0.16353719  0.33305051  0.50763418  1
  I  I59  1  0.17053597  0.33287300  0.82789152  1
  I  I60  1  0.16639925  0.67052062  0.16345701  1
  I  I61  1  0.16788333  0.66434110  0.50256382  1
  I  I62  1  0.16144778  0.66734951  0.83275032  1
  I  I63  1  0.50347506  -0.00398933  0.16829711  1
  I  I64  1  0.49859795  -0.00001272  0.49929631  1
  I  I65  1  0.49404182  0.00253503  0.83228270  1
  I  I66  1  0.50221972  0.33353214  0.16714059  1
  I  I67  1  0.50130016  0.33629822  0.50019329  1
  I  I68  1  0.49619867  0.32976469  0.83216793  1
  I  I69  1  0.49909760  0.67019530  0.16554703  1
  I  I70  1  0.49409695  0.66348632  0.50047168  1
  I  I71  1  0.49977964  0.66655672  0.83329757  1
  I  I72  1  0.83389155  -0.00388645  0.16500060  1
  I  I73  1  0.83901783  -0.00069441  0.49775774  1
  I  I74  1  0.83878179  -0.00378796  0.83860534  1
  I  I75  1  0.83430824  0.33583407  0.16950822  1
  I  I76  1  0.83458496  0.33099183  0.49848430  1
  I  I77  1  0.83341747  0.33329069  0.83353049  1
  I  I78  1  0.83419970  0.66924000  0.16994393  1
  I  I79  1  0.83410969  0.66935721  0.49948032  1
  I  I80  1  0.83798175  0.67090625  0.82871546  1
  I  I81  1  0.16994110  0.16869523  -0.00342672  1
  I  I82  1  0.16218815  0.16968810  0.33679648  1
  I  I83  1  0.16625448  0.16475378  0.66704492  1
  I  I84  1  0.16417120  0.49816548  -0.00277700  1
  I  I85  1  0.16809741  0.49716073  0.33625782  1
  I  I86  1  0.16884481  0.50193436  0.66647349  1
  I  I87  1  0.16163225  0.83381979  -0.00095840  1
  I  I88  1  0.16403823  0.83258543  0.33113655  1
  I  I89  1  0.16169630  0.83341104  0.66961258  1
  I  I90  1  0.49346108  0.16676440  -0.00415907  1
  I  I91  1  0.50019869  0.16661280  0.33356840  1
  I  I92  1  0.49747404  0.16438613  0.66940493  1
  I  I93  1  0.49975170  0.49979048  -0.00001189  1
  I  I94  1  0.49348238  0.49907649  0.33652671  1
  I  I95  1  0.50096595  0.50118232  0.66369779  1
  I  I96  1  0.50454497  0.83377091  0.00300704  1
  I  I97  1  0.49884889  0.83315141  0.32997609  1
  I  I98  1  0.50069020  0.83354999  0.66664933  1
  I  I99  1  0.83374260  0.16557474  -0.00031128  1
  I  I100  1  0.83867879  0.16128674  0.33741380  1
  I  I101  1  0.83533851  0.16211417  0.66319046  1
  I  I102  1  0.83431033  0.50690273  0.00359707  1
  I  I103  1  0.83565247  0.50754665  0.33102566  1
  I  I104  1  0.83153618  0.50182843  0.66677707  1
  I  I105  1  0.83453358  0.82953002  0.00039610  1
  I  I106  1  0.83431078  0.83251271  0.33273392  1
  I  I107  1  0.83946611  0.83780598  0.66680002  1
  I  I108  1  0.00010105  0.16416449  0.16293958  1
  I  I109  1  0.00108072  0.16824019  0.50522102  1
  I  I110  1  0.00334352  0.16751148  0.83117882  1
  I  I111  1  -0.00265166  0.50805772  0.16948105  1
  I  I112  1  0.00287462  0.49919210  0.50271172  1
  I  I113  1  0.00410119  0.49587362  0.82607854  1
  I  I114  1  -0.00071056  0.82998470  0.16597684  1
  I  I115  1  -0.00282904  0.83229929  0.49557555  1
  I  I116  1  0.00084113  0.83544509  0.83807873  1
  I  I117  1  0.33315130  0.16447304  0.17120077  1
  I  I118  1  0.33017522  0.16776570  0.50256837  1
  I  I119  1  0.33077078  0.16294707  0.82723257  1
  I  I120  1  0.33315001  0.50279307  0.16585417  1
  I  I121  1  0.33136665  0.49558429  0.50286406  1
  I  I122  1  0.32901990  0.50597051  0.83252351  1
  I  I123  1  0.33236869  0.83395321  0.16119519  1
  I  I124  1  0.33335035  0.83532268  0.49873738  1
  I  I125  1  0.32983117  0.83220398  0.83793775  1
  I  I126  1  0.66679606  0.16429173  0.16695495  1
  I  I127  1  0.66906481  0.16368048  0.50061569  1
  I  I128  1  0.66497494  0.16345763  0.83206606  1
  I  I129  1  0.67017760  0.50729977  0.16948148  1
  I  I130  1  0.66532400  0.50077491  0.49691134  1
  I  I131  1  0.66678381  0.49984071  0.83195422  1
  I  I132  1  0.66822987  0.82959059  0.16698848  1
  I  I133  1  0.67141242  0.83767561  0.49978428  1
  I  I134  1  0.66940303  0.83600522  0.83450552  1
