# generated using pymatgen
data_Cs27Sn14Pb13I81
_symmetry_space_group_name_H-M   'P 1'
_cell_length_a   18.96395316
_cell_length_b   18.96004146
_cell_length_c   18.96325976
_cell_angle_alpha   89.99971485
_cell_angle_beta   89.99977935
_cell_angle_gamma   90.00064029
_symmetry_Int_Tables_number   1
_chemical_formula_structural   Cs27Sn14Pb13I81
_chemical_formula_sum   'Cs27 Sn14 Pb13 I81'
_cell_volume   6818.37919855
_cell_formula_units_Z   1
loop_
 _symmetry_equiv_pos_site_id
 _symmetry_equiv_pos_as_xyz
  1  'x, y, z'
loop_
 _atom_site_type_symbol
 _atom_site_label
 _atom_site_symmetry_multiplicity
 _atom_site_fract_x
 _atom_site_fract_y
 _atom_site_fract_z
 _atom_site_occupancy
  Cs  Cs0  1  -0.00008306  -0.00080261  0.00023760  1
  Cs  Cs1  1  -0.00148737  -0.00077543  0.33331212  1
  Cs  Cs2  1  0.00498359  -0.00262231  0.66642709  1
  Cs  Cs3  1  0.00084582  0.33380499  -0.00226445  1
  Cs  Cs4  1  -0.00200931  0.33398611  0.33344517  1
  Cs  Cs5  1  -0.00059898  0.33478883  0.66849666  1
  Cs  Cs6  1  0.00049435  0.66649592  -0.00181009  1
  Cs  Cs7  1  -0.00009254  0.66626624  0.33212998  1
  Cs  Cs8  1  0.00174941  0.66717356  0.67385364  1
  Cs  Cs9  1  0.33458489  0.01032756  -0.00453960  1
  Cs  Cs10  1  0.33144931  0.00598061  0.33974907  1
  Cs  Cs11  1  0.33318336  -0.00181219  0.66588976  1
  Cs  Cs12  1  0.33253360  0.32803129  -0.00137799  1
  Cs  Cs13  1  0.33287984  0.33254311  0.33306617  1
  Cs  Cs14  1  0.33196866  0.32949242  0.66873909  1
  Cs  Cs15  1  0.33322337  0.66543759  0.00243498  1
  Cs  Cs16  1  0.33284943  0.66563557  0.33259275  1
  Cs  Cs17  1  0.33241544  0.67240654  0.66681820  1
  Cs  Cs18  1  0.66592186  -0.00048911  -0.00154622  1
  Cs  Cs19  1  0.66897647  -0.00049186  0.33342827  1
  Cs  Cs20  1  0.66138426  -0.00182710  0.66865224  1
  Cs  Cs21  1  0.66694865  0.33416510  0.00032798  1
  Cs  Cs22  1  0.66780788  0.33482833  0.33385354  1
  Cs  Cs23  1  0.66838821  0.33472373  0.66497728  1
  Cs  Cs24  1  0.66685498  0.66666902  0.00124921  1
  Cs  Cs25  1  0.66657886  0.66527944  0.33192563  1
  Cs  Cs26  1  0.66584597  0.66723945  0.66879160  1
  Sn  Sn27  1  0.49992740  0.50019868  0.83341385  1
  Sn  Sn28  1  0.83319026  0.16639056  0.50046538  1
  Sn  Sn29  1  0.83331935  0.83304222  0.16732014  1
  Sn  Sn30  1  0.16633290  0.50016599  0.49926825  1
  Sn  Sn31  1  0.83365765  0.50013301  0.16704605  1
  Sn  Sn32  1  0.49971985  0.50013086  0.50009575  1
  Sn  Sn33  1  0.83321506  0.83260924  0.49944760  1
  Sn  Sn34  1  0.49923590  0.83316379  0.16696238  1
  Sn  Sn35  1  0.83324781  0.16656761  0.83301781  1
  Sn  Sn36  1  0.16740096  0.83303804  0.16684084  1
  Sn  Sn37  1  0.16647889  0.50062631  0.16743606  1
  Sn  Sn38  1  0.83318767  0.16680275  0.16642310  1
  Sn  Sn39  1  0.83365494  0.50064553  0.49950073  1
  Sn  Sn40  1  0.49982191  0.50050312  0.16670598  1
  Pb  Pb41  1  0.16421736  0.16668047  0.83309869  1
  Pb  Pb42  1  0.49996568  0.83127360  0.83615248  1
  Pb  Pb43  1  0.16964262  0.50006351  0.83352445  1
  Pb  Pb44  1  0.50227999  0.16673188  0.16694999  1
  Pb  Pb45  1  0.16449259  0.83102464  0.49774254  1
  Pb  Pb46  1  0.16418046  0.16909640  0.49983087  1
  Pb  Pb47  1  0.16412206  0.16683759  0.16685571  1
  Pb  Pb48  1  0.50218726  0.16886900  0.83314590  1
  Pb  Pb49  1  0.50212428  0.16879880  0.49988066  1
  Pb  Pb50  1  0.83327186  0.83580599  0.83337199  1
  Pb  Pb51  1  0.50190220  0.83120983  0.49755864  1
  Pb  Pb52  1  0.16693912  0.83322101  0.83658045  1
  Pb  Pb53  1  0.83181750  0.49871401  0.83335686  1
  I  I54  1  0.16464230  -0.00311463  0.16547542  1
  I  I55  1  0.16393386  -0.00033414  0.49825162  1
  I  I56  1  0.16553760  -0.00003177  0.83553192  1
  I  I57  1  0.16674623  0.33712177  0.16966077  1
  I  I58  1  0.16490646  0.33794582  0.49294884  1
  I  I59  1  0.16644890  0.33379275  0.83628822  1
  I  I60  1  0.16230783  0.66527347  0.16992035  1
  I  I61  1  0.16445335  0.66248693  0.49697423  1
  I  I62  1  0.16384753  0.66619991  0.83199715  1
  I  I63  1  0.50216801  -0.00315898  0.16602565  1
  I  I64  1  0.50284111  -0.00038133  0.49821773  1
  I  I65  1  0.50180640  0.00002361  0.83604244  1
  I  I66  1  0.50070970  0.33738571  0.16694895  1
  I  I67  1  0.50326704  0.33822319  0.49579695  1
  I  I68  1  0.50142572  0.33730191  0.83709441  1
  I  I69  1  0.50508218  0.66490738  0.16666267  1
  I  I70  1  0.50358617  0.66222491  0.50076455  1
  I  I71  1  0.50312227  0.66275809  0.83172241  1
  I  I72  1  0.83332986  -0.00066051  0.16934802  1
  I  I73  1  0.83331832  -0.00007273  0.49493206  1
  I  I74  1  0.83287213  0.00380650  0.83535916  1
  I  I75  1  0.83277853  0.33450982  0.16898043  1
  I  I76  1  0.83273830  0.33460244  0.49706540  1
  I  I77  1  0.83139845  0.33074769  0.83436630  1
  I  I78  1  0.83271579  0.66605869  0.17234684  1
  I  I79  1  0.83244893  0.66536313  0.49190003  1
  I  I80  1  0.83241167  0.66671114  0.83365964  1
  I  I81  1  0.16311860  0.16900063  0.00040728  1
  I  I82  1  0.16451392  0.16615077  0.33317807  1
  I  I83  1  0.16249801  0.17034990  0.66632349  1
  I  I84  1  0.16479834  0.50356969  0.00387035  1
  I  I85  1  0.16844474  0.50280706  0.33216454  1
  I  I86  1  0.16374940  0.49832441  0.66338898  1
  I  I87  1  0.16129088  0.82497173  0.00547622  1
  I  I88  1  0.16656373  0.82995472  0.32925768  1
  I  I89  1  0.16336711  0.83130617  0.66613259  1
  I  I90  1  0.50415100  0.16952843  0.00029224  1
  I  I91  1  0.50292010  0.16969226  0.33320987  1
  I  I92  1  0.50509068  0.17020333  0.66648159  1
  I  I93  1  0.50197805  0.50358122  0.00193332  1
  I  I94  1  0.50184465  0.50308759  0.33253226  1
  I  I95  1  0.50326287  0.49748888  0.66555076  1
  I  I96  1  0.50490049  0.82646614  0.00488747  1
  I  I97  1  0.50079702  0.82612534  0.32912908  1
  I  I98  1  0.50364393  0.83074110  0.66628896  1
  I  I99  1  0.83292506  0.16770760  0.00140313  1
  I  I100  1  0.83319180  0.16790970  0.33306693  1
  I  I101  1  0.83288259  0.17020784  0.66544887  1
  I  I102  1  0.83306288  0.49999396  0.00353993  1
  I  I103  1  0.83025942  0.49668814  0.33282074  1
  I  I104  1  0.83304796  0.49911590  0.66317421  1
  I  I105  1  0.83332269  0.83244814  0.00413728  1
  I  I106  1  0.83301717  0.83607961  0.33175274  1
  I  I107  1  0.83312797  0.83143059  0.66329161  1
  I  I108  1  -0.00478848  0.16776140  0.16762406  1
  I  I109  1  -0.00493579  0.16957968  0.49794885  1
  I  I110  1  -0.00452646  0.16983308  0.83478329  1
  I  I111  1  -0.00108555  0.50148911  0.17260002  1
  I  I112  1  -0.00143601  0.49859362  0.49252210  1
  I  I113  1  0.00003134  0.49797905  0.83370026  1
  I  I114  1  -0.00129427  0.83078694  0.17006888  1
  I  I115  1  -0.00419270  0.83231899  0.49350328  1
  I  I116  1  -0.00034197  0.83261696  0.83576724  1
  I  I117  1  0.33329046  0.16722820  0.16471797  1
  I  I118  1  0.33321958  0.16838338  0.50028996  1
  I  I119  1  0.33361586  0.16847594  0.83522573  1
  I  I120  1  0.33369491  0.50725282  0.16956546  1
  I  I121  1  0.33365978  0.50019968  0.49551780  1
  I  I122  1  0.33752324  0.49997594  0.83495862  1
  I  I123  1  0.33347057  0.82159389  0.16516786  1
  I  I124  1  0.33326850  0.83119971  0.49849743  1
  I  I125  1  0.33352463  0.83200562  0.83324364  1
  I  I126  1  0.67124294  0.16822306  0.16767205  1
  I  I127  1  0.67139168  0.17010654  0.49798471  1
  I  I128  1  0.67054494  0.16773276  0.83454030  1
  I  I129  1  0.66731531  0.50136568  0.16849043  1
  I  I130  1  0.66779402  0.49879970  0.49698877  1
  I  I131  1  0.66396355  0.49856474  0.83472377  1
  I  I132  1  0.66779484  0.82998446  0.16952199  1
  I  I133  1  0.67066215  0.83155309  0.49378514  1
  I  I134  1  0.66684668  0.83297502  0.83631522  1
