# generated using pymatgen
data_Cs27Sn14Pb13I81
_symmetry_space_group_name_H-M   'P 1'
_cell_length_a   18.98078200
_cell_length_b   18.97578431
_cell_length_c   18.97000443
_cell_angle_alpha   90.00231676
_cell_angle_beta   90.00095705
_cell_angle_gamma   89.99841302
_symmetry_Int_Tables_number   1
_chemical_formula_structural   Cs27Sn14Pb13I81
_chemical_formula_sum   'Cs27 Sn14 Pb13 I81'
_cell_volume   6832.52561237
_cell_formula_units_Z   1
loop_
 _symmetry_equiv_pos_site_id
 _symmetry_equiv_pos_as_xyz
  1  'x, y, z'
loop_
 _atom_site_type_symbol
 _atom_site_label
 _atom_site_symmetry_multiplicity
 _atom_site_fract_x
 _atom_site_fract_y
 _atom_site_fract_z
 _atom_site_occupancy
  Cs  Cs0  1  -0.00064036  -0.00207577  0.00138561  1
  Cs  Cs1  1  -0.00151987  0.00340442  0.33383891  1
  Cs  Cs2  1  0.00028242  0.00075242  0.66612886  1
  Cs  Cs3  1  0.00408746  0.33293021  -0.00151099  1
  Cs  Cs4  1  -0.01270871  0.32918592  0.33195889  1
  Cs  Cs5  1  -0.00049260  0.33431963  0.66689977  1
  Cs  Cs6  1  0.00007583  0.66814523  0.00052888  1
  Cs  Cs7  1  0.00178615  0.66464911  0.33480521  1
  Cs  Cs8  1  0.00657568  0.66542545  0.66496692  1
  Cs  Cs9  1  0.33325884  0.00060443  -0.00027347  1
  Cs  Cs10  1  0.33233765  -0.00185534  0.33397659  1
  Cs  Cs11  1  0.33459438  0.00009529  0.66589375  1
  Cs  Cs12  1  0.33227413  0.33179811  0.00047643  1
  Cs  Cs13  1  0.33852944  0.33263463  0.32673679  1
  Cs  Cs14  1  0.33297892  0.33285072  0.66924750  1
  Cs  Cs15  1  0.33165420  0.66777673  -0.00044157  1
  Cs  Cs16  1  0.33271710  0.66770952  0.33569973  1
  Cs  Cs17  1  0.33117188  0.66620582  0.66493664  1
  Cs  Cs18  1  0.66710756  -0.00364895  -0.00149443  1
  Cs  Cs19  1  0.66834238  0.00086034  0.33681312  1
  Cs  Cs20  1  0.66518280  -0.00017501  0.66735489  1
  Cs  Cs21  1  0.66440961  0.33549233  0.00088585  1
  Cs  Cs22  1  0.67424788  0.34328638  0.32800823  1
  Cs  Cs23  1  0.66750778  0.33171918  0.66645959  1
  Cs  Cs24  1  0.67030305  0.66915375  -0.00012212  1
  Cs  Cs25  1  0.66727251  0.65918741  0.33197484  1
  Cs  Cs26  1  0.66487278  0.66893513  0.66819446  1
  Sn  Sn27  1  0.83312071  0.16729728  0.83327169  1
  Sn  Sn28  1  0.16754962  0.83425475  0.83392386  1
  Sn  Sn29  1  0.16754541  0.83250738  0.16600749  1
  Sn  Sn30  1  0.49898580  0.83316749  0.83331367  1
  Sn  Sn31  1  0.83270829  0.49954531  0.83299839  1
  Sn  Sn32  1  0.49943037  0.16654168  0.50022121  1
  Sn  Sn33  1  0.50062826  0.50014852  0.83305690  1
  Sn  Sn34  1  0.50008465  0.16673488  0.83273581  1
  Sn  Sn35  1  0.16685658  0.50051026  0.16707640  1
  Sn  Sn36  1  0.16783783  0.16703459  0.50053174  1
  Sn  Sn37  1  0.50110254  0.83393277  0.49993625  1
  Sn  Sn38  1  0.49945221  0.83361800  0.16675414  1
  Sn  Sn39  1  0.16671332  0.16550017  0.83239368  1
  Sn  Sn40  1  0.83231847  0.83308283  0.50033151  1
  Pb  Pb41  1  0.16729967  0.83482843  0.49987820  1
  Pb  Pb42  1  0.49969998  0.49938749  0.50214657  1
  Pb  Pb43  1  0.83603609  0.50036032  0.16351373  1
  Pb  Pb44  1  0.49815462  0.50284802  0.16380854  1
  Pb  Pb45  1  0.16695249  0.49565228  0.49662294  1
  Pb  Pb46  1  0.83233902  0.16531052  0.50217029  1
  Pb  Pb47  1  0.83348324  0.83329947  0.16961426  1
  Pb  Pb48  1  0.50030399  0.16438182  0.16707816  1
  Pb  Pb49  1  0.16678509  0.16605033  0.16690157  1
  Pb  Pb50  1  0.16697783  0.49997794  0.83426357  1
  Pb  Pb51  1  0.83277870  0.16632240  0.16323337  1
  Pb  Pb52  1  0.83330275  0.50280932  0.50304664  1
  Pb  Pb53  1  0.83382967  0.83329921  0.83173547  1
  I  I54  1  0.17097062  -0.00321241  0.16430880  1
  I  I55  1  0.16770841  0.00271668  0.50089809  1
  I  I56  1  0.16909207  -0.00013771  0.83558647  1
  I  I57  1  0.16599470  0.33527956  0.16418599  1
  I  I58  1  0.17244249  0.32791673  0.50882128  1
  I  I59  1  0.16866062  0.33042739  0.83215181  1
  I  I60  1  0.17020889  0.66872360  0.15931241  1
  I  I61  1  0.16601301  0.66674201  0.50299170  1
  I  I62  1  0.16905865  0.66952846  0.83530797  1
  I  I63  1  0.49229641  -0.00398475  0.16135756  1
  I  I64  1  0.49970908  -0.00069195  0.50553994  1
  I  I65  1  0.49959255  -0.00033664  0.83307276  1
  I  I66  1  0.49784258  0.33362548  0.16600513  1
  I  I67  1  0.49436907  0.32953807  0.50677063  1
  I  I68  1  0.49990227  0.33204716  0.82855110  1
  I  I69  1  0.49803420  0.67106117  0.16723119  1
  I  I70  1  0.50361409  0.67009872  0.50133540  1
  I  I71  1  0.50025535  0.66817727  0.83352718  1
  I  I72  1  0.83709457  -0.00051227  0.16367747  1
  I  I73  1  0.83184800  -0.00251734  0.50327847  1
  I  I74  1  0.83165752  0.00246585  0.83122029  1
  I  I75  1  0.83581590  0.33352557  0.17048476  1
  I  I76  1  0.83424015  0.33317561  0.49876264  1
  I  I77  1  0.83099699  0.33247324  0.83277293  1
  I  I78  1  0.83161170  0.66691442  0.16345222  1
  I  I79  1  0.82718490  0.67073514  0.50212502  1
  I  I80  1  0.82959976  0.66465662  0.83204822  1
  I  I81  1  0.16743297  0.16591735  -0.00347212  1
  I  I82  1  0.17233177  0.16515563  0.33640771  1
  I  I83  1  0.16741684  0.16040477  0.66868463  1
  I  I84  1  0.16674998  0.50070800  0.00193509  1
  I  I85  1  0.16839114  0.50953990  0.32916375  1
  I  I86  1  0.16572899  0.50317741  0.66679668  1
  I  I87  1  0.17343117  0.83533171  -0.00130574  1
  I  I88  1  0.16981628  0.83109698  0.33090365  1
  I  I89  1  0.16899261  0.83526122  0.66950502  1
  I  I90  1  0.49859084  0.16620331  -0.00388806  1
  I  I91  1  0.49234702  0.15985976  0.33699207  1
  I  I92  1  0.49922628  0.16137567  0.66824740  1
  I  I93  1  0.50317604  0.49811257  -0.00453032  1
  I  I94  1  0.49855179  0.49954716  0.33298424  1
  I  I95  1  0.50203166  0.50474636  0.67081597  1
  I  I96  1  0.49516473  0.83356919  -0.00156865  1
  I  I97  1  0.49872106  0.83930457  0.33393347  1
  I  I98  1  0.50036191  0.83420016  0.66775414  1
  I  I99  1  0.83428617  0.16827556  -0.00557513  1
  I  I100  1  0.83555211  0.16470439  0.33391407  1
  I  I101  1  0.83373068  0.16926579  0.67045558  1
  I  I102  1  0.82832679  0.49742159  -0.00427581  1
  I  I103  1  0.83441051  0.50013007  0.33325546  1
  I  I104  1  0.83075711  0.49523678  0.67090122  1
  I  I105  1  0.83157562  0.83356518  -0.00033436  1
  I  I106  1  0.82991409  0.83562489  0.33739787  1
  I  I107  1  0.82861141  0.83421934  0.66425579  1
  I  I108  1  0.00025641  0.16434402  0.16762798  1
  I  I109  1  0.00213510  0.16402489  0.50391507  1
  I  I110  1  0.00105467  0.16674696  0.83002002  1
  I  I111  1  0.00366776  0.50753526  0.16371935  1
  I  I112  1  0.00018892  0.50228422  0.50332984  1
  I  I113  1  -0.00188240  0.49687262  0.83546531  1
  I  I114  1  0.00347665  0.83044683  0.16157995  1
  I  I115  1  -0.00127834  0.83532656  0.50177626  1
  I  I116  1  0.00298404  0.83598137  0.83598262  1
  I  I117  1  0.33337627  0.16929178  0.16212596  1
  I  I118  1  0.33420494  0.15932971  0.50944441  1
  I  I119  1  0.33370135  0.16591218  0.82993625  1
  I  I120  1  0.33052319  0.50139592  0.16279643  1
  I  I121  1  0.33327620  0.50589090  0.50380377  1
  I  I122  1  0.33598346  0.49848643  0.83493879  1
  I  I123  1  0.33325792  0.83006680  0.16638037  1
  I  I124  1  0.33642452  0.83568745  0.50064413  1
  I  I125  1  0.33425116  0.83547002  0.83233718  1
  I  I126  1  0.66629642  0.16406189  0.16683311  1
  I  I127  1  0.66326013  0.16143332  0.50647684  1
  I  I128  1  0.66522283  0.16620023  0.82959399  1
  I  I129  1  0.66654428  0.50052774  0.16765159  1
  I  I130  1  0.66648170  0.49632432  0.49744978  1
  I  I131  1  0.66565718  0.49745524  0.83306492  1
  I  I132  1  0.66331250  0.83538833  0.16148671  1
  I  I133  1  0.66415827  0.83995294  0.50226358  1
  I  I134  1  0.66353664  0.83540059  0.83532987  1
