# generated using pymatgen
data_Cs27Sn13Pb14I81
_symmetry_space_group_name_H-M   'P 1'
_cell_length_a   19.00099324
_cell_length_b   18.98716192
_cell_length_c   18.98619151
_cell_angle_alpha   90.00007635
_cell_angle_beta   90.00003945
_cell_angle_gamma   90.00058422
_symmetry_Int_Tables_number   1
_chemical_formula_structural   Cs27Sn13Pb14I81
_chemical_formula_sum   'Cs27 Sn13 Pb14 I81'
_cell_volume   6849.74201387
_cell_formula_units_Z   1
loop_
 _symmetry_equiv_pos_site_id
 _symmetry_equiv_pos_as_xyz
  1  'x, y, z'
loop_
 _atom_site_type_symbol
 _atom_site_label
 _atom_site_symmetry_multiplicity
 _atom_site_fract_x
 _atom_site_fract_y
 _atom_site_fract_z
 _atom_site_occupancy
  Cs  Cs0  1  -0.00251940  -0.00243571  -0.00118829  1
  Cs  Cs1  1  0.00174006  0.00037517  0.33288572  1
  Cs  Cs2  1  -0.00871310  0.00106312  0.66985850  1
  Cs  Cs3  1  0.00646130  0.33619227  0.00342018  1
  Cs  Cs4  1  -0.00399524  0.33219097  0.33161372  1
  Cs  Cs5  1  0.00447825  0.33315191  0.66397489  1
  Cs  Cs6  1  -0.00246600  0.66651394  -0.00094230  1
  Cs  Cs7  1  -0.00013353  0.66629081  0.33612681  1
  Cs  Cs8  1  0.00589730  0.66609002  0.66813683  1
  Cs  Cs9  1  0.33427458  -0.00006478  0.00133995  1
  Cs  Cs10  1  0.33266483  -0.00267494  0.33258849  1
  Cs  Cs11  1  0.33381427  0.00177012  0.66680225  1
  Cs  Cs12  1  0.33371958  0.33311426  -0.00081665  1
  Cs  Cs13  1  0.33421438  0.33000059  0.33095377  1
  Cs  Cs14  1  0.32957225  0.33455046  0.66899909  1
  Cs  Cs15  1  0.33468363  0.66785082  0.00016282  1
  Cs  Cs16  1  0.33380473  0.67592580  0.34151659  1
  Cs  Cs17  1  0.33184992  0.66580233  0.66086009  1
  Cs  Cs18  1  0.66750262  -0.00135678  -0.00245803  1
  Cs  Cs19  1  0.66579634  0.00007904  0.33291126  1
  Cs  Cs20  1  0.67405596  0.00235712  0.67136847  1
  Cs  Cs21  1  0.66262666  0.33817767  0.00260095  1
  Cs  Cs22  1  0.66862283  0.33409479  0.33324221  1
  Cs  Cs23  1  0.66766804  0.33100472  0.66222737  1
  Cs  Cs24  1  0.66699456  0.66464112  -0.00168199  1
  Cs  Cs25  1  0.66550261  0.66475336  0.33735610  1
  Cs  Cs26  1  0.66376796  0.66708208  0.66987397  1
  Sn  Sn27  1  0.49866802  0.83267258  0.83365927  1
  Sn  Sn28  1  0.83301942  0.83350429  0.16778135  1
  Sn  Sn29  1  0.49836218  0.50002397  0.16665411  1
  Sn  Sn30  1  0.16803763  0.83362773  0.83367296  1
  Sn  Sn31  1  0.16701737  0.16703239  0.16727120  1
  Sn  Sn32  1  0.49924432  0.16662237  0.49915822  1
  Sn  Sn33  1  0.83307676  0.16582807  0.16622401  1
  Sn  Sn34  1  0.83311149  0.83301606  0.49887718  1
  Sn  Sn35  1  0.49998298  0.16704918  0.16728941  1
  Sn  Sn36  1  0.83279703  0.49922252  0.83315676  1
  Sn  Sn37  1  0.16736119  0.16640324  0.49919275  1
  Sn  Sn38  1  0.16848170  0.50029471  0.16705118  1
  Sn  Sn39  1  0.50062526  0.50072356  0.83380916  1
  Pb  Pb40  1  0.16661111  0.16448925  0.83383418  1
  Pb  Pb41  1  0.50010440  0.16740122  0.83356490  1
  Pb  Pb42  1  0.16477012  0.83335962  0.16547008  1
  Pb  Pb43  1  0.50203638  0.83639579  0.50291599  1
  Pb  Pb44  1  0.16767270  0.50180054  0.83532374  1
  Pb  Pb45  1  0.83299719  0.50003467  0.16570412  1
  Pb  Pb46  1  0.50203600  0.83309522  0.16529287  1
  Pb  Pb47  1  0.83340237  0.16533884  0.49764314  1
  Pb  Pb48  1  0.83333749  0.17038050  0.83659567  1
  Pb  Pb49  1  0.16463193  0.83635984  0.50243768  1
  Pb  Pb50  1  0.49983311  0.49760829  0.49974877  1
  Pb  Pb51  1  0.83293737  0.83155528  0.83362584  1
  Pb  Pb52  1  0.83330732  0.50253718  0.50306647  1
  Pb  Pb53  1  0.16690046  0.49741225  0.49642466  1
  I  I54  1  0.16891374  0.00331390  0.16900203  1
  I  I55  1  0.17097107  0.00380978  0.49150958  1
  I  I56  1  0.17166146  -0.00329730  0.83587245  1
  I  I57  1  0.16398946  0.33218911  0.16825794  1
  I  I58  1  0.16917871  0.32923582  0.50118858  1
  I  I59  1  0.16608777  0.33336963  0.83166302  1
  I  I60  1  0.16867181  0.66413478  0.16152314  1
  I  I61  1  0.16466714  0.66702605  0.49967630  1
  I  I62  1  0.16577327  0.66952976  0.83617273  1
  I  I63  1  0.49771542  0.00308717  0.16854694  1
  I  I64  1  0.49594173  0.00390337  0.49305601  1
  I  I65  1  0.49680404  -0.00231005  0.83366112  1
  I  I66  1  0.50168343  0.33273492  0.16388683  1
  I  I67  1  0.49793998  0.32951105  0.50055426  1
  I  I68  1  0.50470398  0.33645668  0.83575374  1
  I  I69  1  0.49790392  0.66371845  0.16195733  1
  I  I70  1  0.50187630  0.66690608  0.49752298  1
  I  I71  1  0.50171342  0.66590396  0.84053735  1
  I  I72  1  0.83376284  0.00073350  0.16925489  1
  I  I73  1  0.83321190  -0.00250529  0.50083675  1
  I  I74  1  0.83305223  -0.00001063  0.83188396  1
  I  I75  1  0.83368702  0.33056575  0.16427939  1
  I  I76  1  0.83339615  0.33302440  0.50037062  1
  I  I77  1  0.82560320  0.33772649  0.83512299  1
  I  I78  1  0.83399294  0.66895420  0.16714395  1
  I  I79  1  0.83323367  0.67043113  0.49115744  1
  I  I80  1  0.83146810  0.66422233  0.83735559  1
  I  I81  1  0.16747491  0.16998812  0.00385381  1
  I  I82  1  0.16705898  0.17009057  0.33161976  1
  I  I83  1  0.17189888  0.16444688  0.66385008  1
  I  I84  1  0.16707805  0.49233154  0.00318063  1
  I  I85  1  0.17109076  0.49962299  0.32823761  1
  I  I86  1  0.16518381  0.49912092  0.66666635  1
  I  I87  1  0.16701494  0.83536727  -0.00238118  1
  I  I88  1  0.16617506  0.83118497  0.33339151  1
  I  I89  1  0.16790441  0.83303135  0.67019324  1
  I  I90  1  0.49920237  0.16759522  0.00344015  1
  I  I91  1  0.50019428  0.17206848  0.33137076  1
  I  I92  1  0.49514043  0.16559589  0.66400750  1
  I  I93  1  0.50089142  0.49719130  0.00063961  1
  I  I94  1  0.49738979  0.49666823  0.32969653  1
  I  I95  1  0.50544531  0.50307962  0.66986151  1
  I  I96  1  0.49996927  0.83463242  -0.00270202  1
  I  I97  1  0.50026270  0.83063693  0.33339890  1
  I  I98  1  0.49868630  0.82763342  0.67073289  1
  I  I99  1  0.83306763  0.15780177  0.00480601  1
  I  I100  1  0.83332867  0.16645722  0.32945235  1
  I  I101  1  0.83306915  0.16409394  0.66650109  1
  I  I102  1  0.83133862  0.50294640  -0.00201602  1
  I  I103  1  0.83326899  0.49891038  0.33314672  1
  I  I104  1  0.82618881  0.50285130  0.67107489  1
  I  I105  1  0.83386128  0.83695411  0.00226259  1
  I  I106  1  0.83395972  0.83795372  0.33213222  1
  I  I107  1  0.83337223  0.83295745  0.66505660  1
  I  I108  1  0.00055670  0.16751543  0.17013670  1
  I  I109  1  0.00250609  0.16510379  0.49571529  1
  I  I110  1  -0.00008469  0.16464029  0.83230958  1
  I  I111  1  0.00195459  0.49615691  0.16392995  1
  I  I112  1  0.00011316  0.49751160  0.50091501  1
  I  I113  1  -0.00150366  0.50298694  0.83629396  1
  I  I114  1  -0.00313923  0.83735649  0.16589476  1
  I  I115  1  -0.00297228  0.83605649  0.49840616  1
  I  I116  1  0.00137380  0.83254025  0.83392679  1
  I  I117  1  0.33352836  0.17197245  0.17005361  1
  I  I118  1  0.33343564  0.16601060  0.49127664  1
  I  I119  1  0.33344375  0.16926967  0.83691580  1
  I  I120  1  0.33431557  0.48957224  0.15858470  1
  I  I121  1  0.33335753  0.50294827  0.50610844  1
  I  I122  1  0.33658480  0.50162212  0.83669638  1
  I  I123  1  0.33349360  0.83566140  0.16510576  1
  I  I124  1  0.33339638  0.83269656  0.50029225  1
  I  I125  1  0.33424409  0.82827162  0.83545830  1
  I  I126  1  0.66587588  0.16735250  0.17012422  1
  I  I127  1  0.66418840  0.16576723  0.49643767  1
  I  I128  1  0.66662681  0.16004070  0.83196959  1
  I  I129  1  0.66384246  0.49607593  0.16294946  1
  I  I130  1  0.66654147  0.49656184  0.49531144  1
  I  I131  1  0.66508585  0.50704667  0.84112289  1
  I  I132  1  0.66986863  0.83803707  0.16648496  1
  I  I133  1  0.66954923  0.83614313  0.49751382  1
  I  I134  1  0.66444694  0.83117489  0.83366539  1
