# generated using pymatgen
data_Cs27Sn13Pb14I81
_symmetry_space_group_name_H-M   'P 1'
_cell_length_a   18.97126811
_cell_length_b   18.98552360
_cell_length_c   18.97592399
_cell_angle_alpha   90.00024658
_cell_angle_beta   89.99947897
_cell_angle_gamma   90.00007545
_symmetry_Int_Tables_number   1
_chemical_formula_structural   Cs27Sn13Pb14I81
_chemical_formula_sum   'Cs27 Sn13 Pb14 I81'
_cell_volume   6834.73802383
_cell_formula_units_Z   1
loop_
 _symmetry_equiv_pos_site_id
 _symmetry_equiv_pos_as_xyz
  1  'x, y, z'
loop_
 _atom_site_type_symbol
 _atom_site_label
 _atom_site_symmetry_multiplicity
 _atom_site_fract_x
 _atom_site_fract_y
 _atom_site_fract_z
 _atom_site_occupancy
  Cs  Cs0  1  -0.00004316  -0.00010870  0.00536955  1
  Cs  Cs1  1  -0.00076686  0.00042398  0.32651878  1
  Cs  Cs2  1  -0.00032872  0.00038219  0.66682916  1
  Cs  Cs3  1  0.00111174  0.33793916  0.00300489  1
  Cs  Cs4  1  -0.00666155  0.33083362  0.32783463  1
  Cs  Cs5  1  -0.00230463  0.33333251  0.66782852  1
  Cs  Cs6  1  0.00609931  0.66097976  0.00429660  1
  Cs  Cs7  1  -0.00235367  0.66829142  0.32987574  1
  Cs  Cs8  1  -0.00016583  0.66525279  0.66753828  1
  Cs  Cs9  1  0.33207024  -0.00142071  -0.00330652  1
  Cs  Cs10  1  0.33313181  0.00009017  0.33499766  1
  Cs  Cs11  1  0.33317631  0.00100052  0.66824891  1
  Cs  Cs12  1  0.33356904  0.33423474  0.00286956  1
  Cs  Cs13  1  0.33420409  0.33440119  0.33338985  1
  Cs  Cs14  1  0.33331858  0.33091039  0.66555569  1
  Cs  Cs15  1  0.32973715  0.66715512  -0.00289513  1
  Cs  Cs16  1  0.33644444  0.66568236  0.33637258  1
  Cs  Cs17  1  0.33237045  0.66770157  0.66470887  1
  Cs  Cs18  1  0.66662145  -0.00028869  -0.00367840  1
  Cs  Cs19  1  0.66796680  0.00007835  0.33358188  1
  Cs  Cs20  1  0.66771434  0.00192864  0.66900751  1
  Cs  Cs21  1  0.66476913  0.33581062  -0.00105951  1
  Cs  Cs22  1  0.67016768  0.33120263  0.33543562  1
  Cs  Cs23  1  0.66971138  0.33060130  0.66564496  1
  Cs  Cs24  1  0.66604227  0.66560990  0.00168397  1
  Cs  Cs25  1  0.66388282  0.66762170  0.33286487  1
  Cs  Cs26  1  0.66805977  0.66740733  0.66615338  1
  Sn  Sn27  1  0.49996591  0.16628446  0.16681656  1
  Sn  Sn28  1  0.16561051  0.16662289  0.83290384  1
  Sn  Sn29  1  0.49980797  0.83367236  0.16705183  1
  Sn  Sn30  1  0.49956141  0.50030786  0.50041968  1
  Sn  Sn31  1  0.16640182  0.83338342  0.50021997  1
  Sn  Sn32  1  0.83330379  0.83349140  0.50086586  1
  Sn  Sn33  1  0.83459229  0.16601054  0.83331322  1
  Sn  Sn34  1  0.16651883  0.16692547  0.50038177  1
  Sn  Sn35  1  0.16682229  0.49965226  0.49994762  1
  Sn  Sn36  1  0.50020429  0.83318245  0.49979691  1
  Sn  Sn37  1  0.49975527  0.50006755  0.16700118  1
  Sn  Sn38  1  0.83378498  0.83345561  0.83311522  1
  Sn  Sn39  1  0.49980495  0.50016190  0.83246494  1
  Pb  Pb40  1  0.83113129  0.83325012  0.16629808  1
  Pb  Pb41  1  0.83081855  0.50013250  0.16683271  1
  Pb  Pb42  1  0.83166961  0.50035481  0.83318705  1
  Pb  Pb43  1  0.83068592  0.16654993  0.16340815  1
  Pb  Pb44  1  0.16887182  0.49768100  0.83091423  1
  Pb  Pb45  1  0.16398679  0.83504998  0.83137140  1
  Pb  Pb46  1  0.49845606  0.16653177  0.49853606  1
  Pb  Pb47  1  0.50156584  0.83146940  0.83280642  1
  Pb  Pb48  1  0.49978925  0.16866743  0.83523894  1
  Pb  Pb49  1  0.83337352  0.50230716  0.49995324  1
  Pb  Pb50  1  0.16866632  0.16664411  0.16666256  1
  Pb  Pb51  1  0.16899079  0.50005601  0.16979957  1
  Pb  Pb52  1  0.83623426  0.16410138  0.50160217  1
  Pb  Pb53  1  0.16950919  0.83323292  0.16921446  1
  I  I54  1  0.17136936  -0.00001728  0.16954559  1
  I  I55  1  0.16847131  -0.00041500  0.50408275  1
  I  I56  1  0.16856358  0.00311082  0.82694184  1
  I  I57  1  0.17109022  0.33329990  0.16903573  1
  I  I58  1  0.17504642  0.33350255  0.50452585  1
  I  I59  1  0.16176539  0.32977889  0.82707697  1
  I  I60  1  0.16807666  0.66667927  0.16612862  1
  I  I61  1  0.16965404  0.66703806  0.49925344  1
  I  I62  1  0.16648102  0.66654248  0.83243099  1
  I  I63  1  0.50008211  -0.00088468  0.17208711  1
  I  I64  1  0.49910018  -0.00314058  0.49537376  1
  I  I65  1  0.49907030  0.00003581  0.83428141  1
  I  I66  1  0.49901993  0.33424723  0.16594700  1
  I  I67  1  0.49503133  0.33624717  0.49888654  1
  I  I68  1  0.50136369  0.33654829  0.83247700  1
  I  I69  1  0.50120108  0.66656771  0.16932456  1
  I  I70  1  0.49618669  0.66694528  0.49601698  1
  I  I71  1  0.50211316  0.66358932  0.83646709  1
  I  I72  1  0.82903189  -0.00010015  0.16909843  1
  I  I73  1  0.83005932  -0.00397052  0.50203043  1
  I  I74  1  0.83400726  -0.00013514  0.82813422  1
  I  I75  1  0.83012080  0.33307599  0.16586458  1
  I  I76  1  0.83190242  0.33306800  0.50163607  1
  I  I77  1  0.83511198  0.33043624  0.83362308  1
  I  I78  1  0.83075560  0.66700722  0.16509447  1
  I  I79  1  0.83561520  0.67065579  0.50629844  1
  I  I80  1  0.82896542  0.66975115  0.82791883  1
  I  I81  1  0.16466442  0.16639047  -0.00306252  1
  I  I82  1  0.17036783  0.16587710  0.33666041  1
  I  I83  1  0.16547084  0.16634878  0.66576423  1
  I  I84  1  0.16864850  0.49785191  -0.00009712  1
  I  I85  1  0.17365440  0.49869732  0.33818939  1
  I  I86  1  0.17411361  0.50288226  0.66280848  1
  I  I87  1  0.16744698  0.83585448  -0.00013695  1
  I  I88  1  0.16209934  0.83624808  0.33831706  1
  I  I89  1  0.17317892  0.83162265  0.66257156  1
  I  I90  1  0.49906607  0.16655708  0.00320460  1
  I  I91  1  0.49736311  0.17014228  0.33055644  1
  I  I92  1  0.50100497  0.16729401  0.66676551  1
  I  I93  1  0.50301529  0.49897987  0.00062004  1
  I  I94  1  0.49550945  0.50181875  0.33404410  1
  I  I95  1  0.49645380  0.50499307  0.66513731  1
  I  I96  1  0.50317067  0.83216685  0.00243464  1
  I  I97  1  0.50119076  0.82893435  0.33477761  1
  I  I98  1  0.49823009  0.82856260  0.66316010  1
  I  I99  1  0.83887463  0.15928842  -0.00443489  1
  I  I100  1  0.83387847  0.16604368  0.33329798  1
  I  I101  1  0.83189143  0.16498703  0.66952983  1
  I  I102  1  0.82988896  0.50191108  -0.00022108  1
  I  I103  1  0.83169850  0.50106139  0.33373347  1
  I  I104  1  0.82825718  0.49869612  0.66651758  1
  I  I105  1  0.82873552  0.83846287  -0.00306861  1
  I  I106  1  0.83467833  0.83207492  0.33661219  1
  I  I107  1  0.82992285  0.83680112  0.66555053  1
  I  I108  1  -0.00000074  0.16611277  0.16898919  1
  I  I109  1  0.00445886  0.16826738  0.50156663  1
  I  I110  1  0.00016563  0.16253326  0.82697071  1
  I  I111  1  0.00044890  0.49940133  0.16718427  1
  I  I112  1  0.00328292  0.50079705  0.50244670  1
  I  I113  1  0.00031402  0.50114640  0.83095603  1
  I  I114  1  0.00002084  0.83474101  0.16817617  1
  I  I115  1  0.00034416  0.83322097  0.50656325  1
  I  I116  1  -0.00399744  0.83467791  0.82619565  1
  I  I117  1  0.33696140  0.16744139  0.16510700  1
  I  I118  1  0.33036334  0.16236526  0.50569287  1
  I  I119  1  0.33086697  0.16867961  0.83000461  1
  I  I120  1  0.33781460  0.49993704  0.16488715  1
  I  I121  1  0.33460907  0.50473290  0.49971875  1
  I  I122  1  0.33714373  0.49909066  0.83572922  1
  I  I123  1  0.33802196  0.83258114  0.17142230  1
  I  I124  1  0.33379857  0.83210009  0.49496989  1
  I  I125  1  0.33331519  0.83443544  0.83315689  1
  I  I126  1  0.66243413  0.16754891  0.16675068  1
  I  I127  1  0.66682442  0.16696185  0.50046217  1
  I  I128  1  0.66886071  0.16405493  0.83572891  1
  I  I129  1  0.66145918  0.50062407  0.16975072  1
  I  I130  1  0.66291743  0.50467383  0.49875305  1
  I  I131  1  0.66298933  0.49792284  0.83161050  1
  I  I132  1  0.66258118  0.83199333  0.17302520  1
  I  I133  1  0.66553808  0.82805907  0.49927274  1
  I  I134  1  0.66930437  0.83958664  0.82729956  1
