# generated using pymatgen
data_Cs27Sn14Pb13I81
_symmetry_space_group_name_H-M   'P 1'
_cell_length_a   18.96340438
_cell_length_b   18.95906246
_cell_length_c   18.95833042
_cell_angle_alpha   89.99694865
_cell_angle_beta   89.99938346
_cell_angle_gamma   89.99879593
_symmetry_Int_Tables_number   1
_chemical_formula_structural   Cs27Sn14Pb13I81
_chemical_formula_sum   'Cs27 Sn14 Pb13 I81'
_cell_volume   6816.05758546
_cell_formula_units_Z   1
loop_
 _symmetry_equiv_pos_site_id
 _symmetry_equiv_pos_as_xyz
  1  'x, y, z'
loop_
 _atom_site_type_symbol
 _atom_site_label
 _atom_site_symmetry_multiplicity
 _atom_site_fract_x
 _atom_site_fract_y
 _atom_site_fract_z
 _atom_site_occupancy
  Cs  Cs0  1  -0.00289991  0.00224956  -0.00156405  1
  Cs  Cs1  1  0.00239290  0.00312057  0.33417213  1
  Cs  Cs2  1  -0.00117835  -0.00283161  0.66607077  1
  Cs  Cs3  1  -0.00034328  0.33204743  0.00032815  1
  Cs  Cs4  1  -0.00082334  0.33215913  0.33294188  1
  Cs  Cs5  1  0.00529325  0.33451663  0.66445275  1
  Cs  Cs6  1  -0.00032815  0.66564887  0.00112263  1
  Cs  Cs7  1  -0.00009098  0.66629216  0.33204813  1
  Cs  Cs8  1  -0.00007400  0.66789534  0.66672365  1
  Cs  Cs9  1  0.33310922  -0.00319393  0.00087791  1
  Cs  Cs10  1  0.33197428  -0.00233757  0.33168803  1
  Cs  Cs11  1  0.33361666  0.00415971  0.66803349  1
  Cs  Cs12  1  0.33346855  0.33324816  -0.00132820  1
  Cs  Cs13  1  0.33316741  0.33386429  0.33492737  1
  Cs  Cs14  1  0.33213238  0.33211018  0.66595787  1
  Cs  Cs15  1  0.33504780  0.66932595  0.00092511  1
  Cs  Cs16  1  0.33535480  0.66894517  0.33265556  1
  Cs  Cs17  1  0.33163616  0.66332090  0.66789648  1
  Cs  Cs18  1  0.67064148  0.00371236  -0.00295917  1
  Cs  Cs19  1  0.66515308  -0.00221834  0.33636352  1
  Cs  Cs20  1  0.66563611  -0.00199007  0.66703835  1
  Cs  Cs21  1  0.66686340  0.33502808  0.00288176  1
  Cs  Cs22  1  0.66804063  0.33361638  0.33090349  1
  Cs  Cs23  1  0.66169255  0.33260629  0.66519427  1
  Cs  Cs24  1  0.66561082  0.66431905  -0.00075426  1
  Cs  Cs25  1  0.66631418  0.66766980  0.33433114  1
  Cs  Cs26  1  0.66869640  0.66965861  0.66767154  1
  Sn  Sn27  1  0.16691338  0.49927695  0.16673347  1
  Sn  Sn28  1  0.83286295  0.49973425  0.83313371  1
  Sn  Sn29  1  0.16676520  0.83378984  0.50078394  1
  Sn  Sn30  1  0.83333883  0.50092924  0.16659515  1
  Sn  Sn31  1  0.49905519  0.16722253  0.16672267  1
  Sn  Sn32  1  0.83330849  0.83292391  0.16677172  1
  Sn  Sn33  1  0.49979523  0.49939017  0.16617870  1
  Sn  Sn34  1  0.16590732  0.16592167  0.49921433  1
  Sn  Sn35  1  0.83331092  0.49916245  0.50013412  1
  Sn  Sn36  1  0.49928715  0.83266581  0.83344080  1
  Sn  Sn37  1  0.50060382  0.50072717  0.83395714  1
  Sn  Sn38  1  0.16722910  0.83320879  0.83255351  1
  Sn  Sn39  1  0.16764623  0.16765480  0.16714687  1
  Sn  Sn40  1  0.83379628  0.16741411  0.50010910  1
  Pb  Pb41  1  0.83340423  0.16703764  0.16820339  1
  Pb  Pb42  1  0.49998527  0.16723411  0.83591526  1
  Pb  Pb43  1  0.16507473  0.83372361  0.16653139  1
  Pb  Pb44  1  0.50248409  0.83340017  0.16477713  1
  Pb  Pb45  1  0.16483626  0.49992815  0.49766853  1
  Pb  Pb46  1  0.16694919  0.50179202  0.83573799  1
  Pb  Pb47  1  0.16656722  0.16422866  0.83348042  1
  Pb  Pb48  1  0.83333422  0.83142839  0.83519993  1
  Pb  Pb49  1  0.49958707  0.16672100  0.49739377  1
  Pb  Pb50  1  0.83336631  0.17011514  0.82976283  1
  Pb  Pb51  1  0.83512426  0.83327561  0.49808212  1
  Pb  Pb52  1  0.50259316  0.50013898  0.50002972  1
  Pb  Pb53  1  0.49698908  0.83325927  0.50303557  1
  I  I54  1  0.16910594  0.00272649  0.16805023  1
  I  I55  1  0.16075967  0.00101202  0.49752915  1
  I  I56  1  0.17192840  -0.00392629  0.83482362  1
  I  I57  1  0.16495073  0.33341963  0.17135845  1
  I  I58  1  0.16383821  0.33067702  0.49688208  1
  I  I59  1  0.16698595  0.33363653  0.83126906  1
  I  I60  1  0.16746537  0.66414383  0.16643191  1
  I  I61  1  0.16465220  0.66891212  0.50201423  1
  I  I62  1  0.16724592  0.66975134  0.82940447  1
  I  I63  1  0.49641224  0.00245819  0.16631659  1
  I  I64  1  0.50567322  0.00004448  0.49922152  1
  I  I65  1  0.49551250  -0.00270400  0.83464439  1
  I  I66  1  0.50173962  0.33499141  0.16175823  1
  I  I67  1  0.49605993  0.33348551  0.50472926  1
  I  I68  1  0.50503480  0.33695486  0.83592203  1
  I  I69  1  0.49801891  0.66342351  0.16440819  1
  I  I70  1  0.49991443  0.66660454  0.49437069  1
  I  I71  1  0.49992257  0.66546725  0.83975782  1
  I  I72  1  0.83430000  -0.00174017  0.16804363  1
  I  I73  1  0.83615492  0.00241731  0.49600037  1
  I  I74  1  0.83291851  -0.00015234  0.83520369  1
  I  I75  1  0.83311399  0.33657306  0.16549622  1
  I  I76  1  0.83902495  0.33401026  0.49722858  1
  I  I77  1  0.82797879  0.33832112  0.84083799  1
  I  I78  1  0.83434724  0.66399168  0.16862819  1
  I  I79  1  0.83462252  0.66371037  0.50013509  1
  I  I80  1  0.83245839  0.66305056  0.83033765  1
  I  I81  1  0.16991996  0.16946335  0.00344690  1
  I  I82  1  0.16594158  0.16459273  0.33305516  1
  I  I83  1  0.16204805  0.16470580  0.66343527  1
  I  I84  1  0.16188830  0.49642578  0.00407155  1
  I  I85  1  0.16646074  0.50097606  0.32926354  1
  I  I86  1  0.16607553  0.49854607  0.66664203  1
  I  I87  1  0.16912398  0.83190173  -0.00212086  1
  I  I88  1  0.16287888  0.83473795  0.33524367  1
  I  I89  1  0.16868770  0.83776832  0.66642834  1
  I  I90  1  0.49492207  0.16852777  0.00414791  1
  I  I91  1  0.49933748  0.17342499  0.32921365  1
  I  I92  1  0.49995467  0.16696610  0.66668636  1
  I  I93  1  0.50472233  0.49999424  0.00093439  1
  I  I94  1  0.50074873  0.49586482  0.32968876  1
  I  I95  1  0.50456045  0.50455634  0.67006252  1
  I  I96  1  0.49312680  0.83100422  -0.00300775  1
  I  I97  1  0.49983811  0.83290443  0.33299676  1
  I  I98  1  0.50108938  0.82697274  0.67115409  1
  I  I99  1  0.83382174  0.16606710  0.00020803  1
  I  I100  1  0.83526199  0.17209463  0.33594693  1
  I  I101  1  0.83995309  0.16988036  0.66173837  1
  I  I102  1  0.83252511  0.50524266  0.00112187  1
  I  I103  1  0.83400765  0.49977234  0.33224473  1
  I  I104  1  0.82932825  0.49613700  0.66679086  1
  I  I105  1  0.83586894  0.82834228  0.00313574  1
  I  I106  1  0.83490554  0.82716269  0.33023579  1
  I  I107  1  0.83261404  0.83229251  0.66669011  1
  I  I108  1  0.00263348  0.16916063  0.16922819  1
  I  I109  1  0.00089244  0.16722372  0.49326343  1
  I  I110  1  -0.00001257  0.16614807  0.83935464  1
  I  I111  1  -0.00076029  0.50055996  0.16679760  1
  I  I112  1  -0.00347447  0.49907779  0.49963384  1
  I  I113  1  -0.00258845  0.50166025  0.83502169  1
  I  I114  1  -0.00256308  0.82796599  0.16506653  1
  I  I115  1  0.00307930  0.83452220  0.50517483  1
  I  I116  1  0.00235121  0.83221319  0.83126375  1
  I  I117  1  0.33235605  0.17363398  0.17150165  1
  I  I118  1  0.32983343  0.16245979  0.49770061  1
  I  I119  1  0.33325531  0.17087467  0.82921320  1
  I  I120  1  0.33375156  0.49576616  0.16217050  1
  I  I121  1  0.33306482  0.49961978  0.49984513  1
  I  I122  1  0.33613627  0.50269513  0.83873842  1
  I  I123  1  0.33334960  0.83108251  0.16784875  1
  I  I124  1  0.32882766  0.83897914  0.49809909  1
  I  I125  1  0.33343058  0.82730279  0.83121771  1
  I  I126  1  0.66462782  0.16993453  0.16707708  1
  I  I127  1  0.66943302  0.17171600  0.49809044  1
  I  I128  1  0.66668971  0.16118681  0.83376703  1
  I  I129  1  0.66693333  0.49945644  0.16575773  1
  I  I130  1  0.67102067  0.49461856  0.49515337  1
  I  I131  1  0.66647175  0.50556817  0.83847731  1
  I  I132  1  0.67005750  0.82902393  0.16572648  1
  I  I133  1  0.66692518  0.83415310  0.50000163  1
  I  I134  1  0.66430794  0.83056390  0.83665775  1
