# generated using pymatgen
data_Cs27Sn14Pb13I81
_symmetry_space_group_name_H-M   'P 1'
_cell_length_a   18.98338828
_cell_length_b   18.97441879
_cell_length_c   18.96962147
_cell_angle_alpha   90.00064510
_cell_angle_beta   90.00060122
_cell_angle_gamma   89.99979609
_symmetry_Int_Tables_number   1
_chemical_formula_structural   Cs27Sn14Pb13I81
_chemical_formula_sum   'Cs27 Sn14 Pb13 I81'
_cell_volume   6832.83411585
_cell_formula_units_Z   1
loop_
 _symmetry_equiv_pos_site_id
 _symmetry_equiv_pos_as_xyz
  1  'x, y, z'
loop_
 _atom_site_type_symbol
 _atom_site_label
 _atom_site_symmetry_multiplicity
 _atom_site_fract_x
 _atom_site_fract_y
 _atom_site_fract_z
 _atom_site_occupancy
  Cs  Cs0  1  0.00387671  0.00266692  0.00031576  1
  Cs  Cs1  1  0.00028684  -0.00197155  0.33538811  1
  Cs  Cs2  1  -0.00030306  -0.00149443  0.66565230  1
  Cs  Cs3  1  -0.00078613  0.32910484  0.00501987  1
  Cs  Cs4  1  0.00045984  0.33300391  0.33320432  1
  Cs  Cs5  1  -0.00204777  0.33568207  0.66437313  1
  Cs  Cs6  1  0.00062385  0.66736239  -0.00000092  1
  Cs  Cs7  1  0.00021169  0.66799755  0.33176963  1
  Cs  Cs8  1  -0.00056140  0.66672131  0.66769019  1
  Cs  Cs9  1  0.33119372  0.00886121  -0.00010686  1
  Cs  Cs10  1  0.33484201  -0.00141025  0.33212977  1
  Cs  Cs11  1  0.33152108  0.00066979  0.66779163  1
  Cs  Cs12  1  0.33285137  0.32529081  0.00082683  1
  Cs  Cs13  1  0.33322130  0.33626159  0.33456949  1
  Cs  Cs14  1  0.33529822  0.33672835  0.66460672  1
  Cs  Cs15  1  0.33130592  0.66740294  -0.00271021  1
  Cs  Cs16  1  0.33836321  0.66548182  0.33344377  1
  Cs  Cs17  1  0.33451281  0.66366868  0.66868812  1
  Cs  Cs18  1  0.66398653  0.00566148  -0.00003643  1
  Cs  Cs19  1  0.66357152  -0.00414524  0.33611673  1
  Cs  Cs20  1  0.66811868  0.00051129  0.66502525  1
  Cs  Cs21  1  0.66661320  0.32848012  0.00615375  1
  Cs  Cs22  1  0.66738140  0.33575795  0.32568498  1
  Cs  Cs23  1  0.66842651  0.33189710  0.66804195  1
  Cs  Cs24  1  0.66718340  0.66595473  -0.00175069  1
  Cs  Cs25  1  0.66095905  0.66786084  0.32948222  1
  Cs  Cs26  1  0.66740937  0.66722638  0.66850357  1
  Sn  Sn27  1  0.50067199  0.50032737  0.83357153  1
  Sn  Sn28  1  0.16608192  0.83227675  0.16739280  1
  Sn  Sn29  1  0.16679966  0.16577523  0.50016560  1
  Sn  Sn30  1  0.16649632  0.50110461  0.16565520  1
  Sn  Sn31  1  0.50074955  0.83316907  0.83334380  1
  Sn  Sn32  1  0.83314272  0.16672809  0.50013045  1
  Sn  Sn33  1  0.83316757  0.50043307  0.83318495  1
  Sn  Sn34  1  0.83318438  0.50075585  0.50006183  1
  Sn  Sn35  1  0.83390769  0.83317687  0.16642432  1
  Sn  Sn36  1  0.16632842  0.83345553  0.49935315  1
  Sn  Sn37  1  0.16607022  0.49997620  0.83456989  1
  Sn  Sn38  1  0.83388108  0.83256128  0.49983202  1
  Sn  Sn39  1  0.50014282  0.16675586  0.50012818  1
  Sn  Sn40  1  0.83257828  0.83291785  0.83370420  1
  Pb  Pb41  1  0.83349901  0.16301029  0.16990563  1
  Pb  Pb42  1  0.50343447  0.49803192  0.50201166  1
  Pb  Pb43  1  0.49976819  0.83447597  0.50222209  1
  Pb  Pb44  1  0.50003530  0.16649985  0.17000191  1
  Pb  Pb45  1  0.83359666  0.16653728  0.83165898  1
  Pb  Pb46  1  0.16629040  0.17029054  0.83025507  1
  Pb  Pb47  1  0.16650567  0.16619096  0.16956630  1
  Pb  Pb48  1  0.50014337  0.16674348  0.83139056  1
  Pb  Pb49  1  0.16632507  0.83211069  0.83324684  1
  Pb  Pb50  1  0.16499704  0.50086614  0.49991610  1
  Pb  Pb51  1  0.49937114  0.83328241  0.16339401  1
  Pb  Pb52  1  0.49692021  0.50028711  0.16330284  1
  Pb  Pb53  1  0.83506924  0.50211337  0.16618281  1
  I  I54  1  0.16254451  -0.00350346  0.16882027  1
  I  I55  1  0.16184395  -0.00111705  0.49551723  1
  I  I56  1  0.16765276  -0.00006375  0.83548065  1
  I  I57  1  0.16728003  0.33604706  0.16306183  1
  I  I58  1  0.16509337  0.33140587  0.50134414  1
  I  I59  1  0.16672763  0.33861271  0.83788824  1
  I  I60  1  0.16197753  0.66768300  0.16905589  1
  I  I61  1  0.16074590  0.66961160  0.49974781  1
  I  I62  1  0.16638121  0.66389261  0.83102020  1
  I  I63  1  0.49819144  -0.00038110  0.16299248  1
  I  I64  1  0.50445839  0.00247311  0.50341746  1
  I  I65  1  0.50560320  -0.00292501  0.83177359  1
  I  I66  1  0.49890865  0.33355429  0.16455521  1
  I  I67  1  0.49724574  0.33009341  0.50340642  1
  I  I68  1  0.49973944  0.33659536  0.83044960  1
  I  I69  1  0.50130594  0.66680676  0.17178264  1
  I  I70  1  0.49887576  0.66647974  0.49949607  1
  I  I71  1  0.50100148  0.66629274  0.83134937  1
  I  I72  1  0.84055986  -0.00515735  0.16465810  1
  I  I73  1  0.83409879  -0.00103345  0.50015865  1
  I  I74  1  0.82840806  -0.00380188  0.83185329  1
  I  I75  1  0.83441195  0.33338002  0.16708331  1
  I  I76  1  0.83424448  0.33361233  0.50674309  1
  I  I77  1  0.83329707  0.33691354  0.82705514  1
  I  I78  1  0.83603475  0.67018462  0.17164710  1
  I  I79  1  0.83988277  0.66783362  0.50236243  1
  I  I80  1  0.83301148  0.66686605  0.82749320  1
  I  I81  1  0.16818700  0.16412307  0.00011725  1
  I  I82  1  0.16515279  0.16794586  0.33768070  1
  I  I83  1  0.16549110  0.16022922  0.66217166  1
  I  I84  1  0.16497621  0.50792639  -0.00053512  1
  I  I85  1  0.16333976  0.50005002  0.33138518  1
  I  I86  1  0.16777676  0.49969808  0.66913969  1
  I  I87  1  0.16322930  0.82938924  0.00235052  1
  I  I88  1  0.15838263  0.83223503  0.33396437  1
  I  I89  1  0.16318428  0.83623544  0.66394241  1
  I  I90  1  0.49915983  0.16654984  -0.00019939  1
  I  I91  1  0.50041285  0.16505423  0.33825571  1
  I  I92  1  0.50055680  0.16649662  0.66337751  1
  I  I93  1  0.50669085  0.50454479  -0.00486268  1
  I  I94  1  0.49952202  0.49743585  0.33336197  1
  I  I95  1  0.49396621  0.50359901  0.67006652  1
  I  I96  1  0.50436108  0.82810870  -0.00453209  1
  I  I97  1  0.50225365  0.83611225  0.33345780  1
  I  I98  1  0.50386853  0.82979325  0.66998943  1
  I  I99  1  0.83248949  0.16757378  0.00034771  1
  I  I100  1  0.83452336  0.16924184  0.33848224  1
  I  I101  1  0.83386339  0.16245554  0.66277694  1
  I  I102  1  0.83206974  0.50586493  -0.00337105  1
  I  I103  1  0.83678327  0.49912178  0.33604602  1
  I  I104  1  0.83622706  0.50378816  0.66706013  1
  I  I105  1  0.83382055  0.82601275  -0.00084512  1
  I  I106  1  0.83896905  0.83460344  0.33459457  1
  I  I107  1  0.83369795  0.83331461  0.66594998  1
  I  I108  1  0.00002919  0.16952385  0.16809088  1
  I  I109  1  -0.00047611  0.16535592  0.50054198  1
  I  I110  1  0.00000676  0.16545170  0.82998590  1
  I  I111  1  0.00291514  0.50238116  0.16180054  1
  I  I112  1  -0.00299120  0.49649474  0.50594261  1
  I  I113  1  -0.00095654  0.50497363  0.83120548  1
  I  I114  1  0.00005232  0.82922645  0.16677351  1
  I  I115  1  -0.00111351  0.83777661  0.50179207  1
  I  I116  1  -0.00305212  0.82900267  0.83154391  1
  I  I117  1  0.33295640  0.16461118  0.16856076  1
  I  I118  1  0.33251811  0.16168800  0.50090456  1
  I  I119  1  0.33321252  0.16526822  0.82962732  1
  I  I120  1  0.32881796  0.50680958  0.16474567  1
  I  I121  1  0.33334805  0.49844708  0.50119366  1
  I  I122  1  0.33327273  0.50493703  0.83634699  1
  I  I123  1  0.32968970  0.82951248  0.17194494  1
  I  I124  1  0.33032428  0.83830409  0.49709736  1
  I  I125  1  0.33507857  0.82824258  0.83145261  1
  I  I126  1  0.66702411  0.16636318  0.16834427  1
  I  I127  1  0.66791518  0.16547565  0.50217300  1
  I  I128  1  0.66686279  0.16974951  0.82932507  1
  I  I129  1  0.66680798  0.50058568  0.16768964  1
  I  I130  1  0.67163863  0.50188234  0.50539576  1
  I  I131  1  0.66774928  0.50534886  0.82557493  1
  I  I132  1  0.66975452  0.83363769  0.17133084  1
  I  I133  1  0.67004253  0.83457928  0.49811256  1
  I  I134  1  0.66841285  0.82542548  0.83167121  1
