# generated using pymatgen
data_Cs27Sn14Pb13I81
_symmetry_space_group_name_H-M   'P 1'
_cell_length_a   18.98163285
_cell_length_b   18.96322832
_cell_length_c   18.98498358
_cell_angle_alpha   90.00066862
_cell_angle_beta   90.00024118
_cell_angle_gamma   90.00011120
_symmetry_Int_Tables_number   1
_chemical_formula_structural   Cs27Sn14Pb13I81
_chemical_formula_sum   'Cs27 Sn14 Pb13 I81'
_cell_volume   6833.70250813
_cell_formula_units_Z   1
loop_
 _symmetry_equiv_pos_site_id
 _symmetry_equiv_pos_as_xyz
  1  'x, y, z'
loop_
 _atom_site_type_symbol
 _atom_site_label
 _atom_site_symmetry_multiplicity
 _atom_site_fract_x
 _atom_site_fract_y
 _atom_site_fract_z
 _atom_site_occupancy
  Cs  Cs0  1  0.00253435  0.00046875  0.00212103  1
  Cs  Cs1  1  0.00171772  -0.00736443  0.33426658  1
  Cs  Cs2  1  0.00119659  -0.00075382  0.66508243  1
  Cs  Cs3  1  0.00001285  0.33334413  -0.00078472  1
  Cs  Cs4  1  -0.00382939  0.33398155  0.33557606  1
  Cs  Cs5  1  -0.00078488  0.33484544  0.66640945  1
  Cs  Cs6  1  -0.00055804  0.66510438  -0.00046397  1
  Cs  Cs7  1  0.00212976  0.67369474  0.33343192  1
  Cs  Cs8  1  0.00154061  0.66390067  0.66767046  1
  Cs  Cs9  1  0.33104116  0.00224433  0.00052591  1
  Cs  Cs10  1  0.32886977  -0.00474534  0.33355886  1
  Cs  Cs11  1  0.33251212  -0.00038335  0.66692692  1
  Cs  Cs12  1  0.33066610  0.33273436  0.00010375  1
  Cs  Cs13  1  0.33541144  0.33589636  0.33218681  1
  Cs  Cs14  1  0.33296034  0.33331846  0.66702004  1
  Cs  Cs15  1  0.33480020  0.66618300  0.00492321  1
  Cs  Cs16  1  0.34021940  0.67177480  0.32542534  1
  Cs  Cs17  1  0.33256014  0.66732882  0.66604658  1
  Cs  Cs18  1  0.66637293  -0.00270739  -0.00079806  1
  Cs  Cs19  1  0.66898346  0.00289869  0.33178880  1
  Cs  Cs20  1  0.66623025  -0.00126198  0.66836237  1
  Cs  Cs21  1  0.66933405  0.33228487  -0.00092484  1
  Cs  Cs22  1  0.66754660  0.33216338  0.33389123  1
  Cs  Cs23  1  0.66807795  0.33315219  0.66613268  1
  Cs  Cs24  1  0.66611251  0.67465812  -0.00169440  1
  Cs  Cs25  1  0.65763111  0.67191020  0.33204461  1
  Cs  Cs26  1  0.66362602  0.67139148  0.66804723  1
  Sn  Sn27  1  0.16634675  0.16810173  0.49998389  1
  Sn  Sn28  1  0.16644982  0.83201730  0.83323573  1
  Sn  Sn29  1  0.50037834  0.49895076  0.83326059  1
  Sn  Sn30  1  0.83328227  0.49963612  0.16711361  1
  Sn  Sn31  1  0.83277453  0.49926810  0.83316845  1
  Sn  Sn32  1  0.83361872  0.50003447  0.49968814  1
  Sn  Sn33  1  0.83278659  0.16758806  0.16657455  1
  Sn  Sn34  1  0.83285264  0.16728185  0.83323597  1
  Sn  Sn35  1  0.50001931  0.16726006  0.50003664  1
  Sn  Sn36  1  0.16649628  0.49922427  0.50010782  1
  Sn  Sn37  1  0.50058428  0.16741759  0.16641586  1
  Sn  Sn38  1  0.83356842  0.16719047  0.50017027  1
  Sn  Sn39  1  0.50074189  0.16788950  0.83340635  1
  Sn  Sn40  1  0.16676580  0.50077017  0.83264813  1
  Pb  Pb41  1  0.16667372  0.83197099  0.50170502  1
  Pb  Pb42  1  0.50031185  0.83706209  0.16631723  1
  Pb  Pb43  1  0.83324285  0.83334207  0.16655064  1
  Pb  Pb44  1  0.50023682  0.49835367  0.50178691  1
  Pb  Pb45  1  0.16635809  0.16763941  0.83161846  1
  Pb  Pb46  1  0.16649490  0.83309896  0.16348842  1
  Pb  Pb47  1  0.50299310  0.49761522  0.16374867  1
  Pb  Pb48  1  0.16599861  0.16719386  0.17021098  1
  Pb  Pb49  1  0.83320202  0.83235977  0.50029059  1
  Pb  Pb50  1  0.50002413  0.83665171  0.50031069  1
  Pb  Pb51  1  0.49751426  0.83375613  0.83323813  1
  Pb  Pb52  1  0.83545118  0.83345811  0.83313777  1
  Pb  Pb53  1  0.16427485  0.49964175  0.16745818  1
  I  I54  1  0.16521132  0.00044882  0.16605945  1
  I  I55  1  0.16646882  0.00294853  0.50129674  1
  I  I56  1  0.16681607  -0.00111972  0.83139599  1
  I  I57  1  0.16920244  0.33324202  0.15964653  1
  I  I58  1  0.16481867  0.33341050  0.50720560  1
  I  I59  1  0.16618226  0.33652287  0.83134640  1
  I  I60  1  0.16421969  0.66624364  0.17114495  1
  I  I61  1  0.15873786  0.66250380  0.50404645  1
  I  I62  1  0.16543114  0.66396987  0.82697773  1
  I  I63  1  0.50746787  0.00552698  0.16378310  1
  I  I64  1  0.50040848  0.00605146  0.50359288  1
  I  I65  1  0.50332958  0.00409267  0.83308069  1
  I  I66  1  0.50170444  0.32941669  0.16928060  1
  I  I67  1  0.50027353  0.32950159  0.49897222  1
  I  I68  1  0.49884589  0.33225964  0.83271785  1
  I  I69  1  0.50096334  0.66631941  0.16541946  1
  I  I70  1  0.50019747  0.66623502  0.50243275  1
  I  I71  1  0.50405285  0.66329493  0.83238447  1
  I  I72  1  0.82911062  0.00425845  0.16653813  1
  I  I73  1  0.83360625  0.00436191  0.49976908  1
  I  I74  1  0.82996985  0.00388094  0.83331846  1
  I  I75  1  0.83020220  0.33228540  0.16618442  1
  I  I76  1  0.83435239  0.33234219  0.50082968  1
  I  I77  1  0.83489173  0.33337667  0.83311338  1
  I  I78  1  0.83605467  0.66299793  0.16484311  1
  I  I79  1  0.84044073  0.66208764  0.50162102  1
  I  I80  1  0.83068536  0.66266885  0.83328913  1
  I  I81  1  0.16692618  0.16502337  -0.00003642  1
  I  I82  1  0.16687341  0.17240834  0.33838534  1
  I  I83  1  0.16637934  0.16727874  0.66361731  1
  I  I84  1  0.16579610  0.50408730  -0.00327861  1
  I  I85  1  0.16152921  0.49326949  0.33717235  1
  I  I86  1  0.16146587  0.49930288  0.66739364  1
  I  I87  1  0.16601174  0.82838921  -0.00451839  1
  I  I88  1  0.16655085  0.83469095  0.33347093  1
  I  I89  1  0.16643833  0.83226458  0.66944213  1
  I  I90  1  0.50675611  0.16983573  -0.00093314  1
  I  I91  1  0.50400055  0.16583602  0.33374905  1
  I  I92  1  0.50270653  0.17001585  0.66712713  1
  I  I93  1  0.49758995  0.49395788  -0.00441579  1
  I  I94  1  0.49885469  0.49897211  0.33319518  1
  I  I95  1  0.50344800  0.49348880  0.67006890  1
  I  I96  1  0.49864876  0.83518876  -0.00039984  1
  I  I97  1  0.49833097  0.83187795  0.33318553  1
  I  I98  1  0.50030170  0.83643944  0.66714009  1
  I  I99  1  0.82665239  0.17244225  -0.00059143  1
  I  I100  1  0.82984660  0.17254604  0.33386338  1
  I  I101  1  0.83112584  0.17153284  0.66662986  1
  I  I102  1  0.83422866  0.49335685  -0.00123815  1
  I  I103  1  0.83988777  0.49091893  0.33431385  1
  I  I104  1  0.83548604  0.49327000  0.66712833  1
  I  I105  1  0.83539425  0.83414069  -0.00022872  1
  I  I106  1  0.83515682  0.83473442  0.33337481  1
  I  I107  1  0.83346640  0.83600421  0.66683644  1
  I  I108  1  -0.00386781  0.17027395  0.16389636  1
  I  I109  1  -0.00101293  0.17025134  0.50147464  1
  I  I110  1  -0.00309853  0.16895133  0.83399121  1
  I  I111  1  -0.00396892  0.49181723  0.16100017  1
  I  I112  1  -0.00064048  0.49084075  0.50605449  1
  I  I113  1  -0.00082833  0.49994128  0.83298758  1
  I  I114  1  -0.00017233  0.83732584  0.16696160  1
  I  I115  1  0.00005119  0.84011937  0.50046350  1
  I  I116  1  0.00308782  0.82973298  0.83202393  1
  I  I117  1  0.33623164  0.16516927  0.16447565  1
  I  I118  1  0.33333252  0.17011485  0.50197623  1
  I  I119  1  0.33592504  0.16875753  0.83323679  1
  I  I120  1  0.33378495  0.49932142  0.16589200  1
  I  I121  1  0.33068100  0.49389906  0.50766503  1
  I  I122  1  0.33307428  0.49907251  0.82784154  1
  I  I123  1  0.33345687  0.83473166  0.16681081  1
  I  I124  1  0.33313169  0.83487998  0.50186393  1
  I  I125  1  0.32987892  0.83035259  0.83163601  1
  I  I126  1  0.66766636  0.17054441  0.17055320  1
  I  I127  1  0.66749439  0.17014212  0.50004026  1
  I  I128  1  0.66714282  0.17315843  0.82964417  1
  I  I129  1  0.67101801  0.49625930  0.16891592  1
  I  I130  1  0.67001227  0.49464043  0.50101311  1
  I  I131  1  0.66774387  0.49361771  0.83287455  1
  I  I132  1  0.66677207  0.83097900  0.16493019  1
  I  I133  1  0.66668919  0.83220361  0.50104133  1
  I  I134  1  0.66655865  0.83166314  0.83420780  1
