# generated using pymatgen
data_Cs27Sn13Pb14I81
_symmetry_space_group_name_H-M   'P 1'
_cell_length_a   18.97589454
_cell_length_b   18.97296394
_cell_length_c   18.98111148
_cell_angle_alpha   89.99999067
_cell_angle_beta   89.99946661
_cell_angle_gamma   89.99895649
_symmetry_Int_Tables_number   1
_chemical_formula_structural   Cs27Sn13Pb14I81
_chemical_formula_sum   'Cs27 Sn13 Pb14 I81'
_cell_volume   6833.74987619
_cell_formula_units_Z   1
loop_
 _symmetry_equiv_pos_site_id
 _symmetry_equiv_pos_as_xyz
  1  'x, y, z'
loop_
 _atom_site_type_symbol
 _atom_site_label
 _atom_site_symmetry_multiplicity
 _atom_site_fract_x
 _atom_site_fract_y
 _atom_site_fract_z
 _atom_site_occupancy
  Cs  Cs0  1  -0.00184738  -0.00291051  0.01008186  1
  Cs  Cs1  1  0.00105539  -0.00003366  0.32509705  1
  Cs  Cs2  1  0.00032206  0.00043576  0.66723315  1
  Cs  Cs3  1  0.00464561  0.33272647  -0.00111284  1
  Cs  Cs4  1  0.00104503  0.33572181  0.33572589  1
  Cs  Cs5  1  -0.00005123  0.33441995  0.66518372  1
  Cs  Cs6  1  0.00140243  0.67003736  0.00210193  1
  Cs  Cs7  1  0.00121858  0.66461559  0.33254598  1
  Cs  Cs8  1  -0.00193746  0.66551750  0.66544454  1
  Cs  Cs9  1  0.33300797  0.00527072  -0.00077968  1
  Cs  Cs10  1  0.33254019  -0.00083624  0.33625327  1
  Cs  Cs11  1  0.33296694  -0.00026183  0.66547051  1
  Cs  Cs12  1  0.32872670  0.32681554  -0.00305130  1
  Cs  Cs13  1  0.33386020  0.33418126  0.33386433  1
  Cs  Cs14  1  0.33141028  0.33177573  0.66836378  1
  Cs  Cs15  1  0.33470974  0.66621738  -0.00013312  1
  Cs  Cs16  1  0.33490540  0.66683087  0.33068100  1
  Cs  Cs17  1  0.33399485  0.66887425  0.66807585  1
  Cs  Cs18  1  0.66908930  0.00266186  0.00188165  1
  Cs  Cs19  1  0.66833985  -0.00021400  0.33356912  1
  Cs  Cs20  1  0.66755904  -0.00206772  0.66616829  1
  Cs  Cs21  1  0.66544303  0.33502603  -0.00015698  1
  Cs  Cs22  1  0.66623707  0.33379570  0.33185481  1
  Cs  Cs23  1  0.66749690  0.33327515  0.66759755  1
  Cs  Cs24  1  0.66448567  0.66337906  -0.00167816  1
  Cs  Cs25  1  0.66424633  0.66541937  0.33567630  1
  Cs  Cs26  1  0.66669320  0.66797339  0.66754552  1
  Sn  Sn27  1  0.83272520  0.49915372  0.83419814  1
  Sn  Sn28  1  0.50014264  0.83310378  0.16534733  1
  Sn  Sn29  1  0.50041020  0.50035277  0.16594826  1
  Sn  Sn30  1  0.49936583  0.83304541  0.83440569  1
  Sn  Sn31  1  0.83333233  0.16648080  0.50072326  1
  Sn  Sn32  1  0.16650925  0.83374615  0.50079436  1
  Sn  Sn33  1  0.49994253  0.49919654  0.50054779  1
  Sn  Sn34  1  0.50035045  0.16737016  0.50035387  1
  Sn  Sn35  1  0.16634900  0.16575989  0.50042286  1
  Sn  Sn36  1  0.50029963  0.50022622  0.83346110  1
  Sn  Sn37  1  0.83265302  0.49986476  0.16560329  1
  Sn  Sn38  1  0.83332631  0.16724716  0.83288787  1
  Sn  Sn39  1  0.16726812  0.83340107  0.83261097  1
  Pb  Pb40  1  0.16649243  0.50224936  0.83328878  1
  Pb  Pb41  1  0.16941898  0.50018948  0.50023498  1
  Pb  Pb42  1  0.49877627  0.83327212  0.50029739  1
  Pb  Pb43  1  0.83009302  0.83011937  0.16665945  1
  Pb  Pb44  1  0.49999885  0.16705280  0.16907279  1
  Pb  Pb45  1  0.83314532  0.16952294  0.16647916  1
  Pb  Pb46  1  0.16351740  0.16384912  0.83146596  1
  Pb  Pb47  1  0.83309484  0.83306325  0.83337414  1
  Pb  Pb48  1  0.83650553  0.83609729  0.49983104  1
  Pb  Pb49  1  0.50168953  0.16645474  0.83124198  1
  Pb  Pb50  1  0.83113120  0.49831514  0.50030911  1
  Pb  Pb51  1  0.16674371  0.16678140  0.16956532  1
  Pb  Pb52  1  0.16947334  0.83319139  0.16647108  1
  Pb  Pb53  1  0.16725953  0.49999604  0.16636673  1
  I  I54  1  0.16774781  -0.00027117  0.16514342  1
  I  I55  1  0.17009246  0.00058273  0.50473233  1
  I  I56  1  0.17356683  -0.00376296  0.83007532  1
  I  I57  1  0.16937393  0.33344063  0.16861027  1
  I  I58  1  0.16522073  0.33019461  0.49897414  1
  I  I59  1  0.16914030  0.33303056  0.83208580  1
  I  I60  1  0.16388923  0.66679772  0.17096341  1
  I  I61  1  0.16964305  0.66959184  0.50314308  1
  I  I62  1  0.16706858  0.67019394  0.82625229  1
  I  I63  1  0.49781272  -0.00288122  0.16358299  1
  I  I64  1  0.50101624  0.00253507  0.50014294  1
  I  I65  1  0.49757779  -0.00289211  0.83545177  1
  I  I66  1  0.50465993  0.33706096  0.16567939  1
  I  I67  1  0.49843112  0.33360089  0.49944332  1
  I  I68  1  0.50297784  0.33637827  0.83510567  1
  I  I69  1  0.50335530  0.66555761  0.16895289  1
  I  I70  1  0.49846070  0.66400235  0.49947860  1
  I  I71  1  0.50190742  0.66575213  0.83121427  1
  I  I72  1  0.83304032  0.00008331  0.16675130  1
  I  I73  1  0.82616698  0.00464568  0.50695737  1
  I  I74  1  0.83261879  0.00260486  0.82659036  1
  I  I75  1  0.82421772  0.33718257  0.16616539  1
  I  I76  1  0.83759680  0.33007466  0.50120033  1
  I  I77  1  0.82690928  0.33435479  0.83244472  1
  I  I78  1  0.83190730  0.66219071  0.16013694  1
  I  I79  1  0.83320212  0.66637010  0.50051960  1
  I  I80  1  0.83161482  0.66334501  0.83718456  1
  I  I81  1  0.16577743  0.16580423  -0.00052639  1
  I  I82  1  0.16471280  0.15984727  0.33847897  1
  I  I83  1  0.16945238  0.16491594  0.66322919  1
  I  I84  1  0.17005839  0.50206809  -0.00029174  1
  I  I85  1  0.16619211  0.50121266  0.33355799  1
  I  I86  1  0.16678141  0.49916128  0.66666136  1
  I  I87  1  0.16811146  0.83113542  -0.00302719  1
  I  I88  1  0.16818293  0.83859558  0.33618001  1
  I  I89  1  0.17379092  0.83665876  0.66671136  1
  I  I90  1  0.50204772  0.16807042  -0.00032856  1
  I  I91  1  0.50176027  0.16988825  0.33763464  1
  I  I92  1  0.49830333  0.17010821  0.66306632  1
  I  I93  1  0.50561864  0.50695237  -0.00052757  1
  I  I94  1  0.50343670  0.50047143  0.33306950  1
  I  I95  1  0.50357300  0.50087772  0.66746426  1
  I  I96  1  0.49488538  0.82448637  -0.00107949  1
  I  I97  1  0.49885105  0.82981858  0.33150762  1
  I  I98  1  0.49799699  0.82997923  0.66930461  1
  I  I99  1  0.83166272  0.16787634  -0.00302976  1
  I  I100  1  0.83348611  0.16730496  0.33655660  1
  I  I101  1  0.83291747  0.17290661  0.66624792  1
  I  I102  1  0.82407351  0.49481898  -0.00111392  1
  I  I103  1  0.82849208  0.49921376  0.33117728  1
  I  I104  1  0.82898979  0.49819315  0.66960974  1
  I  I105  1  0.83907139  0.83961469  -0.00018487  1
  I  I106  1  0.83260939  0.83339952  0.33326951  1
  I  I107  1  0.82848626  0.82887107  0.66672346  1
  I  I108  1  -0.00029669  0.16782903  0.16832399  1
  I  I109  1  -0.00016885  0.16226411  0.50457108  1
  I  I110  1  -0.00407494  0.17297937  0.82677139  1
  I  I111  1  -0.00333134  0.49806420  0.16274279  1
  I  I112  1  -0.00015468  0.49939663  0.49928258  1
  I  I113  1  -0.00350817  0.49709075  0.83710808  1
  I  I114  1  0.00003953  0.83276473  0.16682804  1
  I  I115  1  0.00470827  0.83660311  0.50704905  1
  I  I116  1  0.00259657  0.83341125  0.82706468  1
  I  I117  1  0.33366960  0.16923275  0.16788176  1
  I  I118  1  0.33353713  0.16640134  0.49863788  1
  I  I119  1  0.33323506  0.16909086  0.83162979  1
  I  I120  1  0.33765106  0.50485302  0.16791859  1
  I  I121  1  0.33792729  0.49501022  0.49945670  1
  I  I122  1  0.33694567  0.50245009  0.83354365  1
  I  I123  1  0.33726459  0.82509339  0.16672521  1
  I  I124  1  0.33102015  0.83903829  0.50133436  1
  I  I125  1  0.33479577  0.82750383  0.83236207  1
  I  I126  1  0.66655469  0.16313545  0.17095726  1
  I  I127  1  0.66647890  0.17206414  0.50313178  1
  I  I128  1  0.66951147  0.16622320  0.82660631  1
  I  I129  1  0.66527414  0.50359082  0.16624728  1
  I  I130  1  0.66280704  0.49571073  0.49965814  1
  I  I131  1  0.66550424  0.50193129  0.83336208  1
  I  I132  1  0.66213066  0.83234855  0.16125608  1
  I  I133  1  0.66641884  0.83461661  0.50027968  1
  I  I134  1  0.66334613  0.83153820  0.83647971  1
