# generated using pymatgen
data_Cs27Sn14Pb13I81
_symmetry_space_group_name_H-M   'P 1'
_cell_length_a   18.98288133
_cell_length_b   18.97510093
_cell_length_c   18.96934057
_cell_angle_alpha   90.00035243
_cell_angle_beta   90.00200959
_cell_angle_gamma   89.99900675
_symmetry_Int_Tables_number   1
_chemical_formula_structural   Cs27Sn14Pb13I81
_chemical_formula_sum   'Cs27 Sn14 Pb13 I81'
_cell_volume   6832.79609590
_cell_formula_units_Z   1
loop_
 _symmetry_equiv_pos_site_id
 _symmetry_equiv_pos_as_xyz
  1  'x, y, z'
loop_
 _atom_site_type_symbol
 _atom_site_label
 _atom_site_symmetry_multiplicity
 _atom_site_fract_x
 _atom_site_fract_y
 _atom_site_fract_z
 _atom_site_occupancy
  Cs  Cs0  1  -0.00696562  0.00102447  0.00054952  1
  Cs  Cs1  1  -0.00032145  -0.00027689  0.33465502  1
  Cs  Cs2  1  0.00194087  0.00056830  0.66421486  1
  Cs  Cs3  1  0.00100769  0.33525224  -0.00001556  1
  Cs  Cs4  1  0.00062463  0.33365537  0.33324912  1
  Cs  Cs5  1  0.00091773  0.33351966  0.66639133  1
  Cs  Cs6  1  -0.00053264  0.66492642  0.00070486  1
  Cs  Cs7  1  0.00066859  0.66701326  0.33226904  1
  Cs  Cs8  1  0.00301865  0.66547315  0.66588615  1
  Cs  Cs9  1  0.33529415  0.00198014  0.00069177  1
  Cs  Cs10  1  0.33329596  -0.00137650  0.33474057  1
  Cs  Cs11  1  0.33138191  -0.00142042  0.66368524  1
  Cs  Cs12  1  0.33389155  0.33240876  -0.00021110  1
  Cs  Cs13  1  0.33327900  0.33179218  0.33119755  1
  Cs  Cs14  1  0.33220092  0.33587044  0.66929331  1
  Cs  Cs15  1  0.33192173  0.66567137  0.00054525  1
  Cs  Cs16  1  0.33363017  0.67017889  0.33156378  1
  Cs  Cs17  1  0.33264771  0.66606289  0.67190741  1
  Cs  Cs18  1  0.67469479  0.00460172  -0.00997862  1
  Cs  Cs19  1  0.66595260  -0.00104741  0.33308316  1
  Cs  Cs20  1  0.66696146  -0.00023789  0.67131869  1
  Cs  Cs21  1  0.66776008  0.32422018  -0.00137931  1
  Cs  Cs22  1  0.66505197  0.33632624  0.33711326  1
  Cs  Cs23  1  0.66466231  0.33535724  0.66345453  1
  Cs  Cs24  1  0.66887674  0.67142086  0.00177280  1
  Cs  Cs25  1  0.66553939  0.66451854  0.33279571  1
  Cs  Cs26  1  0.66290439  0.66467238  0.66705635  1
  Sn  Sn27  1  0.16698724  0.49923303  0.49907807  1
  Sn  Sn28  1  0.83329822  0.16569606  0.49985117  1
  Sn  Sn29  1  0.83313048  0.49990298  0.16566955  1
  Sn  Sn30  1  0.16686023  0.16786398  0.50045989  1
  Sn  Sn31  1  0.16708157  0.83301719  0.16547012  1
  Sn  Sn32  1  0.16656858  0.83456662  0.83511888  1
  Sn  Sn33  1  0.16707404  0.50071193  0.16759208  1
  Sn  Sn34  1  0.50115942  0.83392595  0.49946722  1
  Sn  Sn35  1  0.83202000  0.83372925  0.49988743  1
  Sn  Sn36  1  0.49976796  0.83326387  0.16681071  1
  Sn  Sn37  1  0.83298910  0.50018237  0.83409624  1
  Sn  Sn38  1  0.49975709  0.16581967  0.49977855  1
  Sn  Sn39  1  0.49987592  0.50055640  0.16646432  1
  Sn  Sn40  1  0.16664026  0.16544365  0.83291190  1
  Pb  Pb41  1  0.16662378  0.16605828  0.16670398  1
  Pb  Pb42  1  0.49733497  0.16660246  0.83022997  1
  Pb  Pb43  1  0.16715680  0.83336020  0.49949416  1
  Pb  Pb44  1  0.50311357  0.50017317  0.83720485  1
  Pb  Pb45  1  0.83324010  0.16940373  0.16932330  1
  Pb  Pb46  1  0.49788501  0.83337198  0.83389974  1
  Pb  Pb47  1  0.16565919  0.49989101  0.83400246  1
  Pb  Pb48  1  0.83596408  0.83137488  0.83040558  1
  Pb  Pb49  1  0.49706813  0.50064209  0.49831752  1
  Pb  Pb50  1  0.83512806  0.50024407  0.49966483  1
  Pb  Pb51  1  0.83306230  0.83181740  0.16847353  1
  Pb  Pb52  1  0.50017291  0.16557479  0.16852644  1
  Pb  Pb53  1  0.83580607  0.16886049  0.83048018  1
  I  I54  1  0.17260398  -0.00340283  0.16748422  1
  I  I55  1  0.16625998  0.00235958  0.50100007  1
  I  I56  1  0.16702786  0.00003665  0.83036502  1
  I  I57  1  0.16677566  0.33640625  0.16832549  1
  I  I58  1  0.16545520  0.33252164  0.50049665  1
  I  I59  1  0.16450495  0.33122154  0.83021966  1
  I  I60  1  0.16690808  0.66605694  0.16776253  1
  I  I61  1  0.16482368  0.66471487  0.49932824  1
  I  I62  1  0.16511173  0.66876863  0.83251707  1
  I  I63  1  0.49149186  -0.00382143  0.17143274  1
  I  I64  1  0.49733019  -0.00042758  0.49363715  1
  I  I65  1  0.50198038  -0.00000818  0.83849409  1
  I  I66  1  0.49834475  0.33623556  0.16849771  1
  I  I67  1  0.50239967  0.33095905  0.49861191  1
  I  I68  1  0.49680869  0.33344024  0.83282209  1
  I  I69  1  0.49849678  0.66696520  0.17395770  1
  I  I70  1  0.50391378  0.66965630  0.49737729  1
  I  I71  1  0.49643606  0.66671413  0.82554234  1
  I  I72  1  0.83434087  -0.00016336  0.16695679  1
  I  I73  1  0.83681016  0.00029618  0.49943441  1
  I  I74  1  0.83313204  0.00007205  0.83417439  1
  I  I75  1  0.83555069  0.33800844  0.16523180  1
  I  I76  1  0.83229687  0.33101344  0.49970573  1
  I  I77  1  0.83743611  0.33642399  0.83647221  1
  I  I78  1  0.83488935  0.66347294  0.16709141  1
  I  I79  1  0.83124351  0.66889178  0.49941857  1
  I  I80  1  0.83758372  0.66379209  0.83506804  1
  I  I81  1  0.16637134  0.16710070  -0.00259520  1
  I  I82  1  0.16653780  0.16831544  0.33670903  1
  I  I83  1  0.16643590  0.16672277  0.66492335  1
  I  I84  1  0.16773159  0.50094374  0.00327233  1
  I  I85  1  0.16342403  0.50010846  0.33237959  1
  I  I86  1  0.16332082  0.49968756  0.66459998  1
  I  I87  1  0.17226825  0.83101579  0.00133879  1
  I  I88  1  0.16737926  0.83121179  0.33096110  1
  I  I89  1  0.16557944  0.83326464  0.66805212  1
  I  I90  1  0.49779793  0.16787171  -0.00009312  1
  I  I91  1  0.49580615  0.16613030  0.33715926  1
  I  I92  1  0.50230537  0.16082447  0.66168683  1
  I  I93  1  0.49145687  0.50687986  0.00528129  1
  I  I94  1  0.50464875  0.50083792  0.33026712  1
  I  I95  1  0.49998432  0.49989355  0.66652415  1
  I  I96  1  0.49575125  0.82607201  0.00369057  1
  I  I97  1  0.49653400  0.83297168  0.33350998  1
  I  I98  1  0.50193850  0.83812456  0.66341936  1
  I  I99  1  0.83472835  0.16614744  -0.00035435  1
  I  I100  1  0.83820725  0.16526600  0.33780265  1
  I  I101  1  0.83226791  0.16587850  0.66237513  1
  I  I102  1  0.83785345  0.50168216  0.00140415  1
  I  I103  1  0.83314518  0.49974506  0.33073405  1
  I  I104  1  0.83859662  0.49959848  0.66799713  1
  I  I105  1  0.83158965  0.83324742  -0.00002245  1
  I  I106  1  0.83599610  0.83442014  0.33658614  1
  I  I107  1  0.83003596  0.83459361  0.66238594  1
  I  I108  1  0.00019501  0.16684093  0.17036804  1
  I  I109  1  0.00075719  0.16685830  0.50371892  1
  I  I110  1  0.00352399  0.16351195  0.82629843  1
  I  I111  1  0.00103924  0.50362198  0.16743500  1
  I  I112  1  0.00304276  0.49720898  0.49527011  1
  I  I113  1  -0.00187898  0.50008294  0.83788424  1
  I  I114  1  0.00277580  0.82858465  0.16564774  1
  I  I115  1  -0.00135229  0.83537059  0.50017730  1
  I  I116  1  0.00392557  0.83621336  0.83727866  1
  I  I117  1  0.33318625  0.17200236  0.16902725  1
  I  I118  1  0.33274582  0.16599361  0.50319082  1
  I  I119  1  0.32920451  0.16507853  0.82760711  1
  I  I120  1  0.33240391  0.50415377  0.17316528  1
  I  I121  1  0.32913197  0.49638393  0.49578217  1
  I  I122  1  0.33324014  0.49976820  0.83220872  1
  I  I123  1  0.33295388  0.82460303  0.17024234  1
  I  I124  1  0.33553737  0.83622960  0.49838384  1
  I  I125  1  0.32954161  0.83479141  0.83059790  1
  I  I126  1  0.66666271  0.16826857  0.16918378  1
  I  I127  1  0.66661260  0.16303738  0.49685650  1
  I  I128  1  0.66698635  0.16829427  0.83306945  1
  I  I129  1  0.66640307  0.50472390  0.16380155  1
  I  I130  1  0.66647165  0.49710034  0.49949417  1
  I  I131  1  0.67088135  0.50030702  0.83450533  1
  I  I132  1  0.66385338  0.82704958  0.17238375  1
  I  I133  1  0.66580458  0.83995549  0.49404662  1
  I  I134  1  0.66697148  0.83176241  0.83501727  1
