# generated using pymatgen
data_Cs27Sn14Pb13I81
_symmetry_space_group_name_H-M   'P 1'
_cell_length_a   18.96551862
_cell_length_b   18.97649033
_cell_length_c   18.98472880
_cell_angle_alpha   89.99979060
_cell_angle_beta   90.00031418
_cell_angle_gamma   89.99899103
_symmetry_Int_Tables_number   1
_chemical_formula_structural   Cs27Sn14Pb13I81
_chemical_formula_sum   'Cs27 Sn14 Pb13 I81'
_cell_volume   6832.58454613
_cell_formula_units_Z   1
loop_
 _symmetry_equiv_pos_site_id
 _symmetry_equiv_pos_as_xyz
  1  'x, y, z'
loop_
 _atom_site_type_symbol
 _atom_site_label
 _atom_site_symmetry_multiplicity
 _atom_site_fract_x
 _atom_site_fract_y
 _atom_site_fract_z
 _atom_site_occupancy
  Cs  Cs0  1  0.00073303  0.00341359  -0.00096847  1
  Cs  Cs1  1  0.00142088  0.00185375  0.33391362  1
  Cs  Cs2  1  0.00112917  0.00058263  0.66730544  1
  Cs  Cs3  1  -0.00000375  0.33226472  0.00038693  1
  Cs  Cs4  1  -0.00073466  0.33357840  0.33160525  1
  Cs  Cs5  1  -0.00051316  0.33225485  0.66812327  1
  Cs  Cs6  1  0.00029991  0.66469216  0.00261458  1
  Cs  Cs7  1  -0.00351160  0.66357730  0.33217060  1
  Cs  Cs8  1  0.00031507  0.66741212  0.66573485  1
  Cs  Cs9  1  0.33651839  0.00106942  0.00040925  1
  Cs  Cs10  1  0.33356680  -0.00128336  0.33456476  1
  Cs  Cs11  1  0.33034978  0.00266981  0.66400725  1
  Cs  Cs12  1  0.33574964  0.33470149  -0.00447481  1
  Cs  Cs13  1  0.33451544  0.33569408  0.33405746  1
  Cs  Cs14  1  0.33487876  0.33414781  0.66751488  1
  Cs  Cs15  1  0.33429718  0.66478054  -0.00029301  1
  Cs  Cs16  1  0.33109273  0.66490267  0.33537837  1
  Cs  Cs17  1  0.33186506  0.66500616  0.66407100  1
  Cs  Cs18  1  0.66131600  -0.01094028  0.00406788  1
  Cs  Cs19  1  0.66284492  0.00139689  0.32895485  1
  Cs  Cs20  1  0.66802519  -0.00226113  0.66725940  1
  Cs  Cs21  1  0.66538712  0.33296932  -0.00334677  1
  Cs  Cs22  1  0.66600544  0.33197206  0.33407877  1
  Cs  Cs23  1  0.66575166  0.33389768  0.66723097  1
  Cs  Cs24  1  0.66317148  0.67748345  -0.00143861  1
  Cs  Cs25  1  0.67342416  0.66600529  0.33284752  1
  Cs  Cs26  1  0.66833520  0.66803145  0.66836884  1
  Sn  Sn27  1  0.16555911  0.50065947  0.83245286  1
  Sn  Sn28  1  0.16674155  0.49986545  0.50067476  1
  Sn  Sn29  1  0.83372605  0.16684557  0.16640392  1
  Sn  Sn30  1  0.83404398  0.16671131  0.49995475  1
  Sn  Sn31  1  0.50021627  0.49995387  0.16755727  1
  Sn  Sn32  1  0.83335126  0.16706431  0.83364736  1
  Sn  Sn33  1  0.16644481  0.16625805  0.16743636  1
  Sn  Sn34  1  0.83413051  0.49967991  0.83355068  1
  Sn  Sn35  1  0.16653041  0.83393628  0.16684041  1
  Sn  Sn36  1  0.49944288  0.83211307  0.49989555  1
  Sn  Sn37  1  0.16688983  0.83302763  0.49964187  1
  Sn  Sn38  1  0.49961945  0.50122739  0.49887295  1
  Sn  Sn39  1  0.16588401  0.16708017  0.49906707  1
  Sn  Sn40  1  0.16648649  0.83256960  0.83346866  1
  Pb  Pb41  1  0.16765225  0.49946380  0.16658208  1
  Pb  Pb42  1  0.49928629  0.16860498  0.16674294  1
  Pb  Pb43  1  0.49643005  0.83324626  0.83017947  1
  Pb  Pb44  1  0.49957718  0.16675720  0.50009403  1
  Pb  Pb45  1  0.83336575  0.49791884  0.50164564  1
  Pb  Pb46  1  0.50002603  0.50017594  0.83257540  1
  Pb  Pb47  1  0.83593425  0.83327238  0.83332443  1
  Pb  Pb48  1  0.83614873  0.83588634  0.16687446  1
  Pb  Pb49  1  0.83368738  0.83601458  0.49979153  1
  Pb  Pb50  1  0.49702269  0.83078163  0.16950033  1
  Pb  Pb51  1  0.83050271  0.49784707  0.16364384  1
  Pb  Pb52  1  0.16563865  0.16693366  0.83342404  1
  Pb  Pb53  1  0.50384575  0.16625682  0.83334724  1
  I  I54  1  0.16262412  0.00045953  0.16979774  1
  I  I55  1  0.16697860  -0.00014051  0.50046295  1
  I  I56  1  0.16530402  -0.00219078  0.83015236  1
  I  I57  1  0.16376133  0.33046901  0.17013360  1
  I  I58  1  0.16695022  0.33345854  0.50022106  1
  I  I59  1  0.16513054  0.33601415  0.83030146  1
  I  I60  1  0.17025232  0.66891059  0.16838562  1
  I  I61  1  0.17199298  0.66654178  0.50120266  1
  I  I62  1  0.16129160  0.66589236  0.82991840  1
  I  I63  1  0.50259511  -0.00034990  0.16744643  1
  I  I64  1  0.49576994  -0.00259014  0.50133021  1
  I  I65  1  0.49935455  -0.00044291  0.83196806  1
  I  I66  1  0.49700692  0.33627116  0.17382031  1
  I  I67  1  0.49637295  0.33639847  0.49733076  1
  I  I68  1  0.49423998  0.33367600  0.83121557  1
  I  I69  1  0.49765767  0.66326227  0.16745620  1
  I  I70  1  0.48965162  0.66586820  0.49699875  1
  I  I71  1  0.50614410  0.66657467  0.83655083  1
  I  I72  1  0.83384286  0.00445807  0.16448202  1
  I  I73  1  0.83816870  0.00435596  0.50331712  1
  I  I74  1  0.83566991  0.00319699  0.83210083  1
  I  I75  1  0.84147477  0.32970875  0.16916106  1
  I  I76  1  0.83781986  0.32980937  0.49848877  1
  I  I77  1  0.84047956  0.33302636  0.83273061  1
  I  I78  1  0.83368398  0.66649705  0.16500269  1
  I  I79  1  0.83534687  0.66652806  0.50263885  1
  I  I80  1  0.83526460  0.66376320  0.83168835  1
  I  I81  1  0.16244484  0.16396799  0.00247365  1
  I  I82  1  0.15912229  0.16401400  0.33428382  1
  I  I83  1  0.16327333  0.16425604  0.66376559  1
  I  I84  1  0.16517649  0.50237626  -0.00255804  1
  I  I85  1  0.16947865  0.50149672  0.33627860  1
  I  I86  1  0.16874690  0.50204489  0.66562895  1
  I  I87  1  0.16357842  0.83360637  0.00001061  1
  I  I88  1  0.17107300  0.83514280  0.33434988  1
  I  I89  1  0.17002487  0.83332384  0.66561898  1
  I  I90  1  0.49708270  0.17076444  0.00024167  1
  I  I91  1  0.50542352  0.16592087  0.33359677  1
  I  I92  1  0.49849609  0.16941081  0.66627659  1
  I  I93  1  0.49856788  0.49654269  0.00190716  1
  I  I94  1  0.49249996  0.50192592  0.33520147  1
  I  I95  1  0.49787059  0.50312197  0.66328795  1
  I  I96  1  0.49977056  0.83243207  0.00025062  1
  I  I97  1  0.49278755  0.83318587  0.33702330  1
  I  I98  1  0.49517592  0.82674849  0.66240688  1
  I  I99  1  0.83986121  0.17226510  0.00012663  1
  I  I100  1  0.83841654  0.16586192  0.33347705  1
  I  I101  1  0.83799924  0.17023346  0.66646273  1
  I  I102  1  0.84030549  0.49302802  -0.00394966  1
  I  I103  1  0.83537403  0.49836350  0.33328199  1
  I  I104  1  0.83362907  0.49322791  0.66946146  1
  I  I105  1  0.83447223  0.83524196  0.00001717  1
  I  I106  1  0.83534824  0.83374949  0.33343219  1
  I  I107  1  0.83483475  0.83702033  0.66654262  1
  I  I108  1  0.00076445  0.16357653  0.16787871  1
  I  I109  1  0.00151369  0.16658822  0.49965132  1
  I  I110  1  -0.00244853  0.16799848  0.83272418  1
  I  I111  1  -0.00002011  0.50178451  0.16841886  1
  I  I112  1  0.00336609  0.50251999  0.50231799  1
  I  I113  1  0.00141597  0.49953131  0.82771285  1
  I  I114  1  0.00457906  0.83264580  0.17041764  1
  I  I115  1  0.00412658  0.83113155  0.50067361  1
  I  I116  1  0.00419064  0.83257256  0.82868698  1
  I  I117  1  0.32958884  0.16317532  0.17294440  1
  I  I118  1  0.32955845  0.16609224  0.49511796  1
  I  I119  1  0.33292464  0.16770321  0.83331566  1
  I  I120  1  0.33535331  0.49809015  0.16682334  1
  I  I121  1  0.33162522  0.49817351  0.50213619  1
  I  I122  1  0.33011096  0.50399304  0.83229024  1
  I  I123  1  0.32902000  0.84121822  0.16422564  1
  I  I124  1  0.33109382  0.83485021  0.50045673  1
  I  I125  1  0.32828681  0.82648829  0.83582709  1
  I  I126  1  0.66967356  0.17045743  0.16770224  1
  I  I127  1  0.66963413  0.16738793  0.50050597  1
  I  I128  1  0.67245702  0.17569898  0.83104278  1
  I  I129  1  0.66305735  0.49690378  0.17390901  1
  I  I130  1  0.66393719  0.50253707  0.49798715  1
  I  I131  1  0.66940847  0.49216635  0.83276801  1
  I  I132  1  0.66627411  0.83444745  0.16714497  1
  I  I133  1  0.66385516  0.82958233  0.50052573  1
  I  I134  1  0.66657490  0.83396104  0.83226088  1
