# generated using pymatgen
data_Cs27Sn13Pb14I81
_symmetry_space_group_name_H-M   'P 1'
_cell_length_a   18.98220630
_cell_length_b   18.97270682
_cell_length_c   18.97394350
_cell_angle_alpha   89.99982782
_cell_angle_beta   89.99919716
_cell_angle_gamma   89.99861693
_symmetry_Int_Tables_number   1
_chemical_formula_structural   Cs27Sn13Pb14I81
_chemical_formula_sum   'Cs27 Sn13 Pb14 I81'
_cell_volume   6833.34877384
_cell_formula_units_Z   1
loop_
 _symmetry_equiv_pos_site_id
 _symmetry_equiv_pos_as_xyz
  1  'x, y, z'
loop_
 _atom_site_type_symbol
 _atom_site_label
 _atom_site_symmetry_multiplicity
 _atom_site_fract_x
 _atom_site_fract_y
 _atom_site_fract_z
 _atom_site_occupancy
  Cs  Cs0  1  -0.00300353  0.00266516  0.00458830  1
  Cs  Cs1  1  -0.00569386  0.00643482  0.33540869  1
  Cs  Cs2  1  0.00207230  -0.00124957  0.65897745  1
  Cs  Cs3  1  -0.00219643  0.33035897  -0.00240700  1
  Cs  Cs4  1  0.00325912  0.33139227  0.33207663  1
  Cs  Cs5  1  -0.00604857  0.33602064  0.67068598  1
  Cs  Cs6  1  0.00221705  0.66699834  -0.00177382  1
  Cs  Cs7  1  -0.00242743  0.66625401  0.33258321  1
  Cs  Cs8  1  0.00618979  0.66539352  0.66972536  1
  Cs  Cs9  1  0.33456831  0.00070857  -0.00049773  1
  Cs  Cs10  1  0.33165444  0.00319187  0.33885896  1
  Cs  Cs11  1  0.33266722  -0.00147962  0.66297036  1
  Cs  Cs12  1  0.33574814  0.33068372  0.00071117  1
  Cs  Cs13  1  0.33101106  0.33402554  0.33209355  1
  Cs  Cs14  1  0.33481983  0.33294293  0.66760817  1
  Cs  Cs15  1  0.33374556  0.66781267  0.00081789  1
  Cs  Cs16  1  0.33349041  0.66448371  0.33058780  1
  Cs  Cs17  1  0.33030181  0.66880776  0.66793173  1
  Cs  Cs18  1  0.66619471  -0.00262718  -0.00028504  1
  Cs  Cs19  1  0.67324515  -0.00267994  0.34053767  1
  Cs  Cs20  1  0.66595381  0.00099892  0.66261247  1
  Cs  Cs21  1  0.66379258  0.33198718  -0.00250395  1
  Cs  Cs22  1  0.66565796  0.33849922  0.33570453  1
  Cs  Cs23  1  0.66822963  0.33219525  0.66818447  1
  Cs  Cs24  1  0.66448098  0.66935353  0.00117733  1
  Cs  Cs25  1  0.66936180  0.66521424  0.33239888  1
  Cs  Cs26  1  0.66551869  0.66654690  0.66711801  1
  Sn  Sn27  1  0.49916542  0.83497906  0.16659321  1
  Sn  Sn28  1  0.83451515  0.49991558  0.16654901  1
  Sn  Sn29  1  0.83295798  0.83341203  0.83330404  1
  Sn  Sn30  1  0.49964093  0.50033490  0.50125430  1
  Sn  Sn31  1  0.16722717  0.83339208  0.16681676  1
  Sn  Sn32  1  0.83372691  0.50042513  0.49944731  1
  Sn  Sn33  1  0.16662416  0.50007154  0.49950741  1
  Sn  Sn34  1  0.16722007  0.16639761  0.83335292  1
  Sn  Sn35  1  0.16558748  0.50057357  0.16684966  1
  Sn  Sn36  1  0.49973139  0.50033978  0.83249492  1
  Sn  Sn37  1  0.49896066  0.16599145  0.83402437  1
  Sn  Sn38  1  0.50069252  0.83366771  0.83386138  1
  Sn  Sn39  1  0.50029852  0.16482288  0.16669538  1
  Pb  Pb40  1  0.50000994  0.16904309  0.50002457  1
  Pb  Pb41  1  0.16898660  0.49838014  0.83405980  1
  Pb  Pb42  1  0.83097669  0.50181459  0.83367941  1
  Pb  Pb43  1  0.16675663  0.16957532  0.50288520  1
  Pb  Pb44  1  0.16666299  0.83117536  0.49643579  1
  Pb  Pb45  1  0.82977286  0.16954171  0.16655755  1
  Pb  Pb46  1  0.83344857  0.83053638  0.50285384  1
  Pb  Pb47  1  0.49974137  0.50023652  0.16649838  1
  Pb  Pb48  1  0.16850086  0.16665028  0.16529228  1
  Pb  Pb49  1  0.83335242  0.16954894  0.50002720  1
  Pb  Pb50  1  0.49981982  0.83088880  0.49959792  1
  Pb  Pb51  1  0.83323011  0.83155406  0.16533725  1
  Pb  Pb52  1  0.16702517  0.83581567  0.83541332  1
  Pb  Pb53  1  0.83274057  0.16356424  0.83330000  1
  I  I54  1  0.17028193  -0.00261918  0.16167107  1
  I  I55  1  0.16714768  0.00014608  0.49999461  1
  I  I56  1  0.17309276  0.00318472  0.83633979  1
  I  I57  1  0.16551485  0.33641005  0.16987413  1
  I  I58  1  0.16812814  0.33808095  0.49236206  1
  I  I59  1  0.17336746  0.33078243  0.83482708  1
  I  I60  1  0.17002095  0.66564052  0.16887294  1
  I  I61  1  0.16739683  0.66232221  0.50119042  1
  I  I62  1  0.16776016  0.66670087  0.83169328  1
  I  I63  1  0.49380730  -0.00097267  0.15568105  1
  I  I64  1  0.50003803  -0.00007429  0.50211214  1
  I  I65  1  0.50031357  -0.00025214  0.83991624  1
  I  I66  1  0.50030976  0.33176029  0.16281236  1
  I  I67  1  0.50061046  0.33769366  0.50292713  1
  I  I68  1  0.49594642  0.33325306  0.83427455  1
  I  I69  1  0.49913347  0.66878223  0.16295093  1
  I  I70  1  0.50009782  0.66232574  0.50343463  1
  I  I71  1  0.50445471  0.66700040  0.83415978  1
  I  I72  1  0.83608622  -0.00015973  0.16456814  1
  I  I73  1  0.83287419  -0.00037410  0.50073367  1
  I  I74  1  0.82711778  -0.00395477  0.83638494  1
  I  I75  1  0.83790589  0.33790676  0.16976279  1
  I  I76  1  0.83193158  0.33841336  0.49820867  1
  I  I77  1  0.83202633  0.33351677  0.83242400  1
  I  I78  1  0.83125795  0.66332423  0.16991616  1
  I  I79  1  0.83156169  0.66218408  0.49545271  1
  I  I80  1  0.82694556  0.66934055  0.83377605  1
  I  I81  1  0.17059201  0.17007839  -0.00259261  1
  I  I82  1  0.16886953  0.16629027  0.33325766  1
  I  I83  1  0.17492253  0.16682068  0.67070310  1
  I  I84  1  0.16418065  0.50277413  0.00311933  1
  I  I85  1  0.16910719  0.50338044  0.33285610  1
  I  I86  1  0.16468008  0.49746660  0.66436024  1
  I  I87  1  0.16899532  0.82489716  0.00312826  1
  I  I88  1  0.17416837  0.83079827  0.32836379  1
  I  I89  1  0.16678833  0.83243207  0.66685112  1
  I  I90  1  0.49648435  0.17004853  -0.00116481  1
  I  I91  1  0.49946958  0.16519793  0.33029462  1
  I  I92  1  0.49684479  0.16535599  0.67025706  1
  I  I93  1  0.50016892  0.49972719  -0.00235511  1
  I  I94  1  0.50047514  0.49973174  0.33528174  1
  I  I95  1  0.50045400  0.49951646  0.66714289  1
  I  I96  1  0.50023288  0.83035646  -0.00058769  1
  I  I97  1  0.49570024  0.83509436  0.32971009  1
  I  I98  1  0.50413306  0.83490122  0.67004743  1
  I  I99  1  0.83524761  0.17138915  -0.00011682  1
  I  I100  1  0.83196187  0.16378660  0.33304899  1
  I  I101  1  0.83122600  0.16968887  0.66702114  1
  I  I102  1  0.83627272  0.50162051  0.00255161  1
  I  I103  1  0.82994077  0.50101259  0.33343150  1
  I  I104  1  0.83518444  0.50131953  0.66412414  1
  I  I105  1  0.83004493  0.82943713  -0.00250327  1
  I  I106  1  0.83207007  0.83275468  0.33327750  1
  I  I107  1  0.82539267  0.83198245  0.67075183  1
  I  I108  1  0.00004179  0.16527451  0.16434833  1
  I  I109  1  0.00023743  0.16839789  0.50212142  1
  I  I110  1  0.00243820  0.16801626  0.83371039  1
  I  I111  1  0.00098190  0.50545665  0.17389646  1
  I  I112  1  0.00015836  0.50017990  0.49461592  1
  I  I113  1  0.00008579  0.49977299  0.83093422  1
  I  I114  1  0.00252484  0.82830819  0.16352816  1
  I  I115  1  0.00008588  0.83007192  0.50263447  1
  I  I116  1  -0.00185873  0.83228200  0.83487644  1
  I  I117  1  0.33661814  0.16943178  0.16302518  1
  I  I118  1  0.33348988  0.17099741  0.49867180  1
  I  I119  1  0.33563116  0.16693150  0.83757995  1
  I  I120  1  0.33123382  0.50081821  0.16942844  1
  I  I121  1  0.33335935  0.49973455  0.49905584  1
  I  I122  1  0.33725655  0.50407033  0.83060101  1
  I  I123  1  0.33440905  0.82865304  0.16008517  1
  I  I124  1  0.33333875  0.82934172  0.50467536  1
  I  I125  1  0.33675194  0.83075433  0.83589919  1
  I  I126  1  0.66174998  0.16365137  0.15825782  1
  I  I127  1  0.66635624  0.17030413  0.50188540  1
  I  I128  1  0.66276143  0.16993452  0.83704827  1
  I  I129  1  0.66814761  0.49986023  0.16967313  1
  I  I130  1  0.66649855  0.49976758  0.49888272  1
  I  I131  1  0.66269761  0.49586624  0.83083584  1
  I  I132  1  0.66347482  0.83402111  0.16294820  1
  I  I133  1  0.66650087  0.82935768  0.49604331  1
  I  I134  1  0.66410772  0.83294070  0.83955213  1
