# generated using pymatgen
data_Ti108Co54Ni52.92Sn48.168Sb53.892
_symmetry_space_group_name_H-M   'P 1'
_cell_length_a   17.72091000
_cell_length_b   17.72091000
_cell_length_c   17.72091000
_cell_angle_alpha   90.00000000
_cell_angle_beta   90.00000000
_cell_angle_gamma   90.00000000
_symmetry_Int_Tables_number   1
_chemical_formula_structural   Ti108Co54Ni52.92Sn48.168Sb53.892
_chemical_formula_sum   'Ti108 Co54 Ni52.92 Sn48.168 Sb53.892'
_cell_volume   5564.90890765
_cell_formula_units_Z   1
loop_
 _symmetry_equiv_pos_site_id
 _symmetry_equiv_pos_as_xyz
  1  'x, y, z'
loop_
 _atom_type_symbol
 _atom_type_oxidation_number
  Ti0+  0.0
  Co0+  0.0
  Ni0+  0.0
  Sn0+  0.0
  Sb0+  0.0
loop_
 _atom_site_type_symbol
 _atom_site_label
 _atom_site_symmetry_multiplicity
 _atom_site_fract_x
 _atom_site_fract_y
 _atom_site_fract_z
 _atom_site_occupancy
  Ti0+  Ti1  1  0.08333333  0.08333333  0.25000000  1.0
  Ti0+  Ti1  1  0.08333333  0.08333333  0.58333333  1.0
  Ti0+  Ti1  1  0.08333333  0.08333333  0.91666667  1.0
  Ti0+  Ti1  1  0.08333333  0.41666667  0.25000000  1.0
  Ti0+  Ti1  1  0.08333333  0.41666667  0.58333333  1.0
  Ti0+  Ti1  1  0.08333333  0.41666667  0.91666667  1.0
  Ti0+  Ti1  1  0.08333333  0.75000000  0.25000000  1.0
  Ti0+  Ti1  1  0.08333333  0.75000000  0.58333333  1.0
  Ti0+  Ti1  1  0.08333333  0.75000000  0.91666667  1.0
  Ti0+  Ti1  1  0.41666667  0.08333333  0.25000000  1.0
  Ti0+  Ti1  1  0.41666667  0.08333333  0.58333333  1.0
  Ti0+  Ti1  1  0.41666667  0.08333333  0.91666667  1.0
  Ti0+  Ti1  1  0.41666667  0.41666667  0.25000000  1.0
  Ti0+  Ti1  1  0.41666667  0.41666667  0.58333333  1.0
  Ti0+  Ti1  1  0.41666667  0.41666667  0.91666667  1.0
  Ti0+  Ti1  1  0.41666667  0.75000000  0.25000000  1.0
  Ti0+  Ti1  1  0.41666667  0.75000000  0.58333333  1.0
  Ti0+  Ti1  1  0.41666667  0.75000000  0.91666667  1.0
  Ti0+  Ti1  1  0.75000000  0.08333333  0.25000000  1.0
  Ti0+  Ti1  1  0.75000000  0.08333333  0.58333333  1.0
  Ti0+  Ti1  1  0.75000000  0.08333333  0.91666667  1.0
  Ti0+  Ti1  1  0.75000000  0.41666667  0.25000000  1.0
  Ti0+  Ti1  1  0.75000000  0.41666667  0.58333333  1.0
  Ti0+  Ti1  1  0.75000000  0.41666667  0.91666667  1.0
  Ti0+  Ti1  1  0.75000000  0.75000000  0.25000000  1.0
  Ti0+  Ti1  1  0.75000000  0.75000000  0.58333333  1.0
  Ti0+  Ti1  1  0.75000000  0.75000000  0.91666667  1.0
  Ti0+  Ti1  1  0.08333333  0.25000000  0.08333333  1.0
  Ti0+  Ti1  1  0.08333333  0.25000000  0.41666667  1.0
  Ti0+  Ti1  1  0.08333333  0.25000000  0.75000000  1.0
  Ti0+  Ti1  1  0.08333333  0.58333333  0.08333333  1.0
  Ti0+  Ti1  1  0.08333333  0.58333333  0.41666667  1.0
  Ti0+  Ti1  1  0.08333333  0.58333333  0.75000000  1.0
  Ti0+  Ti1  1  0.08333333  0.91666667  0.08333333  1.0
  Ti0+  Ti1  1  0.08333333  0.91666667  0.41666667  1.0
  Ti0+  Ti1  1  0.08333333  0.91666667  0.75000000  1.0
  Ti0+  Ti1  1  0.41666667  0.25000000  0.08333333  1.0
  Ti0+  Ti1  1  0.41666667  0.25000000  0.41666667  1.0
  Ti0+  Ti1  1  0.41666667  0.25000000  0.75000000  1.0
  Ti0+  Ti1  1  0.41666667  0.58333333  0.08333333  1.0
  Ti0+  Ti1  1  0.41666667  0.58333333  0.41666667  1.0
  Ti0+  Ti1  1  0.41666667  0.58333333  0.75000000  1.0
  Ti0+  Ti1  1  0.41666667  0.91666667  0.08333333  1.0
  Ti0+  Ti1  1  0.41666667  0.91666667  0.41666667  1.0
  Ti0+  Ti1  1  0.41666667  0.91666667  0.75000000  1.0
  Ti0+  Ti1  1  0.75000000  0.25000000  0.08333333  1.0
  Ti0+  Ti1  1  0.75000000  0.25000000  0.41666667  1.0
  Ti0+  Ti1  1  0.75000000  0.25000000  0.75000000  1.0
  Ti0+  Ti1  1  0.75000000  0.58333333  0.08333333  1.0
  Ti0+  Ti1  1  0.75000000  0.58333333  0.41666667  1.0
  Ti0+  Ti1  1  0.75000000  0.58333333  0.75000000  1.0
  Ti0+  Ti1  1  0.75000000  0.91666667  0.08333333  1.0
  Ti0+  Ti1  1  0.75000000  0.91666667  0.41666667  1.0
  Ti0+  Ti1  1  0.75000000  0.91666667  0.75000000  1.0
  Ti0+  Ti1  1  0.25000000  0.08333333  0.08333333  1.0
  Ti0+  Ti1  1  0.25000000  0.08333333  0.41666667  1.0
  Ti0+  Ti1  1  0.25000000  0.08333333  0.75000000  1.0
  Ti0+  Ti1  1  0.25000000  0.41666667  0.08333333  1.0
  Ti0+  Ti1  1  0.25000000  0.41666667  0.41666667  1.0
  Ti0+  Ti1  1  0.25000000  0.41666667  0.75000000  1.0
  Ti0+  Ti1  1  0.25000000  0.75000000  0.08333333  1.0
  Ti0+  Ti1  1  0.25000000  0.75000000  0.41666667  1.0
  Ti0+  Ti1  1  0.25000000  0.75000000  0.75000000  1.0
  Ti0+  Ti1  1  0.58333333  0.08333333  0.08333333  1.0
  Ti0+  Ti1  1  0.58333333  0.08333333  0.41666667  1.0
  Ti0+  Ti1  1  0.58333333  0.08333333  0.75000000  1.0
  Ti0+  Ti1  1  0.58333333  0.41666667  0.08333333  1.0
  Ti0+  Ti1  1  0.58333333  0.41666667  0.41666667  1.0
  Ti0+  Ti1  1  0.58333333  0.41666667  0.75000000  1.0
  Ti0+  Ti1  1  0.58333333  0.75000000  0.08333333  1.0
  Ti0+  Ti1  1  0.58333333  0.75000000  0.41666667  1.0
  Ti0+  Ti1  1  0.58333333  0.75000000  0.75000000  1.0
  Ti0+  Ti1  1  0.91666667  0.08333333  0.08333333  1.0
  Ti0+  Ti1  1  0.91666667  0.08333333  0.41666667  1.0
  Ti0+  Ti1  1  0.91666667  0.08333333  0.75000000  1.0
  Ti0+  Ti1  1  0.91666667  0.41666667  0.08333333  1.0
  Ti0+  Ti1  1  0.91666667  0.41666667  0.41666667  1.0
  Ti0+  Ti1  1  0.91666667  0.41666667  0.75000000  1.0
  Ti0+  Ti1  1  0.91666667  0.75000000  0.08333333  1.0
  Ti0+  Ti1  1  0.91666667  0.75000000  0.41666667  1.0
  Ti0+  Ti1  1  0.91666667  0.75000000  0.75000000  1.0
  Ti0+  Ti1  1  0.25000000  0.25000000  0.25000000  1.0
  Ti0+  Ti1  1  0.25000000  0.25000000  0.58333333  1.0
  Ti0+  Ti1  1  0.25000000  0.25000000  0.91666667  1.0
  Ti0+  Ti1  1  0.25000000  0.58333333  0.25000000  1.0
  Ti0+  Ti1  1  0.25000000  0.58333333  0.58333333  1.0
  Ti0+  Ti1  1  0.25000000  0.58333333  0.91666667  1.0
  Ti0+  Ti1  1  0.25000000  0.91666667  0.25000000  1.0
  Ti0+  Ti1  1  0.25000000  0.91666667  0.58333333  1.0
  Ti0+  Ti1  1  0.25000000  0.91666667  0.91666667  1.0
  Ti0+  Ti1  1  0.58333333  0.25000000  0.25000000  1.0
  Ti0+  Ti1  1  0.58333333  0.25000000  0.58333333  1.0
  Ti0+  Ti1  1  0.58333333  0.25000000  0.91666667  1.0
  Ti0+  Ti1  1  0.58333333  0.58333333  0.25000000  1.0
  Ti0+  Ti1  1  0.58333333  0.58333333  0.58333333  1.0
  Ti0+  Ti1  1  0.58333333  0.58333333  0.91666667  1.0
  Ti0+  Ti1  1  0.58333333  0.91666667  0.25000000  1.0
  Ti0+  Ti1  1  0.58333333  0.91666667  0.58333333  1.0
  Ti0+  Ti1  1  0.58333333  0.91666667  0.91666667  1.0
  Ti0+  Ti1  1  0.91666667  0.25000000  0.25000000  1.0
  Ti0+  Ti1  1  0.91666667  0.25000000  0.58333333  1.0
  Ti0+  Ti1  1  0.91666667  0.25000000  0.91666667  1.0
  Ti0+  Ti1  1  0.91666667  0.58333333  0.25000000  1.0
  Ti0+  Ti1  1  0.91666667  0.58333333  0.58333333  1.0
  Ti0+  Ti1  1  0.91666667  0.58333333  0.91666667  1.0
  Ti0+  Ti1  1  0.91666667  0.91666667  0.25000000  1.0
  Ti0+  Ti1  1  0.91666667  0.91666667  0.58333333  1.0
  Ti0+  Ti1  1  0.91666667  0.91666667  0.91666667  1.0
  Co0+  Co1  1  0.00000000  0.00000000  0.33333333  1.0
  Co0+  Co1  1  0.16666667  0.50000000  0.66666667  1.0
  Co0+  Co1  1  0.50000000  0.33333333  0.83333333  1.0
  Co0+  Co1  1  0.50000000  0.50000000  0.66666667  1.0
  Co0+  Co1  1  0.83333333  0.50000000  0.00000000  1.0
  Co0+  Co1  1  0.16666667  0.83333333  0.66666667  1.0
  Co0+  Co1  1  0.66666667  0.00000000  0.00000000  1.0
  Co0+  Co1  1  0.50000000  0.16666667  0.00000000  1.0
  Co0+  Co1  1  0.50000000  0.66666667  0.16666667  1.0
  Co0+  Co1  1  0.00000000  0.66666667  0.66666667  1.0
  Co0+  Co1  1  0.66666667  0.50000000  0.16666667  1.0
  Co0+  Co1  1  0.16666667  0.33333333  0.83333333  1.0
  Co0+  Co1  1  0.33333333  0.83333333  0.83333333  1.0
  Co0+  Co1  1  0.50000000  0.50000000  0.00000000  1.0
  Co0+  Co1  1  0.33333333  0.66666667  0.33333333  1.0
  Co0+  Co1  1  0.33333333  0.16666667  0.83333333  1.0
  Co0+  Co1  1  0.00000000  0.33333333  0.00000000  1.0
  Co0+  Co1  1  0.33333333  0.83333333  0.16666667  1.0
  Co0+  Co1  1  0.33333333  0.16666667  0.16666667  1.0
  Co0+  Co1  1  0.50000000  0.66666667  0.83333333  1.0
  Co0+  Co1  1  0.33333333  0.00000000  0.33333333  1.0
  Co0+  Co1  1  0.50000000  0.00000000  0.16666667  1.0
  Co0+  Co1  1  0.66666667  0.33333333  0.33333333  1.0
  Co0+  Co1  1  0.66666667  0.50000000  0.83333333  1.0
  Co0+  Co1  1  0.50000000  0.83333333  0.33333333  1.0
  Co0+  Co1  1  0.83333333  0.16666667  0.00000000  1.0
  Co0+  Co1  1  0.00000000  0.16666667  0.50000000  1.0
  Co0+  Co1  1  0.16666667  0.00000000  0.50000000  1.0
  Co0+  Co1  1  0.83333333  0.33333333  0.50000000  1.0
  Co0+  Co1  1  0.16666667  0.00000000  0.83333333  1.0
  Co0+  Co1  1  0.33333333  0.83333333  0.50000000  1.0
  Co0+  Co1  1  0.83333333  0.66666667  0.50000000  1.0
  Co0+  Co1  1  0.16666667  0.16666667  0.33333333  1.0
  Co0+  Co1  1  0.00000000  0.50000000  0.50000000  1.0
  Co0+  Co1  1  0.83333333  0.83333333  0.00000000  1.0
  Co0+  Co1  1  0.33333333  0.16666667  0.50000000  1.0
  Co0+  Co1  1  0.33333333  0.00000000  0.66666667  1.0
  Co0+  Co1  1  0.66666667  0.83333333  0.83333333  1.0
  Co0+  Co1  1  0.16666667  0.83333333  0.33333333  1.0
  Co0+  Co1  1  0.00000000  0.16666667  0.83333333  1.0
  Co0+  Co1  1  0.83333333  0.33333333  0.83333333  1.0
  Co0+  Co1  1  0.00000000  0.00000000  0.00000000  1.0
  Co0+  Co1  1  0.66666667  0.66666667  0.00000000  1.0
  Co0+  Co1  1  0.83333333  0.00000000  0.50000000  1.0
  Co0+  Co1  1  0.16666667  0.66666667  0.50000000  1.0
  Co0+  Co1  1  0.16666667  0.16666667  0.66666667  1.0
  Co0+  Co1  1  0.00000000  0.00000000  0.66666667  1.0
  Co0+  Co1  1  0.66666667  0.50000000  0.50000000  1.0
  Co0+  Co1  1  0.33333333  0.33333333  0.33333333  1.0
  Co0+  Co1  1  0.00000000  0.50000000  0.83333333  1.0
  Co0+  Co1  1  0.50000000  0.83333333  0.00000000  1.0
  Co0+  Co1  1  0.83333333  0.16666667  0.66666667  1.0
  Co0+  Co1  1  0.00000000  0.66666667  0.33333333  1.0
  Co0+  Co1  1  0.16666667  0.66666667  0.16666667  1.0
  Ni0+  Co1  1  0.83333333  0.16666667  0.33333333  1.0
  Ni0+  Co1  1  0.33333333  0.33333333  0.66666667  1.0
  Ni0+  Co1  1  0.50000000  0.00000000  0.50000000  1.0
  Ni0+  Co1  1  0.16666667  0.33333333  0.50000000  1.0
  Ni0+  Co1  1  0.16666667  0.33333333  0.16666667  1.0
  Ni0+  Co1  1  0.00000000  0.83333333  0.16666667  1.0
  Ni0+  Co1  1  0.33333333  0.50000000  0.16666667  1.0
  Ni0+  Co1  1  0.00000000  0.33333333  0.66666667  1.0
  Ni0+  Co1  1  0.50000000  0.50000000  0.33333333  1.0
  Ni0+  Co1  1  0.50000000  0.66666667  0.50000000  1.0
  Ni0+  Co1  1  0.66666667  0.16666667  0.83333333  1.0
  Ni0+  Co1  1  0.50000000  0.16666667  0.33333333  1.0
  Ni0+  Co1  1  0.33333333  0.66666667  0.66666667  1.0
  Ni0+  Co1  1  0.66666667  0.00000000  0.33333333  1.0
  Ni0+  Co1  1  0.00000000  0.66666667  0.00000000  1.0
  Ni0+  Co1  1  0.16666667  0.50000000  0.33333333  1.0
  Ni0+  Co1  1  0.83333333  0.83333333  0.66666667  1.0
  Ni0+  Co1  1  0.83333333  0.00000000  0.83333333  1.0
  Ni0+  Co1  1  0.66666667  0.00000000  0.66666667  1.0
  Ni0+  Co1  1  0.50000000  0.33333333  0.16666667  1.0
  Ni0+  Co1  1  0.83333333  0.50000000  0.66666667  1.0
  Ni0+  Co1  1  0.33333333  0.33333333  0.00000000  1.0
  Ni0+  Co1  1  0.50000000  0.00000000  0.83333333  1.0
  Ni0+  Co1  1  0.66666667  0.83333333  0.16666667  1.0
  Ni0+  Co1  1  0.00000000  0.83333333  0.83333333  1.0
  Ni0+  Co1  1  0.66666667  0.33333333  0.00000000  1.0
  Ni0+  Co1  1  0.33333333  0.00000000  0.00000000  1.0
  Ni0+  Co1  1  0.16666667  0.66666667  0.83333333  1.0
  Ni0+  Co1  1  0.66666667  0.83333333  0.50000000  1.0
  Ni0+  Co1  1  0.16666667  0.50000000  0.00000000  1.0
  Ni0+  Co1  1  0.00000000  0.50000000  0.16666667  1.0
  Ni0+  Co1  1  0.00000000  0.83333333  0.50000000  1.0
  Ni0+  Co1  1  0.66666667  0.66666667  0.33333333  1.0
  Ni0+  Co1  1  0.66666667  0.66666667  0.66666667  1.0
  Ni0+  Co1  1  0.83333333  0.00000000  0.16666667  1.0
  Ni0+  Co1  1  0.16666667  0.00000000  0.16666667  1.0
  Ni0+  Co1  1  0.66666667  0.16666667  0.50000000  1.0
  Ni0+  Co1  1  0.66666667  0.16666667  0.16666667  1.0
  Ni0+  Co1  1  0.00000000  0.16666667  0.16666667  1.0
  Ni0+  Co1  1  0.16666667  0.83333333  0.00000000  1.0
  Ni0+  Co1  1  0.83333333  0.50000000  0.33333333  1.0
  Ni0+  Co1  1  0.50000000  0.16666667  0.66666667  1.0
  Ni0+  Co1  1  0.83333333  0.33333333  0.16666667  1.0
  Ni0+  Co1  1  0.83333333  0.66666667  0.16666667  1.0
  Ni0+  Co1  1  0.83333333  0.83333333  0.33333333  1.0
  Ni0+  Co1  1  0.50000000  0.83333333  0.66666667  1.0
  Ni0+  Co1  1  0.33333333  0.50000000  0.83333333  1.0
  Ni0+  Co1  1  0.33333333  0.50000000  0.50000000  1.0
  Ni0+  Co1  1  0.50000000  0.33333333  0.50000000  1.0
  Ni0+  Co1  1  0.33333333  0.66666667  0.00000000  1.0
  Ni0+  Co1  1  0.16666667  0.16666667  0.00000000  1.0
  Ni0+  Co1  1  0.00000000  0.33333333  0.33333333  1.0
  Ni0+  Co1  1  0.83333333  0.66666667  0.83333333  1.0
