# generated using pymatgen
data_Zr2Sc2Nb
_symmetry_space_group_name_H-M   'P 1'
_cell_length_a   13.49508388
_cell_length_b   14.83422869
_cell_length_c   14.34441834
_cell_angle_alpha   91.63325498
_cell_angle_beta   91.45071805
_cell_angle_gamma   87.40446048
_symmetry_Int_Tables_number   1
_chemical_formula_structural   Zr2Sc2Nb
_chemical_formula_sum   'Zr50 Sc50 Nb25'
_cell_volume   2866.65552231
_cell_formula_units_Z   25
loop_
 _symmetry_equiv_pos_site_id
 _symmetry_equiv_pos_as_xyz
  1  'x, y, z'
loop_
 _atom_site_type_symbol
 _atom_site_label
 _atom_site_symmetry_multiplicity
 _atom_site_fract_x
 _atom_site_fract_y
 _atom_site_fract_z
 _atom_site_occupancy
  Zr  Zr0  1  0.95772120  0.04410420  0.69283048  1
  Zr  Zr1  1  0.93407523  0.88964947  0.30734711  1
  Zr  Zr2  1  0.45424779  0.75882320  0.61941097  1
  Zr  Zr3  1  0.68763120  0.24488285  -0.05682127  1
  Zr  Zr4  1  0.57719503  0.02851637  0.29384263  1
  Zr  Zr5  1  0.76312809  0.14452230  0.60032410  1
  Zr  Zr6  1  0.62269896  0.86160492  0.89708642  1
  Zr  Zr7  1  0.31375184  0.44030217  0.55857219  1
  Zr  Zr8  1  0.79127976  0.48620386  0.96244453  1
  Zr  Zr9  1  0.65812351  0.75122637  0.51366641  1
  Zr  Zr10  1  0.08619783  0.18385776  0.15610169  1
  Zr  Zr11  1  0.42745862  0.16362592  0.35575307  1
  Zr  Zr12  1  0.92144260  0.65790697  0.02021397  1
  Zr  Zr13  1  0.09838423  0.53886676  0.07683980  1
  Zr  Zr14  1  0.76948202  0.95065647  0.74248421  1
  Zr  Zr15  1  0.21062381  0.58317922  0.26911396  1
  Zr  Zr16  1  0.25931959  0.63929164  0.49220964  1
  Zr  Zr17  1  0.60044640  0.44269976  0.87618959  1
  Zr  Zr18  1  0.00622620  0.49006516  0.89486088  1
  Zr  Zr19  1  0.22465056  0.50574820  0.87468377  1
  Zr  Zr20  1  0.89789979  0.32065716  0.87964203  1
  Zr  Zr21  1  0.64420923  0.65971451  0.28154127  1
  Zr  Zr22  1  0.74329530  0.35383049  0.54466147  1
  Zr  Zr23  1  0.50329167  0.91122319  0.45541320  1
  Zr  Zr24  1  0.87111900  0.83311869  0.57117560  1
  Zr  Zr25  1  0.06827236  0.72903788  0.37871638  1
  Zr  Zr26  1  0.50184237  0.63879994  0.79239703  1
  Zr  Zr27  1  0.10454578  0.81366763  0.95816763  1
  Zr  Zr28  1  0.47015528  0.71425040  0.40523290  1
  Zr  Zr29  1  0.29929403  0.61716118  0.70102538  1
  Zr  Zr30  1  0.48020655  0.74160259  0.00938421  1
  Zr  Zr31  1  0.51435107  0.82663283  0.22701402  1
  Zr  Zr32  1  0.39886315  0.53531498  0.37123835  1
  Zr  Zr33  1  0.28651410  0.12740111  0.88137011  1
  Zr  Zr34  1  0.67686245  0.65082644  0.90819224  1
  Zr  Zr35  1  0.70379065  -0.02975178  0.51260448  1
  Zr  Zr36  1  0.52305614  0.36613392  0.43537529  1
  Zr  Zr37  1  0.21509769  0.14044521  0.32199765  1
  Zr  Zr38  1  0.76677758  0.38858456  0.33358678  1
  Zr  Zr39  1  0.87321017  0.23386067  0.24550666  1
  Zr  Zr40  1  0.86798745  0.63925622  0.80457267  1
  Zr  Zr41  1  0.53202864  0.26865493  0.23119549  1
  Zr  Zr42  1  0.71778209  0.35392974  0.12042954  1
  Zr  Zr43  1  0.30113574  0.83392438  0.10373008  1
  Zr  Zr44  1  0.54447653  0.94438171  0.67122830  1
  Zr  Zr45  1  0.89286552  0.18335274  0.02206966  1
  Zr  Zr46  1  0.30883610  0.92326103  0.92345491  1
  Zr  Zr47  1  0.91267710  0.04119750  0.14426074  1
  Zr  Zr48  1  0.42086273  0.54653602  0.96430128  1
  Zr  Zr49  1  0.48729611  0.55527122  0.57698774  1
  Sc  Sc50  1  0.71835163  0.84830059  0.34018319  1
  Sc  Sc51  1  0.72167150  0.30833297  0.74360109  1
  Sc  Sc52  1  0.11047187  1.02445132  0.01275009  1
  Sc  Sc53  1  0.53608466  0.11896217  0.53881436  1
  Sc  Sc54  1  0.12327839  0.93661079  0.19561716  1
  Sc  Sc55  1  0.85000579  0.67331469  0.40635629  1
  Sc  Sc56  1  0.93096578  0.44813515  0.48227275  1
  Sc  Sc57  1  0.06131709  0.70329770  0.59388883  1
  Sc  Sc58  1  0.51983665  0.31588797  0.63559548  1
  Sc  Sc59  1  0.21748635  0.80346760  0.73097636  1
  Sc  Sc60  1  0.51431581  0.36409657  0.04601838  1
  Sc  Sc61  1  0.71575423  0.03340176  0.95251538  1
  Sc  Sc62  1  0.67786452  0.52155374  0.69777084  1
  Sc  Sc63  1  0.93771542  0.38576394  0.10648123  1
  Sc  Sc64  1  0.10235594  0.92590643  0.60187698  1
  Sc  Sc65  1  0.84659579  0.62404339  0.60126654  1
  Sc  Sc66  1  0.27655829  0.76910655  0.29609836  1
  Sc  Sc67  1  0.50694703  0.95338403  0.06181667  1
  Sc  Sc68  1  0.90367739  0.43921684  0.70081117  1
  Sc  Sc69  1  0.32429275  0.33630865  0.93728808  1
  Sc  Sc70  1  0.67091138  0.54009584  0.45767292  1
  Sc  Sc71  1  0.28828601  0.83680568  0.51301311  1
  Sc  Sc72  1  0.04954311  0.16014327  0.86354356  1
  Sc  Sc73  1  0.48636309  0.15789768  1.02167903  1
  Sc  Sc74  1  0.30756350  0.05477509  0.11650438  1
  Sc  Sc75  1  0.11784582  0.32019609  0.99615413  1
  Sc  Sc76  1  0.08670412  0.66386823  0.82121137  1
  Sc  Sc77  1  0.93243986  0.85666142  0.07955254  1
  Sc  Sc78  1  0.31431441  0.25237921  0.14766722  1
  Sc  Sc79  1  0.69073484  0.14167303  0.14679008  1
  Sc  Sc80  1  0.56450377  0.46959653  0.24829074  1
  Sc  Sc81  1  0.28948577  0.31446498  0.72213782  1
  Sc  Sc82  1  0.17147602  0.14179087  0.68857410  1
  Sc  Sc83  1  0.30898295  0.35433077  0.34475837  1
  Sc  Sc84  1  0.49246186  0.25836369  0.83372930  1
  Sc  Sc85  1  0.29195371  0.24019578  0.51956735  1
  Sc  Sc86  1  0.13664863  0.94873691  0.39967244  1
  Sc  Sc87  1  0.98955878  0.54233797  0.28482662  1
  Sc  Sc88  1  0.72693992  0.92747259  0.14876173  1
  Sc  Sc89  1  0.31349437  0.04220107  0.51520459  1
  Sc  Sc90  1  0.13875320  0.38608803  0.21300042  1
  Sc  Sc91  1  0.91911492  0.01465661  0.48826609  1
  Sc  Sc92  1  0.67116688  0.20618020  0.39453790  1
  Sc  Sc93  1  0.70478633  0.73853956  0.09087679  1
  Sc  Sc94  1  0.06422452  0.29825830  0.37260697  1
  Sc  Sc95  1  0.68842293  0.75749339  0.71906087  1
  Sc  Sc96  1  0.79532248  0.54468497  0.17829619  1
  Sc  Sc97  1  0.34075713  0.46286774  0.14134546  1
  Sc  Sc98  1  0.35239923  0.96387701  0.30298906  1
  Sc  Sc99  1  0.11215506  0.50796708  0.66035026  1
  Nb  Nb100  1  0.08269620  0.13781488  0.50714879  1
  Nb  Nb101  1  0.48447885  0.02556866  0.85416572  1
  Nb  Nb102  1  0.30055331  0.70984576  0.89388379  1
  Nb  Nb103  1  0.88138956  0.72457445  0.22044483  1
  Nb  Nb104  1  0.83204533  0.81280385  0.90167914  1
  Nb  Nb105  1  0.42218955  0.46018858  0.76283699  1
  Nb  Nb106  1  0.79268741  0.05579710  0.32600692  1
  Nb  Nb107  1  0.89208774  0.22504462  0.45903767  1
  Nb  Nb108  1  0.43909147  0.82562559  0.80564569  1
  Nb  Nb109  1  0.09367115  0.32537399  0.57723654  1
  Nb  Nb110  1  0.08589723  0.73082557  0.16972461  1
  Nb  Nb111  1  0.93161407  0.98053509  0.90324052  1
  Nb  Nb112  1  0.32067975  0.96802486  0.71110094  1
  Nb  Nb113  1  0.14592449  0.48454191  0.43688275  1
  Nb  Nb114  1  0.00437464  0.09470472  0.32264676  1
  Nb  Nb115  1  0.12744077  0.97218375  0.81187384  1
  Nb  Nb116  1  0.97268902  0.83489261  0.76013733  1
  Nb  Nb117  1  0.60017809  0.55638584  0.07438872  1
  Nb  Nb118  1  0.94169331  0.24188752  0.66162548  1
  Nb  Nb119  1  0.09394099  0.33907883  0.78280672  1
  Nb  Nb120  1  0.40563839  0.13074285  0.69841169  1
  Nb  Nb121  1  0.62571364  0.11764751  0.75519692  1
  Nb  Nb122  1  0.43279120  0.64544061  0.18647726  1
  Nb  Nb123  1  0.82899408  0.14028175  0.81528717  1
  Nb  Nb124  1  0.25599148  0.65403623  0.06584523  1
