# generated using pymatgen
data_Zr2Sc2Nb
_symmetry_space_group_name_H-M   'P 1'
_cell_length_a   14.01727374
_cell_length_b   14.14574659
_cell_length_c   14.44234732
_cell_angle_alpha   91.21537718
_cell_angle_beta   91.70629941
_cell_angle_gamma   90.55666661
_symmetry_Int_Tables_number   1
_chemical_formula_structural   Zr2Sc2Nb
_chemical_formula_sum   'Zr50 Sc50 Nb25'
_cell_volume   2861.63082461
_cell_formula_units_Z   25
loop_
 _symmetry_equiv_pos_site_id
 _symmetry_equiv_pos_as_xyz
  1  'x, y, z'
loop_
 _atom_site_type_symbol
 _atom_site_label
 _atom_site_symmetry_multiplicity
 _atom_site_fract_x
 _atom_site_fract_y
 _atom_site_fract_z
 _atom_site_occupancy
  Zr  Zr0  1  0.19095074  0.54057287  0.93113480  1
  Zr  Zr1  1  0.49811766  0.89698452  0.02774868  1
  Zr  Zr2  1  0.74463091  0.21301393  0.56045599  1
  Zr  Zr3  1  0.06823579  0.15359308  0.68370048  1
  Zr  Zr4  1  0.09200639  0.86383952  0.24547190  1
  Zr  Zr5  1  -0.05725159  0.24411732  0.49848813  1
  Zr  Zr6  1  0.84278373  0.08499383  0.36185488  1
  Zr  Zr7  1  0.91528019  0.35136777  0.68615272  1
  Zr  Zr8  1  0.07896348  0.45963950  0.23676808  1
  Zr  Zr9  1  0.26939553  0.24088604  0.67891833  1
  Zr  Zr10  1  0.95619558  0.03777264  0.52282981  1
  Zr  Zr11  1  1.01227891  0.65489224  0.30732064  1
  Zr  Zr12  1  0.29036608  0.85128459  0.14416773  1
  Zr  Zr13  1  0.70727922  0.77698957  0.07939655  1
  Zr  Zr14  1  0.29521539  0.04793905  0.56325810  1
  Zr  Zr15  1  0.39347767  0.04120515  0.17196193  1
  Zr  Zr16  1  0.27055450  0.64828285  0.59319432  1
  Zr  Zr17  1  0.63764514  0.55814737  0.13515516  1
  Zr  Zr18  1  0.98707489  0.53274314  0.83619144  1
  Zr  Zr19  1  0.77737122  0.68201081  0.25884040  1
  Zr  Zr20  1  0.92817783  0.74229568  0.12697470  1
  Zr  Zr21  1  0.56487005  0.67926625  0.30721059  1
  Zr  Zr22  1  0.92412915  0.96933676  0.16415751  1
  Zr  Zr23  1  0.48113131  0.71850549  0.12131411  1
  Zr  Zr24  1  0.78908539  0.15505789  0.18060976  1
  Zr  Zr25  1  0.00429085  0.53295639  0.06037561  1
  Zr  Zr26  1  0.28488195  0.42866700  0.53502578  1
  Zr  Zr27  1  0.55672694  0.90966338  0.22357548  1
  Zr  Zr28  1  0.55751699  0.25065196  0.87110695  1
  Zr  Zr29  1  0.27428570  0.83900705  0.68688960  1
  Zr  Zr30  1  0.29931549  0.95812225  0.95840706  1
  Zr  Zr31  1  0.63924619  0.87084830  0.66768696  1
  Zr  Zr32  1  0.75448273  0.51679966  0.81533089  1
  Zr  Zr33  1  0.79445182  0.41931025  0.49168968  1
  Zr  Zr34  1  0.81945482  0.70291767  0.87312494  1
  Zr  Zr35  1  0.46926096  0.46263555  0.20958578  1
  Zr  Zr36  1  0.56530944  0.14972637  0.10975934  1
  Zr  Zr37  1  0.05769634  0.92590641  0.66947251  1
  Zr  Zr38  1  0.39185454  0.13709954  0.96533596  1
  Zr  Zr39  1  0.64894282  0.47781367  0.34045228  1
  Zr  Zr40  1  0.19015405  0.54919439  0.40356815  1
  Zr  Zr41  1  0.39287671  0.82322269  0.30602818  1
  Zr  Zr42  1  0.88640215  0.34797953  0.10000948  1
  Zr  Zr43  1  0.11296551  0.26794073  0.16760405  1
  Zr  Zr44  1  0.53773307  0.11854023  0.55207396  1
  Zr  Zr45  1  0.65448071  0.07771883  0.71977672  1
  Zr  Zr46  1  0.79245865  0.06793493  0.88420563  1
  Zr  Zr47  1  0.93161101  0.84899258  0.37112739  1
  Zr  Zr48  1  0.97520243  0.72825958  0.73118438  1
  Zr  Zr49  1  0.13603135  0.84405633  0.84528623  1
  Sc  Sc50  1  0.32877968  0.25688995  0.12416354  1
  Sc  Sc51  1  0.59554794  0.65717102  0.74157437  1
  Sc  Sc52  1  0.11480169  0.35339616  0.79669515  1
  Sc  Sc53  1  0.85144010  0.48597613  0.26153532  1
  Sc  Sc54  1  0.15360245  0.67341462  0.13273640  1
  Sc  Sc55  1  0.23444921  0.03661460  0.77325167  1
  Sc  Sc56  1  0.31044488  0.34025113  0.91616815  1
  Sc  Sc57  1  0.57479977  0.04206415  0.90747908  1
  Sc  Sc58  1  0.29307639  0.38624794  0.29464582  1
  Sc  Sc59  1  0.05234174  0.08748424  0.30895986  1
  Sc  Sc60  1  0.16586336  0.16559147  0.94059745  1
  Sc  Sc61  1  0.61735496  0.60550235  0.51279553  1
  Sc  Sc62  1  0.51381227  0.46286797  0.82872878  1
  Sc  Sc63  1  0.12131352  0.91596829  0.47405008  1
  Sc  Sc64  1  0.29145552  0.73808900  0.96152262  1
  Sc  Sc65  1  0.72505229  0.78927520  0.44550762  1
  Sc  Sc66  1  0.67279062  0.34151155  0.17150819  1
  Sc  Sc67  1  0.62454659  0.10086295  0.33010310  1
  Sc  Sc68  1  0.08820668  0.52243888  0.64322340  1
  Sc  Sc69  1  0.65878001  0.43954869  0.64765335  1
  Sc  Sc70  1  0.00701287  0.01852434  0.85244116  1
  Sc  Sc71  1  0.96057820  0.14391533  0.04711607  1
  Sc  Sc72  1  0.86086194  0.63394600  0.46362173  1
  Sc  Sc73  1  0.06730407  0.71305553  0.53440191  1
  Sc  Sc74  1  0.42792565  0.04216217  0.38931117  1
  Sc  Sc75  1  0.99711280  0.46380894  0.45641059  1
  Sc  Sc76  1  0.71301018  0.98977846  0.06578681  1
  Sc  Sc77  1  0.17714441  0.05682474  0.13045480  1
  Sc  Sc78  1  0.39879346  0.65212137  0.43928348  1
  Sc  Sc79  1  0.46443512  0.85907966  0.81636251  1
  Sc  Sc80  1  0.60695410  0.64543259  0.94468892  1
  Sc  Sc81  1  0.57682068  0.32288355  0.47533668  1
  Sc  Sc82  1  0.54170691  0.87580761  0.45695180  1
  Sc  Sc83  1  0.32670600  0.61059882  0.23879586  1
  Sc  Sc84  1  0.76848353  0.70980237  0.65427548  1
  Sc  Sc85  1  0.93941724  0.28386100  0.29778919  1
  Sc  Sc86  1  0.75619197  0.90554639  0.26616861  1
  Sc  Sc87  1  0.47359822  0.31420684  0.66440662  1
  Sc  Sc88  1  0.73647560  0.99641495  0.52767437  1
  Sc  Sc89  1  0.38571280  0.65154495  0.79113152  1
  Sc  Sc90  1  0.74143107  0.28130454  0.78423704  1
  Sc  Sc91  1  0.95037776  0.22526468  0.85987218  1
  Sc  Sc92  1  0.36080458  0.24894377  0.47266251  1
  Sc  Sc93  1  0.26579789  0.17079968  0.30459794  1
  Sc  Sc94  1  0.43268794  0.11026065  0.75192556  1
  Sc  Sc95  1  0.40822330  0.54513298  1.00985187  1
  Sc  Sc96  1  0.88658851  0.87900229  0.96094101  1
  Sc  Sc97  1  0.49815855  0.34621108  0.04053691  1
  Sc  Sc98  1  0.09285933  0.88596081  0.03795040  1
  Sc  Sc99  1  0.29101619  0.46546315  0.73990867  1
  Nb  Nb100  1  0.44974692  0.46346298  0.41314340  1
  Nb  Nb101  1  0.68152202  0.86011863  0.87366942  1
  Nb  Nb102  1  0.24453963  0.97027344  0.33188916  1
  Nb  Nb103  1  0.14827398  0.14623205  0.48757839  1
  Nb  Nb104  1  0.20534695  0.74870524  0.36217745  1
  Nb  Nb105  1  0.45598051  0.95087499  0.62845714  1
  Nb  Nb106  1  0.08140799  0.35787891  -0.00449106  1
  Nb  Nb107  1  0.87394454  0.54138961  0.64996054  1
  Nb  Nb108  1  0.73864909  0.27739340  0.35466198  1
  Nb  Nb109  1  0.03394074  0.70122585  0.94494478  1
  Nb  Nb110  1  0.86715498  0.10579563  0.69052302  1
  Nb  Nb111  1  0.89463572  0.84645045  0.56670904  1
  Nb  Nb112  1  0.45612879  0.52803427  0.61678147  1
  Nb  Nb113  1  0.46475523  0.74814744  0.61289221  1
  Nb  Nb114  1  0.23558534  0.45137826  0.10352733  1
  Nb  Nb115  1  0.81066583  0.57318976  0.03544589  1
  Nb  Nb116  1  0.13303492  0.31468797  0.39116174  1
  Nb  Nb117  1  0.11525727  0.32645344  0.58413855  1
  Nb  Nb118  1  0.32620763  0.85078782  0.49432849  1
  Nb  Nb119  1  0.87602723  0.39769737  0.92025524  1
  Nb  Nb120  1  0.49554174  0.27098994  0.28697426  1
  Nb  Nb121  1  0.16933350  0.66105126  0.77480769  1
  Nb  Nb122  1  0.68140124  0.41983345  0.97408621  1
  Nb  Nb123  1  0.83788892  0.90975813  0.74440176  1
  Nb  Nb124  1  0.73478038  0.22866093  -0.00777643  1
