# generated using pymatgen
data_Zr2Sc2Nb
_symmetry_space_group_name_H-M   'P 1'
_cell_length_a   14.07346830
_cell_length_b   14.45648336
_cell_length_c   14.15340771
_cell_angle_alpha   88.67108143
_cell_angle_beta   91.41765948
_cell_angle_gamma   90.74264127
_symmetry_Int_Tables_number   1
_chemical_formula_structural   Zr2Sc2Nb
_chemical_formula_sum   'Zr50 Sc50 Nb25'
_cell_volume   2877.67454653
_cell_formula_units_Z   25
loop_
 _symmetry_equiv_pos_site_id
 _symmetry_equiv_pos_as_xyz
  1  'x, y, z'
loop_
 _atom_site_type_symbol
 _atom_site_label
 _atom_site_symmetry_multiplicity
 _atom_site_fract_x
 _atom_site_fract_y
 _atom_site_fract_z
 _atom_site_occupancy
  Zr  Zr0  1  0.69949584  0.52608425  0.39316892  1
  Zr  Zr1  1  0.70103464  0.92965073  0.17032776  1
  Zr  Zr2  1  0.02320828  0.12423896  0.04383079  1
  Zr  Zr3  1  0.21050634  0.32622535  0.28142779  1
  Zr  Zr4  1  0.62710505  0.91375033  0.40635715  1
  Zr  Zr5  1  0.85936644  0.78578692  0.43196184  1
  Zr  Zr6  1  0.53402358  0.70740451  0.72198033  1
  Zr  Zr7  1  0.30762138  0.15437591  0.47706124  1
  Zr  Zr8  1  0.35468606  0.02727981  0.70030276  1
  Zr  Zr9  1  0.29384345  0.52162323  0.00778594  1
  Zr  Zr10  1  0.43277699  0.70215138  0.07392415  1
  Zr  Zr11  1  0.31070125  0.23597340  0.67789262  1
  Zr  Zr12  1  0.68560362  0.74411382  0.32522432  1
  Zr  Zr13  1  0.69897715  0.63391201  0.90061319  1
  Zr  Zr14  1  0.02702467  0.24191034  0.37608697  1
  Zr  Zr15  1  0.32888294  0.89762736  0.12122811  1
  Zr  Zr16  1  0.51405177  0.10336858  0.45270180  1
  Zr  Zr17  1  0.18589343  0.32836762  0.49870385  1
  Zr  Zr18  1  0.15536563  0.09055607  0.73547257  1
  Zr  Zr19  1  0.36664074  0.83031305  0.67409979  1
  Zr  Zr20  1  0.76009325  0.83461686  0.97445252  1
  Zr  Zr21  1  0.75989496  0.59231835  0.70966132  1
  Zr  Zr22  1  0.24305497  0.69858227  0.12836634  1
  Zr  Zr23  1  0.05360718  0.83633477  0.48238230  1
  Zr  Zr24  1  0.04400422  0.73197473  0.14721554  1
  Zr  Zr25  1  -0.00466249  0.87829086  0.28515314  1
  Zr  Zr26  1  0.11339679  0.62006888  0.79316237  1
  Zr  Zr27  1  0.53221851  0.62428373  0.26749110  1
  Zr  Zr28  1  0.07136851  0.28634690  0.68001062  1
  Zr  Zr29  1  0.35409932  0.71249496  0.31150701  1
  Zr  Zr30  1  0.71959622  0.40613675  0.81528608  1
  Zr  Zr31  1  0.07642239  0.61402475  0.53917932  1
  Zr  Zr32  1  0.20215004  0.96096429  0.56066837  1
  Zr  Zr33  1  0.91870376  0.62182551  0.30222574  1
  Zr  Zr34  1  0.34993591  0.02404202  0.28571923  1
  Zr  Zr35  1  0.53260591  0.12227613  0.66494334  1
  Zr  Zr36  1  0.87065534  0.66251620  0.04082785  1
  Zr  Zr37  1  0.39159188  0.92732535  0.46179299  1
  Zr  Zr38  1  0.92072339  0.10415930  0.67123258  1
  Zr  Zr39  1  0.53042336  0.92686507  0.04184489  1
  Zr  Zr40  1  0.08317704  0.58989046  0.99308301  1
  Zr  Zr41  1  0.54076698  0.40703589  0.29968548  1
  Zr  Zr42  1  0.81806634  0.05295980  0.04520750  1
  Zr  Zr43  1  0.75484526  0.41402249  0.57729679  1
  Zr  Zr44  1  0.68909557  0.71285780  0.54958304  1
  Zr  Zr45  1  0.86547041  0.93982907  0.81056858  1
  Zr  Zr46  1  0.95661301  0.49746195  0.70689055  1
  Zr  Zr47  1  0.55845239  0.48854371  0.10123711  1
  Zr  Zr48  1  0.58001271  0.26655308  0.15672643  1
  Zr  Zr49  1  0.66633353  0.19395752  0.84310120  1
  Sc  Sc50  1  0.95997980  0.07298084  0.23713238  1
  Sc  Sc51  1  0.08246876  0.21652163  0.87558698  1
  Sc  Sc52  1  0.33556131  0.62273240  0.64469448  1
  Sc  Sc53  1  0.72748987  0.08610676  0.49396693  1
  Sc  Sc54  1  0.49602852  0.53532035  0.46950856  1
  Sc  Sc55  1  0.31593475  0.69365205  0.86142968  1
  Sc  Sc56  1  0.94458953  0.28220479  0.17827396  1
  Sc  Sc57  1  0.12986513  0.42476988  0.86147749  1
  Sc  Sc58  1  0.40704732  0.11707540  0.08715949  1
  Sc  Sc59  1  0.36368915  0.89400221  0.90333084  1
  Sc  Sc60  1  0.15720774  0.82572433  0.97600105  1
  Sc  Sc61  1  0.93235321  0.36063926  0.93945011  1
  Sc  Sc62  1  0.21603892  0.86326375  0.30865040  1
  Sc  Sc63  1  0.74184916  0.57432356  0.19386679  1
  Sc  Sc64  1  0.86919080  0.58107872  0.50969592  1
  Sc  Sc65  1  0.97839578  0.76740038  0.86504643  1
  Sc  Sc66  1  0.86975847  0.14953164  0.86533265  1
  Sc  Sc67  1  0.63676970  0.72663980  0.10191967  1
  Sc  Sc68  1  0.50427581  0.56318015  0.90575831  1
  Sc  Sc69  1  0.22929282  0.05336318  0.95735360  1
  Sc  Sc70  1  0.36781269  0.33789499  0.10536693  1
  Sc  Sc71  1  0.41515082  0.22001489  0.28787487  1
  Sc  Sc72  1  0.56096493  0.49852385  0.68645914  1
  Sc  Sc73  1  0.34986739  0.45485118  0.80751072  1
  Sc  Sc74  1  0.87637643  0.23363180  0.51385983  1
  Sc  Sc75  1  0.17477123  0.46930061  0.65212489  1
  Sc  Sc76  1  0.37273674  0.41458878  0.60229953  1
  Sc  Sc77  1  0.75916318  0.15570739  0.23726654  1
  Sc  Sc78  1  0.12621127  0.68010991  0.34124499  1
  Sc  Sc79  1  0.93541490  0.48156190  0.13356358  1
  Sc  Sc80  1  0.57369269  0.91230616  0.60011681  1
  Sc  Sc81  1  0.27037931  0.54304511  0.43856502  1
  Sc  Sc82  1  0.20246955  0.15304632  0.17138513  1
  Sc  Sc83  1  0.95381426  0.89947941  0.05093757  1
  Sc  Sc84  1  0.14023641  0.04992353  0.36117383  1
  Sc  Sc85  1  0.71333563  0.81148877  0.75182096  1
  Sc  Sc86  1  0.76398653  0.26612008  0.02965350  1
  Sc  Sc87  1  0.68667244  0.28332238  0.39578496  1
  Sc  Sc88  1  0.54097328  0.33522814  0.95177649  1
  Sc  Sc89  1  0.46691788  0.11221760  0.87952289  1
  Sc  Sc90  1  0.56084035  1.05587478  0.24776834  1
  Sc  Sc91  1  0.30712927  0.26333404  0.89697358  1
  Sc  Sc92  1  0.91994044  0.73961901  0.65632565  1
  Sc  Sc93  1  0.14631891  0.52002028  0.18888600  1
  Sc  Sc94  1  0.35615616  0.50798864  0.22837828  1
  Sc  Sc95  1  0.06428578  0.46506585  0.37058299  1
  Sc  Sc96  1  0.15305834  0.76219630  0.66100165  1
  Sc  Sc97  1  0.53150299  0.30633407  0.53581487  1
  Sc  Sc98  1  0.48866490  0.74328515  0.48005741  1
  Sc  Sc99  1  0.13784806  0.33959666  0.06292391  1
  Nb  Nb100  1  0.74345725  0.37915632  0.20583177  1
  Nb  Nb101  1  0.50509387  0.30286526  0.74992896  1
  Nb  Nb102  1  0.13368204  0.96219010  0.13894459  1
  Nb  Nb103  1  0.09307623  0.14008414  0.54632608  1
  Nb  Nb104  1  0.95082816  0.02392024  0.46578976  1
  Nb  Nb105  1  0.83506323  0.78645518  0.19713866  1
  Nb  Nb106  1  0.81255516  0.91559227  0.57592883  1
  Nb  Nb107  1  0.36729172  0.36369929  0.40506596  1
  Nb  Nb108  1  0.03882750  -0.00249682  0.88101111  1
  Nb  Nb109  1  0.18653695  0.90012621  0.78578538  1
  Nb  Nb110  1  1.01866684  0.93417097  0.66326310  1
  Nb  Nb111  1  0.26306610  0.75852985  0.49192133  1
  Nb  Nb112  1  0.74866897  0.47096017  1.01046714  1
  Nb  Nb113  1  0.80859176  0.95784091  0.34031054  1
  Nb  Nb114  1  0.62028261  0.11301656  0.04527491  1
  Nb  Nb115  1  0.71563348  0.03559603  0.70668860  1
  Nb  Nb116  1  0.67364579  -0.00627136  0.89911728  1
  Nb  Nb117  1  0.53085661  0.93222810  0.79066634  1
  Nb  Nb118  1  0.54952945  0.77928874  0.90879405  1
  Nb  Nb119  1  0.70756344  0.23432510  0.65060619  1
  Nb  Nb120  1  0.49386023  0.84780693  0.25367865  1
  Nb  Nb121  1  -0.02273102  0.39992637  0.53914283  1
  Nb  Nb122  1  0.86411478  0.40634927  0.36126699  1
  Nb  Nb123  1  0.90048664  0.55388499  0.87986560  1
  Nb  Nb124  1  0.87734704  0.31129370  0.72787462  1
