# generated using pymatgen
data_Zr2Sc2Nb
_symmetry_space_group_name_H-M   'P 1'
_cell_length_a   14.70726162
_cell_length_b   13.98499474
_cell_length_c   14.02616960
_cell_angle_alpha   91.17096333
_cell_angle_beta   88.18239003
_cell_angle_gamma   83.18500288
_symmetry_Int_Tables_number   1
_chemical_formula_structural   Zr2Sc2Nb
_chemical_formula_sum   'Zr50 Sc50 Nb25'
_cell_volume   2862.24027229
_cell_formula_units_Z   25
loop_
 _symmetry_equiv_pos_site_id
 _symmetry_equiv_pos_as_xyz
  1  'x, y, z'
loop_
 _atom_site_type_symbol
 _atom_site_label
 _atom_site_symmetry_multiplicity
 _atom_site_fract_x
 _atom_site_fract_y
 _atom_site_fract_z
 _atom_site_occupancy
  Zr  Zr0  1  0.08405809  0.53553219  0.34929609  1
  Zr  Zr1  1  0.23527639  0.59278423  0.05605227  1
  Zr  Zr2  1  0.10464193  0.06996384  0.62531535  1
  Zr  Zr3  1  0.35911543  0.84435675  0.90940772  1
  Zr  Zr4  1  0.45177614  0.41444418  0.93363640  1
  Zr  Zr5  1  0.40492038  0.23506408  0.96315707  1
  Zr  Zr6  1  0.71847019  0.78502437  0.77374312  1
  Zr  Zr7  1  0.38109159  0.88540645  0.34795649  1
  Zr  Zr8  1  0.07424202  0.71906043  0.21735330  1
  Zr  Zr9  1  0.41032803  0.72154897  0.72272398  1
  Zr  Zr10  1  0.87151081  0.86814010  0.06462007  1
  Zr  Zr11  1  0.23272980  0.70437992  0.84168026  1
  Zr  Zr12  1  0.25597552  0.45028758  0.24572310  1
  Zr  Zr13  1  0.89594972  0.90685630  0.76139787  1
  Zr  Zr14  1  0.14423711  0.29246451  0.23979687  1
  Zr  Zr15  1  0.06701330  0.70985844  0.73313453  1
  Zr  Zr16  1  0.40410382  0.28881829  0.19284230  1
  Zr  Zr17  1  0.41307573  0.63286554  0.94817577  1
  Zr  Zr18  1  0.21937199  0.06190757  0.28233857  1
  Zr  Zr19  1  0.05397130  0.33984803  0.78888678  1
  Zr  Zr20  1  0.94147254  0.11377565  0.46535354  1
  Zr  Zr21  1  0.09233126  0.32538051  -0.00709031  1
  Zr  Zr22  1  0.36875976  0.71108929  0.47431184  1
  Zr  Zr23  1  0.56987144  0.67396337  0.09765806  1
  Zr  Zr24  1  0.56477912  0.76707157  0.42885540  1
  Zr  Zr25  1  0.62184761  0.50398523  -0.01595973  1
  Zr  Zr26  1  0.61460052  0.54719404  0.42923936  1
  Zr  Zr27  1  0.48960243  0.22582904  0.49476282  1
  Zr  Zr28  1  0.42756188  0.88315146  0.57755689  1
  Zr  Zr29  1  0.38969521  0.76180345  0.14007096  1
  Zr  Zr30  1  0.67408009  0.31628930  0.90768899  1
  Zr  Zr31  1  0.28292083  0.65419458  0.27240345  1
  Zr  Zr32  1  0.70224691  0.69034803  0.24653094  1
  Zr  Zr33  1  0.35098556  0.96625452  0.12472658  1
  Zr  Zr34  1  0.04122641  0.93859395  0.15146252  1
  Zr  Zr35  1  0.85948683  0.09595176  0.12282133  1
  Zr  Zr36  1  0.44171210  0.45386574  0.37091931  1
  Zr  Zr37  1  0.88043662  0.26242324  0.97300260  1
  Zr  Zr38  1  0.22330617  0.24712465  0.64953387  1
  Zr  Zr39  1  0.42870345  0.50703632  0.13537734  1
  Zr  Zr40  1  0.94346693  0.51475091  0.70977065  1
  Zr  Zr41  1  0.18375874  0.99535604  0.97989337  1
  Zr  Zr42  1  0.73299835  0.72193145  0.99865560  1
  Zr  Zr43  1  0.70980532  1.00500457  0.70264352  1
  Zr  Zr44  1  0.54183968  -0.00405833  0.44327298  1
  Zr  Zr45  1  0.16373247  0.74548027  0.44000546  1
  Zr  Zr46  1  0.39397405  0.03859560  0.91405909  1
  Zr  Zr47  1  0.13628439  0.17174944  0.45156808  1
  Zr  Zr48  1  0.79675826  0.12801902  0.85166667  1
  Zr  Zr49  1  0.94672657  0.74232239  0.41998775  1
  Sc  Sc50  1  0.52979037  0.89564290  0.77665188  1
  Sc  Sc51  1  1.05030960  0.78157687  0.95539969  1
  Sc  Sc52  1  0.59906780  0.68158713  0.63471528  1
  Sc  Sc53  1  0.57235310  0.48400809  0.75646504  1
  Sc  Sc54  1  0.60319309  0.30682325  0.32767091  1
  Sc  Sc55  1  0.01828596  0.14373891  0.81938171  1
  Sc  Sc56  1  0.81099647  0.21161485  0.31454176  1
  Sc  Sc57  1  0.87497288  0.12857826  0.65757985  1
  Sc  Sc58  1  0.11569297  0.91658859  0.79634222  1
  Sc  Sc59  1  0.07174777  0.49190010  0.13394201  1
  Sc  Sc60  1  0.73629009  0.51275011  0.61372804  1
  Sc  Sc61  1  0.71274096  0.88464286  0.36154099  1
  Sc  Sc62  1  0.89775447  0.58077382  0.27992221  1
  Sc  Sc63  1  0.79227617  0.31103679  0.52225885  1
  Sc  Sc64  1  0.72397688  0.94613485  0.92482244  1
  Sc  Sc65  1  0.29737722  -0.00004957  0.72263935  1
  Sc  Sc66  1  1.03955596  0.92976554  0.37182822  1
  Sc  Sc67  1  0.57903488  0.12882799  0.86663371  1
  Sc  Sc68  1  0.83903926  0.92666123  0.52009754  1
  Sc  Sc69  1  0.21523165  0.17132542  0.86439457  1
  Sc  Sc70  1  0.50595637  0.07426017  0.65675663  1
  Sc  Sc71  1  0.16460314  0.46871220  0.68770402  1
  Sc  Sc72  1  0.92997789  0.65270377  0.07579860  1
  Sc  Sc73  1  0.65088698  0.09784974  0.25854188  1
  Sc  Sc74  1  0.85932549  0.71362815  0.62685394  1
  Sc  Sc75  1  0.83260051  0.34606697  0.75431283  1
  Sc  Sc76  1  0.70129228  0.11354505  0.48702853  1
  Sc  Sc77  1  0.78193335  0.51090648  0.10500609  1
  Sc  Sc78  1  0.03388361  0.87336925  0.58666247  1
  Sc  Sc79  1  0.97634165  0.32595008  0.38555168  1
  Sc  Sc80  1  0.95801680  0.00269438  0.94575793  1
  Sc  Sc81  1  0.51827026  0.08131179  0.09351365  1
  Sc  Sc82  1  0.25473307  0.17135233  0.08843158  1
  Sc  Sc83  1  0.06537585  0.60770851  0.55367959  1
  Sc  Sc84  1  0.42772589  0.09700427  0.29843749  1
  Sc  Sc85  1  0.93605332  0.33304738  0.16697111  1
  Sc  Sc86  1  0.26124071  0.52695772  0.45387790  1
  Sc  Sc87  1  0.77349510  0.43629610  0.32753364  1
  Sc  Sc88  1  0.10659709  0.53858660  0.89827205  1
  Sc  Sc89  1  0.01536159  0.13065322  0.26398936  1
  Sc  Sc90  1  0.30227636  0.28511526  0.39808726  1
  Sc  Sc91  1  0.89673944  0.69478075  0.85670192  1
  Sc  Sc92  1  0.90733101  0.47362011  0.92906265  1
  Sc  Sc93  1  0.44571031  0.28843732  0.73459236  1
  Sc  Sc94  1  0.35787122  0.51268401  0.76853636  1
  Sc  Sc95  1  0.65920671  0.23644816  0.68529932  1
  Sc  Sc96  1  0.90939302  0.50550620  0.49259386  1
  Sc  Sc97  1  0.33585428  0.09098391  0.51412804  1
  Sc  Sc98  1  0.54462688  0.87380511  0.00601696  1
  Sc  Sc99  1  0.21169409  0.80297517  0.06212813  1
  Nb  Nb100  1  0.56217835  0.30576493  0.08683511  1
  Nb  Nb101  1  0.21372203  0.85978050  0.26448417  1
  Nb  Nb102  1  0.76094307  0.68505530  0.44925069  1
  Nb  Nb103  1  0.13113477  0.38493129  0.50017129  1
  Nb  Nb104  1  0.21950354  0.94013648  0.47780557  1
  Nb  Nb105  1  0.60456739  0.48440581  0.21057930  1
  Nb  Nb106  1  0.54238893  0.87509471  0.23068219  1
  Nb  Nb107  1  0.70273605  0.91991470  0.14665302  1
  Nb  Nb108  1  0.26688886  0.38699480  1.04751708  1
  Nb  Nb109  1  0.69843396  0.13639591  0.03976833  1
  Nb  Nb110  1  0.23154885  0.82066193  0.63738681  1
  Nb  Nb111  1  0.00237366  0.28682694  0.60118474  1
  Nb  Nb112  1  0.74379751  0.56840761  0.82353523  1
  Nb  Nb113  1  0.57072313  0.38419223  0.55110660  1
  Nb  Nb114  1  0.25919794  0.36437080  0.84868750  1
  Nb  Nb115  1  0.85543809  -0.00834390  0.29459088  1
  Nb  Nb116  1  0.73365305  0.30935671  0.13657247  1
  Nb  Nb117  1  0.34852681  0.39242293  0.58078515  1
  Nb  Nb118  1  0.48763230  0.65614359  0.29120304  1
  Nb  Nb119  1  0.05309042  0.14798204  0.05644110  1
  Nb  Nb120  1  0.87344123  0.79789484  0.24888126  1
  Nb  Nb121  1  0.45437685  0.54967366  0.57464179  1
  Nb  Nb122  1  0.65312284  0.86872874  0.57701430  1
  Nb  Nb123  1  0.25703177  0.62825729  0.62870876  1
  Nb  Nb124  1  0.57265600  0.69097305  0.86514257  1
