# generated using pymatgen
data_Zr2Sc2Nb
_symmetry_space_group_name_H-M   'P 1'
_cell_length_a   14.26080028
_cell_length_b   14.12382122
_cell_length_c   14.29813451
_cell_angle_alpha   87.87766037
_cell_angle_beta   92.36410875
_cell_angle_gamma   90.81173795
_symmetry_Int_Tables_number   1
_chemical_formula_structural   Zr2Sc2Nb
_chemical_formula_sum   'Zr50 Sc50 Nb25'
_cell_volume   2875.23186309
_cell_formula_units_Z   25
loop_
 _symmetry_equiv_pos_site_id
 _symmetry_equiv_pos_as_xyz
  1  'x, y, z'
loop_
 _atom_site_type_symbol
 _atom_site_label
 _atom_site_symmetry_multiplicity
 _atom_site_fract_x
 _atom_site_fract_y
 _atom_site_fract_z
 _atom_site_occupancy
  Zr  Zr0  1  0.90152800  0.74244192  0.28215833  1
  Zr  Zr1  1  0.82135461  0.95314002  0.21647344  1
  Zr  Zr2  1  0.16453454  0.98519655  0.49358658  1
  Zr  Zr3  1  0.76940133  0.57538509  0.86090149  1
  Zr  Zr4  1  0.10121855  0.74079346  0.21044209  1
  Zr  Zr5  1  0.54952715  0.49221763  0.89342147  1
  Zr  Zr6  1  0.99713550  0.45564885  0.65449275  1
  Zr  Zr7  1  0.91750873  0.82142366  0.08369602  1
  Zr  Zr8  1  0.67574356  0.26433642  0.59272328  1
  Zr  Zr9  1  0.51837840  0.22466885  0.92433726  1
  Zr  Zr10  1  0.11289564  0.49873680  0.94622091  1
  Zr  Zr11  1  0.38816099  0.50994564  0.66378935  1
  Zr  Zr12  1  0.37414511  0.27376863  0.76199412  1
  Zr  Zr13  1  0.19365144  0.93958367  0.88920223  1
  Zr  Zr14  1  0.06744675  0.75843060  0.96180246  1
  Zr  Zr15  1  0.43183707  0.69391625  0.77584983  1
  Zr  Zr16  1  0.61392921  0.93458637  0.18811944  1
  Zr  Zr17  1  0.49651887  0.80919365  0.07794401  1
  Zr  Zr18  1  0.75655773  0.46446900  0.66551838  1
  Zr  Zr19  1  0.52624730  0.13523922  0.71343159  1
  Zr  Zr20  1  0.08081664  0.78742425  0.73220230  1
  Zr  Zr21  1  0.98352072  0.61128534  0.81051659  1
  Zr  Zr22  1  0.15223521  0.75657309  0.43080433  1
  Zr  Zr23  1  0.55011431  0.44728870  0.55180089  1
  Zr  Zr24  1  0.03009401  0.93046569  0.31636775  1
  Zr  Zr25  1  0.94683186  0.11045418  0.78359954  1
  Zr  Zr26  1  0.28742258  0.24176657  0.15781285  1
  Zr  Zr27  1  0.67824909  0.63030222  0.51279965  1
  Zr  Zr28  1  0.71184530  0.17619247  0.81451903  1
  Zr  Zr29  1  0.78154050  0.30363005  0.29048465  1
  Zr  Zr30  1  0.54976694  0.08926431  0.51044217  1
  Zr  Zr31  1  0.35462087  0.65854812  0.20824953  1
  Zr  Zr32  1  0.07138686  0.31859290  0.82869189  1
  Zr  Zr33  1  0.46665240  0.03649747  0.28465355  1
  Zr  Zr34  1  0.24258425  0.21843551  0.50535707  1
  Zr  Zr35  1  0.18625707  0.14616288  0.79337851  1
  Zr  Zr36  1  0.86062266  0.49943275  0.26074438  1
  Zr  Zr37  1  0.51296567  0.76072286  0.28900186  1
  Zr  Zr38  1  0.48008541  0.69531334  0.57047786  1
  Zr  Zr39  1  0.32236016  0.07322542  0.65075806  1
  Zr  Zr40  1  0.69481347  0.10114172  0.01775214  1
  Zr  Zr41  1  0.60691115  0.59658987  0.71838746  1
  Zr  Zr42  1  0.87172931  0.52585074  0.48681239  1
  Zr  Zr43  1  0.09585782  0.99372657  0.68535635  1
  Zr  Zr44  1  0.08195748  0.39815528  0.45962239  1
  Zr  Zr45  1  0.67853863  0.12968922  0.23747150  1
  Zr  Zr46  1  0.40826297  0.86610066  0.89022890  1
  Zr  Zr47  1  0.56932769  0.35672518  0.74257979  1
  Zr  Zr48  1  0.73165821  0.36928502  0.89232186  1
  Zr  Zr49  1  0.06429376  0.13309548  0.18157314  1
  Sc  Sc50  1  0.70958076  0.88470165  1.00086521  1
  Sc  Sc51  1  0.93649090  0.07165260  0.54889738  1
  Sc  Sc52  1  0.24171480  0.71054454  0.86185506  1
  Sc  Sc53  1  0.86698708  0.18952033  0.13569495  1
  Sc  Sc54  1  0.60402537  0.69537167  0.93950451  1
  Sc  Sc55  1  0.26042618  0.06937785  0.04617044  1
  Sc  Sc56  1  0.88557411  0.89024976  0.67988973  1
  Sc  Sc57  1  0.28645975  0.84008864  0.07665279  1
  Sc  Sc58  1  0.18726749  0.33040105  0.29770851  1
  Sc  Sc59  1  0.19800837  0.63519216  0.07304897  1
  Sc  Sc60  1  0.72946379  0.04278828  0.63908650  1
  Sc  Sc61  1  0.72018579  0.52528292  0.06814838  1
  Sc  Sc62  1  0.44935151  0.39504467  0.05039783  1
  Sc  Sc63  1  0.05865928  0.22933102  0.62308194  1
  Sc  Sc64  1  0.26377592  0.27251053  0.95049660  1
  Sc  Sc65  1  0.32320873  0.46634245  0.87114923  1
  Sc  Sc66  1  0.51349313  0.56185798  0.37561055  1
  Sc  Sc67  1  0.66354243  0.81419730  0.76972935  1
  Sc  Sc68  1  0.89928152  1.02778732  0.02083719  1
  Sc  Sc69  1  0.61407681  0.42323706  0.24109157  1
  Sc  Sc70  1  0.83580912  0.67447696  0.66882676  1
  Sc  Sc71  1  0.21901030  0.36685964  0.65233260  1
  Sc  Sc72  1  0.85478470  0.77773078  0.87670853  1
  Sc  Sc73  1  0.70695569  0.80008538  0.35279857  1
  Sc  Sc74  1  0.36136861  0.04326536  0.45741414  1
  Sc  Sc75  1  0.50549107  0.87636389  0.44835794  1
  Sc  Sc76  1  0.92426968  0.60617599  0.03745200  1
  Sc  Sc77  1  0.05834842  0.49450353  0.17397861  1
  Sc  Sc78  1  0.30388309  0.85631283  0.30429141  1
  Sc  Sc79  1  0.23538579  0.06819347  0.28720347  1
  Sc  Sc80  1  0.34000094  0.42430150  0.46166732  1
  Sc  Sc81  1  0.57522263  0.26388322  0.38855350  1
  Sc  Sc82  1  0.48308971  0.91090315  0.67084463  1
  Sc  Sc83  1  0.57723681  -0.00477029  0.86516331  1
  Sc  Sc84  1  0.86696153  0.29650732  0.72197843  1
  Sc  Sc85  1  0.17000081  0.55032837  0.73896068  1
  Sc  Sc86  1  0.06852492  0.16694814  0.39983491  1
  Sc  Sc87  1  0.54416911  0.59832002  0.14773826  1
  Sc  Sc88  1  0.47144906  0.03799444  0.04998698  1
  Sc  Sc89  1  0.69739582  0.84310631  0.55942743  1
  Sc  Sc90  1  0.89280845  0.30167747  0.48386197  1
  Sc  Sc91  1  0.39157213  0.42579199  0.25277994  1
  Sc  Sc92  1  0.02705519  0.59515176  0.37752432  1
  Sc  Sc93  1  0.09355683  0.93842001  0.09715133  1
  Sc  Sc94  1  0.67501880  0.30340203  1.07784976  1
  Sc  Sc95  1  0.21661445  0.55056637  0.31042452  1
  Sc  Sc96  1  0.39643854  0.62439488  0.99330758  1
  Sc  Sc97  1  0.49581641  0.22328131  0.17721863  1
  Sc  Sc98  1  0.71713060  0.73388462  0.14928284  1
  Sc  Sc99  1  0.06966547  0.31174802  0.05892904  1
  Nb  Nb100  1  0.71608079  0.60199334  0.31918700  1
  Nb  Nb101  1  0.88645910  0.10969707  0.32875192  1
  Nb  Nb102  1  0.87320668  0.73061333  0.47350904  1
  Nb  Nb103  1  0.07198810  0.12559086  -0.03974829  1
  Nb  Nb104  1  0.26096454  0.70370469  0.63177999  1
  Nb  Nb105  1  -0.00375969  0.93404134  0.87651463  1
  Nb  Nb106  1  0.79296109  -0.00871916  0.84354970  1
  Nb  Nb107  1  1.03775650  0.65132516  0.58571709  1
  Nb  Nb108  1  0.92303472  0.43143410  0.89244280  1
  Nb  Nb109  1  0.87645346  0.39026125  0.08308968  1
  Nb  Nb110  1  0.88618629  0.23054032  0.93641827  1
  Nb  Nb111  1  0.75332276  0.14992257  0.45047641  1
  Nb  Nb112  1  0.43983121  0.26099298  0.56572555  1
  Nb  Nb113  1  0.01700060  0.85331585  0.53078269  1
  Nb  Nb114  1  0.25193549  0.44207873  0.09578356  1
  Nb  Nb115  1  0.37684541  0.22720080  0.35818027  1
  Nb  Nb116  1  0.31924152  0.85233894  0.52927737  1
  Nb  Nb117  1  0.67122533  0.99502938  0.38553885  1
  Nb  Nb118  1  0.36990552  0.06743719  0.85276178  1
  Nb  Nb119  1  0.71060127  0.42408972  0.43780515  1
  Nb  Nb120  1  0.85381379  0.93171174  0.43297022  1
  Nb  Nb121  1  0.34438583  0.67221562  0.43080657  1
  Nb  Nb122  1  0.19618092  0.55450793  0.52762182  1
  Nb  Nb123  1  0.27867968  0.88437143  0.71897864  1
  Nb  Nb124  1  0.97804749  0.31395632  0.26943973  1
