# generated using pymatgen
data_Zr2Sc2Nb
_symmetry_space_group_name_H-M   'P 1'
_cell_length_a   14.06379276
_cell_length_b   14.46076790
_cell_length_c   14.09784079
_cell_angle_alpha   91.63290586
_cell_angle_beta   89.86719476
_cell_angle_gamma   90.44649002
_symmetry_Int_Tables_number   1
_chemical_formula_structural   Zr2Sc2Nb
_chemical_formula_sum   'Zr50 Sc50 Nb25'
_cell_volume   2865.86598105
_cell_formula_units_Z   25
loop_
 _symmetry_equiv_pos_site_id
 _symmetry_equiv_pos_as_xyz
  1  'x, y, z'
loop_
 _atom_site_type_symbol
 _atom_site_label
 _atom_site_symmetry_multiplicity
 _atom_site_fract_x
 _atom_site_fract_y
 _atom_site_fract_z
 _atom_site_occupancy
  Zr  Zr0  1  0.08170866  0.63114862  0.21393976  1
  Zr  Zr1  1  0.27088590  0.30531992  0.38917752  1
  Zr  Zr2  1  0.73098747  0.80670596  0.41993316  1
  Zr  Zr3  1  0.69116063  0.90437878  0.22715587  1
  Zr  Zr4  1  0.47539373  0.59052718  0.36136238  1
  Zr  Zr5  1  0.91549422  0.72102461  0.35881280  1
  Zr  Zr6  1  0.16645499  0.95326114  0.15795101  1
  Zr  Zr7  1  0.70245632  -0.00049681  0.45496472  1
  Zr  Zr8  1  0.74587864  0.91595446  0.01985199  1
  Zr  Zr9  1  0.06556693  0.85929426  0.71436337  1
  Zr  Zr10  1  0.70203967  0.15265054  0.93323235  1
  Zr  Zr11  1  0.85531928  0.11699128  0.09384554  1
  Zr  Zr12  1  0.94910231  0.82297277  0.92721283  1
  Zr  Zr13  1  0.54790092  0.79987597  0.06018595  1
  Zr  Zr14  1  0.14538772  0.35597800  0.56594531  1
  Zr  Zr15  1  0.35357035  0.60590455  0.79298743  1
  Zr  Zr16  1  0.07993484  0.13488799  0.06230419  1
  Zr  Zr17  1  0.36629709  0.61748479  0.57897141  1
  Zr  Zr18  1  0.33267491  0.87890639  0.01949030  1
  Zr  Zr19  1  0.03163474  0.17219049  0.61490735  1
  Zr  Zr20  1  0.01922533  0.44322071  0.09980741  1
  Zr  Zr21  1  0.20699966  0.10998195  0.29849616  1
  Zr  Zr22  1  0.52343763  0.78914593  0.28203333  1
  Zr  Zr23  1  0.50949736  0.27732448  0.42168665  1
  Zr  Zr24  1  0.53798112  0.48773427  0.60519367  1
  Zr  Zr25  1  0.65905311  0.79567647  0.84723718  1
  Zr  Zr26  1  0.86639015  0.54692129  0.22237268  1
  Zr  Zr27  1  0.70267676  0.83672580  0.62821134  1
  Zr  Zr28  1  0.59873852  0.29570967  0.65955100  1
  Zr  Zr29  1  0.05006142  0.16629531  0.84090685  1
  Zr  Zr30  1  0.27289050  0.40809928  0.87048216  1
  Zr  Zr31  1  0.26497663  0.54461942  0.30500217  1
  Zr  Zr32  1  0.71227651  0.23833932  0.47213262  1
  Zr  Zr33  1  0.69500628  0.34098001  0.86670253  1
  Zr  Zr34  1  0.39391531  0.43965436  0.45827506  1
  Zr  Zr35  1  0.67120985  0.54405379  0.79012091  1
  Zr  Zr36  1  0.94407704  0.02417675  0.72112741  1
  Zr  Zr37  1  0.89235855  0.12146414  0.46171201  1
  Zr  Zr38  1  0.10320277  0.83226148  0.29554422  1
  Zr  Zr39  1  0.21294333  0.76239034  0.83910023  1
  Zr  Zr40  1  0.75529337  0.30550815  0.10637288  1
  Zr  Zr41  1  0.78617998  0.13479027  0.28359123  1
  Zr  Zr42  1  0.47369965  0.60660790  0.15339886  1
  Zr  Zr43  1  0.53094209  0.63993712  0.93180158  1
  Zr  Zr44  1  1.01027902  0.66579179  0.78702458  1
  Zr  Zr45  1  0.37186424  0.07295839  0.65202346  1
  Zr  Zr46  1  0.90634760  0.03231540  0.91892011  1
  Zr  Zr47  1  0.91751441  0.32937313  0.53474050  1
  Zr  Zr48  1  0.42719551  0.40201464  0.22281466  1
  Zr  Zr49  1  0.13130228  0.54974638  0.91860608  1
  Sc  Sc50  1  0.85298787  0.75901288  0.15642155  1
  Sc  Sc51  1  0.64957213  0.44142953  0.42264974  1
  Sc  Sc52  1  -0.03336542  0.62782164  1.02286550  1
  Sc  Sc53  1  0.35590928  0.98616442  0.83769705  1
  Sc  Sc54  1  0.22490192  0.24227298  0.72163692  1
  Sc  Sc55  1  0.74941300  0.10496777  0.63803178  1
  Sc  Sc56  1  0.28619031  0.73779402  0.42011531  1
  Sc  Sc57  1  0.88543860  0.48597323  0.84160960  1
  Sc  Sc58  1  0.85833320  0.24953397  0.74773444  1
  Sc  Sc59  1  0.42823959  0.19508713  0.21220392  1
  Sc  Sc60  1  0.62816251  0.48367234  1.00018288  1
  Sc  Sc61  1  0.68794314  0.63817025  0.32198511  1
  Sc  Sc62  1  0.33576188  0.92968485  0.30253977  1
  Sc  Sc63  1  0.55872422  0.11452739  0.77385407  1
  Sc  Sc64  1  0.37954884  0.11063015  0.42734832  1
  Sc  Sc65  1  0.99850812  0.52865225  0.61128518  1
  Sc  Sc66  1  0.63445946  0.10673184  0.12158811  1
  Sc  Sc67  1  0.06678008  0.83444587  0.49623114  1
  Sc  Sc68  1  0.05566931  0.44537034  0.33674524  1
  Sc  Sc69  1  0.52979782  0.74074582  0.49946697  1
  Sc  Sc70  1  0.72832876  0.98356703  0.80262974  1
  Sc  Sc71  1  0.05514174  0.37273516  0.77727231  1
  Sc  Sc72  1  0.29990797  0.74301428  0.19943796  1
  Sc  Sc73  1  0.25110156  0.15382792  0.90311985  1
  Sc  Sc74  1  0.05367976  0.24321956  0.38695910  1
  Sc  Sc75  1  0.42587509  0.26002652  0.82584164  1
  Sc  Sc76  1  0.83347135  0.34778433  0.32087384  1
  Sc  Sc77  1  0.16447957  0.69788490  0.61529507  1
  Sc  Sc78  1  0.34186878  0.83130100  0.66615577  1
  Sc  Sc79  1  0.47908338  0.97397009  0.14600095  1
  Sc  Sc80  1  0.12924112  0.76918021  0.04757819  1
  Sc  Sc81  1  0.87021816  0.53405378  0.44559031  1
  Sc  Sc82  1  0.89439543  0.93325854  0.32681719  1
  Sc  Sc83  1  0.96169248  0.93346991  0.11479660  1
  Sc  Sc84  1  0.77082461  0.43460376  0.63760401  1
  Sc  Sc85  1  0.49571341  0.44368264  0.81288177  1
  Sc  Sc86  1  0.78403008  0.66907939  0.93853262  1
  Sc  Sc87  1  0.48426994  0.93262505  0.49200691  1
  Sc  Sc88  1  0.54050138  0.69326699  0.70457688  1
  Sc  Sc89  1  0.91249523  0.29247503  0.96162525  1
  Sc  Sc90  1  0.24790914  0.94667485  0.51007922  1
  Sc  Sc91  1  0.88564122  0.92295074  0.54837516  1
  Sc  Sc92  1  0.12866653  0.96289522  0.91419381  1
  Sc  Sc93  1  0.64145139  0.46629030  0.20301409  1
  Sc  Sc94  1  0.29759660  0.08722068  0.09074161  1
  Sc  Sc95  1  0.18415700  0.29677828  0.19038992  1
  Sc  Sc96  1  0.70295263  0.62541306  0.54883134  1
  Sc  Sc97  1  0.32161549  0.65771845  -0.00141345  1
  Sc  Sc98  1  0.23802560  0.48283921  0.09780210  1
  Sc  Sc99  1  0.56672053  0.07509600  0.33052448  1
  Nb  Nb100  1  0.20737482  0.15392738  0.52424546  1
  Nb  Nb101  1  0.67724809  0.65807388  0.11755907  1
  Nb  Nb102  1  0.43782374  0.80150809  0.86089935  1
  Nb  Nb103  1  0.39257118  0.26275838  0.58853947  1
  Nb  Nb104  1  0.07097058  0.02684334  0.43398417  1
  Nb  Nb105  1  0.91549060  0.71982106  0.57459711  1
  Nb  Nb106  1  0.18149877  0.52995499  0.71451172  1
  Nb  Nb107  1  0.08009555  0.63907178  0.42378340  1
  Nb  Nb108  1  0.81677265  0.48335221  0.04183315  1
  Nb  Nb109  1  0.20711834  0.52006271  0.49816651  1
  Nb  Nb110  1  0.62551525  0.27344853  0.25996214  1
  Nb  Nb111  1  0.17012101  0.03362691  0.70111046  1
  Nb  Nb112  1  0.54786656  0.29896509  1.04554091  1
  Nb  Nb113  1  0.81312623  0.65387861  0.72158751  1
  Nb  Nb114  1  0.42565478  0.46209339  1.00777296  1
  Nb  Nb115  1  0.55294724  0.11703584  0.55808564  1
  Nb  Nb116  1  0.55220493  0.96400987  -0.06765513  1
  Nb  Nb117  1  0.53315780  0.92220076  0.70847379  1
  Nb  Nb118  1  0.96829726  0.27315257  0.17888370  1
  Nb  Nb119  1  0.12956285  0.31732970  0.98236918  1
  Nb  Nb120  1  1.00437971  0.09172145  0.25329791  1
  Nb  Nb121  1  0.33552890  0.42487016  0.66275897  1
  Nb  Nb122  1  0.34124236  0.29170284  0.03790060  1
  Nb  Nb123  1  0.46928225  0.12786189  -0.01784972  1
  Nb  Nb124  1  0.86273152  0.83435832  0.75773004  1
