# generated using pymatgen
data_Zr2Sc2Nb
_symmetry_space_group_name_H-M   'P 1'
_cell_length_a   14.05232477
_cell_length_b   13.91884579
_cell_length_c   14.72030679
_cell_angle_alpha   91.41781928
_cell_angle_beta   89.92585632
_cell_angle_gamma   90.21726387
_symmetry_Int_Tables_number   1
_chemical_formula_structural   Zr2Sc2Nb
_chemical_formula_sum   'Zr50 Sc50 Nb25'
_cell_volume   2878.27207882
_cell_formula_units_Z   25
loop_
 _symmetry_equiv_pos_site_id
 _symmetry_equiv_pos_as_xyz
  1  'x, y, z'
loop_
 _atom_site_type_symbol
 _atom_site_label
 _atom_site_symmetry_multiplicity
 _atom_site_fract_x
 _atom_site_fract_y
 _atom_site_fract_z
 _atom_site_occupancy
  Zr  Zr0  1  0.30106993  0.85723020  0.21920224  1
  Zr  Zr1  1  0.99736664  0.71902993  0.42381073  1
  Zr  Zr2  1  0.72870112  0.23418389  0.13262863  1
  Zr  Zr3  1  0.86510701  0.15798077  0.52611183  1
  Zr  Zr4  1  0.11306897  0.84792343  0.74218964  1
  Zr  Zr5  1  -0.02721501  0.17771613  0.17937770  1
  Zr  Zr6  1  0.46796672  0.31824875  0.69378379  1
  Zr  Zr7  1  0.89710473  0.55662659  0.53861424  1
  Zr  Zr8  1  0.50130339  0.75215030  0.13069791  1
  Zr  Zr9  1  0.52636977  0.58095691  0.00917806  1
  Zr  Zr10  1  0.31223582  0.56139539  0.90832734  1
  Zr  Zr11  1  0.25273109  0.25830299  0.36419808  1
  Zr  Zr12  1  0.94021193  -0.01233959  0.64443859  1
  Zr  Zr13  1  0.27113246  0.20549495  0.92177840  1
  Zr  Zr14  1  0.76844432  0.36883774  0.50333474  1
  Zr  Zr15  1  0.82932304  0.48332815  0.35374018  1
  Zr  Zr16  1  0.11214641  0.58832187  0.59273197  1
  Zr  Zr17  1  0.06860686  0.51397643  0.39748005  1
  Zr  Zr18  1  0.48184999  0.85630983  0.33013807  1
  Zr  Zr19  1  0.28554724  0.45702343  0.71007300  1
  Zr  Zr20  1  0.82879444  0.33319253  0.95546286  1
  Zr  Zr21  1  0.69772759  0.89190744  0.68572743  1
  Zr  Zr22  1  0.47136950  0.53833895  0.61388795  1
  Zr  Zr23  1  0.36944810  0.65424329  0.28010282  1
  Zr  Zr24  1  0.59630061  0.13046224  0.25300988  1
  Zr  Zr25  1  0.94141898  0.61890232  0.24417098  1
  Zr  Zr26  1  0.47103966  0.95406609  0.60325854  1
  Zr  Zr27  1  0.45231898  0.71821541  0.87665729  1
  Zr  Zr28  1  0.86622895  0.36104574  0.72436189  1
  Zr  Zr29  1  0.52204063  0.74891055  0.66601808  1
  Zr  Zr30  1  0.48707379  0.50452448  0.17836380  1
  Zr  Zr31  1  0.17366552  0.36120629  0.53567575  1
  Zr  Zr32  1  0.41986972  0.72143534  0.48885483  1
  Zr  Zr33  1  0.77041105  0.69369270  0.13523865  1
  Zr  Zr34  1  0.38837983  0.37994301  0.01338264  1
  Zr  Zr35  1  0.09378505  0.85968394  0.28422807  1
  Zr  Zr36  1  0.69182327  1.04417181  0.57296064  1
  Zr  Zr37  1  1.01847937  1.04202267  0.81565117  1
  Zr  Zr38  1  0.89372609  0.58809112  0.73832658  1
  Zr  Zr39  1  0.95034205  0.04667256  0.34954259  1
  Zr  Zr40  1  0.43926821  0.05514647  0.93629248  1
  Zr  Zr41  1  0.07304751  0.41555263  0.72098888  1
  Zr  Zr42  1  0.88990745  0.81703066  0.76769740  1
  Zr  Zr43  1  0.71097618  0.50051483  0.15240970  1
  Zr  Zr44  1  0.20811075  0.71039951  0.40574707  1
  Zr  Zr45  1  0.08438580  0.91440511  0.49327814  1
  Zr  Zr46  1  0.23816833  0.24588369  0.71318124  1
  Zr  Zr47  1  0.22572904  -0.00819498  0.88592551  1
  Zr  Zr48  1  0.91679601  0.52894244  0.06068612  1
  Zr  Zr49  1  0.26269233  0.46229278  0.32720635  1
  Sc  Sc50  1  0.64053666  1.00551806  0.04704336  1
  Sc  Sc51  1  0.88032435  0.37260115  0.19190096  1
  Sc  Sc52  1  0.85649419  0.88626907  0.49039769  1
  Sc  Sc53  1  0.88466896  0.69261812  0.93537886  1
  Sc  Sc54  1  0.64867711  0.57290570  0.48469040  1
  Sc  Sc55  1  0.30378254  0.92382100  0.43971969  1
  Sc  Sc56  1  0.47696127  0.25318203  0.87517643  1
  Sc  Sc57  1  0.77391963  0.71483455  0.60025749  1
  Sc  Sc58  1  0.03615548  0.29929336  0.33834886  1
  Sc  Sc59  1  0.51008118  0.49080148  0.82246035  1
  Sc  Sc60  1  0.68083716  0.69161509  0.79199071  1
  Sc  Sc61  1  0.62261759  0.83318931  0.48460262  1
  Sc  Sc62  1  0.88236448  0.11608733  0.99596484  1
  Sc  Sc63  1  0.77296169  0.96750655  0.86593480  1
  Sc  Sc64  1  0.15902586  0.66322934  0.20865908  1
  Sc  Sc65  1  0.02600268  0.87206300  0.93836228  1
  Sc  Sc66  1  0.97149804  0.35099794  0.53074204  1
  Sc  Sc67  1  0.72916846  0.00602321  0.36982250  1
  Sc  Sc68  1  0.09675819  0.14160675  0.48610046  1
  Sc  Sc69  1  0.59440666  0.10305170  0.75604592  1
  Sc  Sc70  1  0.59763498  0.65573230  0.29280538  1
  Sc  Sc71  1  0.83454543  0.89132409  0.05075316  1
  Sc  Sc72  1  0.47193353  -0.02482071  0.15190725  1
  Sc  Sc73  1  0.40969761  0.31185627  0.21913852  1
  Sc  Sc74  1  0.31149588  0.66746589  0.71252859  1
  Sc  Sc75  1  0.82701828  0.15115799  0.76091739  1
  Sc  Sc76  1  0.17142107  0.40825260  0.94288019  1
  Sc  Sc77  1  0.67026737  0.16961147  0.93595397  1
  Sc  Sc78  1  0.73691125  0.52550071  0.91755706  1
  Sc  Sc79  1  0.03483573  0.25447276  0.85556092  1
  Sc  Sc80  1  0.28545399  0.05876516  0.09354231  1
  Sc  Sc81  1  0.18727541  0.02634170  0.65893233  1
  Sc  Sc82  1  0.37186144  0.08644574  0.29530202  1
  Sc  Sc83  1  0.87838065  0.85548055  0.26308770  1
  Sc  Sc84  1  0.78396047  0.70389463  0.37466756  1
  Sc  Sc85  1  0.20890237  0.27493893  0.13518394  1
  Sc  Sc86  1  0.31877158  0.13568466  0.52766335  1
  Sc  Sc87  1  0.09854912  0.63380347  0.79723459  1
  Sc  Sc88  1  0.08773996  0.45283684  0.18312325  1
  Sc  Sc89  1  0.34420655  0.88118866  0.75393725  1
  Sc  Sc90  1  0.68794339  0.49115913  0.67834284  1
  Sc  Sc91  1  0.66622714  0.87369772  0.21392862  1
  Sc  Sc92  1  0.11495365  0.62097697  1.00816180  1
  Sc  Sc93  1  0.63689225  0.36217838  0.30577010  1
  Sc  Sc94  1  0.60562100  0.36928863  0.01683686  1
  Sc  Sc95  1  0.54727079  0.90682049  0.83478020  1
  Sc  Sc96  1  0.65045071  0.77918328  -0.01964101  1
  Sc  Sc97  1  0.15314438  0.07302804  0.27026362  1
  Sc  Sc98  1  0.09562306  0.10813984  1.01313901  1
  Sc  Sc99  1  0.46410456  0.48792811  0.39198809  1
  Nb  Nb100  1  0.68752341  0.25581227  0.64193368  1
  Nb  Nb101  1  0.97140023  0.47285758  0.88682314  1
  Nb  Nb102  1  0.29004241  0.55741941  0.51390827  1
  Nb  Nb103  1  0.51858504  1.03405633  0.42750550  1
  Nb  Nb104  1  0.66223366  0.19711048  0.44199184  1
  Nb  Nb105  1  0.21868569  0.78547597  0.58293185  1
  Nb  Nb106  1  0.46983465  0.24532241  0.40000146  1
  Nb  Nb107  1  0.17507672  0.85946335  0.07261186  1
  Nb  Nb108  1  0.36574190  0.35533009  0.52765868  1
  Nb  Nb109  1  0.32252607  0.68936821  0.06761647  1
  Nb  Nb110  1  0.56976227  0.37001811  0.52543238  1
  Nb  Nb111  1  0.00988812  0.31878071  0.04061371  1
  Nb  Nb112  1  0.38038341  0.10033251  0.74429693  1
  Nb  Nb113  1  0.81795514  0.22499593  0.32943122  1
  Nb  Nb114  1  0.23311080  0.77067518  0.90075843  1
  Nb  Nb115  1  0.99100830  0.75973126  0.11278359  1
  Nb  Nb116  1  0.02880731  0.19872302  0.66465045  1
  Nb  Nb117  1  0.80566451  0.05386840  0.18921732  1
  Nb  Nb118  1  0.28495293  0.50292797  0.12306042  1
  Nb  Nb119  1  0.37602102  0.87042658  0.99670198  1
  Nb  Nb120  1  0.49483559  0.18627898  0.07861069  1
  Nb  Nb121  1  0.66791660  0.33144845  0.81259021  1
  Nb  Nb122  1  0.99288943  0.75593330  0.61215536  1
  Nb  Nb123  1  0.00751092  0.97110298  0.14031562  1
  Nb  Nb124  1  0.51091093  0.16759166  0.57642218  1
