# generated using pymatgen
data_Zr2Sc2Nb
_symmetry_space_group_name_H-M   'P 1'
_cell_length_a   14.09298285
_cell_length_b   14.23063860
_cell_length_c   14.26804020
_cell_angle_alpha   90.77823160
_cell_angle_beta   91.13399345
_cell_angle_gamma   90.34603171
_symmetry_Int_Tables_number   1
_chemical_formula_structural   Zr2Sc2Nb
_chemical_formula_sum   'Zr50 Sc50 Nb25'
_cell_volume   2860.60479391
_cell_formula_units_Z   25
loop_
 _symmetry_equiv_pos_site_id
 _symmetry_equiv_pos_as_xyz
  1  'x, y, z'
loop_
 _atom_site_type_symbol
 _atom_site_label
 _atom_site_symmetry_multiplicity
 _atom_site_fract_x
 _atom_site_fract_y
 _atom_site_fract_z
 _atom_site_occupancy
  Zr  Zr0  1  0.11988808  0.72046815  0.94607890  1
  Zr  Zr1  1  0.14083630  0.36393961  0.61369490  1
  Zr  Zr2  1  0.65138766  0.74780799  0.14996810  1
  Zr  Zr3  1  1.00501482  0.15381764  0.65675368  1
  Zr  Zr4  1  0.84600538  0.80771399  0.69558786  1
  Zr  Zr5  1  0.15899848  0.21764262  0.79311702  1
  Zr  Zr6  1  0.82272325  0.22183113  0.72979527  1
  Zr  Zr7  1  0.23176521  0.85681965  0.37492646  1
  Zr  Zr8  1  0.02359670  0.65739830  0.11688217  1
  Zr  Zr9  1  0.42366298  0.12905812  0.29428854  1
  Zr  Zr10  1  0.35066221  0.22956727  0.80980460  1
  Zr  Zr11  1  0.63594484  0.70586702  0.53016104  1
  Zr  Zr12  1  0.62383107  0.53982976  0.16188420  1
  Zr  Zr13  1  0.66342475  0.69949226  0.75581594  1
  Zr  Zr14  1  1.02860671  0.89874190  0.32270484  1
  Zr  Zr15  1  0.56597107  0.82788793  0.93834587  1
  Zr  Zr16  1  0.23785387  0.82855820  0.79480926  1
  Zr  Zr17  1  0.27139604  0.41495101  0.25237245  1
  Zr  Zr18  1  0.74814639  0.91055345  0.12296463  1
  Zr  Zr19  1  0.51631831  0.08469255  0.83184697  1
  Zr  Zr20  1  0.31903097  0.77744216  -0.00416375  1
  Zr  Zr21  1  0.51712035  0.67804185  0.30370470  1
  Zr  Zr22  1  0.72348531  0.41435342  1.02955079  1
  Zr  Zr23  1  0.41290952  0.43983696  0.79892084  1
  Zr  Zr24  1  0.94279312  0.95489815  0.52488304  1
  Zr  Zr25  1  0.43665533  0.72040111  0.65101669  1
  Zr  Zr26  1  0.08683727  0.28059744  0.01776381  1
  Zr  Zr27  1  0.02695785  0.52559152  0.73334262  1
  Zr  Zr28  1  0.92469620  0.46168354  0.01754958  1
  Zr  Zr29  1  0.82577756  0.45908852  0.82834315  1
  Zr  Zr30  1  0.65934757  0.62356865  0.95159193  1
  Zr  Zr31  1  0.68228533  0.23317505  0.87244212  1
  Zr  Zr32  1  0.89019617  0.30745056  0.17361548  1
  Zr  Zr33  1  0.70943845  0.39365055  0.65929168  1
  Zr  Zr34  1  0.69267419  0.48496982  0.47430303  1
  Zr  Zr35  1  0.83172109  0.13187127  0.51199744  1
  Zr  Zr36  1  0.49310893  0.48446236  0.00203166  1
  Zr  Zr37  1  0.08606696  0.96352055  0.69150888  1
  Zr  Zr38  1  0.28976378  0.37361036  0.01361942  1
  Zr  Zr39  1  0.44196127  0.89068591  0.76453714  1
  Zr  Zr40  1  0.62687389  0.05534160  0.22846290  1
  Zr  Zr41  1  0.23104824  0.23026917  0.41843290  1
  Zr  Zr42  1  0.08365456  0.26112521  0.24975504  1
  Zr  Zr43  1  0.25018840  0.14192390  0.98083829  1
  Zr  Zr44  1  0.51886604  -0.06391582  0.56275036  1
  Zr  Zr45  1  0.65134873  0.84147730  0.35189322  1
  Zr  Zr46  1  0.41457496  0.78458203  0.45501007  1
  Zr  Zr47  1  0.81955691  0.59133587  0.64151676  1
  Zr  Zr48  1  0.73065248  0.62421860  0.33525686  1
  Zr  Zr49  1  0.09383169  0.57609063  0.54346646  1
  Sc  Sc50  1  0.48738692  0.17984225  0.50959680  1
  Sc  Sc51  1  0.65293385  0.10412422  0.64884779  1
  Sc  Sc52  1  0.95685462  0.87228230  0.07663492  1
  Sc  Sc53  1  0.85472280  0.09410384  0.12545390  1
  Sc  Sc54  1  0.38299052  0.97075073  0.95287707  1
  Sc  Sc55  1  0.89649404  0.51608544  0.24481851  1
  Sc  Sc56  1  0.91246018  0.65358411  0.87281862  1
  Sc  Sc57  1  0.27184128  0.21437323  0.17782671  1
  Sc  Sc58  1  0.46067334  0.65633738  0.84498411  1
  Sc  Sc59  1  0.87913457  0.74791396  0.48097288  1
  Sc  Sc60  1  0.97963631  0.87654084  0.85417992  1
  Sc  Sc61  1  0.53814773  0.27316061  0.70915056  1
  Sc  Sc62  1  0.35355266  0.77259860  0.21257301  1
  Sc  Sc63  1  0.86729866  0.76619075  0.25656288  1
  Sc  Sc64  1  0.66366663  0.92342035  0.76427885  1
  Sc  Sc65  1  0.07813327  0.43697403  0.38029423  1
  Sc  Sc66  1  0.97295474  0.10281332  0.32082560  1
  Sc  Sc67  1  0.67225465  0.23253964  0.11599549  1
  Sc  Sc68  1  0.05066109  0.73488212  0.69548477  1
  Sc  Sc69  1  0.51416430  0.46941893  0.33480444  1
  Sc  Sc70  1  0.15520264  0.83358704  0.16174529  1
  Sc  Sc71  1  0.46081017  0.93357262  0.32758029  1
  Sc  Sc72  1  0.61870498  0.44962199  0.83560807  1
  Sc  Sc73  1  0.09190447  0.45335635  0.15376010  1
  Sc  Sc74  1  0.23113194  0.62594920  0.77066411  1
  Sc  Sc75  1  0.50292371  0.90197765  0.12546220  1
  Sc  Sc76  1  0.91551545  0.38206760  0.60007391  1
  Sc  Sc77  1  0.49935510  0.28249726  0.95283215  1
  Sc  Sc78  1  0.06296862  0.67167454  0.34329516  1
  Sc  Sc79  1  0.81943203  0.64210324  0.08100010  1
  Sc  Sc80  1  0.45465465  0.12594471  0.08398899  1
  Sc  Sc81  1  0.16242439  0.94091155  -0.03167844  1
  Sc  Sc82  1  0.27905912  0.90258033  0.60239995  1
  Sc  Sc83  1  0.10840627  0.50953546  0.94428801  1
  Sc  Sc84  1  0.33513249  0.04025957  0.46366336  1
  Sc  Sc85  1  -0.00108525  0.34004773  0.81805499  1
  Sc  Sc86  1  0.03590021  0.22963337  0.47260750  1
  Sc  Sc87  1  0.81048889  0.97186786  0.33456301  1
  Sc  Sc88  1  0.08276495  0.07319428  0.12019825  1
  Sc  Sc89  1  0.86793302  0.34387782  0.39447989  1
  Sc  Sc90  1  1.01887875  0.09297110  0.88263027  1
  Sc  Sc91  1  0.78008659  0.81472869  0.92742023  1
  Sc  Sc92  1  0.81200972  0.03555198  0.90351672  1
  Sc  Sc93  1  0.50333858  0.39303484  0.53744049  1
  Sc  Sc94  1  0.63053371  1.03784002  0.99908394  1
  Sc  Sc95  1  0.32512100  0.51458616  0.63311917  1
  Sc  Sc96  1  0.87033506  0.24982835  0.96336708  1
  Sc  Sc97  1  0.73256787  0.91664971  0.54738813  1
  Sc  Sc98  1  0.47692697  0.33665968  0.16955211  1
  Sc  Sc99  1  0.28036510  0.62102182  0.34629166  1
  Nb  Nb100  1  0.56206736  0.55072808  0.65854678  1
  Nb  Nb101  1  0.30151458  -0.01244132  0.15383356  1
  Nb  Nb102  1  0.21534228  0.13847318  0.61484131  1
  Nb  Nb103  1  0.12147477  1.02631296  0.48029117  1
  Nb  Nb104  1  0.22418974  0.61936506  0.12406382  1
  Nb  Nb105  1  0.47576679  0.68061632  0.06467168  1
  Nb  Nb106  1  0.86212534  1.01264678  0.70700311  1
  Nb  Nb107  1  0.39523223  0.54558542  0.16770014  1
  Nb  Nb108  1  0.09340305  0.81201088  0.51335579  1
  Nb  Nb109  1  0.77006435  0.18370714  0.31053757  1
  Nb  Nb110  1  0.45021746  0.58932239  0.48870746  1
  Nb  Nb111  1  0.71354503  0.39395329  0.26816509  1
  Nb  Nb112  1  0.21814058  0.41303520  0.80011422  1
  Nb  Nb113  1  0.28275955  0.44781846  0.45874250  1
  Nb  Nb114  1  0.59189508  0.25868164  0.33682493  1
  Nb  Nb115  1  0.39612592  0.30969725  0.37509058  1
  Nb  Nb116  1  0.90056868  0.54537719  0.45708016  1
  Nb  Nb117  1  0.26322192  0.03248203  0.79171281  1
  Nb  Nb118  1  0.30934217  0.56770326  0.95800276  1
  Nb  Nb119  1  0.25070324  0.69294044  0.54785622  1
  Nb  Nb120  1  0.33253464  0.29750416  0.61294428  1
  Nb  Nb121  1  0.63182915  0.06434814  0.42472600  1
  Nb  Nb122  1  0.19261197  0.05432030  0.29856286  1
  Nb  Nb123  1  0.69117357  0.26803310  0.50230278  1
  Nb  Nb124  1  0.40493995  0.08472283  0.66590884  1
