# generated using pymatgen
data_Zr2Sc2Nb
_symmetry_space_group_name_H-M   'P 1'
_cell_length_a   13.95393266
_cell_length_b   14.48827676
_cell_length_c   14.21900502
_cell_angle_alpha   89.44519373
_cell_angle_beta   90.70060168
_cell_angle_gamma   89.59286708
_symmetry_Int_Tables_number   1
_chemical_formula_structural   Zr2Sc2Nb
_chemical_formula_sum   'Zr50 Sc50 Nb25'
_cell_volume   2874.20935561
_cell_formula_units_Z   25
loop_
 _symmetry_equiv_pos_site_id
 _symmetry_equiv_pos_as_xyz
  1  'x, y, z'
loop_
 _atom_site_type_symbol
 _atom_site_label
 _atom_site_symmetry_multiplicity
 _atom_site_fract_x
 _atom_site_fract_y
 _atom_site_fract_z
 _atom_site_occupancy
  Zr  Zr0  1  0.50808708  0.56346882  -0.01078274  1
  Zr  Zr1  1  0.90896111  0.56703979  0.82902285  1
  Zr  Zr2  1  0.55828271  0.11281142  0.46040729  1
  Zr  Zr3  1  0.11023759  0.19455887  0.96334513  1
  Zr  Zr4  1  0.93463116  0.48107305  0.63169290  1
  Zr  Zr5  1  0.85431905  0.48693150  0.04232594  1
  Zr  Zr6  1  0.72831352  0.31584430  0.12663490  1
  Zr  Zr7  1  0.46694131  0.17403961  0.78742251  1
  Zr  Zr8  1  0.64438488  0.44274187  0.32492030  1
  Zr  Zr9  1  0.52506352  0.89910837  0.12333007  1
  Zr  Zr10  1  0.68179419  0.25621687  0.77963526  1
  Zr  Zr11  1  0.38801249  0.07097347  0.63727319  1
  Zr  Zr12  1  0.14215685  0.25980065  0.34863028  1
  Zr  Zr13  1  0.51881789  0.93976896  0.77057497  1
  Zr  Zr14  1  0.51842997  0.81447987  0.36379300  1
  Zr  Zr15  1  0.92367992  0.62198397  0.46984864  1
  Zr  Zr16  1  0.74968804  0.51963314  0.48850763  1
  Zr  Zr17  1  0.44424675  0.36599986  0.88281089  1
  Zr  Zr18  1  0.32947276  0.44799768  0.05742490  1
  Zr  Zr19  1  0.06911492  0.77933875  0.52846855  1
  Zr  Zr20  1  0.44945374  0.52183847  0.22800340  1
  Zr  Zr21  1  0.89760669  0.35951531  0.45008592  1
  Zr  Zr22  1  0.94234162  0.34087667  0.22173495  1
  Zr  Zr23  1  0.69579825  1.03262680  0.06490254  1
  Zr  Zr24  1  0.04532080  0.15284887  0.17650259  1
  Zr  Zr25  1  0.62084096  0.11159988  0.64442824  1
  Zr  Zr26  1  0.57487876  0.20422098  0.97486959  1
  Zr  Zr27  1  0.01213768  0.16297508  0.57529635  1
  Zr  Zr28  1  0.29280564  0.32553776  0.68994371  1
  Zr  Zr29  1  0.97669639  0.67140092  1.01473619  1
  Zr  Zr30  1  0.35461997  0.71629936  0.78659789  1
  Zr  Zr31  1  0.95599105  -0.00861257  0.47701589  1
  Zr  Zr32  1  0.22261920  0.18040620  0.53172810  1
  Zr  Zr33  1  0.90950187  0.98474375  0.25571574  1
  Zr  Zr34  1  0.04001816  0.01912134  0.75733584  1
  Zr  Zr35  1  0.35309852  0.51419696  0.63798443  1
  Zr  Zr36  1  0.66811888  0.85971787  0.93388336  1
  Zr  Zr37  1  0.94109870  0.16582654  0.36082789  1
  Zr  Zr38  1  0.43325692  0.70027125  0.55455079  1
  Zr  Zr39  1  0.65586114  0.40822438  0.92877166  1
  Zr  Zr40  1  0.34853158  0.67193366  0.06732215  1
  Zr  Zr41  1  0.65382734  0.31857238  0.52512541  1
  Zr  Zr42  1  0.23102237  0.34889931  0.89336349  1
  Zr  Zr43  1  0.30401290  0.54789131  0.86880999  1
  Zr  Zr44  1  0.92326472  0.16624015  0.83294773  1
  Zr  Zr45  1  0.03108970  -0.14260896  0.93063273  1
  Zr  Zr46  1  0.53473844  0.61732445  0.38741864  1
  Zr  Zr47  1  0.13936050  0.49394714  0.73031315  1
  Zr  Zr48  1  0.21289233  0.14248038  0.76184329  1
  Zr  Zr49  1  0.69435269  0.61760339  0.88193634  1
  Sc  Sc50  1  0.06137264  0.30050255  0.75514333  1
  Sc  Sc51  1  0.23252025  0.53352104  0.23371516  1
  Sc  Sc52  1  0.57849870  0.55352257  0.59704052  1
  Sc  Sc53  1  0.57709364  0.73069435  0.73042297  1
  Sc  Sc54  1  0.86409200  0.36813866  0.85377089  1
  Sc  Sc55  1  0.14442359  0.83619941  0.74563588  1
  Sc  Sc56  1  0.91991662  0.85688760  0.65293251  1
  Sc  Sc57  1  0.72151214  0.46656504  0.72060559  1
  Sc  Sc58  1  0.46997356  0.79207306  0.94230696  1
  Sc  Sc59  1  0.75668851  0.69996666  0.07723431  1
  Sc  Sc60  1  0.54221009  0.25371655  0.30901748  1
  Sc  Sc61  1  0.70967885  0.86450050  0.24551582  1
  Sc  Sc62  1  0.34765073  -0.01378659  0.45515708  1
  Sc  Sc63  1  0.05085507  0.45186745  0.94407747  1
  Sc  Sc64  1  0.15702812  0.97986951  0.57119185  1
  Sc  Sc65  1  0.84933220  0.28612184  0.64501910  1
  Sc  Sc66  1  0.34843714  0.71848588  0.27201537  1
  Sc  Sc67  1  0.31981491  0.93775389  0.05119922  1
  Sc  Sc68  1  0.14676251  0.74863482  0.14803277  1
  Sc  Sc69  1  0.55387698  0.70289445  0.17101310  1
  Sc  Sc70  1  0.46575941  0.43034197  0.45190895  1
  Sc  Sc71  1  0.84919542  0.51206138  0.28041917  1
  Sc  Sc72  1  0.70232027  0.08628154  0.28701925  1
  Sc  Sc73  1  0.50322888  0.00301752  0.30326634  1
  Sc  Sc74  1  0.33454203  0.34012113  0.26874752  1
  Sc  Sc75  1  0.43029921  0.25130804  0.54159204  1
  Sc  Sc76  1  0.85363838  0.76075848  0.84242508  1
  Sc  Sc77  1  0.84757844  0.96983944  0.86608020  1
  Sc  Sc78  1  0.72712373  0.96179604  0.46980307  1
  Sc  Sc79  1  0.33747110  0.86353928  0.64013441  1
  Sc  Sc80  1  0.29459106  0.93556263  0.26041610  1
  Sc  Sc81  1  0.08124729  0.87263607  0.33168909  1
  Sc  Sc82  1  0.86623754  0.81081583  0.41177503  1
  Sc  Sc83  1  0.66322643  0.52238255  0.13570304  1
  Sc  Sc84  1  0.31840625  0.95632684  0.83200005  1
  Sc  Sc85  1  0.26484753  0.78693387  0.44866295  1
  Sc  Sc86  1  0.53556834  0.90999059  0.55472270  1
  Sc  Sc87  1  0.25033445  0.13604173  0.16955484  1
  Sc  Sc88  1  0.51193661  0.35369237  0.11138352  1
  Sc  Sc89  1  0.83066646  0.06271455  0.66333700  1
  Sc  Sc90  1  0.10772064  0.66097071  0.34722897  1
  Sc  Sc91  1  0.67884847  0.73879867  0.51019931  1
  Sc  Sc92  1  0.46744794  0.12092272  0.14188905  1
  Sc  Sc93  1  0.86434475  0.88307397  0.07272313  1
  Sc  Sc94  1  0.33316911  0.15546655  0.95740874  1
  Sc  Sc95  1  0.10051924  0.95437658  0.12663360  1
  Sc  Sc96  1  0.92319154  0.72219332  0.22869735  1
  Sc  Sc97  1  0.14291856  0.35658465  0.12366362  1
  Sc  Sc98  1  0.07271053  0.45634587  0.36216820  1
  Sc  Sc99  1  0.71423017  0.88475964  0.69935173  1
  Nb  Nb100  1  0.12795621  0.55326908  0.53463879  1
  Nb  Nb101  1  1.09040913  0.35174374  0.55560175  1
  Nb  Nb102  1  0.22325256  0.78549039  0.94689310  1
  Nb  Nb103  1  0.22224735  0.67406911  0.63823427  1
  Nb  Nb104  1  0.34784242  0.15723092  0.35919186  1
  Nb  Nb105  1  0.30435582  0.57671880  0.43355490  1
  Nb  Nb106  1  0.78193323  0.16130669  0.48475634  1
  Nb  Nb107  1  0.26040845  0.38681988  0.47316800  1
  Nb  Nb108  1  0.17246360  0.58212750  0.02847003  1
  Nb  Nb109  1  0.77712081  0.19443030  -0.03703672  1
  Nb  Nb110  1  0.79397050  0.65753238  0.66470199  1
  Nb  Nb111  1  0.02697356  0.53950986  0.16229642  1
  Nb  Nb112  1  0.00485227  0.66605953  0.67831614  1
  Nb  Nb113  1  0.14923592  0.00980867  0.93169377  1
  Nb  Nb114  1  0.71971087  0.66454779  0.31260280  1
  Nb  Nb115  1  0.94052860  0.28451523  0.03001227  1
  Nb  Nb116  1  0.51002602  0.53968684  0.79130777  1
  Nb  Nb117  1  0.52084424  0.36812989  0.69090358  1
  Nb  Nb118  1  0.76122658  0.28097876  0.32645507  1
  Nb  Nb119  1  0.94918921  1.06405186  0.01476397  1
  Nb  Nb120  1  0.66848989  0.06303767  0.84535639  1
  Nb  Nb121  1  0.50154460  1.01290729  0.95398135  1
  Nb  Nb122  1  0.14358797  0.06285154  0.36301378  1
  Nb  Nb123  1  0.11344768  0.65915824  0.84789651  1
  Nb  Nb124  1  0.84353128  0.15650445  0.15766002  1
