# generated using pymatgen
data_Zr2Sc2Nb
_symmetry_space_group_name_H-M   'P 1'
_cell_length_a   14.33929969
_cell_length_b   14.19120203
_cell_length_c   14.05567926
_cell_angle_alpha   90.85279627
_cell_angle_beta   89.08858266
_cell_angle_gamma   90.41624366
_symmetry_Int_Tables_number   1
_chemical_formula_structural   Zr2Sc2Nb
_chemical_formula_sum   'Zr50 Sc50 Nb25'
_cell_volume   2859.46756338
_cell_formula_units_Z   25
loop_
 _symmetry_equiv_pos_site_id
 _symmetry_equiv_pos_as_xyz
  1  'x, y, z'
loop_
 _atom_site_type_symbol
 _atom_site_label
 _atom_site_symmetry_multiplicity
 _atom_site_fract_x
 _atom_site_fract_y
 _atom_site_fract_z
 _atom_site_occupancy
  Zr  Zr0  1  0.92293136  0.82118895  0.73336365  1
  Zr  Zr1  1  0.35416693  0.94681927  1.00316444  1
  Zr  Zr2  1  0.83685558  0.11917979  0.51307351  1
  Zr  Zr3  1  0.79190554  0.39985689  0.13702613  1
  Zr  Zr4  1  0.20300444  0.08531619  0.89551349  1
  Zr  Zr5  1  0.08678115  0.66839863  0.70369095  1
  Zr  Zr6  1  0.26141199  0.76022933  0.67036907  1
  Zr  Zr7  1  0.41501509  0.41048507  0.04357607  1
  Zr  Zr8  1  0.09018052  0.86310219  0.58814821  1
  Zr  Zr9  1  -0.01881599  0.88084278  0.36284331  1
  Zr  Zr10  1  0.37946497  0.89544448  0.38875776  1
  Zr  Zr11  1  0.57021123  0.83198583  0.28474459  1
  Zr  Zr12  1  0.50233610  0.02805246  0.68746100  1
  Zr  Zr13  1  0.90173666  0.30781843  0.44858015  1
  Zr  Zr14  1  0.87001571  0.88806157  0.54314093  1
  Zr  Zr15  1  0.20214819  0.47838426  0.75391163  1
  Zr  Zr16  1  1.02255280  0.08740743  0.06378088  1
  Zr  Zr17  1  0.59421511  0.80682161  0.48300415  1
  Zr  Zr18  1  0.12671927  0.35420165  0.57514502  1
  Zr  Zr19  1  0.74359668  0.92763630  0.81332170  1
  Zr  Zr20  1  0.57287561  0.07440265  0.04606335  1
  Zr  Zr21  1  0.21456580  0.75983290  0.43046353  1
  Zr  Zr22  1  0.94906212  0.90343989  0.14746257  1
  Zr  Zr23  1  0.67317043  0.50128143  0.94819448  1
  Zr  Zr24  1  0.33577206  0.32698122  0.84449167  1
  Zr  Zr25  1  0.50968667  0.32779380  0.47586332  1
  Zr  Zr26  1  0.75713677  0.16503014  0.70397148  1
  Zr  Zr27  1  0.13990587  0.03911525  0.68485996  1
  Zr  Zr28  1  0.68676796  0.96802797  0.61489911  1
  Zr  Zr29  1  0.56492777  0.64785165  0.76381048  1
  Zr  Zr30  1  0.59874327  0.48330760  0.13736125  1
  Zr  Zr31  1  0.72592837  0.19792723  0.34285322  1
  Zr  Zr32  1  0.73548786  0.26400565  0.97434092  1
  Zr  Zr33  1  0.35536388  0.73627002  0.25590894  1
  Zr  Zr34  1  0.40190924  0.69925241  0.49620347  1
  Zr  Zr35  1  0.67145063  0.40191648  0.33700508  1
  Zr  Zr36  1  0.90103565  0.47974242  0.30177043  1
  Zr  Zr37  1  0.49476416  0.46197673  0.84657669  1
  Zr  Zr38  1  0.62635954  0.10674456  0.85145731  1
  Zr  Zr39  1  0.54587130  0.89078852  0.87706355  1
  Zr  Zr40  1  0.73454724  0.59829238  0.27972682  1
  Zr  Zr41  1  0.39922117  0.14170880  0.50614775  1
  Zr  Zr42  1  0.89562023  0.05942736  0.30639432  1
  Zr  Zr43  1  0.48400650  0.81904164  0.66691128  1
  Zr  Zr44  1  -0.00386652  0.47654886  0.73258646  1
  Zr  Zr45  1  0.71817396  0.71956204  0.89369618  1
  Zr  Zr46  1  0.30536844  0.55444393  0.93725524  1
  Zr  Zr47  1  0.61770635  0.25834827  0.16183176  1
  Zr  Zr48  1  0.73957806  0.53236821  0.73093291  1
  Zr  Zr49  1  0.78486151  0.73367798  0.43477941  1
  Sc  Sc50  1  0.79572025  0.51440097  0.48528919  1
  Sc  Sc51  1  0.61006334  0.59671027  0.53302953  1
  Sc  Sc52  1  0.99976087  0.20860556  0.63556805  1
  Sc  Sc53  1  0.80006732  0.11176651  0.11882170  1
  Sc  Sc54  1  0.04013572  0.44227858  0.13355104  1
  Sc  Sc55  1  0.93158263  0.69221499  0.25477865  1
  Sc  Sc56  1  0.91725582  0.02556386  0.71049617  1
  Sc  Sc57  1  0.52654600  0.61137287  0.32716563  1
  Sc  Sc58  1  0.62061266  0.15623895  0.53286002  1
  Sc  Sc59  1  0.94733512  0.26872238  0.02288460  1
  Sc  Sc60  1  0.44941081  0.01680119  0.21398364  1
  Sc  Sc61  1  0.41045554  0.13209660  0.90850890  1
  Sc  Sc62  1  0.71313328  0.76078906  0.66546080  1
  Sc  Sc63  1  0.38043612  0.74970618  0.85974347  1
  Sc  Sc64  1  0.09556809  0.38537810  0.34777683  1
  Sc  Sc65  1  0.13337982  0.79173136  0.23180131  1
  Sc  Sc66  1  0.87279044  0.44879038  0.90939850  1
  Sc  Sc67  1  0.54247158  1.00454452  0.43031855  1
  Sc  Sc68  1  0.25617346  0.40017721  0.19465853  1
  Sc  Sc69  1  0.88400669  0.63973628  0.63408583  1
  Sc  Sc70  1  0.24030822  0.09196905  0.10743863  1
  Sc  Sc71  1  0.68609091  0.34491216  0.78888483  1
  Sc  Sc72  1  0.34102709  0.34473803  0.62469996  1
  Sc  Sc73  1  0.71875923  0.91375036  0.03604005  1
  Sc  Sc74  1  0.20597770  0.28315302  0.00983146  1
  Sc  Sc75  1  0.31846514  0.93508192  0.79314013  1
  Sc  Sc76  1  0.21365231  0.56156788  0.53338014  1
  Sc  Sc77  1  0.93438219  0.90746573  0.93472631  1
  Sc  Sc78  1  0.08903282  0.53551545  0.94052022  1
  Sc  Sc79  1  0.51314188  0.24678431  0.71956833  1
  Sc  Sc80  1  0.31553424  0.95102328  0.57868243  1
  Sc  Sc81  1  0.40458165  0.21873400  0.13244203  1
  Sc  Sc82  1  0.37515741  0.57879969  0.69593631  1
  Sc  Sc83  1  0.10998529  0.58979863  0.31235012  1
  Sc  Sc84  1  0.93035453  0.66525312  0.86634263  1
  Sc  Sc85  1  0.00502295  0.70531526  0.47367359  1
  Sc  Sc86  1  0.28904188  0.32708399  0.40980110  1
  Sc  Sc87  1  0.00149756  0.49895467  0.50944473  1
  Sc  Sc88  1  0.14162337  0.90504091  0.03053848  1
  Sc  Sc89  1  0.65181009  0.69747206  0.11727389  1
  Sc  Sc90  1  0.49045677  0.83331475  0.09059602  1
  Sc  Sc91  1  0.92528372  0.26101660  0.24016470  1
  Sc  Sc92  1  0.69746737  0.34632369  0.55989169  1
  Sc  Sc93  1  1.04165650  0.71190069  0.05561020  1
  Sc  Sc94  1  0.77542875  0.84016707  0.24133064  1
  Sc  Sc95  1  0.07144851  0.33518317  0.86443914  1
  Sc  Sc96  1  0.45656881  0.39951302  0.27740327  1
  Sc  Sc97  1  0.84203855  0.60146977  0.07264414  1
  Sc  Sc98  1  0.28530346  0.12680638  0.31884838  1
  Sc  Sc99  1  0.50670735  0.64206196  0.97932614  1
  Nb  Nb100  1  0.53959272  0.44938445  0.65481559  1
  Nb  Nb101  1  0.27555906  0.91945576  0.21040656  1
  Nb  Nb102  1  0.21047486  0.59441006  0.12602051  1
  Nb  Nb103  1  0.28969640  0.75030881  0.05753665  1
  Nb  Nb104  1  0.30965266  0.55353692  0.33436368  1
  Nb  Nb105  1  0.33061574  0.13534161  0.70811387  1
  Nb  Nb106  1  1.02308704  0.11987584  0.85540054  1
  Nb  Nb107  1  0.12112776  0.23113894  0.20189557  1
  Nb  Nb108  1  0.65432239  0.03044261  0.24054570  1
  Nb  Nb109  1  0.18068063  0.97070304  0.41275105  1
  Nb  Nb110  1  0.83227402  0.09125452  0.91117623  1
  Nb  Nb111  1  0.88913508  0.26233223  0.81206323  1
  Nb  Nb112  1  0.54376938  0.28855343  0.95388219  1
  Nb  Nb113  1  0.20442779  0.15836663  0.53548593  1
  Nb  Nb114  1  0.51661250  0.18797318  0.32366478  1
  Nb  Nb115  1  0.18143743  0.23888144  0.74125254  1
  Nb  Nb116  1  0.09436732  0.02644860  0.25113474  1
  Nb  Nb117  1  0.02009223  1.03732820  0.49866268  1
  Nb  Nb118  1  0.07529549  0.18346298  0.39402620  1
  Nb  Nb119  1  0.17520517  0.72308852  0.88656977  1
  Nb  Nb120  1  0.40564482  0.58046159  0.14789160  1
  Nb  Nb121  1  0.73875451  0.96128276  0.40635122  1
  Nb  Nb122  1  0.41906224  0.49910444  0.48875205  1
  Nb  Nb123  1  0.86710087  0.37198681  0.64650866  1
  Nb  Nb124  1  0.10486473  0.88673913  0.81207813  1
