# generated using pymatgen
data_Zr2Sc2Nb
_symmetry_space_group_name_H-M   'P 1'
_cell_length_a   14.07699640
_cell_length_b   14.17936786
_cell_length_c   14.43342280
_cell_angle_alpha   90.76223850
_cell_angle_beta   91.64153668
_cell_angle_gamma   90.17068894
_symmetry_Int_Tables_number   1
_chemical_formula_structural   Zr2Sc2Nb
_chemical_formula_sum   'Zr50 Sc50 Nb25'
_cell_volume   2879.49977732
_cell_formula_units_Z   25
loop_
 _symmetry_equiv_pos_site_id
 _symmetry_equiv_pos_as_xyz
  1  'x, y, z'
loop_
 _atom_site_type_symbol
 _atom_site_label
 _atom_site_symmetry_multiplicity
 _atom_site_fract_x
 _atom_site_fract_y
 _atom_site_fract_z
 _atom_site_occupancy
  Zr  Zr0  1  0.27076314  0.83732485  0.20388155  1
  Zr  Zr1  1  0.57446075  0.95756603  0.04806109  1
  Zr  Zr2  1  0.87552182  0.05004059  0.65370344  1
  Zr  Zr3  1  0.78132782  0.67200355  0.69649484  1
  Zr  Zr4  1  0.37273625  0.68724277  0.74525492  1
  Zr  Zr5  1  0.29951945  0.26547689  0.60663523  1
  Zr  Zr6  1  0.46842432  0.90594766  0.66224866  1
  Zr  Zr7  1  0.54607107  0.61336916  0.21017529  1
  Zr  Zr8  1  0.69254688  0.27366079  0.32438225  1
  Zr  Zr9  1  0.75007854  0.69160087  0.30999686  1
  Zr  Zr10  1  0.42529400  0.48346027  0.10623690  1
  Zr  Zr11  1  0.42845298  1.06914635  0.88765883  1
  Zr  Zr12  1  0.64022955  0.14792112  -0.00302497  1
  Zr  Zr13  1  0.76992872  0.95917979  0.95181695  1
  Zr  Zr14  1  0.61814233  0.40197743  0.48503008  1
  Zr  Zr15  1  0.89427474  0.46152832  0.78670365  1
  Zr  Zr16  1  0.87508371  0.63688540  0.93456108  1
  Zr  Zr17  1  0.68033871  0.11007779  0.19556327  1
  Zr  Zr18  1  0.33334844  0.45780598  0.70869538  1
  Zr  Zr19  1  0.34797492  0.93247857  0.02004613  1
  Zr  Zr20  1  0.70728065  0.11707275  0.45043711  1
  Zr  Zr21  1  0.07113052  0.49702028  0.90494949  1
  Zr  Zr22  1  0.81464175  0.95635772  0.15206174  1
  Zr  Zr23  1  0.48902171  0.38841247  0.31531895  1
  Zr  Zr24  1  0.46796071  0.11564080  0.67155582  1
  Zr  Zr25  1  0.29160716  0.46538322  0.31036340  1
  Zr  Zr26  1  0.01142990  0.33602354  0.09443768  1
  Zr  Zr27  1  0.55266624  0.22265645  0.83083338  1
  Zr  Zr28  1  0.44562948  0.76331672  0.10818770  1
  Zr  Zr29  1  0.89378568  0.71950920  0.48239511  1
  Zr  Zr30  1  0.91648467  0.25250479  0.69076166  1
  Zr  Zr31  1  0.86683733  0.74322962  0.11314866  1
  Zr  Zr32  1  0.04513966  0.45437179  0.28875282  1
  Zr  Zr33  1  0.29537391  0.74165366  0.93931950  1
  Zr  Zr34  1  0.85344917  0.14334583  0.02572202  1
  Zr  Zr35  1  0.68894788  0.55701153  0.83958713  1
  Zr  Zr36  1  0.30966721  0.25924090  0.40115196  1
  Zr  Zr37  1  0.85586981  0.52543770  0.17700909  1
  Zr  Zr38  1  0.69119366  0.21875219  0.65232506  1
  Zr  Zr39  1  0.03616830  0.57373710  0.09987105  1
  Zr  Zr40  1  0.20488778  0.21032458  0.10779329  1
  Zr  Zr41  1  0.20715274  0.42566105  0.10787743  1
  Zr  Zr42  1  0.91547923  0.27729403  0.31216048  1
  Zr  Zr43  1  0.93523602  0.83829769  0.84753781  1
  Zr  Zr44  1  0.50804981  0.34162049  0.66966317  1
  Zr  Zr45  1  0.55568071  0.77530457  0.36090264  1
  Zr  Zr46  1  0.42236857  0.11886833  0.10209456  1
  Zr  Zr47  1  0.07970499  0.72473249  0.96518730  1
  Zr  Zr48  1  0.70240045  0.60214006  0.50283189  1
  Zr  Zr49  1  0.92935943  0.52498854  0.59326570  1
  Sc  Sc50  1  0.40205207  0.44100219  0.50914660  1
  Sc  Sc51  1  0.01183500  0.13225303  0.18545860  1
  Sc  Sc52  1  0.11954269  0.35877745  0.71274087  1
  Sc  Sc53  1  0.65910584  0.81104718  0.55901051  1
  Sc  Sc54  1  0.72295712  0.43939970  0.66801499  1
  Sc  Sc55  1  0.38246362  0.29584568  -0.00942481  1
  Sc  Sc56  1  0.27037348  0.06343032  0.71509259  1
  Sc  Sc57  1  0.69535779  0.76080853  0.92501117  1
  Sc  Sc58  1  0.97725924  0.93529761  0.03214355  1
  Sc  Sc59  1  0.31602679  0.06273706  0.50059321  1
  Sc  Sc60  1  0.28296639  0.08165912  0.27744821  1
  Sc  Sc61  1  0.15809225  0.76685284  0.76803810  1
  Sc  Sc62  1  0.67736305  0.47638792  0.28081907  1
  Sc  Sc63  1  0.02189424  0.34127948  0.49282257  1
  Sc  Sc64  1  0.49839419  0.63075024  0.94251593  1
  Sc  Sc65  1  0.45510626  0.73389135  0.54351419  1
  Sc  Sc66  1  0.15575531  0.56117361  0.66385199  1
  Sc  Sc67  1  0.34576686  0.87533608  0.40077132  1
  Sc  Sc68  1  0.29154112  0.50827263  0.91246515  1
  Sc  Sc69  1  0.25340657  0.84849020  0.59367829  1
  Sc  Sc70  1  0.81187856  0.93136089  0.49051884  1
  Sc  Sc71  1  0.53755129  0.56123784  0.65253488  1
  Sc  Sc72  1  0.72962361  0.33633428  0.88058996  1
  Sc  Sc73  1  0.75399397  0.88929754  0.74400610  1
  Sc  Sc74  1  0.88144874  0.05756386  0.32621914  1
  Sc  Sc75  1  0.26218197  0.63313874  0.10614581  1
  Sc  Sc76  1  0.10955195  0.15635145  0.58922274  1
  Sc  Sc77  1  0.27134810  0.62803525  0.49632770  1
  Sc  Sc78  1  0.50068997  0.15183495  0.30588353  1
  Sc  Sc79  1  0.59730164  -0.00968117  0.82051221  1
  Sc  Sc80  1  0.37014678  0.67556429  0.30898972  1
  Sc  Sc81  1  0.68813785  0.92803222  0.31947803  1
  Sc  Sc82  1  0.47671781  0.94356457  0.23888204  1
  Sc  Sc83  1  0.07902379  0.95888683  0.69213838  1
  Sc  Sc84  1  0.17295496  -0.00366656  0.10216496  1
  Sc  Sc85  1  0.14221185  0.94463941  0.89287737  1
  Sc  Sc86  1  0.85854540  0.49067818  0.39325933  1
  Sc  Sc87  1  0.50012859  0.43177408  0.86496668  1
  Sc  Sc88  1  0.94970927  0.28092656  0.88989488  1
  Sc  Sc89  1  0.06592787  0.79104905  0.17210715  1
  Sc  Sc90  1  0.67769113  0.54056254  0.05127855  1
  Sc  Sc91  1  0.98553773  0.65218948  0.75756301  1
  Sc  Sc92  1  0.51391496  0.20813670  0.49922750  1
  Sc  Sc93  1  0.56473970  0.31185076  0.12918554  1
  Sc  Sc94  1  0.65917823  0.78844722  0.13886275  1
  Sc  Sc95  1  0.78230564  0.31851279  0.12719164  1
  Sc  Sc96  1  0.81080092  0.31784291  0.50964460  1
  Sc  Sc97  1  0.09431491  0.96495897  0.30083472  1
  Sc  Sc98  1  0.16482477  0.62767867  0.28332618  1
  Sc  Sc99  1  0.12173739  0.78743619  0.40080159  1
  Nb  Nb100  1  0.48803597  0.83259485  0.89693698  1
  Nb  Nb101  1  0.76326129  0.12737548  0.81721166  1
  Nb  Nb102  1  0.52139401  0.57679326  0.41295566  1
  Nb  Nb103  1  0.06942334  0.73529461  0.58241007  1
  Nb  Nb104  1  0.17031380  0.31203341  0.92101347  1
  Nb  Nb105  1  0.57869082  0.74481232  0.74875843  1
  Nb  Nb106  1  0.87221484  0.45376998  0.98847661  1
  Nb  Nb107  1  0.32945942  0.89395495  0.80454925  1
  Nb  Nb108  1  0.14853533  0.29595010  0.28574854  1
  Nb  Nb109  1  0.65261713  0.02633478  0.62198637  1
  Nb  Nb110  1  0.35602077  0.29301209  0.20391356  1
  Nb  Nb111  1  0.06493962  0.57116141  0.45799990  1
  Nb  Nb112  1  0.92129022  0.83341605  0.64605244  1
  Nb  Nb113  1  0.09619967  0.15123925  0.39105993  1
  Nb  Nb114  1  0.05910603  0.13512433  0.98242268  1
  Nb  Nb115  1  0.19808392  0.41909393  0.49255751  1
  Nb  Nb116  1  0.53231822  -0.02066912  0.46837964  1
  Nb  Nb117  1  0.32954053  0.26140506  0.79836145  1
  Nb  Nb118  1  0.10541360  0.16314755  0.79351001  1
  Nb  Nb119  1  0.96023346  0.65792472  0.29754456  1
  Nb  Nb120  1  0.90895709  0.84697120  0.31657011  1
  Nb  Nb121  1  0.25213445  0.11932044  0.93047722  1
  Nb  Nb122  1  0.94038240  0.04936715  0.84361171  1
  Nb  Nb123  1  1.01744377  0.95151376  0.49318445  1
  Nb  Nb124  1  0.92348792  0.14522348  0.49433505  1
