# generated using pymatgen
data_Zr2Sc2Nb
_symmetry_space_group_name_H-M   'P 1'
_cell_length_a   14.63789899
_cell_length_b   14.14509584
_cell_length_c   13.85286311
_cell_angle_alpha   91.56890201
_cell_angle_beta   91.75128802
_cell_angle_gamma   90.27270736
_symmetry_Int_Tables_number   1
_chemical_formula_structural   Zr2Sc2Nb
_chemical_formula_sum   'Zr50 Sc50 Nb25'
_cell_volume   2865.83794286
_cell_formula_units_Z   25
loop_
 _symmetry_equiv_pos_site_id
 _symmetry_equiv_pos_as_xyz
  1  'x, y, z'
loop_
 _atom_site_type_symbol
 _atom_site_label
 _atom_site_symmetry_multiplicity
 _atom_site_fract_x
 _atom_site_fract_y
 _atom_site_fract_z
 _atom_site_occupancy
  Zr  Zr0  1  0.57901241  0.86048482  0.69420257  1
  Zr  Zr1  1  0.93824366  0.73223898  0.50608474  1
  Zr  Zr2  1  0.85347490  0.25315605  0.15565593  1
  Zr  Zr3  1  0.89907623  0.38985793  0.34543647  1
  Zr  Zr4  1  0.89568504  0.44322230  0.74606342  1
  Zr  Zr5  1  0.62413544  0.22449969  0.63329656  1
  Zr  Zr6  1  0.02936571  0.65109304  0.85591863  1
  Zr  Zr7  1  0.27703115  0.81501712  0.44468029  1
  Zr  Zr8  1  0.16374688  0.96324044  0.75177883  1
  Zr  Zr9  1  0.92356765  0.91790789  0.91066165  1
  Zr  Zr10  1  0.98597130  0.81751170  0.72930038  1
  Zr  Zr11  1  0.58132128  0.79869784  0.34066447  1
  Zr  Zr12  1  0.72606350  0.51695301  0.48610103  1
  Zr  Zr13  1  0.49967642  0.68692607  0.14616805  1
  Zr  Zr14  1  0.66008524  0.83631016  0.13222065  1
  Zr  Zr15  1  0.10884566  0.55794182  0.22231789  1
  Zr  Zr16  1  0.61621360  0.65109329  0.65417556  1
  Zr  Zr17  1  0.88241604  0.52347849  0.93604190  1
  Zr  Zr18  1  0.80167855  0.11771954  0.56581902  1
  Zr  Zr19  1  0.11674810  0.14911351  0.67019289  1
  Zr  Zr20  1  0.75066699  0.29887745  0.80746294  1
  Zr  Zr21  1  0.34685093  0.89581344  0.65652432  1
  Zr  Zr22  1  0.50938825  0.18568251  0.82374447  1
  Zr  Zr23  1  0.39058062  0.03522170  0.05362208  1
  Zr  Zr24  1  0.51454418  0.04865738  0.62182127  1
  Zr  Zr25  1  0.59836557  0.13523014  0.43467152  1
  Zr  Zr26  1  0.97577052  0.69112162  0.05151065  1
  Zr  Zr27  1  0.80751069  0.34055178  0.58637528  1
  Zr  Zr28  1  0.72500655  0.72880232  0.49896531  1
  Zr  Zr29  1  0.85402806  0.10987648  0.90308038  1
  Zr  Zr30  1  0.70278218  0.06432505  0.75244586  1
  Zr  Zr31  1  0.18318477  0.66623634  0.04485197  1
  Zr  Zr32  1  0.55690859  0.47410906  0.14425749  1
  Zr  Zr33  1  0.31412974  0.23735709  0.07381619  1
  Zr  Zr34  1  0.31539392  0.88799865  0.89550677  1
  Zr  Zr35  1  0.23465015  0.02285295  0.48609724  1
  Zr  Zr36  1  0.93329177  0.30955788  0.95230223  1
  Zr  Zr37  1  0.37233255  0.66639402  0.94715104  1
  Zr  Zr38  1  0.86022662  0.84507188  0.10173945  1
  Zr  Zr39  1  0.47894892  0.54236589  0.79812968  1
  Zr  Zr40  1  0.12006728  0.85146511  0.58023632  1
  Zr  Zr41  1  0.35217979  0.34490773  0.87007382  1
  Zr  Zr42  1  0.09291531  0.46572433  0.77297915  1
  Zr  Zr43  1  0.29205685  0.57382155  0.38088832  1
  Zr  Zr44  1  0.10785365  0.64904306  0.43073667  1
  Zr  Zr45  1  0.83706703  0.64041019  0.68388396  1
  Zr  Zr46  1  0.74100681  0.65938539  0.03994909  1
  Zr  Zr47  1  0.23908026  0.32884858  0.68359378  1
  Zr  Zr48  1  0.21547199  0.36786427  0.27634900  1
  Zr  Zr49  1  0.79295989  0.81880248  0.32231042  1
  Sc  Sc50  1  0.70935477  0.54106996  0.83383120  1
  Sc  Sc51  1  0.93233196  0.22145854  0.73021974  1
  Sc  Sc52  1  0.27111808  0.16427724  0.27534710  1
  Sc  Sc53  1  0.33388879  0.37852509  0.46555877  1
  Sc  Sc54  1  0.78431312  0.85859360  0.70339224  1
  Sc  Sc55  1  0.50308001  0.25924660  0.05158935  1
  Sc  Sc56  1  0.08682397  0.86768926  0.15284815  1
  Sc  Sc57  1  0.08101369  0.63482112  0.64606322  1
  Sc  Sc58  1  0.58351961  0.04059978  0.06309948  1
  Sc  Sc59  1  0.22447439  0.42286873  0.07775351  1
  Sc  Sc60  1  0.78412495  0.04247558  0.11823781  1
  Sc  Sc61  1  0.51208569  0.57003889  0.35413651  1
  Sc  Sc62  1  0.56982786  0.38215334  0.89242855  1
  Sc  Sc63  1  0.48833188  0.98293128  0.83673083  1
  Sc  Sc64  1  0.11561320  0.21554286  0.10224402  1
  Sc  Sc65  1  0.06098086  0.09442200  0.88940008  1
  Sc  Sc66  1  0.28407011  0.12259239  0.87418403  1
  Sc  Sc67  1  0.17352284  0.23609606  0.47072706  1
  Sc  Sc68  1  0.87957062  0.53111545  0.16351412  1
  Sc  Sc69  1  0.70903296  0.91857796  0.92089056  1
  Sc  Sc70  1  0.94647929  0.50439816  0.53738546  1
  Sc  Sc71  1  0.47295322  0.75817198  0.52188348  1
  Sc  Sc72  1  0.21914797  0.72854866  0.78713094  1
  Sc  Sc73  1  0.97930341  0.06095244  0.10218677  1
  Sc  Sc74  1  0.45162178  0.96244182  0.41355157  1
  Sc  Sc75  1  0.42465485  0.34682576  0.25070837  1
  Sc  Sc76  1  0.01904250  0.38045224  0.16393828  1
  Sc  Sc77  1  0.02901115  0.05979976  0.48451339  1
  Sc  Sc78  1  0.86162709  0.11512282  0.33370094  1
  Sc  Sc79  1  0.70987198  0.43078706  0.27620495  1
  Sc  Sc80  1  0.73245477  0.40857986  0.03831188  1
  Sc  Sc81  1  0.97654063  0.72762695  0.26900005  1
  Sc  Sc82  1  0.40435147  0.17890443  0.46043056  1
  Sc  Sc83  1  0.43829161  0.54501517  0.56930168  1
  Sc  Sc84  1  0.50502870  0.83014845  0.98086314  1
  Sc  Sc85  1  0.74507690  0.26658173  0.40201735  1
  Sc  Sc86  1  0.11428243  0.84916318  0.93775520  1
  Sc  Sc87  1  0.19623501  1.02119055  0.06497749  1
  Sc  Sc88  1  0.33252963  0.12828808  0.66796217  1
  Sc  Sc89  1  0.64265476  0.22179848  0.21100320  1
  Sc  Sc90  1  0.14221420  0.29959372  0.89134529  1
  Sc  Sc91  1  0.55864134  0.36209797  0.45108790  1
  Sc  Sc92  1  0.28316024  0.94785023  0.26586857  1
  Sc  Sc93  1  0.44307047  0.33799398  0.66552214  1
  Sc  Sc94  1  0.68909598  0.19627612  0.97572480  1
  Sc  Sc95  1  0.69293734  0.63748713  0.25291342  1
  Sc  Sc96  1  0.66785953  0.94044416  0.51030833  1
  Sc  Sc97  1  0.66013703  0.00194218  0.28556779  1
  Sc  Sc98  1  0.63213508  0.43688964  0.66458289  1
  Sc  Sc99  1  0.88394154  0.92377425  0.50556847  1
  Nb  Nb100  1  0.20423844  0.73428952  0.25646357  1
  Nb  Nb101  1  0.08449978  0.42166663  0.40386327  1
  Nb  Nb102  1  0.03693585  0.22690288  0.30193708  1
  Nb  Nb103  1  0.05901941  0.49069815  -0.00468440  1
  Nb  Nb104  1  0.42882391  0.73296905  0.75021475  1
  Nb  Nb105  1  0.94606742  0.01464503  0.70594171  1
  Nb  Nb106  1  0.27949338  0.68244533  0.58825765  1
  Nb  Nb107  1  0.33426189  0.58081998  0.17288426  1
  Nb  Nb108  1  0.08866844  0.87144929  0.38108403  1
  Nb  Nb109  1  0.05099223  0.34878133  0.61329232  1
  Nb  Nb110  1  0.39181089  0.75181329  0.29884835  1
  Nb  Nb111  1  0.62813809  0.73049611  0.84769915  1
  Nb  Nb112  1  0.29666280  0.53513654  0.72412454  1
  Nb  Nb113  1  0.19044197  0.48728343  0.55612204  1
  Nb  Nb114  1  0.40983090  0.47009496  1.01758462  1
  Nb  Nb115  1  0.56637632  0.59402963  0.97920076  1
  Nb  Nb116  1  0.83373904  0.73430687  0.87787450  1
  Nb  Nb117  1  0.86317196  0.59768531  0.36930384  1
  Nb  Nb118  1  0.23569639  0.52279515  0.90194879  1
  Nb  Nb119  1  0.10217956  0.05154957  0.28487488  1
  Nb  Nb120  1  0.93682718  0.94332728  0.28135371  1
  Nb  Nb121  1  0.47570238  0.90974568  0.19529638  1
  Nb  Nb122  1  0.95415606  0.25036651  0.48664446  1
  Nb  Nb123  1  0.46654825  0.11436123  0.24264396  1
  Nb  Nb124  1  0.31670713  0.81525849  0.10185543  1
