# generated using pymatgen
data_Zr2Sc2Nb
_symmetry_space_group_name_H-M   'P 1'
_cell_length_a   13.43581872
_cell_length_b   14.50894313
_cell_length_c   14.71294651
_cell_angle_alpha   88.07769079
_cell_angle_beta   89.19714898
_cell_angle_gamma   90.52697653
_symmetry_Int_Tables_number   1
_chemical_formula_structural   Zr2Sc2Nb
_chemical_formula_sum   'Zr50 Sc50 Nb25'
_cell_volume   2866.10524777
_cell_formula_units_Z   25
loop_
 _symmetry_equiv_pos_site_id
 _symmetry_equiv_pos_as_xyz
  1  'x, y, z'
loop_
 _atom_site_type_symbol
 _atom_site_label
 _atom_site_symmetry_multiplicity
 _atom_site_fract_x
 _atom_site_fract_y
 _atom_site_fract_z
 _atom_site_occupancy
  Zr  Zr0  1  0.25613985  0.71644032  0.05564341  1
  Zr  Zr1  1  0.92819350  0.39752532  0.50719732  1
  Zr  Zr2  1  0.77933673  0.73128964  0.49983718  1
  Zr  Zr3  1  0.71745914  0.80163842  0.85777369  1
  Zr  Zr4  1  0.45878851  0.90052519  0.28891915  1
  Zr  Zr5  1  0.08989686  0.42211536  1.00199348  1
  Zr  Zr6  1  0.25335650  0.51215616  0.15804533  1
  Zr  Zr7  1  0.33633805  0.36515113  0.32518664  1
  Zr  Zr8  1  0.32505124  0.57318823  0.34922304  1
  Zr  Zr9  1  0.77121201  0.24313230  0.65452943  1
  Zr  Zr10  1  0.26769334  -0.07894423  0.76666350  1
  Zr  Zr11  1  0.94835196  0.27417220  0.32657643  1
  Zr  Zr12  1  0.49357635  0.66264258  0.77936567  1
  Zr  Zr13  1  0.73561539  0.50798577  0.55448195  1
  Zr  Zr14  1  0.11092497  0.47627283  0.35367177  1
  Zr  Zr15  1  0.46623270  0.03967936  0.04374852  1
  Zr  Zr16  1  0.89868901  0.51909237  0.86752962  1
  Zr  Zr17  1  0.86552198  0.06778470  0.36450140  1
  Zr  Zr18  1  0.51584521  0.29960310  0.18078261  1
  Zr  Zr19  1  0.90871526  0.11010224  -0.01652628  1
  Zr  Zr20  1  0.84595042  0.05141659  0.16847364  1
  Zr  Zr21  1  0.28403345  0.45861318  0.51069467  1
  Zr  Zr22  1  0.35747306  0.64423049  0.55260051  1
  Zr  Zr23  1  0.18050744  0.69650226  0.25961006  1
  Zr  Zr24  1  0.70727957  0.39533007  0.21782756  1
  Zr  Zr25  1  0.47669688  0.11301505  0.23921441  1
  Zr  Zr26  1  0.92110278  0.72091864  0.80292938  1
  Zr  Zr27  1  0.04077517  0.58547106  0.14868163  1
  Zr  Zr28  1  0.66734051  0.16797397  0.07509130  1
  Zr  Zr29  1  0.91124286  0.57075183  0.66576602  1
  Zr  Zr30  1  0.29444373  0.14962436  0.49760103  1
  Zr  Zr31  1  0.02641029  0.93072376  0.24511241  1
  Zr  Zr32  1  0.53688274  0.85228162  0.47781822  1
  Zr  Zr33  1  0.90044992  0.47988755  0.28662057  1
  Zr  Zr34  1  0.13651001  0.30081223  0.47615033  1
  Zr  Zr35  1  0.13813381  0.67030497  0.73764004  1
  Zr  Zr36  1  0.90451334  0.15652547  0.78737696  1
  Zr  Zr37  1  0.71354938  0.42086098  0.76209093  1
  Zr  Zr38  1  0.04730732  0.86940570  0.70419701  1
  Zr  Zr39  1  0.08203775  0.63175257  0.94735691  1
  Zr  Zr40  1  0.28225310  0.13328878  0.92259165  1
  Zr  Zr41  1  0.08409588  0.18188458  0.65036918  1
  Zr  Zr42  1  0.89835364  0.32120864  0.91764212  1
  Zr  Zr43  1  0.30252494  0.14497982  0.71883446  1
  Zr  Zr44  1  0.70854462  0.19449993  0.27116670  1
  Zr  Zr45  1  0.49374244  0.06983948  0.44860592  1
  Zr  Zr46  1  0.92087892  0.02750335  0.63220819  1
  Zr  Zr47  1  0.19749246  0.22476083  0.28952131  1
  Zr  Zr48  1  0.16678308  1.00119087  0.59591002  1
  Zr  Zr49  1  0.53529779  0.27847159  0.38889661  1
  Sc  Sc50  1  0.62274071  0.76689815  0.24277081  1
  Sc  Sc51  1  0.71463768  0.64000426  0.71978968  1
  Sc  Sc52  1  0.31210416  0.53472901  0.73015633  1
  Sc  Sc53  1  0.86406684  0.88611928  0.05166580  1
  Sc  Sc54  1  0.67633347  0.38011092  1.00327851  1
  Sc  Sc55  1  0.48403188  0.29817002  0.76316295  1
  Sc  Sc56  1  0.57319785  0.66396682  0.56993399  1
  Sc  Sc57  1  0.95420554  0.36032889  0.71143871  1
  Sc  Sc58  1  0.09779950  0.04865333  0.83693422  1
  Sc  Sc59  1  0.28921644  0.54601661  0.93453706  1
  Sc  Sc60  1  0.25347744  0.87812514  0.18519675  1
  Sc  Sc61  1  0.28707033  0.34474245  0.88910646  1
  Sc  Sc62  1  0.09919256  0.21372293  0.03778105  1
  Sc  Sc63  1  0.83700917  0.69831643  0.18050917  1
  Sc  Sc64  1  0.45799308  0.46758144  0.07098935  1
  Sc  Sc65  1  0.91427944  0.19781106  0.51519320  1
  Sc  Sc66  1  0.44856585  0.98782397  0.65579721  1
  Sc  Sc67  1  0.49539867  0.08357656  0.83890438  1
  Sc  Sc68  1  0.69027711  0.21335344  0.86122119  1
  Sc  Sc69  1  0.61173562  0.83817201  0.67935951  1
  Sc  Sc70  1  0.89016374  0.94081134  0.84442530  1
  Sc  Sc71  1  0.68949146  0.59637017  0.92033718  1
  Sc  Sc72  1  0.50695172  0.46882781  0.86996634  1
  Sc  Sc73  1  0.55838065  0.15670333  0.62955457  1
  Sc  Sc74  1  0.93824777  0.89661347  0.47994925  1
  Sc  Sc75  1  0.51653769  0.48230916  0.46271657  1
  Sc  Sc76  1  0.71633260  0.58444181  0.35239087  1
  Sc  Sc77  1  0.10164112  0.51073697  0.59966543  1
  Sc  Sc78  1  0.65260971  0.59008000  0.12098826  1
  Sc  Sc79  1  0.97680268  0.72559190  0.33501636  1
  Sc  Sc80  1  0.28088526  0.92205902  0.97759353  1
  Sc  Sc81  1  0.47439407  0.66873819  -0.01148688  1
  Sc  Sc82  1  0.13968167  0.86292204  0.41312691  1
  Sc  Sc83  1  0.40679072  0.30534920  0.56594159  1
  Sc  Sc84  1  0.68173025  -0.00922688  0.95342275  1
  Sc  Sc85  1  0.27564281  0.02324290  0.33188771  1
  Sc  Sc86  1  0.71040799  0.02520482  0.73702673  1
  Sc  Sc87  1  0.88293376  0.27319407  0.12683193  1
  Sc  Sc88  1  0.80367349  0.86936078  0.30954231  1
  Sc  Sc89  1  0.29337052  0.30621763  0.10737923  1
  Sc  Sc90  1  0.47883750  0.25048026  0.97926268  1
  Sc  Sc91  1  0.21848567  0.34055787  0.68691189  1
  Sc  Sc92  1  0.48783129  0.86352183  0.87550557  1
  Sc  Sc93  1  0.86731339  0.48801435  0.07178778  1
  Sc  Sc94  1  0.64039662  0.96079918  0.15405080  1
  Sc  Sc95  1  0.26139191  0.08841175  0.13020443  1
  Sc  Sc96  1  0.72326762  0.97227396  0.53066861  1
  Sc  Sc97  1  0.08087268  0.83641809  0.91761192  1
  Sc  Sc98  1  0.07944715  0.08590213  0.42106803  1
  Sc  Sc99  1  0.51478561  0.50314682  0.26388037  1
  Nb  Nb100  1  0.87529370  0.69387782  0.99131072  1
  Nb  Nb101  1  0.03910346  0.12844152  0.20936589  1
  Nb  Nb102  1  0.21098145  0.79249173  0.59133710  1
  Nb  Nb103  1  0.41415501  0.69064594  0.20017889  1
  Nb  Nb104  1  0.07975240  0.36498372  0.19080448  1
  Nb  Nb105  1  0.09281825  0.25725231  0.84360758  1
  Nb  Nb106  1  0.83155921  0.83137407  0.66268364  1
  Nb  Nb107  1  0.70012042  0.17220876  0.47020659  1
  Nb  Nb108  1  0.33711398  0.92716073  0.50370868  1
  Nb  Nb109  1  0.39333190  0.79205053  0.66681009  1
  Nb  Nb110  1  0.10229883  0.46853898  0.81258200  1
  Nb  Nb111  1  0.07397557  0.99448168  0.05664135  1
  Nb  Nb112  1  0.65929313  0.78333303  0.03938869  1
  Nb  Nb113  1  0.65044669  1.00853907  0.34129488  1
  Nb  Nb114  1  0.74731151  0.35908565  0.41287147  1
  Nb  Nb115  1  0.62295316  0.34338369  0.57642348  1
  Nb  Nb116  1  0.51906549  0.48714455  0.66358034  1
  Nb  Nb117  1  0.32930908  0.77640733  0.39050077  1
  Nb  Nb118  1  0.46202445  0.84326150  0.08936182  1
  Nb  Nb119  1  0.04716867  0.78448709  0.11245671  1
  Nb  Nb120  1  0.29457090  0.73947246  0.85084981  1
  Nb  Nb121  1  0.50552854  0.67979862  0.38114826  1
  Nb  Nb122  1  0.15315221  0.65145431  0.46026064  1
  Nb  Nb123  1  1.00332498  0.72657243  0.57045435  1
  Nb  Nb124  1  0.93316872  0.58067261  0.45947395  1
