# generated using pymatgen
data_Zr2Sc2Nb
_symmetry_space_group_name_H-M   'P 1'
_cell_length_a   14.38873152
_cell_length_b   14.24288811
_cell_length_c   13.92257047
_cell_angle_alpha   90.13327826
_cell_angle_beta   90.60322108
_cell_angle_gamma   90.73426375
_symmetry_Int_Tables_number   1
_chemical_formula_structural   Zr2Sc2Nb
_chemical_formula_sum   'Zr50 Sc50 Nb25'
_cell_volume   2852.85006768
_cell_formula_units_Z   25
loop_
 _symmetry_equiv_pos_site_id
 _symmetry_equiv_pos_as_xyz
  1  'x, y, z'
loop_
 _atom_site_type_symbol
 _atom_site_label
 _atom_site_symmetry_multiplicity
 _atom_site_fract_x
 _atom_site_fract_y
 _atom_site_fract_z
 _atom_site_occupancy
  Zr  Zr0  1  0.96434204  0.13724956  0.10276993  1
  Zr  Zr1  1  0.29542496  0.96190306  0.74879688  1
  Zr  Zr2  1  0.92038048  0.86961031  0.89581494  1
  Zr  Zr3  1  0.41928226  0.84128335  0.61676030  1
  Zr  Zr4  1  0.83394295  0.24876293  0.63575333  1
  Zr  Zr5  1  0.29885406  0.43785841  0.36639190  1
  Zr  Zr6  1  0.71222519  0.28322320  0.96820923  1
  Zr  Zr7  1  0.54187021  0.45204150  0.26702805  1
  Zr  Zr8  1  0.41691040  0.12111234  0.83268985  1
  Zr  Zr9  1  0.11284171  0.60075359  0.08175097  1
  Zr  Zr10  1  0.27822949  0.71362269  0.43770110  1
  Zr  Zr11  1  0.34075308  0.25230163  0.01306993  1
  Zr  Zr12  1  0.89885199  0.28902103  0.85574791  1
  Zr  Zr13  1  0.84462716  0.92558166  0.10717042  1
  Zr  Zr14  1  0.65870607  0.08680741  0.30272318  1
  Zr  Zr15  1  0.94580973  0.42086061  0.69649798  1
  Zr  Zr16  1  0.66885389  0.78673142  0.10595795  1
  Zr  Zr17  1  0.87612852  0.07466059  0.28275171  1
  Zr  Zr18  1  0.00452070  0.75293310  0.65840270  1
  Zr  Zr19  1  0.36009057  0.04419649  0.56242264  1
  Zr  Zr20  1  0.76194564  0.25679785  0.21201754  1
  Zr  Zr21  1  0.54722477  0.94907712  0.44524725  1
  Zr  Zr22  1  0.48699046  0.92293818  0.87923062  1
  Zr  Zr23  1  0.15047523  0.07574193  0.51630746  1
  Zr  Zr24  1  0.84120766  0.78737534  0.47852694  1
  Zr  Zr25  1  0.63063654  0.31004811  0.56744455  1
  Zr  Zr26  1  0.21908002  0.28265519  0.20855777  1
  Zr  Zr27  1  0.08958560  0.41936958  0.16005132  1
  Zr  Zr28  1  0.91889935  0.59018417  0.53842166  1
  Zr  Zr29  1  0.45393741  0.35928891  0.46333026  1
  Zr  Zr30  1  0.98572260  0.52745447  0.33905156  1
  Zr  Zr31  1  0.36376995  0.74909327  0.82097036  1
  Zr  Zr32  1  1.02807887  0.46828313  0.92079671  1
  Zr  Zr33  1  0.95394068  0.15320624  0.49047886  1
  Zr  Zr34  1  0.76335483  0.45851709  0.56887237  1
  Zr  Zr35  1  0.51280284  0.61152081  0.11768514  1
  Zr  Zr36  1  0.85841125  0.08743362  0.88713879  1
  Zr  Zr37  1  0.68292319  0.16982216  0.76737038  1
  Zr  Zr38  1  0.31183692  0.49370804  0.16083055  1
  Zr  Zr39  1  0.04877400  0.94279773  0.16534921  1
  Zr  Zr40  1  0.90016908  0.73334951  0.07799904  1
  Zr  Zr41  1  0.31734794  0.66850143  0.01480657  1
  Zr  Zr42  1  0.49614762  0.81705926  0.27015597  1
  Zr  Zr43  1  0.47706366  0.14797104  0.42889920  1
  Zr  Zr44  1  0.11135964  0.79601325  0.03022788  1
  Zr  Zr45  1  0.49280308  0.43934578  0.68487844  1
  Zr  Zr46  1  0.26977970  0.23384817  0.44625428  1
  Zr  Zr47  1  0.56819246  0.20421640  0.12371866  1
  Zr  Zr48  1  0.55175394  0.00885204  0.69452424  1
  Zr  Zr49  1  0.14432710  0.36435696  0.77912513  1
  Sc  Sc50  1  0.57017539  0.52581306  0.48960453  1
  Sc  Sc51  1  0.24446793  0.18346805  0.67852843  1
  Sc  Sc52  1  0.41313230  0.05994876  0.05030310  1
  Sc  Sc53  1  0.66427002  0.11115860  0.54132142  1
  Sc  Sc54  1  0.75347191  0.10144891  0.07224206  1
  Sc  Sc55  1  0.97869162  0.67103881  0.87976249  1
  Sc  Sc56  1  0.27210919  0.91968360  0.95735041  1
  Sc  Sc57  1  0.44657279  0.83250955  0.06934571  1
  Sc  Sc58  1  0.25924562  0.72839684  0.21147136  1
  Sc  Sc59  1  0.69489630  0.67009292  0.57357929  1
  Sc  Sc60  1  0.23782600  0.69381565  0.65017856  1
  Sc  Sc61  1  0.53167172  0.30476500  0.86857594  1
  Sc  Sc62  1  0.02121400  0.17463427  0.73208404  1
  Sc  Sc63  1  0.09571798  0.30313754  0.57255697  1
  Sc  Sc64  1  0.41550167  0.26000736  0.25089344  1
  Sc  Sc65  1  0.19623320  0.10030017  0.10555877  1
  Sc  Sc66  1  0.04599655  0.97156026  0.72907225  1
  Sc  Sc67  1  0.82959988  1.02280949  0.66834587  1
  Sc  Sc68  1  0.19017095  0.87874919  0.57559847  1
  Sc  Sc69  1  0.14103314  0.90538092  0.35395686  1
  Sc  Sc70  1  0.89811509  0.33259381  0.06359574  1
  Sc  Sc71  1  0.35018386  0.90595256  0.40165395  1
  Sc  Sc72  1  0.76632959  0.45556996  0.33518931  1
  Sc  Sc73  1  0.55221350  0.70243955  0.92444230  1
  Sc  Sc74  1  0.41731617  0.61480873  0.32103634  1
  Sc  Sc75  1  0.14114764  0.52220827  0.51960396  1
  Sc  Sc76  1  0.59973268  0.79481006  0.73375649  1
  Sc  Sc77  1  0.63638951  0.65639375  0.31804714  1
  Sc  Sc78  1  0.70559342  0.92263493  0.91029938  1
  Sc  Sc79  1  -0.01655510  0.93436154  0.51737424  1
  Sc  Sc80  1  0.70829691  0.87367315  0.30515784  1
  Sc  Sc81  1  0.08656874  0.13154070  0.30782857  1
  Sc  Sc82  1  0.90272153  0.52678209  0.14087930  1
  Sc  Sc83  1  0.24303625  0.43731008  0.96898281  1
  Sc  Sc84  1  0.09577408  0.26655384  0.98642619  1
  Sc  Sc85  1  0.75797053  0.70140035  0.90513099  1
  Sc  Sc86  1  0.28874910  0.51909060  0.73303198  1
  Sc  Sc87  1  0.94938938  0.29782815  0.28318523  1
  Sc  Sc88  1  0.81532788  0.80767408  0.71111869  1
  Sc  Sc89  1  0.45584623  0.22367580  0.64905621  1
  Sc  Sc90  1  0.48177701  0.39868143  0.06186480  1
  Sc  Sc91  1  0.83726641  0.68337333  0.28178962  1
  Sc  Sc92  1  0.82157122  0.49881485  0.93162644  1
  Sc  Sc93  1  0.05679457  0.00996226  0.95359644  1
  Sc  Sc94  1  0.43074152  0.52880043  0.88187698  1
  Sc  Sc95  1  0.28440216  0.92672735  0.18192244  1
  Sc  Sc96  1  0.71862394  0.38993021  0.77038863  1
  Sc  Sc97  1  0.14418196  0.80725199  0.81470889  1
  Sc  Sc98  1  0.21202185  0.13180808  0.87624665  1
  Sc  Sc99  1  0.05788150  0.72331961  0.44202742  1
  Nb  Nb100  1  0.33900645  0.32505368  0.80860545  1
  Nb  Nb101  1  0.78756540  0.24054154  0.42562283  1
  Nb  Nb102  1  0.68738518  0.41603786  0.12494087  1
  Nb  Nb103  1  0.28877832  0.08751332  0.31783225  1
  Nb  Nb104  1  0.59990626  -0.02684187  0.11355375  1
  Nb  Nb105  1  0.67839665  0.88243586  0.55981510  1
  Nb  Nb106  1  0.79939402  1.00006829  0.44919764  1
  Nb  Nb107  1  0.18446122  0.61743080  0.87616773  1
  Nb  Nb108  1  0.59417719  0.09799941  0.93332405  1
  Nb  Nb109  1  0.29365649  0.37540464  0.59358966  1
  Nb  Nb110  1  0.36850383  0.55803502  0.53069766  1
  Nb  Nb111  1  0.04185193  0.72605998  0.23112992  1
  Nb  Nb112  1  0.84459216  0.59379138  0.73070072  1
  Nb  Nb113  1  0.71304359  0.60074234  0.10678098  1
  Nb  Nb114  1  0.62465401  0.49919331  0.94529257  1
  Nb  Nb115  1  0.92661276  0.87430403  0.31099112  1
  Nb  Nb116  1  0.47240137  0.64291016  0.67124206  1
  Nb  Nb117  1  0.16988798  0.57062592  0.30206948  1
  Nb  Nb118  1  0.07136202  0.57126183  0.71823098  1
  Nb  Nb119  1  0.61355978  0.28832001  0.34756239  1
  Nb  Nb120  1  0.11632813  0.36197810  0.37369795  1
  Nb  Nb121  1  0.46667260  0.02815980  0.25094562  1
  Nb  Nb122  1  0.93218911  0.37971978  0.48066769  1
  Nb  Nb123  1  0.64347930  0.57916747  0.75651410  1
  Nb  Nb124  1  0.50953953  0.73605515  0.48197290  1
