# generated using pymatgen
data_Zr2Sc2Nb
_symmetry_space_group_name_H-M   'P 1'
_cell_length_a   14.13609306
_cell_length_b   14.10087202
_cell_length_c   14.44147588
_cell_angle_alpha   89.58219049
_cell_angle_beta   89.88358261
_cell_angle_gamma   89.12187420
_symmetry_Int_Tables_number   1
_chemical_formula_structural   Zr2Sc2Nb
_chemical_formula_sum   'Zr50 Sc50 Nb25'
_cell_volume   2878.21736953
_cell_formula_units_Z   25
loop_
 _symmetry_equiv_pos_site_id
 _symmetry_equiv_pos_as_xyz
  1  'x, y, z'
loop_
 _atom_site_type_symbol
 _atom_site_label
 _atom_site_symmetry_multiplicity
 _atom_site_fract_x
 _atom_site_fract_y
 _atom_site_fract_z
 _atom_site_occupancy
  Zr  Zr0  1  0.33213057  1.05167458  0.84390169  1
  Zr  Zr1  1  0.43672621  0.81354095  0.82062155  1
  Zr  Zr2  1  0.30087485  0.88085111  0.51931967  1
  Zr  Zr3  1  0.73409062  0.26918550  0.98561241  1
  Zr  Zr4  1  0.23165874  0.43365712  0.40375976  1
  Zr  Zr5  1  0.66957782  0.25219015  0.40061797  1
  Zr  Zr6  1  0.46387665  0.13783699  0.13984773  1
  Zr  Zr7  1  0.19101790  0.83886173  0.93227084  1
  Zr  Zr8  1  0.14519260  0.08782260  0.27259890  1
  Zr  Zr9  1  0.08408664  0.87045536  0.40802725  1
  Zr  Zr10  1  0.83616722  0.92759738  0.12937326  1
  Zr  Zr11  1  0.66725264  0.47044224  0.99374694  1
  Zr  Zr12  1  0.68452546  0.29732897  0.60348285  1
  Zr  Zr13  1  0.01328734  0.12795018  0.67605614  1
  Zr  Zr14  1  0.68845851  0.58788625  0.78986931  1
  Zr  Zr15  1  0.38818000  0.50970887  0.53917129  1
  Zr  Zr16  1  0.02176996  0.48908556  0.77361360  1
  Zr  Zr17  1  0.26134014  0.85183739  0.11694210  1
  Zr  Zr18  1  0.92731223  0.69110399  0.28560024  1
  Zr  Zr19  1  0.30555021  0.32008461  0.59924628  1
  Zr  Zr20  1  0.68061300  0.57310828  0.29064249  1
  Zr  Zr21  1  0.04660379  0.10424575  0.06370829  1
  Zr  Zr22  1  0.27973065  0.88828800  0.32235198  1
  Zr  Zr23  1  0.35872367  0.69686559  0.23482622  1
  Zr  Zr24  1  0.21093244  0.63590951  0.06326355  1
  Zr  Zr25  1  0.49511877  0.61181829  0.72683286  1
  Zr  Zr26  1  0.45686063  0.95338976  0.66156193  1
  Zr  Zr27  1  0.40785619  0.52725514  0.33186249  1
  Zr  Zr28  1  0.32238890  0.48705045  0.75633492  1
  Zr  Zr29  1  0.50751613  0.39774082  0.86577963  1
  Zr  Zr30  1  0.70007828  0.37390251  0.79982186  1
  Zr  Zr31  1  0.12680109  0.31043668  0.09218962  1
  Zr  Zr32  1  0.98268364  0.91253331  0.96220192  1
  Zr  Zr33  1  0.83198809  0.56651915  0.11922927  1
  Zr  Zr34  1  0.63790027  0.05884754  0.04178152  1
  Zr  Zr35  1  0.02911617  0.67090264  0.90899355  1
  Zr  Zr36  1  0.16416113  0.19145087  0.91277992  1
  Zr  Zr37  1  0.63188395  0.77758879  0.87005811  1
  Zr  Zr38  1  0.44165987  0.74222282  0.04484321  1
  Zr  Zr39  1  0.00073136  0.72897187  0.09872038  1
  Zr  Zr40  1  0.76855780  0.94334364  0.92206924  1
  Zr  Zr41  1  0.65205762  0.66307072  0.06250232  1
  Zr  Zr42  1  0.91292401  0.89159717  0.61048303  1
  Zr  Zr43  1  0.51633402  0.40142212  0.66090884  1
  Zr  Zr44  1  0.92341802  0.09244357  0.23796655  1
  Zr  Zr45  1  0.18297352  0.44039221  0.91821274  1
  Zr  Zr46  1  0.96996825  0.65218522  0.64575274  1
  Zr  Zr47  1  0.24471805  0.11619146  0.66500422  1
  Zr  Zr48  1  1.06697482  0.62715715  0.43693293  1
  Zr  Zr49  1  0.56024596  0.99458982  0.83997733  1
  Sc  Sc50  1  0.97758850  0.06879155  0.44824404  1
  Sc  Sc51  1  0.16951729  0.51738782  0.59548504  1
  Sc  Sc52  1  0.27985624  0.25006190  0.21180139  1
  Sc  Sc53  1  0.71835030  0.91633144  0.49931194  1
  Sc  Sc54  1  0.10649303  0.51717433  0.24821668  1
  Sc  Sc55  1  0.69687146  0.74680783  0.40527834  1
  Sc  Sc56  1  0.29479328  0.45403621  0.16343326  1
  Sc  Sc57  1  0.50434320  0.18460694  0.92415979  1
  Sc  Sc58  1  0.33928698  0.70451243  0.63019982  1
  Sc  Sc59  1  0.26316526  0.07156938  0.08085371  1
  Sc  Sc60  1  0.31693995  0.65831885  0.88714825  1
  Sc  Sc61  1  0.05580926  0.91249465  0.19010331  1
  Sc  Sc62  1  0.16489980  0.65502774  0.75686460  1
  Sc  Sc63  1  0.90362173  0.46271107  0.28384356  1
  Sc  Sc64  1  0.02558378  0.50432941  0.05256938  1
  Sc  Sc65  1  0.39360095  0.08457828  0.50947212  1
  Sc  Sc66  1  0.83001332  0.47535337  0.64351020  1
  Sc  Sc67  1  0.56874177  0.43924864  0.42776740  1
  Sc  Sc68  1  0.84250207  0.59186181  0.45898860  1
  Sc  Sc69  1  0.11988881  0.30436179  0.73956658  1
  Sc  Sc70  1  0.52237300  0.33306268  0.08125663  1
  Sc  Sc71  1  0.48584408  0.18169816  0.70495851  1
  Sc  Sc72  1  0.63764907  0.56812449  0.56419596  1
  Sc  Sc73  1  0.88400395  0.25903633  0.52428374  1
  Sc  Sc74  1  -0.02569749  0.32941933  0.93064114  1
  Sc  Sc75  1  0.76201509  0.72489293  0.62119977  1
  Sc  Sc76  1  0.88656986  0.28991548  0.74211372  1
  Sc  Sc77  1  0.85257973  0.76159198  0.80463812  1
  Sc  Sc78  1  0.80843964  0.09102370  0.61276931  1
  Sc  Sc79  1  0.07485937  0.29136568  0.31118472  1
  Sc  Sc80  1  0.70138153  0.92058130  0.70939255  1
  Sc  Sc81  1  0.60592928  0.09227897  0.55121768  1
  Sc  Sc82  1  0.99596284  0.43104369  0.47885012  1
  Sc  Sc83  1  0.11185319  0.24738702  0.52361997  1
  Sc  Sc84  1  0.71406062  0.15935562  0.19958433  1
  Sc  Sc85  1  0.90509020  0.29717967  0.12840319  1
  Sc  Sc86  1  0.85604007  0.52692073  0.90323044  1
  Sc  Sc87  1  0.46412851  0.92310689  0.20217469  1
  Sc  Sc88  1  0.14964230  0.72291913  0.25925204  1
  Sc  Sc89  1  0.32889867  0.28374630  0.81312925  1
  Sc  Sc90  1  0.54940028  0.09837633  0.34028229  1
  Sc  Sc91  1  0.50363065  0.90227734  0.42086622  1
  Sc  Sc92  1  0.73089560  0.13901209  0.81554670  1
  Sc  Sc93  1  0.70370561  0.37972004  0.20990467  1
  Sc  Sc94  1  0.25313888  0.87657299  0.73201045  1
  Sc  Sc95  1  0.43462870  0.95420738  -0.00049737  1
  Sc  Sc96  1  0.50279130  0.54128629  0.14247282  1
  Sc  Sc97  1  0.10457797  0.95972035  0.61036550  1
  Sc  Sc98  1  0.46185290  0.30569875  0.29457287  1
  Sc  Sc99  1  0.47939789  0.69190002  0.44779032  1
  Nb  Nb100  1  0.47733247  0.27238197  0.50193675  1
  Nb  Nb101  1  0.67415878  -0.06557887  0.26991080  1
  Nb  Nb102  1  0.51763076  0.59936422  0.91915960  1
  Nb  Nb103  1  0.56006225  0.78278355  0.62658410  1
  Nb  Nb104  1  0.55917480  0.74176919  0.24334282  1
  Nb  Nb105  1  0.95126732  0.13448010  0.87880758  1
  Nb  Nb106  1  0.12676271  0.75814562  0.57737938  1
  Nb  Nb107  1  0.26358226  0.67212426  0.43149152  1
  Nb  Nb108  1  0.84598842  0.10699802  0.02943489  1
  Nb  Nb109  1  0.77143188  0.41525703  0.43665070  1
  Nb  Nb110  1  0.77452147  0.07984958  0.39050250  1
  Nb  Nb111  1  0.04738965  0.83037476  0.76815139  1
  Nb  Nb112  1  0.86260093  0.26023411  0.33021296  1
  Nb  Nb113  1  0.34903280  0.07461657  0.30476400  1
  Nb  Nb114  1  0.86768685  0.90173528  0.33454336  1
  Nb  Nb115  1  0.90662228  -0.01716527  0.77933621  1
  Nb  Nb116  1  0.19642398  0.05792805  0.45609689  1
  Nb  Nb117  1  0.11473745  0.01669339  0.82622210  1
  Nb  Nb118  1  0.63173096  0.86153185  0.07510102  1
  Nb  Nb119  1  0.28581273  0.23365585  0.41075785  1
  Nb  Nb120  1  0.32873449  0.28071582  1.01465981  1
  Nb  Nb121  1  0.91739256  0.77418072  0.47038076  1
  Nb  Nb122  1  0.82333592  0.74676375  0.00191550  1
  Nb  Nb123  1  0.76263692  0.75846195  0.20499967  1
  Nb  Nb124  1  0.37184260  0.47916892  0.98015612  1
