# generated using pymatgen
data_Zr2Sc2Nb
_symmetry_space_group_name_H-M   'P 1'
_cell_length_a   14.05491914
_cell_length_b   13.92694489
_cell_length_c   14.64780380
_cell_angle_alpha   90.74549500
_cell_angle_beta   90.30130680
_cell_angle_gamma   90.72979414
_symmetry_Int_Tables_number   1
_chemical_formula_structural   Zr2Sc2Nb
_chemical_formula_sum   'Zr50 Sc50 Nb25'
_cell_volume   2866.67419515
_cell_formula_units_Z   25
loop_
 _symmetry_equiv_pos_site_id
 _symmetry_equiv_pos_as_xyz
  1  'x, y, z'
loop_
 _atom_site_type_symbol
 _atom_site_label
 _atom_site_symmetry_multiplicity
 _atom_site_fract_x
 _atom_site_fract_y
 _atom_site_fract_z
 _atom_site_occupancy
  Zr  Zr0  1  0.11311562  0.93462391  0.12563064  1
  Zr  Zr1  1  0.26943713  0.89608722  0.30138036  1
  Zr  Zr2  1  0.03406634  0.13376662  0.63569993  1
  Zr  Zr3  1  0.33532794  0.77426137  0.14805246  1
  Zr  Zr4  1  0.21226847  0.37445638  0.52869474  1
  Zr  Zr5  1  0.53856994  0.56333565  0.94916615  1
  Zr  Zr6  1  0.95048916  0.03589875  0.25685482  1
  Zr  Zr7  1  0.69886005  0.51334807  0.80758167  1
  Zr  Zr8  1  0.31819623  0.98925008  0.12108261  1
  Zr  Zr9  1  0.38394379  0.22962158  0.57785393  1
  Zr  Zr10  1  0.57621181  0.31865439  0.67043442  1
  Zr  Zr11  1  0.16617611  0.66563449  0.84963556  1
  Zr  Zr12  1  0.97318702  0.80368174  0.72871963  1
  Zr  Zr13  1  0.73750613  0.67077442  -0.00048310  1
  Zr  Zr14  1  0.73615743  0.30826409  0.15690353  1
  Zr  Zr15  1  0.42696593  0.43589462  0.56207248  1
  Zr  Zr16  1  0.42837475  0.33621729  0.24562958  1
  Zr  Zr17  1  0.05984219  0.22037181  0.40006132  1
  Zr  Zr18  1  0.09652964  0.50011204  0.96966148  1
  Zr  Zr19  1  0.49447381  0.05578868  0.59659715  1
  Zr  Zr20  1  0.93096620  0.24266631  0.21311059  1
  Zr  Zr21  1  0.46731866  0.48313852  0.37552013  1
  Zr  Zr22  1  0.69588929  0.57823995  0.61748019  1
  Zr  Zr23  1  0.76411287  0.08989978  0.09844364  1
  Zr  Zr24  1  0.30596868  0.60908775  0.48493320  1
  Zr  Zr25  1  0.75422695  0.15497865  0.32081524  1
  Zr  Zr26  1  0.79673396  0.38170056  0.63411177  1
  Zr  Zr27  1  0.84030578  0.15377694  0.66794030  1
  Zr  Zr28  1  0.75059778  0.91262489  0.73183617  1
  Zr  Zr29  1  0.82134837  0.49280751  0.26954439  1
  Zr  Zr30  1  0.39070281  0.69970264  0.87275434  1
  Zr  Zr31  1  0.57344883  0.17383116  0.21135292  1
  Zr  Zr32  1  0.84445196  0.72434216  0.33728264  1
  Zr  Zr33  1  0.42740173  0.83592874  0.43864249  1
  Zr  Zr34  1  0.64564708  0.35964226  0.32428354  1
  Zr  Zr35  1  0.07598450  0.98886908  0.43924694  1
  Zr  Zr36  1  0.83070860  0.88047107  -0.07260909  1
  Zr  Zr37  1  0.05000032  0.83043942  0.29730161  1
  Zr  Zr38  1  0.39574052  0.53534736  0.16425616  1
  Zr  Zr39  1  0.52980218  0.70766219  0.08753400  1
  Zr  Zr40  1  0.65346814  0.81178780  0.40536602  1
  Zr  Zr41  1  0.67061799  0.88508765  0.07076626  1
  Zr  Zr42  1  0.12773494  0.08569728  0.82824863  1
  Zr  Zr43  1  0.57366522  0.69677366  0.74549503  1
  Zr  Zr44  1  0.89353078  0.12175942  0.46473570  1
  Zr  Zr45  1  0.34611399  0.46949344  0.89613304  1
  Zr  Zr46  1  0.37267790  0.70382653  0.66503283  1
  Zr  Zr47  1  0.02142084  0.61870028  0.30814406  1
  Zr  Zr48  1  0.32497242  0.03059050  0.46210403  1
  Zr  Zr49  1  0.20606823  0.80055997  0.46957183  1
  Sc  Sc50  1  0.30080625  0.08676148  0.70556730  1
  Sc  Sc51  1  0.05521720  0.88324477  0.92066453  1
  Sc  Sc52  1  0.62190541  1.00349844  0.89927773  1
  Sc  Sc53  1  0.61394086  0.52284298  0.17940826  1
  Sc  Sc54  1  0.29453162  0.24601263  0.37689718  1
  Sc  Sc55  1  0.32714151  0.03606383  0.91196524  1
  Sc  Sc56  1  0.68415064  0.20854608  0.51939174  1
  Sc  Sc57  1  0.15602356  0.70623186  0.64825619  1
  Sc  Sc58  1  0.52000239  0.64213078  0.52525618  1
  Sc  Sc59  1  -0.01017166  0.75655569  0.50481434  1
  Sc  Sc60  1  0.27126887  0.38363855  0.07201921  1
  Sc  Sc61  1  0.27005508  0.50932419  0.69799434  1
  Sc  Sc62  1  0.45349823  0.87507112  0.98982700  1
  Sc  Sc63  1  0.90250913  0.45344201  0.89585154  1
  Sc  Sc64  1  0.95579700  0.67621045  0.91654892  1
  Sc  Sc65  1  0.72009000  0.44251396  0.00857354  1
  Sc  Sc66  1  0.26904120  0.61478523  0.03071671  1
  Sc  Sc67  1  0.19454995  0.30388368  0.88219776  1
  Sc  Sc68  1  0.98013504  0.24866673  0.82499088  1
  Sc  Sc69  1  0.18045802  0.14109257  0.03480367  1
  Sc  Sc70  1  0.09665776  0.71667222  0.09990032  1
  Sc  Sc71  1  0.92025901  0.58679390  0.67928096  1
  Sc  Sc72  1  0.48283080  0.68780534  0.29909656  1
  Sc  Sc73  1  0.65076471  0.11123263  0.72041387  1
  Sc  Sc74  1  0.86326407  0.53806916  0.47835136  1
  Sc  Sc75  1  0.56288763  0.03204893  0.39832338  1
  Sc  Sc76  1  0.15047558  0.29114913  0.20910397  1
  Sc  Sc77  1  0.72181826  -0.00969093  0.53094452  1
  Sc  Sc78  1  0.97224732  0.07954934  0.01603934  1
  Sc  Sc79  1  0.54418668  0.36269181  0.87039309  1
  Sc  Sc80  1  -0.00510214  0.34139149  0.56864308  1
  Sc  Sc81  1  0.08966381  0.55241634  0.50918504  1
  Sc  Sc82  1  0.67216040  0.59321978  0.38702248  1
  Sc  Sc83  1  0.46730758  0.91230151  0.77553893  1
  Sc  Sc84  1  0.17940470  0.08685399  0.27187117  1
  Sc  Sc85  1  0.57240008  0.84673251  0.60027000  1
  Sc  Sc86  1  0.78464190  0.71201013  0.78490609  1
  Sc  Sc87  1  0.01617530  0.41445188  0.33800360  1
  Sc  Sc88  1  0.74934816  0.29764817  0.82164387  1
  Sc  Sc89  1  0.72972009  0.94747860  0.26410099  1
  Sc  Sc90  1  0.80562965  0.10089629  0.88283653  1
  Sc  Sc91  1  0.24349421  0.45782355  0.33017262  1
  Sc  Sc92  1  0.23222774  0.66555960  0.28711429  1
  Sc  Sc93  1  0.51030246  0.90203913  0.22428960  1
  Sc  Sc94  1  0.07520695  0.45453938  0.75200816  1
  Sc  Sc95  1  0.24173867  0.86534800  0.78973967  1
  Sc  Sc96  1  0.50057532  0.08393464  1.04795064  1
  Sc  Sc97  1  0.88670695  0.85342699  0.14162434  1
  Sc  Sc98  1  0.13089034  0.94304656  0.63484515  1
  Sc  Sc99  1  0.89866293  0.63090310  0.12838186  1
  Nb  Nb100  1  0.11585633  0.50437319  0.16351616  1
  Nb  Nb101  1  0.18182962  0.27258652  0.68984253  1
  Nb  Nb102  1  0.63727468  0.21726993  0.97891230  1
  Nb  Nb103  1  0.34733325  0.19683037  0.13976603  1
  Nb  Nb104  1  0.33982863  0.89014264  0.60650535  1
  Nb  Nb105  1  1.04873875  0.30822284  1.02990456  1
  Nb  Nb106  1  0.48243412  0.15708668  0.81184985  1
  Nb  Nb107  1  0.36968188  0.32069565  0.75242398  1
  Nb  Nb108  1  0.61888645  0.78821393  0.90112322  1
  Nb  Nb109  1  0.93347716  0.42707662  0.11641741  1
  Nb  Nb110  1  0.24377113  0.83064175  0.98514808  1
  Nb  Nb111  1  0.78796304  0.76774318  0.56288520  1
  Nb  Nb112  1  0.63697251  0.41999344  0.50464183  1
  Nb  Nb113  1  0.87160422  0.91060230  0.40600865  1
  Nb  Nb114  1  0.85541010  0.26671198  0.00525323  1
  Nb  Nb115  1  0.50620919  0.24665244  0.42106647  1
  Nb  Nb116  1  0.38995689  0.24524970  0.95374467  1
  Nb  Nb117  1  0.19071561  0.15100045  0.53191956  1
  Nb  Nb118  1  0.40300555  0.08964209  0.28484996  1
  Nb  Nb119  1  0.51486451  0.35073316  0.07170706  1
  Nb  Nb120  1  0.69719776  0.72722948  0.20755774  1
  Nb  Nb121  1  0.48739555  0.51473756  0.73658523  1
  Nb  Nb122  1  0.95019449  1.00311741  0.78094639  1
  Nb  Nb123  1  0.91634897  0.94617073  0.59344059  1
  Nb  Nb124  1  0.83422548  0.32893896  0.41635826  1
