# generated using pymatgen
data_Zr2Sc2Nb
_symmetry_space_group_name_H-M   'P 1'
_cell_length_a   13.87811691
_cell_length_b   13.86062780
_cell_length_c   14.93371571
_cell_angle_alpha   88.69008172
_cell_angle_beta   90.03875758
_cell_angle_gamma   89.92747267
_symmetry_Int_Tables_number   1
_chemical_formula_structural   Zr2Sc2Nb
_chemical_formula_sum   'Zr50 Sc50 Nb25'
_cell_volume   2871.88705869
_cell_formula_units_Z   25
loop_
 _symmetry_equiv_pos_site_id
 _symmetry_equiv_pos_as_xyz
  1  'x, y, z'
loop_
 _atom_site_type_symbol
 _atom_site_label
 _atom_site_symmetry_multiplicity
 _atom_site_fract_x
 _atom_site_fract_y
 _atom_site_fract_z
 _atom_site_occupancy
  Zr  Zr0  1  0.85230580  0.60394446  0.24856590  1
  Zr  Zr1  1  0.38995651  0.79574696  0.28433262  1
  Zr  Zr2  1  0.88619605  0.43078920  0.36646330  1
  Zr  Zr3  1  0.67651672  0.39652403  0.62730566  1
  Zr  Zr4  1  0.95553787  0.76398747  0.76630250  1
  Zr  Zr5  1  0.36761709  0.50205373  0.97720311  1
  Zr  Zr6  1  0.08217469  0.07112584  0.49494695  1
  Zr  Zr7  1  1.02164251  0.92414171  0.62902404  1
  Zr  Zr8  1  0.97479690  1.03713872  0.32817310  1
  Zr  Zr9  1  0.13821792  0.30293431  0.97460624  1
  Zr  Zr10  1  0.36726523  0.21669674  0.20070048  1
  Zr  Zr11  1  0.95113977  0.48981588  0.56329092  1
  Zr  Zr12  1  0.33455820  0.43349401  0.17266365  1
  Zr  Zr13  1  0.39598238  0.00612361  0.75152153  1
  Zr  Zr14  1  0.15744053  0.89288368  0.80684223  1
  Zr  Zr15  1  0.34919220  0.79936136  0.77847273  1
  Zr  Zr16  1  0.53698791  0.49974428  0.48713730  1
  Zr  Zr17  1  0.12344357  -0.06244378  0.22314059  1
  Zr  Zr18  1  0.46038947  0.07147617  0.56674826  1
  Zr  Zr19  1  0.73379964  0.81362061  0.17184695  1
  Zr  Zr20  1  0.76837174  0.99204553  0.30826800  1
  Zr  Zr21  1  0.75076087  0.55689392  0.49322869  1
  Zr  Zr22  1  0.97955231  0.45037793  0.91876528  1
  Zr  Zr23  1  0.06078402  0.27923742  0.59331320  1
  Zr  Zr24  1  0.52525674  0.37109203  0.89286789  1
  Zr  Zr25  1  0.31416779  0.35580916  0.82686047  1
  Zr  Zr26  1  0.93719068  0.95893444  0.82100770  1
  Zr  Zr27  1  0.26042917  0.84306105  0.10556225  1
  Zr  Zr28  1  0.05519109  0.45627582  0.24274899  1
  Zr  Zr29  1  0.29193272  0.22820680  0.66626963  1
  Zr  Zr30  1  0.15430118  0.49929334  0.06292710  1
  Zr  Zr31  1  0.57052150  0.94447349  0.26721389  1
  Zr  Zr32  1  0.75115168  0.38306552  0.18868799  1
  Zr  Zr33  1  0.53835956  0.54881565  0.08283287  1
  Zr  Zr34  1  0.48212412  0.35431266  0.31929024  1
  Zr  Zr35  1  0.82637469  0.63587798  0.91383866  1
  Zr  Zr36  1  0.61695428  0.17213778  0.22478523  1
  Zr  Zr37  1  0.67691965  0.35133776  0.40752240  1
  Zr  Zr38  1  0.03980374  0.25486684  0.35614586  1
  Zr  Zr39  1  0.31029820  0.73856020  0.45581140  1
  Zr  Zr40  1  0.86668212  0.08910720  0.50915239  1
  Zr  Zr41  1  0.88891708  0.37360629  0.72952883  1
  Zr  Zr42  1  0.57895302  0.59451379  0.65598472  1
  Zr  Zr43  1  0.25341790  -0.04476615  0.41110753  1
  Zr  Zr44  1  0.64949898  0.52984055  0.29830028  1
  Zr  Zr45  1  0.89901948  0.94513644  0.14632743  1
  Zr  Zr46  1  0.51032884  0.13774120  0.89884673  1
  Zr  Zr47  1  0.68253001  0.20013073  0.00925684  1
  Zr  Zr48  1  0.21744338  0.56330073  0.32376961  1
  Zr  Zr49  1  0.57321366  0.91774933  0.91421800  1
  Sc  Sc50  1  0.12014661  0.09648232  0.71265958  1
  Sc  Sc51  1  0.01428117  0.62010500  0.38946569  1
  Sc  Sc52  1  0.94847180  0.80334386  0.28864339  1
  Sc  Sc53  1  0.03081596  0.12576095  0.13703193  1
  Sc  Sc54  1  0.24830251  0.70266423  0.94415678  1
  Sc  Sc55  1  0.49336174  0.28528084  0.52353510  1
  Sc  Sc56  1  0.90405770  0.15220612  0.71552024  1
  Sc  Sc57  1  0.04148656  0.66885331  0.93601702  1
  Sc  Sc58  1  0.27773561  0.14085823  0.85910233  1
  Sc  Sc59  1  0.60822570  0.57571611  0.87695923  1
  Sc  Sc60  1  0.41115294  0.13737070  0.37434954  1
  Sc  Sc61  1  0.35346440  0.93887780  0.94729135  1
  Sc  Sc62  1  0.55025309  0.75672168  0.77440568  1
  Sc  Sc63  1  0.82250866  0.21494115  0.33226527  1
  Sc  Sc64  1  0.08190572  0.68325948  0.15120288  1
  Sc  Sc65  1  0.48633503  0.07515524  0.08244390  1
  Sc  Sc66  1  0.79319071  0.58447845  0.71381159  1
  Sc  Sc67  1  0.36306253  0.63505695  0.62303020  1
  Sc  Sc68  1  0.50347984  0.21604834  0.72276279  1
  Sc  Sc69  1  0.62649130  0.12886130  0.42211041  1
  Sc  Sc70  1  0.65904830  0.93426370  0.49598672  1
  Sc  Sc71  1  0.85103526  0.30324055  0.53205692  1
  Sc  Sc72  1  0.74541002  0.75290851  0.37822334  1
  Sc  Sc73  1  0.90045016  0.25441489  0.90892496  1
  Sc  Sc74  1  0.35336303  0.99217348  0.22886929  1
  Sc  Sc75  1  0.01497802  0.55041580  0.74393215  1
  Sc  Sc76  1  0.42709004  0.57123723  0.32218532  1
  Sc  Sc77  1  0.05150784  0.88679443  0.00458129  1
  Sc  Sc78  1  0.69351188  0.15720754  0.62292522  1
  Sc  Sc79  1  0.73004120  0.05013389  0.83950277  1
  Sc  Sc80  1  0.23347368  0.08448179  0.07411565  1
  Sc  Sc81  1  0.94466690  0.32019105  0.10962906  1
  Sc  Sc82  1  0.70170900  0.27678267  0.80775810  1
  Sc  Sc83  1  0.19927956  0.44916555  0.66585826  1
  Sc  Sc84  1  0.92652333  0.71587351  0.56994910  1
  Sc  Sc85  1  0.35439761  0.27322545  0.01188958  1
  Sc  Sc86  1  0.24499254  0.20968079  0.47980337  1
  Sc  Sc87  1  0.32190772  0.44187788  0.48985138  1
  Sc  Sc88  1  0.14338526  0.62245806  0.54992197  1
  Sc  Sc89  1  0.87163268  0.06747478  0.98971212  1
  Sc  Sc90  1  0.33757135  0.65126251  0.13845955  1
  Sc  Sc91  1  0.54395718  0.33648881  0.10518490  1
  Sc  Sc92  1  0.74944305  0.42006699  -0.02300571  1
  Sc  Sc93  1  0.60277229  0.95869020  0.69777868  1
  Sc  Sc94  1  0.54110446  0.72177204  0.45528685  1
  Sc  Sc95  1  0.07375088  0.10268863  0.91527837  1
  Sc  Sc96  1  0.71110595  0.76255776  0.60387573  1
  Sc  Sc97  1  0.56747663  0.70555480  0.21295797  1
  Sc  Sc98  1  0.44845263  0.42547607  0.68230950  1
  Sc  Sc99  1  0.08228791  0.83518995  0.45288099  1
  Nb  Nb100  1  0.18997366  0.12847891  0.29351433  1
  Nb  Nb101  1  0.45374708  0.92905985  0.42956089  1
  Nb  Nb102  1  0.87607523  0.89752702  0.47030309  1
  Nb  Nb103  1  0.21646604  0.81994594  0.61781691  1
  Nb  Nb104  1  0.09308206  0.30505682  0.78849713  1
  Nb  Nb105  1  0.24715582  0.34164227  0.32571537  1
  Nb  Nb106  1  0.81225613  0.86650980  0.96301294  1
  Nb  Nb107  1  0.16537177  0.29018769  0.16595665  1
  Nb  Nb108  1  0.74924064  0.81024924  0.80202096  1
  Nb  Nb109  1  0.10639644  0.42206448  0.45152498  1
  Nb  Nb110  1  0.45510444  0.72178444  0.96381484  1
  Nb  Nb111  1  0.38912724  0.58364486  0.80960129  1
  Nb  Nb112  1  0.26654512  0.00305744  0.59931075  1
  Nb  Nb113  1  0.18167135  0.67416830  0.75182202  1
  Nb  Nb114  1  0.80950268  0.14781763  0.15612888  1
  Nb  Nb115  1  0.18806863  0.76385093  0.29696622  1
  Nb  Nb116  1  0.92491040  0.53051145  0.08313326  1
  Nb  Nb117  1  0.65318392  0.74832310  0.99938286  1
  Nb  Nb118  1  0.81669077  0.94203827  0.65698616  1
  Nb  Nb119  1  0.43897295  0.84980149  0.59873853  1
  Nb  Nb120  1  0.88872270  0.73294642  0.07830864  1
  Nb  Nb121  1  0.49149942  0.85743950  0.09809431  1
  Nb  Nb122  1  0.68269721  -0.00986420  0.07811005  1
  Nb  Nb123  1  0.18292534  0.50424168  0.86558360  1
  Nb  Nb124  1  0.72994605  0.59353084  0.09891871  1
