# generated using pymatgen
data_Zr2Sc2Nb
_symmetry_space_group_name_H-M   'P 1'
_cell_length_a   14.12967713
_cell_length_b   14.19307146
_cell_length_c   14.39042818
_cell_angle_alpha   90.01942856
_cell_angle_beta   89.09466988
_cell_angle_gamma   91.12782806
_symmetry_Int_Tables_number   1
_chemical_formula_structural   Zr2Sc2Nb
_chemical_formula_sum   'Zr50 Sc50 Nb25'
_cell_volume   2884.98780740
_cell_formula_units_Z   25
loop_
 _symmetry_equiv_pos_site_id
 _symmetry_equiv_pos_as_xyz
  1  'x, y, z'
loop_
 _atom_site_type_symbol
 _atom_site_label
 _atom_site_symmetry_multiplicity
 _atom_site_fract_x
 _atom_site_fract_y
 _atom_site_fract_z
 _atom_site_occupancy
  Zr  Zr0  1  0.52746631  0.68871544  0.19273668  1
  Zr  Zr1  1  0.75552015  0.91818744  0.53558019  1
  Zr  Zr2  1  0.84320222  0.47941109  0.07100167  1
  Zr  Zr3  1  0.57220373  0.92005808  0.16298786  1
  Zr  Zr4  1  0.09687373  0.75317887  0.28515227  1
  Zr  Zr5  1  0.59004739  0.56956790  0.35658204  1
  Zr  Zr6  1  0.22691012  0.77583926  0.96260239  1
  Zr  Zr7  1  0.22442533  0.91450950  0.27172656  1
  Zr  Zr8  1  0.76801079  0.35563241  0.90329081  1
  Zr  Zr9  1  0.94603516  0.65603714  0.73574809  1
  Zr  Zr10  1  0.29702427  0.72061641  0.62867366  1
  Zr  Zr11  1  0.40343401  0.06566533  0.13139153  1
  Zr  Zr12  1  0.68705883  0.91464021  0.73351641  1
  Zr  Zr13  1  0.89343851  -0.02640178  0.92470373  1
  Zr  Zr14  1  0.75089029  0.37187610  0.28753293  1
  Zr  Zr15  1  0.16129843  0.01737892  0.48367024  1
  Zr  Zr16  1  0.23950029  0.48052870  0.50106388  1
  Zr  Zr17  1  0.89619043  0.76655152  0.40958569  1
  Zr  Zr18  1  0.54164685  0.36020120  0.69013971  1
  Zr  Zr19  1  0.68385783  0.73572768  0.47422001  1
  Zr  Zr20  1  0.09779315  0.95530831  0.84597338  1
  Zr  Zr21  1  0.11977850  0.25856169  0.50474611  1
  Zr  Zr22  1  0.26517320  0.51550878  0.71919153  1
  Zr  Zr23  1  0.27280770  0.99237450  -0.02988125  1
  Zr  Zr24  1  0.09999061  0.63902089  0.60018874  1
  Zr  Zr25  1  0.03233050  0.96716462  0.32573839  1
  Zr  Zr26  1  0.07253307  0.13061144  0.96692570  1
  Zr  Zr27  1  0.44901913  0.16904399  0.69117952  1
  Zr  Zr28  1  0.66749877  0.49701198  0.75808177  1
  Zr  Zr29  1  0.70367735  0.57000603  0.18282197  1
  Zr  Zr30  1  0.52678341  0.14675791  0.28007733  1
  Zr  Zr31  1  0.96107618  0.93712892  0.52969489  1
  Zr  Zr32  1  0.91574483  0.21773526  0.30828824  1
  Zr  Zr33  1  1.02090583  0.57954122  0.41379394  1
  Zr  Zr34  1  0.07568415  0.46784789  0.77755954  1
  Zr  Zr35  1  0.63295150  0.97860088  0.36927465  1
  Zr  Zr36  1  0.45125792  0.06864701  0.48447922  1
  Zr  Zr37  1  0.50404317  0.47308784  0.12710450  1
  Zr  Zr38  1  0.73350310  0.14029332  0.21113198  1
  Zr  Zr39  1  0.83269977  -0.00936733  0.33874405  1
  Zr  Zr40  1  0.10994759  0.16122840  0.32313559  1
  Zr  Zr41  1  0.88187861  0.42810306  0.74484159  1
  Zr  Zr42  1  0.09131365  0.26592189  0.12990389  1
  Zr  Zr43  1  0.63822828  0.74595874  0.03258340  1
  Zr  Zr44  1  0.91751931  0.62740148  0.23123248  1
  Zr  Zr45  1  0.84463967  0.55469229  0.56917201  1
  Zr  Zr46  1  0.99469394  0.78349892  0.90553267  1
  Zr  Zr47  1  0.46732811  0.45437350  0.50288646  1
  Zr  Zr48  1  0.11488651  0.85181004  0.66461409  1
  Zr  Zr49  1  0.08432221  0.91089916  0.06528115  1
  Sc  Sc50  1  0.45130878  0.49327456  0.88548841  1
  Sc  Sc51  1  0.24745627  0.12294468  0.79709076  1
  Sc  Sc52  1  0.07179469  0.08815266  0.66420477  1
  Sc  Sc53  1  0.94662857  0.20267759  0.81427029  1
  Sc  Sc54  1  0.74217136  0.28478252  0.64968596  1
  Sc  Sc55  1  0.15917559  0.33232989  0.91860962  1
  Sc  Sc56  1  0.94839230  0.07517941  0.14325930  1
  Sc  Sc57  1  0.04031042  0.44293698  0.57728437  1
  Sc  Sc58  1  0.30744685  0.09735945  0.34793769  1
  Sc  Sc59  1  0.73954380  0.71278856  0.68995390  1
  Sc  Sc60  1  0.66180746  0.14691889  0.81228561  1
  Sc  Sc61  1  0.52047616  0.75973378  0.67978870  1
  Sc  Sc62  1  0.18568891  0.07639065  0.14847094  1
  Sc  Sc63  1  0.22273634  0.55509347  0.93698372  1
  Sc  Sc64  1  0.36667779  0.85151156  0.11216868  1
  Sc  Sc65  1  0.30747577  0.26207338  0.21732457  1
  Sc  Sc66  1  0.29368158  0.86761091  0.79493287  1
  Sc  Sc67  1  0.36960108  0.50709385  0.31061540  1
  Sc  Sc68  1  0.33965374  0.29250027  0.42190107  1
  Sc  Sc69  1  0.06827301  0.46278901  0.09118198  1
  Sc  Sc70  1  0.41602900  0.64863283  1.02286917  1
  Sc  Sc71  1  0.35310121  0.31121024  0.83876442  1
  Sc  Sc72  1  0.76966052  0.93944239  0.10303167  1
  Sc  Sc73  1  0.44289495  0.66630915  0.48742802  1
  Sc  Sc74  1  0.45460285  0.11310196  0.91464126  1
  Sc  Sc75  1  0.67018137  0.32867424  0.10187118  1
  Sc  Sc76  1  0.84359937  0.71227124  0.05499041  1
  Sc  Sc77  1  0.17432767  0.56497653  0.24199223  1
  Sc  Sc78  1  0.64840282  0.96665135  0.93679905  1
  Sc  Sc79  1  0.53075926  0.35290903  0.30536407  1
  Sc  Sc80  1  0.80598692  0.15573742  -0.01368686  1
  Sc  Sc81  1  0.79370724  0.59711841  0.88262870  1
  Sc  Sc82  1  0.84014560  0.08025357  0.66670590  1
  Sc  Sc83  1  0.95304736  0.42888572  0.27128720  1
  Sc  Sc84  1  0.62971116  0.08428866  0.59820314  1
  Sc  Sc85  1  0.47204012  0.84244399  0.91865389  1
  Sc  Sc86  1  0.29824112  0.41655460  0.07940107  1
  Sc  Sc87  1  0.32671529  0.85404019  0.45497313  1
  Sc  Sc88  1  0.31545566  -0.02967502  0.62589375  1
  Sc  Sc89  1  0.73346299  0.18661242  0.43530307  1
  Sc  Sc90  1  0.49192547  0.97309871  0.74357358  1
  Sc  Sc91  1  0.92488158  0.84255713  0.19616455  1
  Sc  Sc92  1  0.14829232  0.37682500  0.32708989  1
  Sc  Sc93  1  0.56118966  0.31507721  0.91446522  1
  Sc  Sc94  1  -0.00664197  0.56761348  0.93027755  1
  Sc  Sc95  1  0.07643036  0.68885171  0.08581606  1
  Sc  Sc96  1  0.90415802  0.87703465  0.72722363  1
  Sc  Sc97  1  0.33708611  0.72625524  0.27534303  1
  Sc  Sc98  1  0.33659378  0.34389429  0.63001182  1
  Sc  Sc99  1  0.68276540  0.40441608  0.48895563  1
  Nb  Nb100  1  0.94623096  0.12924806  0.47910657  1
  Nb  Nb101  1  0.36801386  0.67674613  0.82056982  1
  Nb  Nb102  1  0.52760873  0.25366392  0.50956011  1
  Nb  Nb103  1  0.43358963  0.94221879  0.30452775  1
  Nb  Nb104  1  0.60397343  0.12526910  0.06181932  1
  Nb  Nb105  1  0.72730573  0.76739974  0.26331147  1
  Nb  Nb106  1  0.88919265  0.35995901  0.46375137  1
  Nb  Nb107  1  -0.03841955  0.34846587  0.94984877  1
  Nb  Nb108  1  0.46542020  0.26398410  0.09013031  1
  Nb  Nb109  1  0.63509387  0.52507270  0.98784936  1
  Nb  Nb110  1  0.28561717  0.20220236  0.01249494  1
  Nb  Nb111  1  0.22699025  0.65747278  0.43017734  1
  Nb  Nb112  1  0.58467436  0.66775088  0.84904762  1
  Nb  Nb113  1  0.79396557  0.56427418  0.38223449  1
  Nb  Nb114  1  0.62435898  0.57588624  0.57623154  1
  Nb  Nb115  1  0.27753553  0.16133830  0.57817398  1
  Nb  Nb116  1  0.88341568  0.28949847  0.12101640  1
  Nb  Nb117  1  0.46194603  0.55747518  0.68625348  1
  Nb  Nb118  1  0.53755774  0.79516913  0.35216321  1
  Nb  Nb119  1  0.53075627  0.89171345  0.53077600  1
  Nb  Nb120  1  0.77128399  0.80291838  0.88130557  1
  Nb  Nb121  1  0.14545603  0.29129983  0.70754489  1
  Nb  Nb122  1  0.11231946  0.80857453  0.46753477  1
  Nb  Nb123  1  0.15076859  0.68808331  0.79524230  1
  Nb  Nb124  1  0.95124676  0.26741682  0.62365061  1
