# generated using pymatgen
data_Zr2Sc2Nb
_symmetry_space_group_name_H-M   'P 1'
_cell_length_a   13.93640961
_cell_length_b   14.34193900
_cell_length_c   14.34701181
_cell_angle_alpha   89.06745525
_cell_angle_beta   89.10094677
_cell_angle_gamma   90.63373739
_symmetry_Int_Tables_number   1
_chemical_formula_structural   Zr2Sc2Nb
_chemical_formula_sum   'Zr50 Sc50 Nb25'
_cell_volume   2866.69449425
_cell_formula_units_Z   25
loop_
 _symmetry_equiv_pos_site_id
 _symmetry_equiv_pos_as_xyz
  1  'x, y, z'
loop_
 _atom_site_type_symbol
 _atom_site_label
 _atom_site_symmetry_multiplicity
 _atom_site_fract_x
 _atom_site_fract_y
 _atom_site_fract_z
 _atom_site_occupancy
  Zr  Zr0  1  0.26165354  0.25672643  0.45856994  1
  Zr  Zr1  1  0.73868847  0.85410388  0.09114889  1
  Zr  Zr2  1  0.21618332  0.46734361  0.42306312  1
  Zr  Zr3  1  0.30768892  0.88219348  0.67252139  1
  Zr  Zr4  1  0.79678250  0.13375910  0.89462462  1
  Zr  Zr5  1  0.32053599  0.05161336  0.53404015  1
  Zr  Zr6  1  0.47623553  0.41339240  0.32894800  1
  Zr  Zr7  1  0.97736026  0.72775842  0.29328353  1
  Zr  Zr8  1  0.91136533  0.92550998  0.39765894  1
  Zr  Zr9  1  0.33854362  0.13023909  0.09533693  1
  Zr  Zr10  1  0.68692932  0.84788444  0.68847776  1
  Zr  Zr11  1  0.67941866  0.62385603  0.64103991  1
  Zr  Zr12  1  0.10703873  0.22041347  0.59482162  1
  Zr  Zr13  1  0.86841242  0.91516460  0.92810988  1
  Zr  Zr14  1  0.75694542  0.55979882  0.81643276  1
  Zr  Zr15  1  0.64336145  0.16931839  0.28517519  1
  Zr  Zr16  1  0.08950814  0.55633058  0.78951834  1
  Zr  Zr17  1  0.49170293  0.89182509  0.79040575  1
  Zr  Zr18  1  0.96991635  0.15503660  0.75514584  1
  Zr  Zr19  1  0.11314195  0.17397259  0.06273701  1
  Zr  Zr20  1  0.00733757  0.07826576  0.25493664  1
  Zr  Zr21  1  0.36895467  0.20764910  0.87869066  1
  Zr  Zr22  1  0.52716162  0.69090646  0.80148137  1
  Zr  Zr23  1  0.74105411  0.75802700  0.28213273  1
  Zr  Zr24  1  0.15761676  0.98701708  0.12443513  1
  Zr  Zr25  1  0.35735702  0.91071365  0.10375156  1
  Zr  Zr26  1  0.46047909  0.50309247  0.13396697  1
  Zr  Zr27  1  0.64703837  0.04207839  0.08171013  1
  Zr  Zr28  1  0.30155338  0.40618867  0.81259599  1
  Zr  Zr29  1  0.70495369  0.40375090  0.65924952  1
  Zr  Zr30  1  0.59598638  0.08378362  0.74082044  1
  Zr  Zr31  1  0.10453528  0.59318089  0.59251160  1
  Zr  Zr32  1  0.64182825  0.26601061  0.48894144  1
  Zr  Zr33  1  0.17650305  0.65432189  0.94166155  1
  Zr  Zr34  1  0.11697633  0.42330100  0.95424963  1
  Zr  Zr35  1  0.72055494  0.75064240  0.88909107  1
  Zr  Zr36  1  0.93001183  0.08719435  0.55765659  1
  Zr  Zr37  1  0.53190345  0.81998109  1.00312233  1
  Zr  Zr38  1  0.90790856  0.51244370  0.65112998  1
  Zr  Zr39  1  0.12845467  0.76906667  0.72963773  1
  Zr  Zr40  1  0.28209655  0.69939832  0.54790877  1
  Zr  Zr41  1  0.31987507  1.00911205  0.30908779  1
  Zr  Zr42  1  0.48834629  0.75779612  0.61477883  1
  Zr  Zr43  1  0.64422099  0.54925354  0.28417211  1
  Zr  Zr44  1  0.79651136  0.48483402  0.47086166  1
  Zr  Zr45  1  0.15431694  0.23550363  0.85172296  1
  Zr  Zr46  1  0.89311537  0.42392388  0.13048130  1
  Zr  Zr47  1  0.25170645  0.44208968  0.61944395  1
  Zr  Zr48  1  0.66763420  0.95747846  0.89358798  1
  Zr  Zr49  1  0.59862746  0.67400584  0.45415405  1
  Sc  Sc50  1  0.03619095  0.77269730  0.50610638  1
  Sc  Sc51  1  0.74511769  0.99033232  0.27410792  1
  Sc  Sc52  1  0.88446633  0.29794808  0.55892567  1
  Sc  Sc53  1  0.87725574  0.06714719  0.08757694  1
  Sc  Sc54  1  0.08201556  0.51936847  0.26512080  1
  Sc  Sc55  1  0.28618315  0.35964039  0.25048988  1
  Sc  Sc56  1  0.91737046  0.49311200  0.92392689  1
  Sc  Sc57  1  0.70466666  0.34873441  0.88031386  1
  Sc  Sc58  1  0.42709225  0.20053269  0.34572985  1
  Sc  Sc59  1  0.11171585  0.88710926  0.30786250  1
  Sc  Sc60  1  0.32393213  0.81521576  0.90651074  1
  Sc  Sc61  1  0.58948564  0.47105137  0.48946176  1
  Sc  Sc62  1  0.58580129  0.58862735  -0.03374150  1
  Sc  Sc63  1  0.96167033  0.86596344  0.12766082  1
  Sc  Sc64  1  0.44865363  0.54566422  0.62749145  1
  Sc  Sc65  1  0.09131644  0.94844477  0.58511003  1
  Sc  Sc66  1  0.44412124  0.84446593  0.43507496  1
  Sc  Sc67  1  0.17310175  0.74462269  0.14006040  1
  Sc  Sc68  1  0.89702092  0.72044743  0.69572906  1
  Sc  Sc69  1  0.17877363  0.06253639  0.73133151  1
  Sc  Sc70  1  0.88775908  0.34321350  0.77729932  1
  Sc  Sc71  1  0.72626219  0.35918043  0.29133929  1
  Sc  Sc72  1  0.73108205  0.24866599  0.08748247  1
  Sc  Sc73  1  0.94118802  0.26958062  0.97991680  1
  Sc  Sc74  1  0.51618116  0.28518922  0.71875242  1
  Sc  Sc75  1  0.67657583  0.87325213  0.46239057  1
  Sc  Sc76  1  0.95323435  0.70975789  0.89652245  1
  Sc  Sc77  1  0.80844713  0.64694767  0.06459328  1
  Sc  Sc78  1  0.08781419  0.34213345  0.16899939  1
  Sc  Sc79  1  0.55116637  0.86948872  0.23201888  1
  Sc  Sc80  1  0.57677476  0.17882634  0.93540907  1
  Sc  Sc81  1  0.29122053  0.33260828  0.04154117  1
  Sc  Sc82  1  0.70542334  0.06345973  0.53689670  1
  Sc  Sc83  1  0.30473339  0.64727358  0.75449143  1
  Sc  Sc84  1  0.50808120  0.27468585  0.14907794  1
  Sc  Sc85  1  0.24704865  1.02975750  0.92409751  1
  Sc  Sc86  1  0.48525418  0.67423401  0.28046443  1
  Sc  Sc87  1  0.31581926  0.79579801  0.28214062  1
  Sc  Sc88  1  0.30264740  0.57854593  0.25625771  1
  Sc  Sc89  1  0.49428746  0.37531456  0.96054408  1
  Sc  Sc90  1  0.12983770  0.06984891  0.42633588  1
  Sc  Sc91  1  0.54450141  0.48109363  0.78917347  1
  Sc  Sc92  1  0.82580113  0.70703788  0.47936153  1
  Sc  Sc93  1  0.85146161  0.56866383  0.26936901  1
  Sc  Sc94  1  0.84082052  0.17432604  0.38590947  1
  Sc  Sc95  1  0.68343729  0.45861939  0.08845238  1
  Sc  Sc96  1  0.36904251  0.55697071  0.93885256  1
  Sc  Sc97  1  0.98704639  0.92697047  0.76066048  1
  Sc  Sc98  1  0.01925210  0.60495209  0.08646395  1
  Sc  Sc99  1  0.10212790  0.86177543  0.94494559  1
  Nb  Nb100  1  0.20550927  0.16988125  0.25235058  1
  Nb  Nb101  1  0.53519832  0.03283142  0.40124591  1
  Nb  Nb102  1  0.17173735  0.67729202  0.38169725  1
  Nb  Nb103  1  0.08512160  0.37282624  0.72268379  1
  Nb  Nb104  1  0.90534782  0.24060847  0.20573317  1
  Nb  Nb105  1  0.93028709  0.38587243  0.34755797  1
  Nb  Nb106  1  0.22428288  0.52399829  0.09239680  1
  Nb  Nb107  1  0.39337634  0.07103709  0.74059915  1
  Nb  Nb108  1  0.06290469  0.25983508  0.37193235  1
  Nb  Nb109  1  0.49168739  0.05850513  0.19604911  1
  Nb  Nb110  1  0.02388225  0.05820164  0.92641931  1
  Nb  Nb111  1  0.42059881  0.35627898  0.52448131  1
  Nb  Nb112  1  0.48096974  0.16162499  0.55763155  1
  Nb  Nb113  1  0.61369735  0.68339137  0.12906739  1
  Nb  Nb114  1  0.23716171  0.87279957  0.46635885  1
  Nb  Nb115  1  0.39542333  0.57491594  0.43906832  1
  Nb  Nb116  1  0.45946923  1.01463853  -0.04720797  1
  Nb  Nb117  1  0.38474118  0.69383348  0.08973011  1
  Nb  Nb118  1  0.51343805  -0.03569198  0.59319623  1
  Nb  Nb119  1  0.80385627  0.01777736  0.72935985  1
  Nb  Nb120  1  0.74947522  0.20601697  0.69216029  1
  Nb  Nb121  1  0.05031676  0.40516753  0.51999066  1
  Nb  Nb122  1  0.98812800  0.57132456  0.43688870  1
  Nb  Nb123  1  0.86363601  0.89709049  0.58556953  1
  Nb  Nb124  1  0.30343996  0.24085828  0.67139795  1
