# generated using pymatgen
data_Zr2Sc2Nb
_symmetry_space_group_name_H-M   'P 1'
_cell_length_a   14.36769872
_cell_length_b   14.12499749
_cell_length_c   14.20063887
_cell_angle_alpha   90.20162354
_cell_angle_beta   89.83943660
_cell_angle_gamma   90.90326702
_symmetry_Int_Tables_number   1
_chemical_formula_structural   Zr2Sc2Nb
_chemical_formula_sum   'Zr50 Sc50 Nb25'
_cell_volume   2881.54347386
_cell_formula_units_Z   25
loop_
 _symmetry_equiv_pos_site_id
 _symmetry_equiv_pos_as_xyz
  1  'x, y, z'
loop_
 _atom_site_type_symbol
 _atom_site_label
 _atom_site_symmetry_multiplicity
 _atom_site_fract_x
 _atom_site_fract_y
 _atom_site_fract_z
 _atom_site_occupancy
  Zr  Zr0  1  0.73095090  0.99928135  0.32484296  1
  Zr  Zr1  1  0.21540846  0.24261721  0.52865681  1
  Zr  Zr2  1  0.47186384  0.07100615  0.79541704  1
  Zr  Zr3  1  0.51107208  0.48228902  0.46760248  1
  Zr  Zr4  1  0.22622179  0.56497411  0.07288949  1
  Zr  Zr5  1  0.84860254  0.52967045  0.73841393  1
  Zr  Zr6  1  0.89402525  0.14373984  0.39438609  1
  Zr  Zr7  1  0.39708024  0.91417681  0.68080932  1
  Zr  Zr8  1  0.13017405  0.47758133  0.89789316  1
  Zr  Zr9  1  0.03967599  0.08089017  0.22633413  1
  Zr  Zr10  1  0.79354109  0.30511569  0.49523603  1
  Zr  Zr11  1  0.12764120  0.24756034  0.93512633  1
  Zr  Zr12  1  0.28034644  0.82106014  0.51100524  1
  Zr  Zr13  1  0.64676601  -0.01167162  0.86515829  1
  Zr  Zr14  1  0.29394187  0.01432713  0.92094132  1
  Zr  Zr15  1  0.30400404  0.14422906  0.09726694  1
  Zr  Zr16  1  0.04986061  0.07408711  0.82719929  1
  Zr  Zr17  1  0.07891305  0.86671914  0.53006405  1
  Zr  Zr18  1  0.87233453  0.57869336  0.93065766  1
  Zr  Zr19  1  0.18607424  0.71495817  0.67081658  1
  Zr  Zr20  1  0.85043070  0.55771507  0.30085146  1
  Zr  Zr21  1  0.98443775  0.88231776  0.71812040  1
  Zr  Zr22  1  0.06956952  0.41192905  0.09686431  1
  Zr  Zr23  1  0.48549178  0.86852437  0.92808751  1
  Zr  Zr24  1  0.14921069  0.67719031  0.41711653  1
  Zr  Zr25  1  0.85228643  0.18731361  0.85913250  1
  Zr  Zr26  1  0.37480824  0.23385602  0.90843939  1
  Zr  Zr27  1  0.60118836  0.22718622  0.90722135  1
  Zr  Zr28  1  0.66094086  0.59102806  0.79598121  1
  Zr  Zr29  1  0.76517173  0.69750858  0.61120413  1
  Zr  Zr30  1  1.05379587  0.68074714  0.83893118  1
  Zr  Zr31  1  0.49510682  0.49072296  0.69415880  1
  Zr  Zr32  1  0.52004806  0.66370660  0.33477721  1
  Zr  Zr33  1  0.03947246  0.87694788  0.12492889  1
  Zr  Zr34  1  0.69370408  0.48473611  0.58498309  1
  Zr  Zr35  1  0.35341598  0.63005440  0.48310957  1
  Zr  Zr36  1  0.59332805  0.29086936  0.55579965  1
  Zr  Zr37  1  0.43256906  0.93442865  0.13696171  1
  Zr  Zr38  1  0.73052393  0.11620766  0.01882563  1
  Zr  Zr39  1  0.84004320  0.74599464  0.78754198  1
  Zr  Zr40  1  0.66461201  0.54779957  1.01314156  1
  Zr  Zr41  1  0.85350944  0.96153703  0.87177691  1
  Zr  Zr42  1  0.59186240  0.80464329  0.74188765  1
  Zr  Zr43  1  0.67188826  0.15978366  0.72085593  1
  Zr  Zr44  1  0.49778781  0.08117889  1.01365247  1
  Zr  Zr45  1  0.08739766  0.52389668  0.27010574  1
  Zr  Zr46  1  0.76063213  0.37416527  0.92991584  1
  Zr  Zr47  1  0.47554205  0.84766415  0.48523541  1
  Zr  Zr48  1  0.68583212  0.85386644  0.48612044  1
  Zr  Zr49  1  0.30190460  0.42488345  0.42399488  1
  Sc  Sc50  1  0.81741266  0.91792763  0.12722203  1
  Sc  Sc51  1  0.73195597  0.77069754  0.28649258  1
  Sc  Sc52  1  0.39609944  0.69468459  0.70075261  1
  Sc  Sc53  1  0.45195822  0.52048735  0.08371744  1
  Sc  Sc54  1  0.82272019  0.14283681  0.20127929  1
  Sc  Sc55  1  0.99059576  0.67156419  0.61800267  1
  Sc  Sc56  1  0.23720758  0.92793120  0.15074329  1
  Sc  Sc57  1  0.11233714  0.47321836  0.49044250  1
  Sc  Sc58  1  0.26714399  0.51719555  0.64892465  1
  Sc  Sc59  1  0.10157418  0.30077510  0.33337534  1
  Sc  Sc60  1  0.47828665  0.64427780  0.90039381  1
  Sc  Sc61  1  0.89059173  0.73882790  0.44345639  1
  Sc  Sc62  1  0.35947382  0.45984892  0.85938562  1
  Sc  Sc63  1  0.55262410  0.88868633  0.28895644  1
  Sc  Sc64  1  0.23685805  0.13138848  0.31402933  1
  Sc  Sc65  1  0.86164603  0.46906152  0.10807238  1
  Sc  Sc66  1  0.88800361  0.34321049  0.29245728  1
  Sc  Sc67  1  0.05025649  0.26068286  0.73481242  1
  Sc  Sc68  1  0.27905796  0.36571921  0.03321464  1
  Sc  Sc69  1  0.14881179  0.89186942  0.33576744  1
  Sc  Sc70  1  0.92559758  0.26292945  0.05572476  1
  Sc  Sc71  1  0.92789583  0.78948009  -0.02319340  1
  Sc  Sc72  1  0.80920325  0.68204457  0.11724186  1
  Sc  Sc73  1  0.46345675  0.27220518  0.38468000  1
  Sc  Sc74  1  0.43734997  0.13918471  0.58825922  1
  Sc  Sc75  1  0.94551877  0.05816726  0.02612731  1
  Sc  Sc76  1  0.24357871  0.33424548  0.74780024  1
  Sc  Sc77  1  0.18961225  0.93033849  0.71634611  1
  Sc  Sc78  1  0.57097845  0.72632932  0.12209911  1
  Sc  Sc79  1  0.76377933  0.92830635  0.68223565  1
  Sc  Sc80  1  0.69039228  0.33456160  0.15467047  1
  Sc  Sc81  1  0.48760922  0.28778873  0.10683851  1
  Sc  Sc82  1  0.92964734  0.92463997  0.31734564  1
  Sc  Sc83  1  0.98365490  0.71967114  0.25510042  1
  Sc  Sc84  1  0.88879199  0.11855729  0.65627830  1
  Sc  Sc85  1  0.71980854  0.09662466  0.51999492  1
  Sc  Sc86  1  0.26239525  0.02852857  0.51955690  1
  Sc  Sc87  1  0.31892207  0.56906746  0.27031391  1
  Sc  Sc88  1  0.69697649  0.77837384  0.94539547  1
  Sc  Sc89  1  0.00505031  0.27514205  0.52743694  1
  Sc  Sc90  1  0.89138255  0.50429261  0.50449551  1
  Sc  Sc91  1  0.26805611  0.13231125  0.72798754  1
  Sc  Sc92  1  0.53983819  0.06201384  0.41825689  1
  Sc  Sc93  1  0.35734320  0.73477748  0.07389033  1
  Sc  Sc94  1  0.89496052  0.95732169  0.51774000  1
  Sc  Sc95  1  0.56134538  0.67246431  0.56826375  1
  Sc  Sc96  1  0.85338949  0.33018498  0.69654562  1
  Sc  Sc97  1  0.29202779  0.81514122  0.85778969  1
  Sc  Sc98  1  0.30478370  0.33272458  0.23409940  1
  Sc  Sc99  1  0.05095381  0.47684133  0.70043323  1
  Nb  Nb100  1  0.38592428  0.34720926  0.58716429  1
  Nb  Nb101  1  0.66031230  0.55143606  0.21912370  1
  Nb  Nb102  1  0.08812768  0.90272742  0.90846939  1
  Nb  Nb103  1  0.35855323  0.96165786  0.34456168  1
  Nb  Nb104  1  0.25530776  0.62670456  0.86381341  1
  Nb  Nb105  1  0.34435294  0.77845297  0.30297042  1
  Nb  Nb106  1  0.95579096  0.38947834  0.88831988  1
  Nb  Nb107  1  0.13462270  0.05754670  0.03034287  1
  Nb  Nb108  1  0.02545969  0.61868403  0.07148079  1
  Nb  Nb109  1  0.66174040  0.37475015  0.75366663  1
  Nb  Nb110  1  0.54431636  0.41800190  0.91223666  1
  Nb  Nb111  1  0.57725123  0.98375664  0.62953302  1
  Nb  Nb112  1  0.70096290  0.61331690  0.42350142  1
  Nb  Nb113  1  0.15788903  0.75504336  1.00944027  1
  Nb  Nb114  1  0.50044823  0.44487479  0.27067412  1
  Nb  Nb115  1  0.60936282  0.10471325  0.19313146  1
  Nb  Nb116  1  0.68159907  0.41799843  0.36588655  1
  Nb  Nb117  1  0.12848954  0.23045015  0.13801448  1
  Nb  Nb118  1  0.43367912  0.11822970  0.24114426  1
  Nb  Nb119  1  0.07208285  0.07599844  0.43389830  1
  Nb  Nb120  1  0.08219824  0.07698293  0.61834431  1
  Nb  Nb121  1  0.67647392  0.21947451  0.34385289  1
  Nb  Nb122  1  0.62723571  0.93364722  0.08605568  1
  Nb  Nb123  1  0.47534403  0.28662300  0.74742338  1
  Nb  Nb124  1  0.17854933  0.71738278  0.20525724  1
