# generated using pymatgen
data_Zr2Sc2Nb
_symmetry_space_group_name_H-M   'P 1'
_cell_length_a   14.17525344
_cell_length_b   14.33242494
_cell_length_c   14.13625064
_cell_angle_alpha   89.09893238
_cell_angle_beta   89.04818043
_cell_angle_gamma   90.18148365
_symmetry_Int_Tables_number   1
_chemical_formula_structural   Zr2Sc2Nb
_chemical_formula_sum   'Zr50 Sc50 Nb25'
_cell_volume   2871.23377068
_cell_formula_units_Z   25
loop_
 _symmetry_equiv_pos_site_id
 _symmetry_equiv_pos_as_xyz
  1  'x, y, z'
loop_
 _atom_site_type_symbol
 _atom_site_label
 _atom_site_symmetry_multiplicity
 _atom_site_fract_x
 _atom_site_fract_y
 _atom_site_fract_z
 _atom_site_occupancy
  Zr  Zr0  1  0.93547977  0.24279489  0.60748146  1
  Zr  Zr1  1  0.98941316  0.32403560  0.43290325  1
  Zr  Zr2  1  0.79590715  0.67487300  0.52633890  1
  Zr  Zr3  1  0.93404129  0.94205103  0.26422376  1
  Zr  Zr4  1  0.11621541  0.41754208  0.56758258  1
  Zr  Zr5  1  0.78063963  0.31811777  0.92560324  1
  Zr  Zr6  1  0.83984396  0.14844103  0.42236336  1
  Zr  Zr7  1  0.51057171  0.56717696  0.78257642  1
  Zr  Zr8  1  0.73508776  0.67147537  0.13954166  1
  Zr  Zr9  1  0.56494950  0.79383351  0.08247010  1
  Zr  Zr10  1  0.88586297  0.92460317  0.47704025  1
  Zr  Zr11  1  0.49145314  0.48398077  0.37793417  1
  Zr  Zr12  1  0.83344322  0.33720967  0.28877762  1
  Zr  Zr13  1  0.89188873  0.41125133  0.72972589  1
  Zr  Zr14  1  0.38797384  0.02864603  0.70359516  1
  Zr  Zr15  1  0.83445440  0.44592861  0.09702025  1
  Zr  Zr16  1  0.96025628  0.04271905  0.64618352  1
  Zr  Zr17  1  0.09828675  0.50763495  0.75356356  1
  Zr  Zr18  1  0.62282155  0.68488158  0.34804362  1
  Zr  Zr19  1  0.63314505  0.16394970  0.46937400  1
  Zr  Zr20  1  0.09892471  0.71584016  0.01338350  1
  Zr  Zr21  1  0.46856478  0.91594640  0.87831356  1
  Zr  Zr22  1  0.68010231  0.84396760  0.51605370  1
  Zr  Zr23  1  0.74965556  0.93000263  0.13345259  1
  Zr  Zr24  1  0.58011744  0.01539806  0.03107397  1
  Zr  Zr25  1  0.48239317  0.38084743  0.16264479  1
  Zr  Zr26  1  0.28235613  0.79421256  0.90045239  1
  Zr  Zr27  1  0.21111792  0.69587072  0.33348765  1
  Zr  Zr28  1  0.27784908  0.79375203  0.49001238  1
  Zr  Zr29  1  0.25806695  0.58542873  0.90708964  1
  Zr  Zr30  1  0.09291537  0.06702756  0.20834734  1
  Zr  Zr31  1  0.40175651  0.29012423  0.34057427  1
  Zr  Zr32  1  0.91511087  0.49922953  0.52948659  1
  Zr  Zr33  1  0.58703276  0.25849312  0.96041538  1
  Zr  Zr34  1  0.31608732  0.51442184  0.28466886  1
  Zr  Zr35  1  0.14688207  0.54920372  0.14459062  1
  Zr  Zr36  1  0.32666490  0.66113546  0.70342187  1
  Zr  Zr37  1  0.59309714  0.68131250  0.60613674  1
  Zr  Zr38  1  0.69917074  0.84137396  0.92634883  1
  Zr  Zr39  1  0.23953049  0.85874507  0.70574573  1
  Zr  Zr40  1  0.68931948  0.49714010  0.44501632  1
  Zr  Zr41  1  0.23679324  0.19802710  0.87063852  1
  Zr  Zr42  1  0.98806673  0.34193674  0.90739024  1
  Zr  Zr43  1  0.92581182  0.63357430  0.70524508  1
  Zr  Zr44  1  0.12954594  0.89883064  0.34592605  1
  Zr  Zr45  1  0.42318806  0.74632843  0.26813733  1
  Zr  Zr46  1  0.43552955  0.66690916  0.46795568  1
  Zr  Zr47  1  0.24532080  0.99236955  0.88827943  1
  Zr  Zr48  1  0.61872604  0.30967733  0.32769860  1
  Zr  Zr49  1  0.31935554  0.93501660  0.27665698  1
  Sc  Sc50  1  0.04494652  0.25778868  0.25227494  1
  Sc  Sc51  1  0.06746175  0.52047209  0.34864554  1
  Sc  Sc52  1  0.33684864  0.23933185  0.69054708  1
  Sc  Sc53  1  0.46078476  0.50229067  0.60113537  1
  Sc  Sc54  1  0.63246226  0.91064542  0.71977906  1
  Sc  Sc55  1  0.47391261  0.16802179  0.14389779  1
  Sc  Sc56  1  0.85613011  0.56508101  0.31452604  1
  Sc  Sc57  1  0.17386737  0.06678249  0.68399262  1
  Sc  Sc58  1  0.63820545  0.45356587  0.04307536  1
  Sc  Sc59  1  0.09281863  0.90303759  0.54708118  1
  Sc  Sc60  1  0.75160712  0.06844124  0.61897296  1
  Sc  Sc61  1  0.18142622  0.21364758  0.52262937  1
  Sc  Sc62  1  0.03736921  0.08859347  0.42108996  1
  Sc  Sc63  1  0.28477328  0.71136489  0.12267738  1
  Sc  Sc64  1  0.44005443  0.12818636  0.88498761  1
  Sc  Sc65  1  0.10377521  0.28041843  0.73354742  1
  Sc  Sc66  1  0.70501629  0.97561872  0.36031853  1
  Sc  Sc67  1  0.66170221  0.08516491  0.83868290  1
  Sc  Sc68  1  0.84072024  0.83896328  0.67651451  1
  Sc  Sc69  1  0.66011436  0.11537500  0.22234033  1
  Sc  Sc70  1  0.86546823  0.17238470  0.80934659  1
  Sc  Sc71  1  0.10164569  0.20552298  0.03814620  1
  Sc  Sc72  1  0.95341670  0.02984053  0.05110818  1
  Sc  Sc73  1  0.18559663  0.39840680  0.95735962  1
  Sc  Sc74  1  0.81157040  0.78158660  0.31162887  1
  Sc  Sc75  1  0.48682114  0.87064733  0.41715051  1
  Sc  Sc76  1  0.04691655  0.08858430  0.85499299  1
  Sc  Sc77  1  0.90789728  0.74127343  0.88830059  1
  Sc  Sc78  1  0.55240890  0.33247685  0.55300860  1
  Sc  Sc79  1  0.44541235  0.83451578  0.63276647  1
  Sc  Sc80  1  0.12085542  0.68164196  0.60436655  1
  Sc  Sc81  1  0.47559347  0.07822368  0.34693303  1
  Sc  Sc82  1  0.30802756  0.43357880  0.75681122  1
  Sc  Sc83  1  0.25400182  0.14385416  0.32422020  1
  Sc  Sc84  1  0.70723288  0.27916619  0.70665932  1
  Sc  Sc85  1  0.82905077  0.54215123  0.89829813  1
  Sc  Sc86  1  0.30062627  0.99951155  0.49818693  1
  Sc  Sc87  1  0.93513534  0.61590488  0.10548311  1
  Sc  Sc88  1  0.70945908  0.50027693  0.65149361  1
  Sc  Sc89  1  0.63638360  0.63315190  0.95136324  1
  Sc  Sc90  1  0.24460924  0.32290126  0.16624757  1
  Sc  Sc91  1  0.25986719  0.55214875  0.49593177  1
  Sc  Sc92  1  0.37418864  0.30425486  0.98240565  1
  Sc  Sc93  1  0.38206430  0.90177427  0.07405022  1
  Sc  Sc94  1  0.51001090  0.59236795  0.15805959  1
  Sc  Sc95  1  0.28284755  0.09641248  0.08204965  1
  Sc  Sc96  1  0.03064627  0.74283261  0.23126736  1
  Sc  Sc97  1  0.99095700  0.72554303  0.44473836  1
  Sc  Sc98  1  0.86254997  0.95959300  0.86723871  1
  Sc  Sc99  1  0.15412816  0.89679944  0.11476612  1
  Nb  Nb100  1  0.41250033  0.17217700  0.51743495  1
  Nb  Nb101  1  0.54209967  0.93025754  0.22043637  1
  Nb  Nb102  1  0.67293888  0.48719915  0.24105572  1
  Nb  Nb103  1  0.03724539  0.87577124  0.74429644  1
  Nb  Nb104  1  0.86428971  0.12445610  0.22243660  1
  Nb  Nb105  1  0.50312671  0.33833489  0.77876528  1
  Nb  Nb106  1  0.06511550  0.88833300  0.92672758  1
  Nb  Nb107  1  0.54109749  0.00935438  0.54952763  1
  Nb  Nb108  1  0.52607433  0.75334023  0.81230469  1
  Nb  Nb109  1  0.90217054  0.24606235  0.08333175  1
  Nb  Nb110  1  0.43228699  0.67904645  0.97233263  1
  Nb  Nb111  1  0.90877523  0.82567781  0.07611839  1
  Nb  Nb112  1  0.11288059  0.70620560  0.80850345  1
  Nb  Nb113  1  0.03080339  0.54354793  0.93676795  1
  Nb  Nb114  1  0.54229503  0.15440670  0.67937050  1
  Nb  Nb115  1  0.77732041  0.32825538  0.50836335  1
  Nb  Nb116  1  0.19978686  0.36282582  0.37158747  1
  Nb  Nb117  1  0.70242926  0.28389857  0.13492051  1
  Nb  Nb118  1  0.02640756  0.40611661  0.11086038  1
  Nb  Nb119  1  0.33554295  0.36415360  0.51536300  1
  Nb  Nb120  1  0.33359891  0.50482961  0.07826623  1
  Nb  Nb121  1  0.46337282  0.47445261  0.94442652  1
  Nb  Nb122  1  0.71913219  0.68299285  0.76438085  1
  Nb  Nb123  1  0.65573736  0.44460177  0.83845112  1
  Nb  Nb124  1  0.76279727  0.12029384  0.02188828  1
