# generated using pymatgen
data_Zr2Sc2Nb
_symmetry_space_group_name_H-M   'P 1'
_cell_length_a   14.20300603
_cell_length_b   14.28560394
_cell_length_c   14.19715279
_cell_angle_alpha   88.74357658
_cell_angle_beta   90.04453157
_cell_angle_gamma   89.69014646
_symmetry_Int_Tables_number   1
_chemical_formula_structural   Zr2Sc2Nb
_chemical_formula_sum   'Zr50 Sc50 Nb25'
_cell_volume   2879.84544011
_cell_formula_units_Z   25
loop_
 _symmetry_equiv_pos_site_id
 _symmetry_equiv_pos_as_xyz
  1  'x, y, z'
loop_
 _atom_site_type_symbol
 _atom_site_label
 _atom_site_symmetry_multiplicity
 _atom_site_fract_x
 _atom_site_fract_y
 _atom_site_fract_z
 _atom_site_occupancy
  Zr  Zr0  1  0.42944373  0.86115212  0.05840250  1
  Zr  Zr1  1  0.67113787  0.67235113  0.57078278  1
  Zr  Zr2  1  0.93041893  0.08274614  0.78228887  1
  Zr  Zr3  1  0.57274053  0.86328379  0.65487390  1
  Zr  Zr4  1  0.29194624  0.56739439  0.89568619  1
  Zr  Zr5  1  0.98576532  0.14810965  0.32546141  1
  Zr  Zr6  1  0.10447573  0.67453053  0.93721346  1
  Zr  Zr7  1  0.06739387  0.35204894  0.26125782  1
  Zr  Zr8  1  0.51869635  0.82993801  0.24115744  1
  Zr  Zr9  1  0.40514193  0.16605657  0.35979742  1
  Zr  Zr10  1  0.01696955  0.24426306  0.88980105  1
  Zr  Zr11  1  0.31634058  0.84459117  0.44801425  1
  Zr  Zr12  1  0.76837215  0.10332191  0.37471834  1
  Zr  Zr13  1  0.14389307  0.13390882  0.73081853  1
  Zr  Zr14  1  0.70457335  0.52933157  0.75757603  1
  Zr  Zr15  1  0.70633801  0.44389537  0.32972906  1
  Zr  Zr16  1  0.46142939  0.63246560  0.17294081  1
  Zr  Zr17  1  0.81015643  0.84615712  0.07639857  1
  Zr  Zr18  1  0.48403733  0.27738766  0.50286151  1
  Zr  Zr19  1  0.20031755  0.87920691  0.04200490  1
  Zr  Zr20  1  0.58883543  0.47956844  0.48882753  1
  Zr  Zr21  1  0.71032588  0.36098667  0.11479112  1
  Zr  Zr22  1  0.09408444  0.05100846  0.93224539  1
  Zr  Zr23  1  0.31446977  0.36927134  0.90845096  1
  Zr  Zr24  1  0.35631452  0.97868809  0.30141415  1
  Zr  Zr25  1  0.29937365  0.79652981  0.22382559  1
  Zr  Zr26  1  0.27921205  0.96570640  0.84897804  1
  Zr  Zr27  1  0.63965073  0.95791355  0.09682784  1
  Zr  Zr28  1  0.59278841  0.25148336  0.28886296  1
  Zr  Zr29  1  0.75417326  0.21016983  0.70367082  1
  Zr  Zr30  1  0.72786725  0.91705633  0.51935115  1
  Zr  Zr31  1  0.68360604  0.34443110  0.89597947  1
  Zr  Zr32  1  0.88585299  0.25808512  0.49668449  1
  Zr  Zr33  1  0.16675155  0.93640241  0.65793651  1
  Zr  Zr34  1  0.87504560  0.77534891  0.49775718  1
  Zr  Zr35  1  0.87751092  0.61490234  0.64917249  1
  Zr  Zr36  1  0.60035609  0.33967285  0.67957669  1
  Zr  Zr37  1  0.88322401  0.40599003  -0.00797019  1
  Zr  Zr38  1  0.65603565  0.88105110  0.90206082  1
  Zr  Zr39  1  0.02885967  0.62978685  0.49066901  1
  Zr  Zr40  1  0.36128106  0.87491290  0.65231579  1
  Zr  Zr41  1  0.87251787  0.47106452  0.19294563  1
  Zr  Zr42  1  0.08528516  0.57110754  0.71815480  1
  Zr  Zr43  1  0.62327504  0.10510298  0.55318643  1
  Zr  Zr44  1  0.96128128  0.80799193  0.28805047  1
  Zr  Zr45  1  -0.00110106  0.88260089  0.04560728  1
  Zr  Zr46  1  0.09603975  0.86288705  0.47421822  1
  Zr  Zr47  1  0.60237968  0.65009889  0.34366203  1
  Zr  Zr48  1  0.77836868  0.42722961  0.57794092  1
  Zr  Zr49  1  0.94857661  0.74433831  0.82054871  1
  Sc  Sc50  1  0.91970514  0.96769012  0.41643648  1
  Sc  Sc51  1  0.19964261  0.15145120  0.29969878  1
  Sc  Sc52  1  0.81651646  0.58580036  0.43168874  1
  Sc  Sc53  1  0.23628079  0.54976909  0.28245950  1
  Sc  Sc54  1  0.09063884  0.71852850  0.15257601  1
  Sc  Sc55  1  0.35187366  0.23633350  0.13969912  1
  Sc  Sc56  1  0.53640873  0.84206484  0.44455657  1
  Sc  Sc57  1  0.07172789  0.08726814  0.13031610  1
  Sc  Sc58  1  0.89177099  0.63902729  1.05061321  1
  Sc  Sc59  1  0.48135868  0.44712342  0.28591501  1
  Sc  Sc60  1  0.73659699  -0.00919050  0.72860665  1
  Sc  Sc61  1  0.30244074  0.44155150  0.11286673  1
  Sc  Sc62  1  0.48254641  0.06894988  0.16787302  1
  Sc  Sc63  1  0.73611673  0.87827853  0.29368502  1
  Sc  Sc64  1  0.48874234  0.24722168  0.85291168  1
  Sc  Sc65  1  0.82676697  0.28521455  0.29206122  1
  Sc  Sc66  1  0.05284221  0.08630774  0.53881755  1
  Sc  Sc67  1  0.23993864  0.67715506  0.55264088  1
  Sc  Sc68  1  0.09942334  0.44163745  0.89192810  1
  Sc  Sc69  1  0.45776103  0.68498191  0.55485327  1
  Sc  Sc70  1  0.28318184  0.34386938  0.33778701  1
  Sc  Sc71  1  0.72968787  0.13627289  0.15620682  1
  Sc  Sc72  1  0.16333625  0.47190012  0.48632849  1
  Sc  Sc73  1  0.27578170  0.65144171  0.08220203  1
  Sc  Sc74  1  0.46699335  0.86326485  0.83966963  1
  Sc  Sc75  1  0.79931918  0.67967890  0.24091346  1
  Sc  Sc76  1  0.58055265  0.02847695  0.34644529  1
  Sc  Sc77  1  0.50958132  0.44406386  0.05072839  1
  Sc  Sc78  1  0.29554773  0.52176991  0.69401867  1
  Sc  Sc79  1  0.38072474  0.33216333  0.68679447  1
  Sc  Sc80  1  0.01277351  0.58400880  0.29133551  1
  Sc  Sc81  1  0.87055720  0.36988542  0.77441191  1
  Sc  Sc82  1  0.49939771  0.48099550  0.84580480  1
  Sc  Sc83  1  0.08176991  0.49941039  0.09516802  1
  Sc  Sc84  1  0.68320207  0.10983244  0.91335081  1
  Sc  Sc85  1  0.13439500  0.93825158  0.26983988  1
  Sc  Sc86  1  0.45833274  0.05104226  0.95841496  1
  Sc  Sc87  1  0.90049364  0.55328638  0.85417832  1
  Sc  Sc88  1  0.93598640  0.91726799  0.65635318  1
  Sc  Sc89  1  0.34505441  0.10818481  0.68379747  1
  Sc  Sc90  1  0.37560719  0.47795920  0.48846524  1
  Sc  Sc91  1  0.53685909  0.06106864  0.74559189  1
  Sc  Sc92  1  0.50299100  0.66747282  0.96131738  1
  Sc  Sc93  1  0.14994406  0.28194783  0.06011437  1
  Sc  Sc94  1  0.09501658  0.27980983  0.47413857  1
  Sc  Sc95  1  0.16074933  0.34490016  0.70048065  1
  Sc  Sc96  1  0.87702807  0.06917922  0.00308964  1
  Sc  Sc97  1  0.55466635  0.23290338  0.05502433  1
  Sc  Sc98  1  0.27291356  0.17116356  0.91402641  1
  Sc  Sc99  1  0.92992774  0.24536497  0.11612332  1
  Nb  Nb100  1  0.97899096  0.24047429  0.66729946  1
  Nb  Nb101  1  0.51247927  0.52382993  0.65854140  1
  Nb  Nb102  1  0.24995009  0.03968729  0.48524667  1
  Nb  Nb103  1  0.84043974  0.08861932  0.57330072  1
  Nb  Nb104  1  0.68797841  0.27704180  0.47730475  1
  Nb  Nb105  1  0.65941810  0.55415489  0.15715998  1
  Nb  Nb106  1  0.40734606  0.68341539  0.75516938  1
  Nb  Nb107  1  0.30058397  0.77117625  0.91260084  1
  Nb  Nb108  1  0.16474492  0.72319155  0.35545582  1
  Nb  Nb109  1  0.27947802  0.22809601  0.52642276  1
  Nb  Nb110  1  0.77197010  0.78554208  0.71266582  1
  Nb  Nb111  1  0.86430232  0.90898959  0.87621671  1
  Nb  Nb112  1  0.59779610  0.69223251  0.77555023  1
  Nb  Nb113  1  0.89212290  1.00222952  0.20658368  1
  Nb  Nb114  1  0.21102985  0.73888880  0.75386129  1
  Nb  Nb115  1  0.05029320  0.75619844  0.64414441  1
  Nb  Nb116  1  0.08838929  0.87812437  0.84035404  1
  Nb  Nb117  1  0.64377077  0.73789732  0.09384725  1
  Nb  Nb118  1  0.98451468  0.43386145  0.60008393  1
  Nb  Nb119  1  0.75302244  0.71170378  0.90443586  1
  Nb  Nb120  1  0.94237730  0.42822259  0.40624420  1
  Nb  Nb121  1  0.27805739  0.04378921  0.10034965  1
  Nb  Nb122  1  0.39022449  0.66796723  0.36168490  1
  Nb  Nb123  1  0.69599848  0.54048440  0.96817867  1
  Nb  Nb124  1  0.44141986  0.02665263  0.51744590  1
