# generated using pymatgen
data_Zr2Sc2Nb
_symmetry_space_group_name_H-M   'P 1'
_cell_length_a   14.25936304
_cell_length_b   14.08231089
_cell_length_c   14.33794183
_cell_angle_alpha   90.94444905
_cell_angle_beta   89.53137766
_cell_angle_gamma   89.89412105
_symmetry_Int_Tables_number   1
_chemical_formula_structural   Zr2Sc2Nb
_chemical_formula_sum   'Zr50 Sc50 Nb25'
_cell_volume   2878.63421407
_cell_formula_units_Z   25
loop_
 _symmetry_equiv_pos_site_id
 _symmetry_equiv_pos_as_xyz
  1  'x, y, z'
loop_
 _atom_site_type_symbol
 _atom_site_label
 _atom_site_symmetry_multiplicity
 _atom_site_fract_x
 _atom_site_fract_y
 _atom_site_fract_z
 _atom_site_occupancy
  Zr  Zr0  1  0.52166853  0.07826757  0.27009009  1
  Zr  Zr1  1  0.06339749  0.13826263  0.75678547  1
  Zr  Zr2  1  0.06676211  0.09502393  0.13279860  1
  Zr  Zr3  1  0.78241127  0.51034814  0.29330330  1
  Zr  Zr4  1  0.10898118  0.73928353  0.96820392  1
  Zr  Zr5  1  0.21888764  0.33071077  0.60488038  1
  Zr  Zr6  1  0.87492526  0.26459993  0.65780684  1
  Zr  Zr7  1  0.22578119  0.86595172  0.34687070  1
  Zr  Zr8  1  0.36690859  0.26008812  0.74420134  1
  Zr  Zr9  1  0.85647158  0.69880393  0.41311669  1
  Zr  Zr10  1  0.85390803  0.05800500  0.83177070  1
  Zr  Zr11  1  0.49894756  0.63472831  0.76270784  1
  Zr  Zr12  1  0.70507914  0.16627843  0.76434156  1
  Zr  Zr13  1  0.63410387  0.98503287  0.69761445  1
  Zr  Zr14  1  0.04536224  0.55324522  0.87602879  1
  Zr  Zr15  1  0.56344665  0.51860913  0.21489755  1
  Zr  Zr16  1  0.72215515  0.79229717  0.10554846  1
  Zr  Zr17  1  0.42311147  0.46991819  0.89793266  1
  Zr  Zr18  1  0.85088507  0.48437384  0.49018622  1
  Zr  Zr19  1  0.16381473  0.95411593  0.97867655  1
  Zr  Zr20  1  0.42989856  0.88850399  0.36463248  1
  Zr  Zr21  1  0.33724310  0.69887840  0.22055568  1
  Zr  Zr22  1  0.04407942  0.19817890  0.54840694  1
  Zr  Zr23  1  0.94769575  0.36723967  0.27594484  1
  Zr  Zr24  1  0.90415099  0.68019130  0.00866738  1
  Zr  Zr25  1  0.34383680  0.48242082  0.69143704  1
  Zr  Zr26  1  0.83396559  0.88780476  0.31462522  1
  Zr  Zr27  1  0.89227011  0.69982653  0.20281685  1
  Zr  Zr28  1  0.22933362  0.41375652  0.85156990  1
  Zr  Zr29  1  0.58872704  0.45826197  0.40704115  1
  Zr  Zr30  1  0.82993990  0.87413664  0.71842439  1
  Zr  Zr31  1  0.69429974  0.30174785  0.30924605  1
  Zr  Zr32  1  0.53918503  0.41185008  0.70670106  1
  Zr  Zr33  1  0.71661656  0.26632368  0.95894900  1
  Zr  Zr34  1  0.68488812  0.69616851  0.28093884  1
  Zr  Zr35  1  0.11898944  1.00789381  0.46082210  1
  Zr  Zr36  1  0.37732730  0.50462153  0.33922073  1
  Zr  Zr37  1  0.14820277  0.77911345  0.53198095  1
  Zr  Zr38  1  0.34258357  0.70877119  0.44828496  1
  Zr  Zr39  1  0.87026801  0.16169045  0.24482340  1
  Zr  Zr40  1  0.65307191  0.76862255  0.71057434  1
  Zr  Zr41  1  0.95493199  0.86693732  0.51168691  1
  Zr  Zr42  1  0.85632287  0.69103700  0.61449569  1
  Zr  Zr43  1  0.79450224  0.89092565  0.94443889  1
  Zr  Zr44  1  0.31018633  0.91067230  0.55923413  1
  Zr  Zr45  1  0.36867336  0.10061809  0.43745411  1
  Zr  Zr46  1  0.14281861  0.53657866  0.66926724  1
  Zr  Zr47  1  0.03030951  0.61387568  0.51630658  1
  Zr  Zr48  1  0.15012562  0.23175569  0.93729972  1
  Zr  Zr49  1  0.56813857  0.21385085  0.44540069  1
  Sc  Sc50  1  0.90350494  0.04919274  0.62857119  1
  Sc  Sc51  1  0.85208064  0.46822617  0.93905361  1
  Sc  Sc52  1  0.40283179  0.94724954  0.95202451  1
  Sc  Sc53  1  0.06828265  0.19730687  0.33653351  1
  Sc  Sc54  1  0.67130705  0.64175941  0.49914008  1
  Sc  Sc55  1  0.27370576  0.07746935  0.82423783  1
  Sc  Sc56  1  0.84503944  0.68134349  0.82168545  1
  Sc  Sc57  1  0.05370828  0.72384848  0.72784586  1
  Sc  Sc58  1  0.28265922  0.09802152  0.05646648  1
  Sc  Sc59  1  0.23781631  0.07519784  0.27451223  1
  Sc  Sc60  1  0.85564604  0.26235635  0.44291660  1
  Sc  Sc61  1  0.51327608  0.76670049  0.13248848  1
  Sc  Sc62  1  0.98117812  0.29163217  0.07362049  1
  Sc  Sc63  1  0.51720020  0.80301415  0.54965360  1
  Sc  Sc64  1  0.23324832  0.11953218  0.60657896  1
  Sc  Sc65  1  0.12620320  0.45044643  0.03948287  1
  Sc  Sc66  1  0.37623187  0.93685769  0.17229144  1
  Sc  Sc67  1  0.75841343  -0.00948999  0.16017181  1
  Sc  Sc68  1  0.47185130  0.57103461  0.54669193  1
  Sc  Sc69  1  0.26350831  0.29999436  0.38429366  1
  Sc  Sc70  1  0.56029570  1.00867647  0.48511418  1
  Sc  Sc71  1  0.70040190  0.55565104  0.69921159  1
  Sc  Sc72  1  0.42976871  0.05229324  0.65143230  1
  Sc  Sc73  1  0.90945150  0.49135782  0.70479432  1
  Sc  Sc74  1  0.69438874  0.35381482  0.56423527  1
  Sc  Sc75  1  0.99400136  0.88282078  0.85892140  1
  Sc  Sc76  1  0.25704553  0.63353602  0.83813715  1
  Sc  Sc77  1  0.28396817  0.59437326  0.03201972  1
  Sc  Sc78  1  0.63571566  0.47942878  0.90833842  1
  Sc  Sc79  1  0.96069693  0.89279151  0.09319177  1
  Sc  Sc80  1  0.42315715  0.34781826  0.52226623  1
  Sc  Sc81  1  0.46694775  0.29717776  0.27062010  1
  Sc  Sc82  1  0.77546454  0.36863291  0.12911453  1
  Sc  Sc83  1  0.20540942  0.27008320  0.15128288  1
  Sc  Sc84  1  0.48933987  0.14964508  0.05092954  1
  Sc  Sc85  1  0.58982403  0.88536390  0.89024897  1
  Sc  Sc86  1  0.84888201  0.12047262  0.03908623  1
  Sc  Sc87  1  0.10885009  0.66470693  0.15869187  1
  Sc  Sc88  1  0.09943754  0.94601880  0.67293673  1
  Sc  Sc89  1  0.06858282  0.40362385  0.46377785  1
  Sc  Sc90  1  0.24822534  0.84723420  0.81294990  1
  Sc  Sc91  1  0.17855178  0.63590310  0.35766427  1
  Sc  Sc92  1  0.31965795  0.70666776  0.65464083  1
  Sc  Sc93  1  0.65040428  0.68890010  0.92577170  1
  Sc  Sc94  1  0.15864266  0.45418662  0.25637342  1
  Sc  Sc95  1  0.35665000  0.42605513  0.12301703  1
  Sc  Sc96  1  0.91549031  0.26514908  0.87032628  1
  Sc  Sc97  1  0.55229913  0.35961671  0.06795172  1
  Sc  Sc98  1  0.73604971  0.89097571  0.51055198  1
  Sc  Sc99  1  0.06375628  0.34948929  0.74393549  1
  Nb  Nb100  1  0.66352193  0.17213592  0.15431460  1
  Nb  Nb101  1  0.90457621  0.05914803  0.42783288  1
  Nb  Nb102  1  0.72868635  0.12599939  0.55122683  1
  Nb  Nb103  1  0.35621563  0.27091581  0.95106053  1
  Nb  Nb104  1  0.16041275  0.88212328  0.16656165  1
  Nb  Nb105  1  0.03533219  0.78525367  0.33345493  1
  Nb  Nb106  1  0.61737165  0.89008164  0.29566988  1
  Nb  Nb107  1  0.57589422  0.96244738  0.09457470  1
  Nb  Nb108  1  0.29073189  0.79577496  0.03829777  1
  Nb  Nb109  1  0.55770435  0.21161609  0.65345994  1
  Nb  Nb110  1  0.66211556  0.06902000  0.95435158  1
  Nb  Nb111  1  0.72470249  0.57572493  0.09166002  1
  Nb  Nb112  1  0.43053246  0.72935338  0.91933595  1
  Nb  Nb113  1  0.98661982  0.56284849  0.32372493  1
  Nb  Nb114  1  0.54238135  0.27653696  0.86267878  1
  Nb  Nb115  1  0.49735512  0.09284849  0.83853824  1
  Nb  Nb116  1  0.49896682  0.58533205  0.04299817  1
  Nb  Nb117  1  0.02062861  0.07969701  0.94343886  1
  Nb  Nb118  1  0.71624240  0.07822154  0.35439037  1
  Nb  Nb119  1  0.50908207  0.68175418  0.34971161  1
  Nb  Nb120  1  0.73455369  0.36031326  0.77109143  1
  Nb  Nb121  1  0.02077356  -0.02077333  0.28915732  1
  Nb  Nb122  1  0.25725436  0.51240340  0.50137271  1
  Nb  Nb123  1  0.94214782  0.51145186  0.12926234  1
  Nb  Nb124  1  0.44755575  0.86541470  0.74703030  1
