# generated using pymatgen
data_Zr2Sc2Nb
_symmetry_space_group_name_H-M   'P 1'
_cell_length_a   13.94467464
_cell_length_b   14.65216283
_cell_length_c   14.06203865
_cell_angle_alpha   92.03104138
_cell_angle_beta   89.21462676
_cell_angle_gamma   88.96156978
_symmetry_Int_Tables_number   1
_chemical_formula_structural   Zr2Sc2Nb
_chemical_formula_sum   'Zr50 Sc50 Nb25'
_cell_volume   2870.57811336
_cell_formula_units_Z   25
loop_
 _symmetry_equiv_pos_site_id
 _symmetry_equiv_pos_as_xyz
  1  'x, y, z'
loop_
 _atom_site_type_symbol
 _atom_site_label
 _atom_site_symmetry_multiplicity
 _atom_site_fract_x
 _atom_site_fract_y
 _atom_site_fract_z
 _atom_site_occupancy
  Zr  Zr0  1  0.65556472  0.77462386  0.25202081  1
  Zr  Zr1  1  0.39960963  0.04407458  0.71826880  1
  Zr  Zr2  1  0.82728617  0.93840068  0.77405171  1
  Zr  Zr3  1  0.18640481  0.40947305  0.86223175  1
  Zr  Zr4  1  0.28352048  0.83566769  0.87618365  1
  Zr  Zr5  1  0.45233547  0.51688201  0.32956849  1
  Zr  Zr6  1  0.03902427  0.95379326  0.36411348  1
  Zr  Zr7  1  0.26342070  0.62413661  0.85397443  1
  Zr  Zr8  1  0.61105356  0.48702518  0.87136623  1
  Zr  Zr9  1  0.86007310  0.21016108  1.05688958  1
  Zr  Zr10  1  0.57391052  0.73078310  0.63147022  1
  Zr  Zr11  1  0.18118341  0.25128515  0.25128375  1
  Zr  Zr12  1  0.51261783  0.25987178  0.11450646  1
  Zr  Zr13  1  0.27345564  0.45254747  0.66379030  1
  Zr  Zr14  1  0.70954059  0.62568226  0.78192681  1
  Zr  Zr15  1  0.33994496  0.14936596  0.13591282  1
  Zr  Zr16  1  0.11195018  0.46047497  0.31187211  1
  Zr  Zr17  1  1.01354443  0.30067624  0.41423972  1
  Zr  Zr18  1  0.88657267  0.28042187  0.61141825  1
  Zr  Zr19  1  0.84286672  0.90579695  0.32113630  1
  Zr  Zr20  1  0.46525750  0.85872959  0.75973180  1
  Zr  Zr21  1  0.83418575  0.96094539  0.55583984  1
  Zr  Zr22  1  0.88734073  0.71055836  0.83789636  1
  Zr  Zr23  1  0.46545951  0.87389487  0.35039763  1
  Zr  Zr24  1  0.37607004  0.71923420  0.03375160  1
  Zr  Zr25  1  0.61646549  0.97898827  0.63735632  1
  Zr  Zr26  1  1.04673511  0.83733723  0.18650455  1
  Zr  Zr27  1  0.96022968  0.70841286  0.03974275  1
  Zr  Zr28  1  0.34610171  0.71111821  0.41960584  1
  Zr  Zr29  1  0.12314556  0.73626410  0.34197090  1
  Zr  Zr30  1  0.93387330  0.11634977  0.47042267  1
  Zr  Zr31  1  0.34383511  0.37449509  0.22405801  1
  Zr  Zr32  1  0.43801559  0.57274494  0.56864974  1
  Zr  Zr33  1  0.75350199  0.59668493  1.01069639  1
  Zr  Zr34  1  0.58099140  0.69772180  0.03491022  1
  Zr  Zr35  1  0.13192723  0.40787809  0.10522268  1
  Zr  Zr36  1  0.51370777  0.31678553  0.90894796  1
  Zr  Zr37  1  0.23262463  0.56274160  0.47849178  1
  Zr  Zr38  1  0.95324552  0.10146952  0.68949119  1
  Zr  Zr39  1  0.77231691  0.66030291  0.44037360  1
  Zr  Zr40  1  0.10735679  0.92431584  0.01070880  1
  Zr  Zr41  1  0.56109967  0.67364541  0.41627319  1
  Zr  Zr42  1  0.71597613  0.07119284  0.39380547  1
  Zr  Zr43  1  0.54045666  0.18036015  0.72168876  1
  Zr  Zr44  1  0.70409477  0.15916842  0.18427911  1
  Zr  Zr45  1  0.91028370  0.48695401  0.09511264  1
  Zr  Zr46  1  0.90074495  0.60997640  0.63450980  1
  Zr  Zr47  1  0.05248570  0.94947579  0.57071742  1
  Zr  Zr48  1  0.77448321  0.77753030  0.63786599  1
  Zr  Zr49  1  0.43517181  0.85295201  0.55483264  1
  Sc  Sc50  1  0.12834424  0.73663873  0.56140309  1
  Sc  Sc51  1  0.47786244  0.65570302  0.82061370  1
  Sc  Sc52  1  0.44694650  0.37586440  0.48181648  1
  Sc  Sc53  1  0.66516950  0.18985333  0.95913836  1
  Sc  Sc54  1  0.87634616  0.48363609  0.29940844  1
  Sc  Sc55  1  0.77000978  0.81119031  0.06368039  1
  Sc  Sc56  1  0.07998618  0.95933870  0.79781530  1
  Sc  Sc57  1  0.09924232  0.06216254  0.19579116  1
  Sc  Sc58  1  0.09598569  0.21808430  0.82321942  1
  Sc  Sc59  1  0.16750196  0.13281661  0.43460786  1
  Sc  Sc60  1  0.66055057  0.46604140  0.38846051  1
  Sc  Sc61  1  0.23890720  0.35448335  0.44400767  1
  Sc  Sc62  1  0.19734796  0.09264234  0.65640390  1
  Sc  Sc63  1  0.56183189  0.28812492  0.31846767  1
  Sc  Sc64  1  0.66955741  0.57854279  0.21578576  1
  Sc  Sc65  1  0.87778908  0.26596009  0.82876399  1
  Sc  Sc66  1  0.29443410  0.00852473  0.28193034  1
  Sc  Sc67  1  0.07942537  0.56050377  0.95591728  1
  Sc  Sc68  1  0.67860458  0.96386513  0.19213171  1
  Sc  Sc69  1  0.87883873  0.69892306  0.25110148  1
  Sc  Sc70  1  0.78931875  0.27192519  0.37566043  1
  Sc  Sc71  1  0.89942230  -0.01268261  0.11719830  1
  Sc  Sc72  1  0.96806975  0.30204873  0.20356903  1
  Sc  Sc73  1  0.67873805  0.81670623  0.85649318  1
  Sc  Sc74  1  0.30990883  0.30350307  0.00427610  1
  Sc  Sc75  1  0.32657530  0.25482128  0.78678004  1
  Sc  Sc76  1  0.53776836  0.16447406  0.50099129  1
  Sc  Sc77  1  0.11137376  0.19237455  0.03865984  1
  Sc  Sc78  1  0.51261716  0.48786484  0.07920084  1
  Sc  Sc79  1  0.26931998  0.59972562  0.24001712  1
  Sc  Sc80  1  -0.00467325  0.60575229  0.42698644  1
  Sc  Sc81  1  0.66380586  0.33030661  0.55801454  1
  Sc  Sc82  1  0.12866284  0.27915675  0.61357016  1
  Sc  Sc83  1  0.71508758  0.37316941  0.16135039  1
  Sc  Sc84  1  0.50180211  0.88647869  0.96212933  1
  Sc  Sc85  1  0.10339071  0.60289409  0.71489462  1
  Sc  Sc86  1  0.49459050  0.39499334  0.69555124  1
  Sc  Sc87  1  0.85627195  0.44893317  0.50809761  1
  Sc  Sc88  1  0.94263933  0.07928686  0.91720234  1
  Sc  Sc89  1  0.88882157  0.51103778  0.87383699  1
  Sc  Sc90  1  0.29072280  0.52467245  0.04622699  1
  Sc  Sc91  1  0.31564587  0.94954290  0.06581926  1
  Sc  Sc92  1  0.36975312  0.04531646  0.49554795  1
  Sc  Sc93  1  0.24495213  0.88553567  0.67344359  1
  Sc  Sc94  1  0.66561215  0.85944553  0.45724021  1
  Sc  Sc95  1  0.00921919  0.41342733  0.73505922  1
  Sc  Sc96  1  0.23478028  0.89051226  0.44440348  1
  Sc  Sc97  1  0.24578932  0.06636484  0.89370768  1
  Sc  Sc98  1  0.65927506  0.54249389  0.59135922  1
  Sc  Sc99  1  0.50784857  0.07617213  0.28249519  1
  Nb  Nb100  1  0.93068823  0.79568254  0.47426345  1
  Nb  Nb101  1  0.32205332  0.69895817  0.66679738  1
  Nb  Nb102  1  0.59311065  0.01658914  0.84397246  1
  Nb  Nb103  1  0.68492926  0.29733546  0.76784059  1
  Nb  Nb104  1  0.92647405  0.87578331  0.93104454  1
  Nb  Nb105  1  0.07026114  0.46300838  0.54331526  1
  Nb  Nb106  1  -0.02308847  0.81151183  0.69269236  1
  Nb  Nb107  1  0.78315311  0.43886434  0.72028120  1
  Nb  Nb108  1  0.34605505  0.23321415  0.58330351  1
  Nb  Nb109  1  0.06762131  0.60718621  0.18162712  1
  Nb  Nb110  1  0.09393098  0.76191425  0.86109988  1
  Nb  Nb111  1  0.75193726  0.11141752  0.77993899  1
  Nb  Nb112  1  0.28502577  0.80704089  0.22196934  1
  Nb  Nb113  1  0.73824366  1.00240903  -0.02120669  1
  Nb  Nb114  1  0.38748008  0.46492136  0.86701547  1
  Nb  Nb115  1  0.44239028  0.12599195  0.92836124  1
  Nb  Nb116  1  0.36322988  0.20969904  0.35795552  1
  Nb  Nb117  1  0.53859627  0.05486945  0.06898827  1
  Nb  Nb118  1  -0.00829174  0.35153369  0.96832969  1
  Nb  Nb119  1  0.17852794  0.72690787  0.05578647  1
  Nb  Nb120  1  0.48450045  0.87099716  0.16056667  1
  Nb  Nb121  1  0.73966849  0.14544770  0.59368584  1
  Nb  Nb122  1  0.89915829  0.11602452  0.27571090  1
  Nb  Nb123  1  0.75644429  0.37974247  0.95539749  1
  Nb  Nb124  1  0.46504509  0.68442441  0.22093448  1
