# generated using pymatgen
data_Zr2Sc2Nb
_symmetry_space_group_name_H-M   'P 1'
_cell_length_a   14.12796073
_cell_length_b   14.51421861
_cell_length_c   14.04947411
_cell_angle_alpha   91.31243514
_cell_angle_beta   90.62998687
_cell_angle_gamma   88.88064916
_symmetry_Int_Tables_number   1
_chemical_formula_structural   Zr2Sc2Nb
_chemical_formula_sum   'Zr50 Sc50 Nb25'
_cell_volume   2879.46759496
_cell_formula_units_Z   25
loop_
 _symmetry_equiv_pos_site_id
 _symmetry_equiv_pos_as_xyz
  1  'x, y, z'
loop_
 _atom_site_type_symbol
 _atom_site_label
 _atom_site_symmetry_multiplicity
 _atom_site_fract_x
 _atom_site_fract_y
 _atom_site_fract_z
 _atom_site_occupancy
  Zr  Zr0  1  0.71331641  0.28438557  0.35233869  1
  Zr  Zr1  1  0.28551686  0.59929718  0.86292786  1
  Zr  Zr2  1  0.27401193  0.56941611  0.10175094  1
  Zr  Zr3  1  -0.01944847  0.17304055  0.57071661  1
  Zr  Zr4  1  0.48407672  0.96436471  0.37675051  1
  Zr  Zr5  1  0.15952464  0.87965659  0.31316147  1
  Zr  Zr6  1  0.88099707  0.14949274  0.20726863  1
  Zr  Zr7  1  0.90994606  0.38455801  0.24419814  1
  Zr  Zr8  1  0.49605622  0.80865033  0.05758522  1
  Zr  Zr9  1  0.93573349  0.26567299  0.39758681  1
  Zr  Zr10  1  0.53766886  0.01154838  0.09537271  1
  Zr  Zr11  1  0.89006339  0.97547692  0.03927259  1
  Zr  Zr12  1  0.79373377  0.34859559  0.89351205  1
  Zr  Zr13  1  0.07833360  0.98834439  0.52048178  1
  Zr  Zr14  1  0.11739395  0.47440803  0.77105882  1
  Zr  Zr15  1  0.06048458  0.93941159  0.88238124  1
  Zr  Zr16  1  0.49861265  0.34951015  0.35679230  1
  Zr  Zr17  1  0.88136574  0.64720795  0.95916691  1
  Zr  Zr18  1  0.21938724  0.26610232  0.06445796  1
  Zr  Zr19  1  0.50722348  0.90704027  0.86900151  1
  Zr  Zr20  1  0.70841040  0.47893091  0.48747800  1
  Zr  Zr21  1  0.35911705  0.92917628  0.21277308  1
  Zr  Zr22  1  0.29534471  0.88778041  0.48054809  1
  Zr  Zr23  1  0.68129198  0.13580698  0.52266421  1
  Zr  Zr24  1  0.64476363  0.01913794  0.73203312  1
  Zr  Zr25  1  0.46534954  0.16484155  0.45764037  1
  Zr  Zr26  1  0.85816712  0.06531182  0.40494032  1
  Zr  Zr27  1  0.73722010  0.48667272  0.28156394  1
  Zr  Zr28  1  0.28625648  0.28713877  0.30352891  1
  Zr  Zr29  1  0.56045056  0.31808433  0.78863749  1
  Zr  Zr30  1  0.73203817  0.71575421  0.46256279  1
  Zr  Zr31  1  0.68814346  0.55799571  0.87146509  1
  Zr  Zr32  1  0.95985459  0.56794363  0.19288533  1
  Zr  Zr33  1  0.57264816  0.81508133  0.68798864  1
  Zr  Zr34  1  0.29717583  0.82361622  0.86487830  1
  Zr  Zr35  1  0.80230958  0.49672203  0.06645860  1
  Zr  Zr36  1  0.41502171  0.65743439  0.68176698  1
  Zr  Zr37  1  0.65220259  0.64362426  0.06438685  1
  Zr  Zr38  1  0.49418935  0.77103767  0.49143275  1
  Zr  Zr39  1  0.22790950  0.08642321  0.17969264  1
  Zr  Zr40  1  0.42969757  0.14056328  0.25217697  1
  Zr  Zr41  1  0.96273351  0.93747272  0.24698872  1
  Zr  Zr42  1  0.17905208  0.30397651  0.66885988  1
  Zr  Zr43  1  0.72270123  0.43324300  0.70917882  1
  Zr  Zr44  1  0.88967540  0.83015287  0.87516565  1
  Zr  Zr45  1  0.59985179  0.31747748  0.56346249  1
  Zr  Zr46  1  0.87117188  0.03480316  0.81825270  1
  Zr  Zr47  1  0.75659771  0.67507674  0.24797817  1
  Zr  Zr48  1  0.75123852  0.20265475  0.72255397  1
  Zr  Zr49  1  0.47090972  0.98329407  0.58503804  1
  Sc  Sc50  1  0.91034815  0.53302209  0.41933364  1
  Sc  Sc51  1  0.15268436  0.43818341  0.18024642  1
  Sc  Sc52  1  0.78061624  0.84119670  0.67710983  1
  Sc  Sc53  1  0.09874236  0.78142277  0.50791537  1
  Sc  Sc54  1  0.07703772  0.10871727  0.74740673  1
  Sc  Sc55  1  0.20847169  0.07654790  0.93110774  1
  Sc  Sc56  1  0.56025546  0.23585729  0.12612372  1
  Sc  Sc57  1  0.56965687  0.44762152  0.17066201  1
  Sc  Sc58  1  0.00685591  0.66396515  0.76114186  1
  Sc  Sc59  1  0.07230637  0.08224705  0.33863978  1
  Sc  Sc60  1  0.55947958  0.59449140  0.36935737  1
  Sc  Sc61  1  0.85317473  0.02318179  0.61442473  1
  Sc  Sc62  1  0.97204376  0.34571488  0.03967937  1
  Sc  Sc63  1  0.34837371  0.50518228  0.30986863  1
  Sc  Sc64  1  0.09473511  0.56749299  0.55478073  1
  Sc  Sc65  1  0.75488381  0.30156294  0.11783580  1
  Sc  Sc66  1  0.07911474  0.25150648  0.22975368  1
  Sc  Sc67  1  0.46669446  0.63146867  0.17052549  1
  Sc  Sc68  1  0.49255368  0.69166186  0.87479025  1
  Sc  Sc69  1  0.49302322  0.15780754  0.68773533  1
  Sc  Sc70  1  0.19753389  0.71171752  0.69308087  1
  Sc  Sc71  1  0.65858611  0.19542463  0.93097006  1
  Sc  Sc72  1  0.45233989  0.51712891  0.98087406  1
  Sc  Sc73  1  0.70456654  0.86251574  0.09417157  1
  Sc  Sc74  1  0.67194850  0.92339951  0.50263931  1
  Sc  Sc75  1  0.04032016  0.12081962  0.05389811  1
  Sc  Sc76  1  0.33614361  0.74068168  0.30166693  1
  Sc  Sc77  1  0.10685845  0.71567072  0.16391541  1
  Sc  Sc78  1  0.10397361  0.28728144  0.88179804  1
  Sc  Sc79  1  0.46791496  0.49304619  0.53983353  1
  Sc  Sc80  1  0.90109611  0.77545812  0.11916930  1
  Sc  Sc81  1  0.29471432  0.76748325  0.07352860  1
  Sc  Sc82  1  0.27555945  0.09569949  0.60331675  1
  Sc  Sc83  1  0.89922488  0.50511623  0.63880127  1
  Sc  Sc84  1  0.63318054  0.62043611  0.63435753  1
  Sc  Sc85  1  0.30479112  0.65301517  0.49603231  1
  Sc  Sc86  1  0.76582178  0.88948465  0.30391888  1
  Sc  Sc87  1  0.16581363  0.22869945  0.46301741  1
  Sc  Sc88  1  0.13053307  0.91817671  0.08802216  1
  Sc  Sc89  1  0.14816969  0.60738257  0.34211000  1
  Sc  Sc90  1  0.56793927  0.79689047  0.27216490  1
  Sc  Sc91  1  0.31524709  0.21259476  0.82774289  1
  Sc  Sc92  1  0.37717003  0.31100907  0.59049391  1
  Sc  Sc93  1  0.65000152  0.08410193  0.30014749  1
  Sc  Sc94  1  0.18372894  0.92534751  0.70103392  1
  Sc  Sc95  1  0.94179912  0.30638559  0.73912756  1
  Sc  Sc96  1  0.10533125  0.73687427  0.93925449  1
  Sc  Sc97  1  0.68865138  0.78045126  0.88563226  1
  Sc  Sc98  1  0.95435231  0.73599057  0.34005773  1
  Sc  Sc99  1  0.07661066  0.53142084  0.99164444  1
  Nb  Nb100  1  0.81655702  0.31467592  0.55206265  1
  Nb  Nb101  1  0.80628149  0.65625954  0.74913207  1
  Nb  Nb102  1  0.03287411  0.37517164  0.55497094  1
  Nb  Nb103  1  0.08702869  0.41371145  0.37117677  1
  Nb  Nb104  1  0.70113963  0.99224821  0.92659293  1
  Nb  Nb105  1  0.61958034  0.40645954  0.97174764  1
  Nb  Nb106  1  0.37072438  0.84194918  0.67008034  1
  Nb  Nb107  1  0.24518420  0.42769583  0.47760547  1
  Nb  Nb108  1  0.90798146  0.70180812  0.56899899  1
  Nb  Nb109  1  0.28607014  1.06154332  0.38545871  1
  Nb  Nb110  1  0.37932465  0.37004968  0.13923282  1
  Nb  Nb111  1  0.89782602  0.87434398  0.47913246  1
  Nb  Nb112  1  0.91474069  0.48884782  0.85046427  1
  Nb  Nb113  1  0.98707603  0.86459673  0.68461739  1
  Nb  Nb114  1  0.36032453  0.01117463  0.78434234  1
  Nb  Nb115  1  0.50515905  0.50049172  0.76812163  1
  Nb  Nb116  1  0.28132984  0.50738381  0.65228395  1
  Nb  Nb117  1  0.34614850  0.40334815  0.79046720  1
  Nb  Nb118  1  0.37827432  0.15320468  0.05012075  1
  Nb  Nb119  1  0.35059558  -0.03644178  1.00698324  1
  Nb  Nb120  1  0.49363419  0.10336345  0.90121817  1
  Nb  Nb121  1  0.25754470  0.41942436  -0.04235473  1
  Nb  Nb122  1  0.44384682  0.31199759  0.95908303  1
  Nb  Nb123  1  0.72603094  0.08548877  0.10012059  1
  Nb  Nb124  1  0.85825683  0.16923838  -0.03328358  1
