# generated using pymatgen
data_Zr2Sc2Nb
_symmetry_space_group_name_H-M   'P 1'
_cell_length_a   14.17922319
_cell_length_b   14.12789858
_cell_length_c   14.36291391
_cell_angle_alpha   89.23212304
_cell_angle_beta   91.72398997
_cell_angle_gamma   89.95498208
_symmetry_Int_Tables_number   1
_chemical_formula_structural   Zr2Sc2Nb
_chemical_formula_sum   'Zr50 Sc50 Nb25'
_cell_volume   2875.65397484
_cell_formula_units_Z   25
loop_
 _symmetry_equiv_pos_site_id
 _symmetry_equiv_pos_as_xyz
  1  'x, y, z'
loop_
 _atom_site_type_symbol
 _atom_site_label
 _atom_site_symmetry_multiplicity
 _atom_site_fract_x
 _atom_site_fract_y
 _atom_site_fract_z
 _atom_site_occupancy
  Zr  Zr0  1  0.25123198  0.71547289  1.00397895  1
  Zr  Zr1  1  0.69908661  0.25324884  0.70128526  1
  Zr  Zr2  1  0.94861506  0.35837021  0.14749398  1
  Zr  Zr3  1  0.64552617  0.31533452  0.92645815  1
  Zr  Zr4  1  0.27871016  0.81195729  0.28665835  1
  Zr  Zr5  1  0.08212249  0.32266679  0.31737463  1
  Zr  Zr6  1  0.03907213  0.99117092  0.03748116  1
  Zr  Zr7  1  0.53375340  0.66538567  0.01126620  1
  Zr  Zr8  1  0.46037789  1.02180880  1.02766156  1
  Zr  Zr9  1  0.43617540  0.97668141  0.79279994  1
  Zr  Zr10  1  0.13818813  0.91725788  0.41854758  1
  Zr  Zr11  1  0.20447553  0.62862078  0.70441430  1
  Zr  Zr12  1  0.71696803  0.89052889  0.48230362  1
  Zr  Zr13  1  0.52761768  0.03112878  0.42595098  1
  Zr  Zr14  1  0.29996517  0.52543459  0.54536985  1
  Zr  Zr15  1  0.48140267  0.11814414  0.61660729  1
  Zr  Zr16  1  0.81170193  0.52251798  0.05502992  1
  Zr  Zr17  1  0.53217813  0.24991574  0.11891239  1
  Zr  Zr18  1  0.06759423  0.19432668  0.91099699  1
  Zr  Zr19  1  0.13260651  0.23264296  0.70913851  1
  Zr  Zr20  1  0.91177298  0.60531312  0.89150363  1
  Zr  Zr21  1  0.45461033  0.56290809  0.67446026  1
  Zr  Zr22  1  0.93979764  0.37753157  0.93843247  1
  Zr  Zr23  1  0.76422500  0.02891480  0.76511262  1
  Zr  Zr24  1  0.99215143  1.03239928  0.80793840  1
  Zr  Zr25  1  0.37512880  0.76672482  0.65481492  1
  Zr  Zr26  1  0.72256706  0.84112820  0.70058620  1
  Zr  Zr27  1  0.55281931  0.85144422  0.32418461  1
  Zr  Zr28  1  0.09541811  0.84718111  0.87261162  1
  Zr  Zr29  1  0.58572870  0.05773522  0.21160521  1
  Zr  Zr30  1  0.05110543  0.63967337  0.55316875  1
  Zr  Zr31  1  0.85763903  0.38654127  0.33807469  1
  Zr  Zr32  1  0.05674767  0.52596085  0.03689730  1
  Zr  Zr33  1  0.35944916  0.31581611  0.58136503  1
  Zr  Zr34  1  0.69892286  0.51505391  0.43938199  1
  Zr  Zr35  1  0.38712123  0.56602767  0.11799573  1
  Zr  Zr36  1  0.81683114  1.00526012  0.96496749  1
  Zr  Zr37  1  0.89568872  0.13673798  0.64853741  1
  Zr  Zr38  1  0.62370193  0.92413359  0.88274921  1
  Zr  Zr39  1  0.14727043  0.50841518  0.40496979  1
  Zr  Zr40  1  0.84080992  0.72252651  0.56712878  1
  Zr  Zr41  1  0.76228688  0.90800704  0.28112874  1
  Zr  Zr42  1  0.42879450  0.83258076  0.94252957  1
  Zr  Zr43  1  0.31125923  0.36603488  0.38355094  1
  Zr  Zr44  1  0.07420498  0.84244321  0.20333941  1
  Zr  Zr45  1  0.91635537  0.91500790  0.63700646  1
  Zr  Zr46  1  0.54977476  0.59853494  0.27880365  1
  Zr  Zr47  1  0.38695755  0.00494646  0.24748627  1
  Zr  Zr48  1  0.44340612  0.20127010  0.93162403  1
  Zr  Zr49  1  0.98743087  0.42599823  0.50608491  1
  Sc  Sc50  1  0.90206411  0.03535571  0.45042078  1
  Sc  Sc51  1  0.89634999  0.60085969  0.40207652  1
  Sc  Sc52  1  0.68214347  0.71466415  0.16881178  1
  Sc  Sc53  1  0.87789854  0.84004906  0.85875046  1
  Sc  Sc54  1  1.00270493  0.53086036  0.24159880  1
  Sc  Sc55  1  0.50124101  0.32492750  0.75136931  1
  Sc  Sc56  1  0.46358502  0.70840400  0.45736735  1
  Sc  Sc57  1  0.59751133  0.47075764  0.10177657  1
  Sc  Sc58  1  0.30461120  0.42640815  0.76115087  1
  Sc  Sc59  1  0.45248133  0.42755140  0.93990440  1
  Sc  Sc60  1  0.78845715  0.29899128  0.51635484  1
  Sc  Sc61  1  0.82383865  0.20646845  0.86258431  1
  Sc  Sc62  1  0.73462175  0.73238587  0.95835737  1
  Sc  Sc63  1  0.63741937  0.35683995  0.30520218  1
  Sc  Sc64  1  0.88959210  0.71085970  0.21953165  1
  Sc  Sc65  1  0.25183078  0.91355888  0.06018469  1
  Sc  Sc66  1  0.49011443  0.47781226  0.45956319  1
  Sc  Sc67  1  0.26179701  0.21581250  0.25005370  1
  Sc  Sc68  1  0.29876334  -0.02449498  0.62811518  1
  Sc  Sc69  1  0.57145630  0.27761667  0.50880009  1
  Sc  Sc70  1  0.24354154  0.73124093  0.48959350  1
  Sc  Sc71  1  0.83025023  0.51346749  0.60549705  1
  Sc  Sc72  1  0.37218249  0.62832338  0.85682318  1
  Sc  Sc73  1  0.33609770  0.17413420  0.74249690  1
  Sc  Sc74  1  0.17708719  0.64496370  0.17943517  1
  Sc  Sc75  1  0.53044429  0.89926375  0.60078791  1
  Sc  Sc76  1  0.68806220  0.07721127  0.57743281  1
  Sc  Sc77  1  0.90404736  0.18989776  0.29148638  1
  Sc  Sc78  1  0.90896174  0.17344665  0.05233407  1
  Sc  Sc79  1  0.25860540  0.13034155  0.05588598  1
  Sc  Sc80  1  0.44005963  0.79473720  0.15299984  1
  Sc  Sc81  1  0.78961165  0.43752045  0.80710258  1
  Sc  Sc82  1  0.63006757  0.67589486  0.58327332  1
  Sc  Sc83  1  0.62207710  0.54295162  0.86388756  1
  Sc  Sc84  1  0.13618364  0.32104808  0.06045139  1
  Sc  Sc85  1  0.33028563  0.59086331  0.32794749  1
  Sc  Sc86  1  0.25070207  0.48948306  -0.02333547  1
  Sc  Sc87  1  0.30598960  0.11073164  0.44551363  1
  Sc  Sc88  1  0.93245280  0.82820728  0.40330596  1
  Sc  Sc89  1  0.64062815  0.90236038  0.08626858  1
  Sc  Sc90  1  0.09620874  0.06059347  0.58558126  1
  Sc  Sc91  1  0.55267873  0.73850927  0.78690544  1
  Sc  Sc92  1  0.22369503  0.03319872  0.85875633  1
  Sc  Sc93  1  0.46790411  0.21343696  0.32313884  1
  Sc  Sc94  1  0.13027319  0.83972269  0.64667925  1
  Sc  Sc95  1  0.94396580  0.32851609  0.70693863  1
  Sc  Sc96  1  1.00597995  0.73900103  0.03133760  1
  Sc  Sc97  1  0.74598278  0.29550084  0.13009062  1
  Sc  Sc98  1  0.63185596  0.45873019  0.64672214  1
  Sc  Sc99  1  0.71164384  0.13592693  0.36516945  1
  Nb  Nb100  1  0.36764322  0.90346471  0.44457705  1
  Nb  Nb101  1  -0.02218457  0.72470254  0.72935493  1
  Nb  Nb102  1  0.78168656  0.06752918  0.16294209  1
  Nb  Nb103  1  0.18734129  1.01010044  0.23968678  1
  Nb  Nb104  1  0.08905136  0.70250483  0.35239637  1
  Nb  Nb105  1  0.98982896  0.23069446  0.49976520  1
  Nb  Nb106  1  0.22259936  0.44285874  0.20225901  1
  Nb  Nb107  1  0.12057304  0.63776817  0.86876024  1
  Nb  Nb108  1  0.65334115  0.11976036  1.00395050  1
  Nb  Nb109  1  0.27321719  0.81723338  0.81165266  1
  Nb  Nb110  1  -0.03534448  -0.00360804  0.24614283  1
  Nb  Nb111  1  0.09686220  0.11817256  0.37444325  1
  Nb  Nb112  1  0.58572822  0.12628258  0.81055195  1
  Nb  Nb113  1  0.44038800  0.41395053  0.24384403  1
  Nb  Nb114  1  0.86161070  0.87729653  0.10411069  1
  Nb  Nb115  1  0.17378785  0.27824780  0.50253257  1
  Nb  Nb116  1  0.10873926  0.41524222  0.84045642  1
  Nb  Nb117  1  0.07168123  0.15530071  0.17060098  1
  Nb  Nb118  1  0.14083526  0.42700529  0.62889683  1
  Nb  Nb119  1  0.25833714  0.28056464  0.89982351  1
  Nb  Nb120  1  -0.00661481  0.53130409  0.72677439  1
  Nb  Nb121  1  0.35084594  0.33179966  0.09310222  1
  Nb  Nb122  1  0.75822453  0.53136830  0.24409501  1
  Nb  Nb123  1  0.77336315  0.64897662  0.75195526  1
  Nb  Nb124  1  0.71510388  0.71170029  0.37707391  1
