# generated using pymatgen
data_Zr2Sc2Nb
_symmetry_space_group_name_H-M   'P 1'
_cell_length_a   14.12515524
_cell_length_b   14.31696510
_cell_length_c   14.33171435
_cell_angle_alpha   90.58747085
_cell_angle_beta   89.64876885
_cell_angle_gamma   89.81536394
_symmetry_Int_Tables_number   1
_chemical_formula_structural   Zr2Sc2Nb
_chemical_formula_sum   'Zr50 Sc50 Nb25'
_cell_volume   2898.07089874
_cell_formula_units_Z   25
loop_
 _symmetry_equiv_pos_site_id
 _symmetry_equiv_pos_as_xyz
  1  'x, y, z'
loop_
 _atom_site_type_symbol
 _atom_site_label
 _atom_site_symmetry_multiplicity
 _atom_site_fract_x
 _atom_site_fract_y
 _atom_site_fract_z
 _atom_site_occupancy
  Zr  Zr0  1  0.16661980  0.69116669  0.41795312  1
  Zr  Zr1  1  0.70391588  0.96601824  0.17173925  1
  Zr  Zr2  1  0.34739597  0.44184659  0.87300287  1
  Zr  Zr3  1  0.52562028  0.83295480  0.46799003  1
  Zr  Zr4  1  0.53766019  0.26416933  0.31574282  1
  Zr  Zr5  1  0.92959319  0.34406211  0.42648360  1
  Zr  Zr6  1  0.71459118  0.30522870  0.90865013  1
  Zr  Zr7  1  0.09751714  0.26676824  0.30797775  1
  Zr  Zr8  1  0.77125338  0.49343382  0.81150429  1
  Zr  Zr9  1  0.07681555  0.05787939  0.29315293  1
  Zr  Zr10  1  0.31332069  0.27432917  0.54071890  1
  Zr  Zr11  1  0.29888703  0.11652691  0.20968147  1
  Zr  Zr12  1  0.45472906  0.24373915  0.10424838  1
  Zr  Zr13  1  0.31282112  0.95250621  0.73903024  1
  Zr  Zr14  1  0.63277795  0.45864971  0.35883305  1
  Zr  Zr15  1  0.78464312  0.65928629  0.66788323  1
  Zr  Zr16  1  0.44214804  0.74976079  0.01056684  1
  Zr  Zr17  1  0.69971951  0.92198296  0.39683513  1
  Zr  Zr18  1  0.93010012  0.78371717  0.13808760  1
  Zr  Zr19  1  0.91983651  0.24031884  0.98210343  1
  Zr  Zr20  1  0.52186503  0.33766849  0.93553089  1
  Zr  Zr21  1  0.17858220  0.42876238  0.21404286  1
  Zr  Zr22  1  0.25185198  0.29147367  0.08330634  1
  Zr  Zr23  1  0.19519645  0.09237770  0.62092508  1
  Zr  Zr24  1  0.94753739  0.44888038  0.23978158  1
  Zr  Zr25  1  0.70701065  0.21210740  0.10561338  1
  Zr  Zr26  1  0.38274236  0.72150786  0.35990566  1
  Zr  Zr27  1  0.76276083  0.06254030  0.71057335  1
  Zr  Zr28  1  0.36985407  0.93844053  0.09931281  1
  Zr  Zr29  1  0.25582209  0.73398243  0.74283348  1
  Zr  Zr30  1  0.64671103  0.06504638  -0.02284651  1
  Zr  Zr31  1  0.08521397  0.69545953  0.85348542  1
  Zr  Zr32  1  0.34560018  0.48248802  0.65162018  1
  Zr  Zr33  1  0.25485020  0.09034924  0.00337199  1
  Zr  Zr34  1  0.89827314  0.03412858  0.08654685  1
  Zr  Zr35  1  0.76762231  0.56154993  0.21309604  1
  Zr  Zr36  1  0.07117831  0.75939341  0.61503215  1
  Zr  Zr37  1  0.85643480  0.21236325  0.58382843  1
  Zr  Zr38  1  0.08220879  0.82220038  0.28780367  1
  Zr  Zr39  1  0.78051305  0.87006984  1.00681121  1
  Zr  Zr40  1  0.93311494  0.65741642  0.31568665  1
  Zr  Zr41  1  0.32800119  0.31452573  0.31630994  1
  Zr  Zr42  1  0.45804900  0.31985566  0.71266233  1
  Zr  Zr43  1  0.05529579  0.18138965  0.50843949  1
  Zr  Zr44  1  0.29461552  0.63575839  0.94577788  1
  Zr  Zr45  1  0.52264941  0.06680302  0.15204374  1
  Zr  Zr46  1  0.15396983  0.50498737  1.01167607  1
  Zr  Zr47  1  0.58491788  0.65260657  0.29503532  1
  Zr  Zr48  1  0.08526471  0.16546842  0.11703690  1
  Zr  Zr49  1  0.36955750  0.45908108  0.09422000  1
  Sc  Sc50  1  0.67112510  0.30337940  0.66570397  1
  Sc  Sc51  1  0.54469896  -0.00263238  0.66892503  1
  Sc  Sc52  1  0.58695339  0.16552792  0.79880951  1
  Sc  Sc53  1  0.94438142  0.58461541  0.05026066  1
  Sc  Sc54  1  0.56697801  0.49046639  0.76299620  1
  Sc  Sc55  1  0.12256267  0.72495622  0.05241213  1
  Sc  Sc56  1  0.49617160  0.04398979  0.35921435  1
  Sc  Sc57  1  0.95417870  0.59994884  0.52287396  1
  Sc  Sc58  1  0.52819733  0.55094109  0.96770695  1
  Sc  Sc59  1  0.07713927  0.95380972  0.47769630  1
  Sc  Sc60  1  0.13353864  0.94328026  0.11869751  1
  Sc  Sc61  1  0.98061705  0.07807274  0.71271678  1
  Sc  Sc62  1  0.52057350  0.84506578  0.22521229  1
  Sc  Sc63  1  0.81136105  0.40773015  0.06722158  1
  Sc  Sc64  1  0.28551761  0.92484197  0.32525700  1
  Sc  Sc65  1  0.67752644  0.49175873  0.57258410  1
  Sc  Sc66  1  0.87644969  0.41886849  0.62698957  1
  Sc  Sc67  1  0.89480340  0.94543034  0.29240743  1
  Sc  Sc68  1  0.04209211  0.27632052  0.72378052  1
  Sc  Sc69  1  0.27848588  0.75698346  0.17568457  1
  Sc  Sc70  1  0.88470362  0.84059063  0.68522941  1
  Sc  Sc71  1  0.68131783  0.90312526  0.81574213  1
  Sc  Sc72  1  0.34106181  0.66940671  0.56502767  1
  Sc  Sc73  1  0.57875780  0.68917712  0.64749615  1
  Sc  Sc74  1  0.43879235  0.04103987  0.91016536  1
  Sc  Sc75  1  0.87096964  0.99879880  0.53072775  1
  Sc  Sc76  1  0.24733688  0.12443016  0.41005697  1
  Sc  Sc77  1  0.65523332  0.70085317  0.08122072  1
  Sc  Sc78  1  0.12444177  0.38761300  0.56664999  1
  Sc  Sc79  1  0.88676774  0.14665021  0.37716437  1
  Sc  Sc80  1  0.71760772  0.68588664  0.46000784  1
  Sc  Sc81  1  0.09688669  0.90795843  0.77029301  1
  Sc  Sc82  1  0.38688376  1.01694657  0.53465206  1
  Sc  Sc83  1  0.64106177  0.69656574  0.85792770  1
  Sc  Sc84  1  0.24181346  0.86909551  0.93119343  1
  Sc  Sc85  1  0.86471949  0.71447113  0.87825033  1
  Sc  Sc86  1  0.89829216  0.80422233  0.46540767  1
  Sc  Sc87  1  0.25344744  0.85556233  0.54066648  1
  Sc  Sc88  1  0.13728202  0.29010501  0.91388248  1
  Sc  Sc89  1  0.47012284  0.84033032  0.83396606  1
  Sc  Sc90  1  0.16182646  0.49150635  0.78611934  1
  Sc  Sc91  1  0.09067693  0.49961170  0.39369322  1
  Sc  Sc92  1  0.75599789  0.77741496  0.25873829  1
  Sc  Sc93  1  0.69910541  0.12998321  0.30185655  1
  Sc  Sc94  1  0.96029774  0.42958246  0.88533263  1
  Sc  Sc95  1  0.67503306  0.09084431  0.51707582  1
  Sc  Sc96  1  0.59361104  0.42499358  0.14171479  1
  Sc  Sc97  1  0.04162712  0.06625738  0.92526795  1
  Sc  Sc98  1  0.97347606  0.58351539  0.72707407  1
  Sc  Sc99  1  0.49850580  0.58311683  0.47769855  1
  Nb  Nb100  1  0.84632187  0.26337797  0.77870544  1
  Nb  Nb101  1  0.81851726  0.49781232  0.40881599  1
  Nb  Nb102  1  0.44412970  0.47524384  0.29906560  1
  Nb  Nb103  1  0.35544343  0.23454153  0.89358948  1
  Nb  Nb104  1  0.03296710  0.36603350  0.08761287  1
  Nb  Nb105  1  0.42664534  0.64156210  0.78834997  1
  Nb  Nb106  1  0.88770384  0.94240072  0.85342227  1
  Nb  Nb107  1  0.90712531  0.23344856  0.19580260  1
  Nb  Nb108  1  0.76368719  0.33596643  0.27169296  1
  Nb  Nb109  1  0.45089269  0.62538729  0.16178521  1
  Nb  Nb110  1  0.50832355  0.19712374  0.53853152  1
  Nb  Nb111  1  0.09340912  0.61610355  0.20936285  1
  Nb  Nb112  1  0.29724413  0.48731868  0.45112669  1
  Nb  Nb113  1  0.15903196  0.58691364  0.59985298  1
  Nb  Nb114  1  0.28237928  0.57555074  0.27621169  1
  Nb  Nb115  1  0.57272664  0.89067248  0.01786414  1
  Nb  Nb116  1  0.43733985  0.82512540  0.64146207  1
  Nb  Nb117  1  0.24990486  0.29596801  0.73086976  1
  Nb  Nb118  1  0.70566224  0.29722535  0.45851909  1
  Nb  Nb119  1  0.81301532  0.10669364  0.89818763  1
  Nb  Nb120  1  0.69471626  0.86533453  0.59562727  1
  Nb  Nb121  1  0.00513718  0.86080684  0.96783296  1
  Nb  Nb122  1  0.20607965  0.11394323  0.81143678  1
  Nb  Nb123  1  0.38453049  0.14016606  0.70950596  1
  Nb  Nb124  1  0.48882598  0.37924275  0.49566878  1
