# generated using pymatgen
data_Zr2Sc2Nb
_symmetry_space_group_name_H-M   'P 1'
_cell_length_a   14.25446028
_cell_length_b   14.17556794
_cell_length_c   14.22901286
_cell_angle_alpha   89.10738425
_cell_angle_beta   89.82395259
_cell_angle_gamma   89.15113487
_symmetry_Int_Tables_number   1
_chemical_formula_structural   Zr2Sc2Nb
_chemical_formula_sum   'Zr50 Sc50 Nb25'
_cell_volume   2874.51045460
_cell_formula_units_Z   25
loop_
 _symmetry_equiv_pos_site_id
 _symmetry_equiv_pos_as_xyz
  1  'x, y, z'
loop_
 _atom_site_type_symbol
 _atom_site_label
 _atom_site_symmetry_multiplicity
 _atom_site_fract_x
 _atom_site_fract_y
 _atom_site_fract_z
 _atom_site_occupancy
  Zr  Zr0  1  0.54098872  0.96876213  0.13522627  1
  Zr  Zr1  1  0.02606315  0.38953231  0.84791486  1
  Zr  Zr2  1  0.67953612  0.48731146  0.01536433  1
  Zr  Zr3  1  0.48771419  0.90968838  0.94180374  1
  Zr  Zr4  1  0.28806269  0.87991745  0.84575802  1
  Zr  Zr5  1  0.43577399  0.48550413  1.01976644  1
  Zr  Zr6  1  0.91542737  0.58116791  0.26807549  1
  Zr  Zr7  1  0.69108099  0.01825451  0.71774065  1
  Zr  Zr8  1  0.61374480  0.31364112  0.32627869  1
  Zr  Zr9  1  0.11537716  0.55443679  0.77589350  1
  Zr  Zr10  1  0.40889355  0.29653833  0.89501615  1
  Zr  Zr11  1  0.31065065  0.64800798  0.68756504  1
  Zr  Zr12  1  0.37292589  0.75262220  0.05621806  1
  Zr  Zr13  1  0.55160611  0.87920444  0.38355898  1
  Zr  Zr14  1  0.70999837  0.65938695  0.34024719  1
  Zr  Zr15  1  0.96622571  0.68940102  0.70773029  1
  Zr  Zr16  1  0.60564033  0.49830207  0.46202766  1
  Zr  Zr17  1  0.27690451  0.12428017  0.43024107  1
  Zr  Zr18  1  0.18148132  0.93127468  0.28851081  1
  Zr  Zr19  1  0.27461865  0.65607669  0.89862303  1
  Zr  Zr20  1  0.29604030  0.08328280  0.65445647  1
  Zr  Zr21  1  0.24686202  0.34088222  0.51840119  1
  Zr  Zr22  1  0.42587827  0.50139315  0.80013206  1
  Zr  Zr23  1  0.54020908  0.16008773  0.67497454  1
  Zr  Zr24  1  0.28699854  0.86446683  0.63171480  1
  Zr  Zr25  1  0.98185268  0.88300576  0.41402035  1
  Zr  Zr26  1  0.19773426  0.24403636  0.79253025  1
  Zr  Zr27  1  0.86419722  0.53050340  0.83615969  1
  Zr  Zr28  1  0.53230622  0.38897550  0.64450313  1
  Zr  Zr29  1  0.11517393  -0.00874104  0.71865705  1
  Zr  Zr30  1  0.76299450  0.88921334  0.43600429  1
  Zr  Zr31  1  0.88123027  0.81764523  0.86045900  1
  Zr  Zr32  1  0.37662156  0.91395030  0.21125751  1
  Zr  Zr33  1  0.45625226  0.24551613  0.47961948  1
  Zr  Zr34  1  0.21059286  0.58708999  0.08380433  1
  Zr  Zr35  1  0.24242311  0.53389423  0.39348278  1
  Zr  Zr36  1  0.01952715  0.49961900  0.44050572  1
  Zr  Zr37  1  0.45280086  0.30632616  0.20284729  1
  Zr  Zr38  1  0.56068074  0.51129882  0.20940846  1
  Zr  Zr39  1  0.06109655  0.30550101  0.39476841  1
  Zr  Zr40  1  0.47151368  0.95574090  0.73186242  1
  Zr  Zr41  1  0.52966663  0.74303546  0.19963523  1
  Zr  Zr42  1  0.73248499  0.45173591  0.64117282  1
  Zr  Zr43  1  0.98801156  0.18055181  0.75772759  1
  Zr  Zr44  1  0.90511775  0.30423129  0.55071841  1
  Zr  Zr45  1  0.93483508  0.35177043  0.21233938  1
  Zr  Zr46  1  0.48468269  0.65014565  0.39053346  1
  Zr  Zr47  1  0.30201904  0.97853669  0.03048810  1
  Zr  Zr48  1  0.67550252  0.29158825  0.51302292  1
  Zr  Zr49  1  0.45681994  0.73819359  0.79501378  1
  Sc  Sc50  1  0.83678465  0.34148520  0.98292402  1
  Sc  Sc51  1  0.58412031  0.30392620  0.03324763  1
  Sc  Sc52  1  0.73447834  0.66358167  0.13756268  1
  Sc  Sc53  1  0.83998901  0.21655045  0.36128012  1
  Sc  Sc54  1  0.04304485  0.64984876  0.93458370  1
  Sc  Sc55  1  0.89385526  0.52861664  0.05649350  1
  Sc  Sc56  1  0.75356172  0.45891683  0.22194794  1
  Sc  Sc57  1  0.07429956  0.36471662  0.64498541  1
  Sc  Sc58  1  0.62655855  0.54630290  0.81784951  1
  Sc  Sc59  1  0.43969586  0.14088068  0.05681168  1
  Sc  Sc60  1  0.75470293  0.65648948  0.68962440  1
  Sc  Sc61  1  0.01981822  0.21853052  0.97834610  1
  Sc  Sc62  1  0.67938126  0.83646739  0.02302994  1
  Sc  Sc63  1  0.27093685  0.31856131  0.31395102  1
  Sc  Sc64  1  0.37131525  0.27178761  0.68253805  1
  Sc  Sc65  1  0.15664396  0.06689591  0.89299295  1
  Sc  Sc66  1  0.16809633  0.80630032  0.09893575  1
  Sc  Sc67  1  0.07567902  0.41703004  0.04748203  1
  Sc  Sc68  1  0.81003496  0.85323235  0.64129017  1
  Sc  Sc69  1  0.13343319  0.74996955  0.50282415  1
  Sc  Sc70  1  0.57795468  0.10866544  0.88967241  1
  Sc  Sc71  1  0.88978760  0.68944011  0.49029675  1
  Sc  Sc72  1  0.15434552  0.55816920  0.57987476  1
  Sc  Sc73  1  0.07500264  0.87008972  0.91155836  1
  Sc  Sc74  1  0.89839956  0.05441625  0.53320792  1
  Sc  Sc75  1  0.93627358  0.73867371  0.08517162  1
  Sc  Sc76  1  0.81392934  0.45328520  0.42641342  1
  Sc  Sc77  1  0.70479649  0.87323374  0.22842735  1
  Sc  Sc78  1  0.46399727  0.09194727  0.32185881  1
  Sc  Sc79  1  0.74445965  0.26050763  0.16279266  1
  Sc  Sc80  1  0.35853876  0.52828044  0.21585371  1
  Sc  Sc81  1  0.24055827  0.43209562  0.91798404  1
  Sc  Sc82  1  0.34058188  0.88520496  0.42198374  1
  Sc  Sc83  1  0.10923153  0.24149881  0.18174193  1
  Sc  Sc84  1  0.29878253  0.72409865  0.27422313  1
  Sc  Sc85  1  0.55341174  0.66640274  0.98610954  1
  Sc  Sc86  1  0.64652984  0.32177293  0.82058278  1
  Sc  Sc87  1  0.71952163  0.07581766  0.06670797  1
  Sc  Sc88  1  0.77193023  0.19369970  0.66765396  1
  Sc  Sc89  1  0.28399988  0.12479264  0.20338748  1
  Sc  Sc90  1  0.65108394  0.80963613  0.80065378  1
  Sc  Sc91  1  0.08190885  0.70610575  0.28728619  1
  Sc  Sc92  1  0.10025493  0.16707455  0.56537011  1
  Sc  Sc93  1  0.11661601  0.47085430  0.24280472  1
  Sc  Sc94  1  0.15046435  0.97205753  0.50196608  1
  Sc  Sc95  1  0.04291293  0.09505690  0.33608688  1
  Sc  Sc96  1  0.64911602  0.08126950  0.49340799  1
  Sc  Sc97  1  0.66912441  0.08915092  0.28046120  1
  Sc  Sc98  1  0.10328811  0.03979828  0.09538980  1
  Sc  Sc99  1  0.80223940  0.16690844  0.87839628  1
  Nb  Nb100  1  0.43623241  0.42736485  0.38356394  1
  Nb  Nb101  1  0.76849309  0.66908612  0.93026898  1
  Nb  Nb102  1  0.32824368  0.67927748  0.49624405  1
  Nb  Nb103  1  0.94351004  0.02847470  0.94661267  1
  Nb  Nb104  1  0.28177534  0.36222122  0.10697615  1
  Nb  Nb105  1  0.44963558  0.01731751  0.53403857  1
  Nb  Nb106  1  0.92823553  0.50720886  0.63269059  1
  Nb  Nb107  1  0.36482185  0.09785663  0.85139451  1
  Nb  Nb108  1  0.90614790  1.00172269  0.75300480  1
  Nb  Nb109  1  0.85542064  0.00743942  0.29003162  1
  Nb  Nb110  1  1.00484766  0.90864477  0.20706999  1
  Nb  Nb111  1  0.24103237  0.21228834  0.00292066  1
  Nb  Nb112  1  0.86147599  0.92642076  0.08670701  1
  Nb  Nb113  1  0.38435463  0.49120914  0.55769221  1
  Nb  Nb114  1  0.75677306  0.96826678  0.89519960  1
  Nb  Nb115  1  0.14490553  0.76426063  0.74129259  1
  Nb  Nb116  1  0.87273435  0.78343738  0.27912200  1
  Nb  Nb117  1  0.53001696  0.61077748  0.62834571  1
  Nb  Nb118  1  0.91530184  0.12565190  0.14766446  1
  Nb  Nb119  1  0.65679501  0.71680053  0.51552411  1
  Nb  Nb120  1  0.86044769  0.34681563  0.75754155  1
  Nb  Nb121  1  0.26439911  0.43210664  0.71429563  1
  Nb  Nb122  1  0.61203455  0.89219511  0.59294817  1
  Nb  Nb123  1  0.00703874  0.86809750  0.62522685  1
  Nb  Nb124  1  0.46501425  0.78817526  0.57381631  1
