# generated using pymatgen
data_Zr2Sc2Nb
_symmetry_space_group_name_H-M   'P 1'
_cell_length_a   14.03135248
_cell_length_b   14.43816440
_cell_length_c   14.33791295
_cell_angle_alpha   91.44635057
_cell_angle_beta   88.93268289
_cell_angle_gamma   91.03405711
_symmetry_Int_Tables_number   1
_chemical_formula_structural   Zr2Sc2Nb
_chemical_formula_sum   'Zr50 Sc50 Nb25'
_cell_volume   2902.79622645
_cell_formula_units_Z   25
loop_
 _symmetry_equiv_pos_site_id
 _symmetry_equiv_pos_as_xyz
  1  'x, y, z'
loop_
 _atom_site_type_symbol
 _atom_site_label
 _atom_site_symmetry_multiplicity
 _atom_site_fract_x
 _atom_site_fract_y
 _atom_site_fract_z
 _atom_site_occupancy
  Zr  Zr0  1  0.02212555  0.22397476  0.94275336  1
  Zr  Zr1  1  0.44796300  0.48946011  0.18849227  1
  Zr  Zr2  1  0.85889209  0.56753143  0.09472371  1
  Zr  Zr3  1  0.95284427  0.21752544  0.25831174  1
  Zr  Zr4  1  0.46826453  0.56170430  0.37859090  1
  Zr  Zr5  1  0.06830218  0.90219258  0.16109612  1
  Zr  Zr6  1  0.71868858  0.73240553  0.09887818  1
  Zr  Zr7  1  0.63191494  0.29906803  0.62536370  1
  Zr  Zr8  1  0.97981172  0.90989201  0.91643300  1
  Zr  Zr9  1  0.13295183  0.06749098  0.02831718  1
  Zr  Zr10  1  0.66499547  0.77312441  0.45560089  1
  Zr  Zr11  1  0.65339519  0.47487173  0.28862135  1
  Zr  Zr12  1  0.52562138  0.25172322  0.11843685  1
  Zr  Zr13  1  0.86968147  0.80933325  0.74381908  1
  Zr  Zr14  1  0.22231622  0.74405219  0.09915501  1
  Zr  Zr15  1  0.64211301  0.55203201  0.09856161  1
  Zr  Zr16  1  0.61734287  0.90181875  0.02564102  1
  Zr  Zr17  1  0.25185505  0.36849769  0.70242262  1
  Zr  Zr18  1  0.73287799  0.48019756  0.70372211  1
  Zr  Zr19  1  0.21190395  0.15766140  0.70098673  1
  Zr  Zr20  1  0.31775682  0.05734050  0.88881813  1
  Zr  Zr21  1  0.96535928  0.01670595  0.35464201  1
  Zr  Zr22  1  0.74762508  0.52459665  0.90423508  1
  Zr  Zr23  1  0.51956016  1.01917324  0.85566174  1
  Zr  Zr24  1  0.14835790  0.83320558  0.50165507  1
  Zr  Zr25  1  0.36446209  0.68729039  0.23185009  1
  Zr  Zr26  1  0.17746694  0.87820763  0.94349626  1
  Zr  Zr27  1  0.69478206  0.88302776  0.26529555  1
  Zr  Zr28  1  0.66683358  0.16355734  0.95291045  1
  Zr  Zr29  1  0.68370864  0.32299790  0.43375788  1
  Zr  Zr30  1  0.48555037  0.17509772  0.50081876  1
  Zr  Zr31  1  0.10635602  0.18603318  0.41555894  1
  Zr  Zr32  1  0.30191616  0.71302130  0.89824045  1
  Zr  Zr33  1  0.15175070  0.97051126  0.35611743  1
  Zr  Zr34  1  0.15683341  0.74774092  0.29224740  1
  Zr  Zr35  1  0.10991131  0.53142977  0.70661433  1
  Zr  Zr36  1  0.52635881  0.80260510  0.85716755  1
  Zr  Zr37  1  0.29249116  0.03701783  0.50890743  1
  Zr  Zr38  1  0.94554605  0.48934692  0.59556324  1
  Zr  Zr39  1  0.10458390  0.89136994  0.71508226  1
  Zr  Zr40  1  0.74091303  0.93550935  0.62473117  1
  Zr  Zr41  1  0.95907088  0.41622414  1.00707005  1
  Zr  Zr42  1  0.16566552  0.43204398  0.92381426  1
  Zr  Zr43  1  0.97767130  0.72378558  0.15063815  1
  Zr  Zr44  1  0.32054447  0.53485410  0.57598334  1
  Zr  Zr45  1  0.69327728  0.12407619  0.50393495  1
  Zr  Zr46  1  0.33044983  0.88243357  0.35342405  1
  Zr  Zr47  1  0.49454716  0.88178647  0.19891971  1
  Zr  Zr48  1  0.42365205  0.68473035  0.72171151  1
  Zr  Zr49  1  0.51805024  0.41892020  0.00062764  1
  Sc  Sc50  1  0.76392616  0.14203990  0.75143852  1
  Sc  Sc51  1  0.34289661  0.11191607  0.31677450  1
  Sc  Sc52  1  0.49242332  0.70358214  0.05330774  1
  Sc  Sc53  1  0.78926322  0.66695810  0.29089047  1
  Sc  Sc54  1  0.49869410  0.66797254  0.54464902  1
  Sc  Sc55  1  0.89840138  0.29241538  0.44885315  1
  Sc  Sc56  1  0.10552170  0.53529909  0.16618009  1
  Sc  Sc57  1  0.06813019  0.60978416  0.42781935  1
  Sc  Sc58  1  0.89656275  0.69914761  0.94221557  1
  Sc  Sc59  1  0.86786826  0.40540320  0.21342953  1
  Sc  Sc60  1  0.70655960  0.26421369  0.23159868  1
  Sc  Sc61  1  0.09987787  0.61525981  -0.02365902  1
  Sc  Sc62  1  0.25678475  0.51738143  0.32709856  1
  Sc  Sc63  1  0.49325955  0.46877875  0.70256833  1
  Sc  Sc64  1  0.95272278  0.79952250  0.36704833  1
  Sc  Sc65  1  0.94117839  0.06000532  0.12729965  1
  Sc  Sc66  1  0.31304300  0.36505486  0.07539205  1
  Sc  Sc67  1  0.66389157  0.53246968  0.50766609  1
  Sc  Sc68  1  0.48265429  0.30978467  0.31700901  1
  Sc  Sc69  1  0.32625607  0.88037126  0.76731858  1
  Sc  Sc70  1  0.71470941  0.06794751  0.12168109  1
  Sc  Sc71  1  0.22699290  0.70971531  0.65767612  1
  Sc  Sc72  1  0.52702044  0.58320756  0.87694749  1
  Sc  Sc73  1  0.05403767  0.39830075  0.33068528  1
  Sc  Sc74  1  0.83890692  0.88719161  0.06480472  1
  Sc  Sc75  1  0.06492470  0.71423077  0.80948201  1
  Sc  Sc76  1  0.31491534  0.16436094  0.10370352  1
  Sc  Sc77  1  0.39173486  0.88743677  -0.00081871  1
  Sc  Sc78  1  0.89286493  0.10539411  0.54996225  1
  Sc  Sc79  1  0.72402352  0.36586041  0.04222798  1
  Sc  Sc80  1  0.53860989  0.87229286  0.66014468  1
  Sc  Sc81  1  0.23305911  0.24069152  0.89973513  1
  Sc  Sc82  1  0.58400653  0.08991538  0.67507258  1
  Sc  Sc83  1  0.47622403  0.39578148  0.50764080  1
  Sc  Sc84  1  0.08579737  0.04354237  0.57901818  1
  Sc  Sc85  1  0.85839362  0.50099452  0.40233627  1
  Sc  Sc86  1  0.29031639  0.25820177  0.51185899  1
  Sc  Sc87  1  0.15197289  0.42552949  0.50786192  1
  Sc  Sc88  1  0.61864218  0.32791067  0.83231665  1
  Sc  Sc89  1  0.78388230  0.10162141  0.32269243  1
  Sc  Sc90  1  0.73295131  0.94418283  0.85330703  1
  Sc  Sc91  1  0.42839294  0.24119907  0.71948084  1
  Sc  Sc92  1  0.25095681  0.30188038  0.28676044  1
  Sc  Sc93  1  0.53513946  0.96694756  0.46976367  1
  Sc  Sc94  1  0.56184528  0.08932624  0.28733462  1
  Sc  Sc95  1  0.28102869  0.95937008  0.16035435  1
  Sc  Sc96  1  0.85403169  0.31370771  0.65988279  1
  Sc  Sc97  1  0.83505963  0.68977164  0.53223693  1
  Sc  Sc98  1  0.66608208  0.69448402  0.68984483  1
  Sc  Sc99  1  0.09981789  0.30072985  0.12580513  1
  Nb  Nb100  1  0.10058688  0.05438183  0.83398198  1
  Nb  Nb101  1  0.87668504  0.08737491  0.92568713  1
  Nb  Nb102  1  -0.02009788  0.16989791  0.74594625  1
  Nb  Nb103  1  0.78796925  0.93226776  0.43858541  1
  Nb  Nb104  1  0.94534872  0.49760983  0.83405491  1
  Nb  Nb105  1  0.05042151  0.34406855  0.77685824  1
  Nb  Nb106  1  0.92049329  -0.00433286  0.73375748  1
  Nb  Nb107  1  0.13420901  0.11424498  0.22482533  1
  Nb  Nb108  1  0.39123618  1.03806554  0.66559401  1
  Nb  Nb109  1  0.32934377  0.55905522  0.01868041  1
  Nb  Nb110  1  0.45159079  0.21689127  0.93419601  1
  Nb  Nb111  1  0.85813858  0.23100511  1.07161906  1
  Nb  Nb112  1  0.37992381  0.39517052  0.87080017  1
  Nb  Nb113  1  0.29709856  0.68913852  0.44549656  1
  Nb  Nb114  1  0.29117931  0.54731102  0.80274283  1
  Nb  Nb115  1  0.94226963  0.88755907  0.55536051  1
  Nb  Nb116  1  0.01853202  0.70598525  0.60810160  1
  Nb  Nb117  1  0.06222244  0.27089814  0.59480131  1
  Nb  Nb118  1  0.48672065  0.78177571  0.38030938  1
  Nb  Nb119  1  0.86662138  0.62471552  0.73663873  1
  Nb  Nb120  1  0.36456350  0.84231255  0.55523257  1
  Nb  Nb121  1  0.84185179  0.30636090  0.86829218  1
  Nb  Nb122  1  0.58303625  0.68082125  0.25279999  1
  Nb  Nb123  1  0.49315985  0.05974893  0.06568659  1
  Nb  Nb124  1  0.70572580  0.72938746  0.89583085  1
