# generated using pymatgen
data_Zr2Sc2Nb
_symmetry_space_group_name_H-M   'P 1'
_cell_length_a   14.71113123
_cell_length_b   13.63884427
_cell_length_c   14.35960516
_cell_angle_alpha   91.46020303
_cell_angle_beta   91.88999874
_cell_angle_gamma   88.44495627
_symmetry_Int_Tables_number   1
_chemical_formula_structural   Zr2Sc2Nb
_chemical_formula_sum   'Zr50 Sc50 Nb25'
_cell_volume   2877.65207300
_cell_formula_units_Z   25
loop_
 _symmetry_equiv_pos_site_id
 _symmetry_equiv_pos_as_xyz
  1  'x, y, z'
loop_
 _atom_site_type_symbol
 _atom_site_label
 _atom_site_symmetry_multiplicity
 _atom_site_fract_x
 _atom_site_fract_y
 _atom_site_fract_z
 _atom_site_occupancy
  Zr  Zr0  1  0.81500570  0.63035705  0.36768783  1
  Zr  Zr1  1  0.92792715  0.47124660  0.78958978  1
  Zr  Zr2  1  0.75887322  0.61573146  0.70286679  1
  Zr  Zr3  1  0.92690813  0.72631152  0.04711727  1
  Zr  Zr4  1  0.76982188  0.60164894  0.14176506  1
  Zr  Zr5  1  0.35425765  0.68023380  0.59923584  1
  Zr  Zr6  1  0.61951035  0.01563735  0.72840958  1
  Zr  Zr7  1  0.46042428  0.74385558  0.23974116  1
  Zr  Zr8  1  0.26257679  0.77933393  0.15172696  1
  Zr  Zr9  1  0.24023211  0.12914272  0.78793793  1
  Zr  Zr10  1  0.41686571  0.46759380  0.52839877  1
  Zr  Zr11  1  0.94727459  0.26752022  0.49952413  1
  Zr  Zr12  1  0.25213306  0.60788063  0.95871790  1
  Zr  Zr13  1  0.84722047  0.42358394  0.38878016  1
  Zr  Zr14  1  0.53726854  0.35210517  0.85322971  1
  Zr  Zr15  1  0.55193538  0.08275559  0.91026479  1
  Zr  Zr16  1  0.54592172  0.56402486  0.14686350  1
  Zr  Zr17  1  0.53708846  0.82195480  0.63028288  1
  Zr  Zr18  1  0.08679410  0.28753562  0.81492883  1
  Zr  Zr19  1  0.05682616  0.52503367  0.43770601  1
  Zr  Zr20  1  0.29444966  0.84015682  0.91563576  1
  Zr  Zr21  1  0.32690045  0.56742045  0.19201163  1
  Zr  Zr22  1  0.88017513  0.93709099  0.14640495  1
  Zr  Zr23  1  0.09307768  0.11263971  0.42017894  1
  Zr  Zr24  1  0.21322309  0.68088660  0.76864784  1
  Zr  Zr25  1  0.21484273  0.51439286  0.60282091  1
  Zr  Zr26  1  0.56064073  0.36052945  0.64311434  1
  Zr  Zr27  1  0.51291142  0.09868807  0.13572857  1
  Zr  Zr28  1  0.65282538  0.51675568  0.48768003  1
  Zr  Zr29  1  0.34877760  0.34355571  0.32833748  1
  Zr  Zr30  1  1.07255927  0.94155569  0.55549124  1
  Zr  Zr31  1  0.70763136  0.82039249  0.76026852  1
  Zr  Zr32  1  0.26621766  1.07748938  0.58956380  1
  Zr  Zr33  1  0.65355603  0.22798784  1.00691084  1
  Zr  Zr34  1  0.86745463  0.79551710  0.60742540  1
  Zr  Zr35  1  0.17929123  0.73012784  0.52700719  1
  Zr  Zr36  1  0.89149094  0.74459669  0.82235478  1
  Zr  Zr37  1  0.94100343  0.12700702  0.26834859  1
  Zr  Zr38  1  -0.06029953  0.74040518  0.25201113  1
  Zr  Zr39  1  0.96266194  0.52639786  0.23846279  1
  Zr  Zr40  1  0.10257362  0.19432744  0.61497812  1
  Zr  Zr41  1  0.42684556  0.70458208  1.02152738  1
  Zr  Zr42  1  0.70316838  0.43908346  0.79122487  1
  Zr  Zr43  1  1.01071064  0.32175280  0.31846598  1
  Zr  Zr44  1  0.67114894  0.98192577  0.07976794  1
  Zr  Zr45  1  0.94659048  0.92316097  0.93941708  1
  Zr  Zr46  1  0.49278795  0.67938446  0.46254459  1
  Zr  Zr47  1  0.32676036  0.13818014  0.17191106  1
  Zr  Zr48  1  1.03909707  0.40616164  0.62791917  1
  Zr  Zr49  1  0.63808068  0.69085819  0.31266261  1
  Sc  Sc50  1  0.52564723  0.10076763  0.35534927  1
  Sc  Sc51  1  0.76011157  0.02319975  0.89691034  1
  Sc  Sc52  1  0.29179867  0.35795051  0.11459852  1
  Sc  Sc53  1  0.86650525  0.98924715  0.71808676  1
  Sc  Sc54  1  0.41852835  -0.03893472  0.75782469  1
  Sc  Sc55  1  0.66776965  0.44295698  0.01801484  1
  Sc  Sc56  1  0.42326539  0.71841047  0.79768224  1
  Sc  Sc57  1  0.77333231  0.36535457  0.59852512  1
  Sc  Sc58  1  0.84069527  0.13876301  0.07130636  1
  Sc  Sc59  1  0.02789326  0.63580257  0.67224070  1
  Sc  Sc60  1  0.37733270  0.49206555  0.75443740  1
  Sc  Sc61  1  0.55668975  0.59239855  0.66983140  1
  Sc  Sc62  1  0.67019230  0.44825475  0.27776730  1
  Sc  Sc63  1  0.69361877  0.21452519  0.78149131  1
  Sc  Sc64  1  0.29321906  0.33910968  0.87642971  1
  Sc  Sc65  1  0.05517640  0.83919876  0.76443981  1
  Sc  Sc66  1  0.16158683  0.45495407  0.25228295  1
  Sc  Sc67  1  0.99188670  0.74657795  0.45593223  1
  Sc  Sc68  1  0.44022500  0.19032521  0.74020249  1
  Sc  Sc69  1  0.01429359  0.27560570  0.10021283  1
  Sc  Sc70  1  0.10710409  0.62603077  0.11185222  1
  Sc  Sc71  1  0.70730772  0.94520573  0.55370438  1
  Sc  Sc72  1  0.87641412  0.55554043  0.55484578  1
  Sc  Sc73  1  0.40167629  0.24761866  0.53258191  1
  Sc  Sc74  1  0.83799449  0.31934691  0.92540973  1
  Sc  Sc75  1  0.48764254  0.03723034  0.55807679  1
  Sc  Sc76  1  0.59855710  0.62603998  0.89837222  1
  Sc  Sc77  1  0.93934669  0.48840383  1.02992200  1
  Sc  Sc78  1  0.79810075  0.59304653  0.92164244  1
  Sc  Sc79  1  0.12971903  0.42917946  0.99026452  1
  Sc  Sc80  1  0.77143558  0.22787001  0.39619071  1
  Sc  Sc81  1  0.50253621  0.33955961  0.18425537  1
  Sc  Sc82  1  0.43136962  0.47928604  -0.01067578  1
  Sc  Sc83  1  0.18842291  0.32864630  0.45892420  1
  Sc  Sc84  1  0.97481115  0.13750019  0.90466465  1
  Sc  Sc85  1  0.35685690  0.88334175  0.49772341  1
  Sc  Sc86  1  0.23714279  0.89217036  0.69664806  1
  Sc  Sc87  1  0.56267327  0.32347242  0.41358621  1
  Sc  Sc88  1  0.35467205  0.05115119  0.95188870  1
  Sc  Sc89  1  0.18276885  0.18582774  0.00846903  1
  Sc  Sc90  1  0.88886197  0.04437797  0.49749736  1
  Sc  Sc91  1  0.43400963  0.24511647  -0.00208965  1
  Sc  Sc92  1  0.55555227  0.86037685  0.90642338  1
  Sc  Sc93  1  0.36409632  0.94025550  0.27879603  1
  Sc  Sc94  1  0.65853103  0.16869863  0.56287140  1
  Sc  Sc95  1  0.29917261  0.12038674  0.38674562  1
  Sc  Sc96  1  0.67878031  0.20009460  0.21415712  1
  Sc  Sc97  1  0.82786174  0.35177930  0.17031047  1
  Sc  Sc98  1  0.90296848  0.22329448  0.71029370  1
  Sc  Sc99  1  0.74078081  0.01270819  0.31793167  1
  Nb  Nb100  1  0.17579658  0.88500900  0.37636462  1
  Nb  Nb101  1  0.57024019  0.87338162  0.41642719  1
  Nb  Nb102  1  0.14267306  -0.00867448  0.90298496  1
  Nb  Nb103  1  0.04511728  0.62401286  0.89371961  1
  Nb  Nb104  1  0.31745259  0.72159320  0.36194609  1
  Nb  Nb105  1  0.75330519  0.80828282  0.20363514  1
  Nb  Nb106  1  0.46907415  0.52324683  0.33406321  1
  Nb  Nb107  1  0.79990690  0.83606734  0.39995532  1
  Nb  Nb108  1  0.69274431  0.72315412  0.53109633  1
  Nb  Nb109  1  0.27246686  0.54580529  0.41111701  1
  Nb  Nb110  1  0.11393788  0.80249530  -0.02119370  1
  Nb  Nb111  1  0.23035990  0.96626358  0.08288401  1
  Nb  Nb112  1  0.57696068  0.91072883  0.23481407  1
  Nb  Nb113  1  0.16575089  0.22854797  0.24107596  1
  Nb  Nb114  1  0.13579585  0.68718933  0.31044921  1
  Nb  Nb115  1  0.44113138  0.90829144  0.08244522  1
  Nb  Nb116  1  -0.01441446  0.93094049  0.33997398  1
  Nb  Nb117  1  0.06244395  0.05209306  0.73378892  1
  Nb  Nb118  1  0.60914429  0.75519757  0.08737077  1
  Nb  Nb119  1  0.25643802  0.31734526  0.67074936  1
  Nb  Nb120  1  0.15229680  0.02989807  0.24744777  1
  Nb  Nb121  1  0.75621477  0.80874868  0.98105151  1
  Nb  Nb122  1  0.04514712  0.04547624  0.08762296  1
  Nb  Nb123  1  0.15382425  0.48319574  0.79008526  1
  Nb  Nb124  1  0.07723612  0.85512200  0.17167702  1
