# generated using pymatgen
data_Zr2Sc2Nb
_symmetry_space_group_name_H-M   'P 1'
_cell_length_a   14.59927408
_cell_length_b   14.50415996
_cell_length_c   13.56674906
_cell_angle_alpha   89.67531609
_cell_angle_beta   89.04667964
_cell_angle_gamma   92.32520413
_symmetry_Int_Tables_number   1
_chemical_formula_structural   Zr2Sc2Nb
_chemical_formula_sum   'Zr50 Sc50 Nb25'
_cell_volume   2869.94147092
_cell_formula_units_Z   25
loop_
 _symmetry_equiv_pos_site_id
 _symmetry_equiv_pos_as_xyz
  1  'x, y, z'
loop_
 _atom_site_type_symbol
 _atom_site_label
 _atom_site_symmetry_multiplicity
 _atom_site_fract_x
 _atom_site_fract_y
 _atom_site_fract_z
 _atom_site_occupancy
  Zr  Zr0  1  0.15158287  0.28771428  0.01982438  1
  Zr  Zr1  1  0.88668626  0.23276023  0.50030312  1
  Zr  Zr2  1  0.60358206  0.52834768  0.85436275  1
  Zr  Zr3  1  0.70967586  0.25232895  0.16854153  1
  Zr  Zr4  1  0.34955052  0.84300844  0.13743351  1
  Zr  Zr5  1  0.09793083  0.70546739  0.70595736  1
  Zr  Zr6  1  0.73411645  0.10372200  0.54928618  1
  Zr  Zr7  1  0.92890782  0.29646058  0.05628136  1
  Zr  Zr8  1  0.97191559  0.55382532  0.77030990  1
  Zr  Zr9  1  0.05806902  0.52266857  0.54821328  1
  Zr  Zr10  1  0.63727647  0.93109857  0.28229387  1
  Zr  Zr11  1  0.78493476  0.09060459  0.32525856  1
  Zr  Zr12  1  0.98815493  0.70985006  0.92747926  1
  Zr  Zr13  1  0.02535269  0.28246385  0.83732836  1
  Zr  Zr14  1  0.85916511  0.40442473  0.86501335  1
  Zr  Zr15  1  0.25429767  0.31407278  0.82649841  1
  Zr  Zr16  1  0.81814233  0.83554883  0.89009706  1
  Zr  Zr17  1  0.03252577  0.37040725  0.38920101  1
  Zr  Zr18  1  0.10896771  0.57176164  0.32400344  1
  Zr  Zr19  1  0.38989590  0.53294116  0.76295667  1
  Zr  Zr20  1  0.91763328  0.76718379  0.71399359  1
  Zr  Zr21  1  0.73887203  0.43145191  0.02448684  1
  Zr  Zr22  1  0.43594194  0.54478848  0.53685165  1
  Zr  Zr23  1  0.07595581  0.10182139  0.03739851  1
  Zr  Zr24  1  0.56241238  0.36872156  1.04116679  1
  Zr  Zr25  1  0.89163573  0.54631132  0.05926421  1
  Zr  Zr26  1  0.74434681  0.49343792  0.66896176  1
  Zr  Zr27  1  0.49281201  0.28564513  0.49491033  1
  Zr  Zr28  1  0.07726186  0.63073324  0.11773555  1
  Zr  Zr29  1  0.42277159  0.73551776  0.71097183  1
  Zr  Zr30  1  0.50154631  0.67585341  0.16540447  1
  Zr  Zr31  1  0.85600079  0.89530794  0.27923738  1
  Zr  Zr32  1  0.63363045  0.06587357  0.10973314  1
  Zr  Zr33  1  0.43215427  1.01695006  0.23571778  1
  Zr  Zr34  1  0.71975782  0.91075674  0.48469612  1
  Zr  Zr35  1  0.55150497  0.85471908  1.08233594  1
  Zr  Zr36  1  1.03615837  0.90329326  0.61208548  1
  Zr  Zr37  1  0.01901056  0.78641170  0.25690251  1
  Zr  Zr38  1  0.25540141  0.98997024  0.95875789  1
  Zr  Zr39  1  0.44556474  0.02578524  0.81076697  1
  Zr  Zr40  1  0.79592696  0.62337553  0.85328270  1
  Zr  Zr41  1  0.23423115  0.87361507  0.77085197  1
  Zr  Zr42  1  0.28378286  0.64274183  0.11602610  1
  Zr  Zr43  1  0.71504070  0.28538902  0.39396694  1
  Zr  Zr44  1  0.81917458  0.95896585  0.69676207  1
  Zr  Zr45  1  0.73171698  0.74490928  0.66191118  1
  Zr  Zr46  1  0.12418085  0.28770112  0.62855425  1
  Zr  Zr47  1  0.91551025  0.01050103  0.47367063  1
  Zr  Zr48  1  0.16378306  0.47264771  0.74129724  1
  Zr  Zr49  1  0.74855688  0.20862396  0.95947142  1
  Sc  Sc50  1  0.63994667  0.96862450  0.90707768  1
  Sc  Sc51  1  0.75667925  0.89057884  0.08671181  1
  Sc  Sc52  1  0.24097662  0.65937738  0.86136503  1
  Sc  Sc53  1  0.93769145  0.38239673  0.64907506  1
  Sc  Sc54  1  0.90130659  0.06949331  0.88730351  1
  Sc  Sc55  1  0.83933483  0.44374194  0.46420409  1
  Sc  Sc56  1  0.68805192  0.66306627  0.04200346  1
  Sc  Sc57  1  0.44068396  0.48351803  0.17073387  1
  Sc  Sc58  1  0.06464115  0.15664076  0.43527720  1
  Sc  Sc59  1  0.23559612  0.43264529  0.21875674  1
  Sc  Sc60  1  0.58603480  0.89749871  0.67549677  1
  Sc  Sc61  1  0.35341912  0.31624624  0.07167739  1
  Sc  Sc62  1  0.39687748  0.74909921  0.49179019  1
  Sc  Sc63  1  0.27030643  0.47830629  0.97457621  1
  Sc  Sc64  1  0.31135537  0.91588326  0.37934424  1
  Sc  Sc65  1  0.06137071  0.47268000  0.95459472  1
  Sc  Sc66  1  0.65838819  0.33598638  0.82151908  1
  Sc  Sc67  1  0.17185072  0.94119083  0.17643051  1
  Sc  Sc68  1  0.88465495  0.79521580  0.47522932  1
  Sc  Sc69  1  0.34038499  0.36675092  0.63053412  1
  Sc  Sc70  1  0.44553157  0.61224712  0.96210710  1
  Sc  Sc71  1  0.69701160  0.73533745  0.26885380  1
  Sc  Sc72  1  0.25692942  0.24995443  0.45590800  1
  Sc  Sc73  1  0.16789613  0.80116337  0.00334537  1
  Sc  Sc74  1  0.65619406  0.11856828  0.76418712  1
  Sc  Sc75  1  0.83499936  0.41315436  0.23905178  1
  Sc  Sc76  1  0.90502878  0.61007633  0.31207610  1
  Sc  Sc77  1  0.22818434  0.44892363  0.45875778  1
  Sc  Sc78  1  0.38586322  0.09887713  0.44955361  1
  Sc  Sc79  1  1.01063566  0.04930141  0.25264468  1
  Sc  Sc80  1  -0.00542957  0.11000487  0.66483509  1
  Sc  Sc81  1  0.31801031  0.14871550  0.68099391  1
  Sc  Sc82  1  0.21298867  0.82200274  0.54997577  1
  Sc  Sc83  1  0.72937452  0.62618328  0.46510650  1
  Sc  Sc84  1  0.13214111  0.24242958  0.23204868  1
  Sc  Sc85  1  0.57484881  0.13591795  0.34374922  1
  Sc  Sc86  1  0.97699854  0.90569754  0.05950779  1
  Sc  Sc87  1  0.60107644  0.74960783  0.85299439  1
  Sc  Sc88  1  0.39645505  0.82625787  0.91739300  1
  Sc  Sc89  1  0.85612832  0.09057878  0.11222003  1
  Sc  Sc90  1  0.53489873  0.09885253  0.59467547  1
  Sc  Sc91  1  0.15182407  0.11610270  0.82349409  1
  Sc  Sc92  1  0.34034636  0.60696997  0.33005153  1
  Sc  Sc93  1  0.03988859  0.91644704  0.84115330  1
  Sc  Sc94  1  0.21146907  0.75647735  0.30664173  1
  Sc  Sc95  1  0.83163682  0.22043440  0.73579368  1
  Sc  Sc96  1  0.38006775  0.93676972  0.61798717  1
  Sc  Sc97  1  0.24987772  0.61929485  0.59744320  1
  Sc  Sc98  1  0.19236363  0.03943818  0.54997834  1
  Sc  Sc99  1  0.66014177  0.51797507  0.22561106  1
  Nb  Nb100  1  0.67542106  0.29044234  0.60499828  1
  Nb  Nb101  1  0.51664554  0.94139695  0.45088130  1
  Nb  Nb102  1  0.48642158  0.24394450  0.73990537  1
  Nb  Nb103  1  0.37146159  0.24346937  0.28008280  1
  Nb  Nb104  1  0.08890627  0.91910993  0.39882134  1
  Nb  Nb105  1  0.91825157  0.23964114  0.27537055  1
  Nb  Nb106  1  0.05816342  0.71307971  0.47770875  1
  Nb  Nb107  1  0.58779845  0.76311692  0.49151846  1
  Nb  Nb108  1  0.89791336  0.61434040  0.58396679  1
  Nb  Nb109  1  0.54430552  0.18470871  0.93663890  1
  Nb  Nb110  1  0.41396437  0.41834765  0.37624026  1
  Nb  Nb111  1  0.58057348  0.62056298  0.64299641  1
  Nb  Nb112  1  0.47798350  0.80469582  0.30595862  1
  Nb  Nb113  1  0.44456559  0.37507196  0.87281647  1
  Nb  Nb114  1  0.55508974  0.34093472  0.27361587  1
  Nb  Nb115  1  0.61481632  0.45225386  0.46635985  1
  Nb  Nb116  1  0.28208648  0.12503435  0.11939524  1
  Nb  Nb117  1  0.53849308  0.60710615  0.37014823  1
  Nb  Nb118  1  0.03092045  0.42640812  0.17798766  1
  Nb  Nb119  1  0.22565305  0.08369408  0.31699467  1
  Nb  Nb120  1  0.87466923  0.73115144  0.11367111  1
  Nb  Nb121  1  0.54257045  0.42349240  0.66737658  1
  Nb  Nb122  1  0.44459217  0.01984139  0.02261591  1
  Nb  Nb123  1  0.35303594  0.17498707  0.92107955  1
  Nb  Nb124  1  0.48975775  0.19198491  0.13319397  1
