# generated using pymatgen
data_Zr2Sc2Nb
_symmetry_space_group_name_H-M   'P 1'
_cell_length_a   14.25770927
_cell_length_b   14.31056390
_cell_length_c   13.98178666
_cell_angle_alpha   89.82949227
_cell_angle_beta   90.66069048
_cell_angle_gamma   89.99650596
_symmetry_Int_Tables_number   1
_chemical_formula_structural   Zr2Sc2Nb
_chemical_formula_sum   'Zr50 Sc50 Nb25'
_cell_volume   2852.58355041
_cell_formula_units_Z   25
loop_
 _symmetry_equiv_pos_site_id
 _symmetry_equiv_pos_as_xyz
  1  'x, y, z'
loop_
 _atom_site_type_symbol
 _atom_site_label
 _atom_site_symmetry_multiplicity
 _atom_site_fract_x
 _atom_site_fract_y
 _atom_site_fract_z
 _atom_site_occupancy
  Zr  Zr0  1  0.44017023  0.33980245  0.49277916  1
  Zr  Zr1  1  0.15805774  0.53971753  0.96796299  1
  Zr  Zr2  1  0.55826904  0.94804085  0.53424615  1
  Zr  Zr3  1  0.47206236  0.14468984  0.61123428  1
  Zr  Zr4  1  1.05684700  0.48979338  0.41850961  1
  Zr  Zr5  1  0.48094541  0.12306235  0.40225405  1
  Zr  Zr6  1  0.12644925  -0.03926581  0.16649594  1
  Zr  Zr7  1  0.61450364  0.96941152  0.32955392  1
  Zr  Zr8  1  0.87791430  0.67472561  0.40573457  1
  Zr  Zr9  1  0.70498988  0.76475876  0.04529849  1
  Zr  Zr10  1  0.69736492  0.58417439  0.38431073  1
  Zr  Zr11  1  0.78032779  0.37891244  0.63640547  1
  Zr  Zr12  1  0.95718164  0.70245496  0.89199910  1
  Zr  Zr13  1  0.05791325  0.40794667  0.12171255  1
  Zr  Zr14  1  0.56161454  0.60534746  0.93845276  1
  Zr  Zr15  1  0.83660747  0.42989933  0.10619971  1
  Zr  Zr16  1  0.91969545  0.08616503  0.85745911  1
  Zr  Zr17  1  -0.01684035  0.92042003  0.30556773  1
  Zr  Zr18  1  0.62546854  0.54864675  0.15396411  1
  Zr  Zr19  1  0.66110328  0.83201125  0.67925713  1
  Zr  Zr20  1  0.14637609  0.90352525  0.45676947  1
  Zr  Zr21  1  0.84006168  0.45572519  0.45945054  1
  Zr  Zr22  1  0.97610829  0.04464611  0.48871690  1
  Zr  Zr23  1  0.43172022  0.86373661  0.34909837  1
  Zr  Zr24  1  0.10675969  0.11910335  0.98663901  1
  Zr  Zr25  1  0.28235668  0.19184777  0.48555232  1
  Zr  Zr26  1  0.64724566  0.33313344  0.45565923  1
  Zr  Zr27  1  0.34734064  0.98110904  0.52726042  1
  Zr  Zr28  1  0.75169343  0.18367695  0.97000799  1
  Zr  Zr29  1  0.95824623  0.60657708  0.57796571  1
  Zr  Zr30  1  0.36795380  0.27834554  0.73363722  1
  Zr  Zr31  1  0.82636590  0.89020690  0.85162648  1
  Zr  Zr32  1  0.12657073  0.77187178  0.07488485  1
  Zr  Zr33  1  0.15615006  0.33803992  0.31875858  1
  Zr  Zr34  1  0.34750558  0.86840079  0.14375453  1
  Zr  Zr35  1  0.29776854  0.18379115  0.91327216  1
  Zr  Zr36  1  0.78551571  0.57869176  0.97523280  1
  Zr  Zr37  1  0.79153721  0.83286379  0.27392146  1
  Zr  Zr38  1  0.22792203  0.89143994  0.72073596  1
  Zr  Zr39  1  0.32964536  0.43427379  0.28632471  1
  Zr  Zr40  1  0.92794413  0.05183356  0.07159193  1
  Zr  Zr41  1  0.60103996  0.73907043  0.27207247  1
  Zr  Zr42  1  0.93619430  0.32481766  0.29632612  1
  Zr  Zr43  1  0.08664034  0.19335527  0.17698185  1
  Zr  Zr44  1  0.54346665  0.19032224  0.87663864  1
  Zr  Zr45  1  0.39789395  0.65648968  0.28113979  1
  Zr  Zr46  1  0.51763710  0.39425661  0.89449772  1
  Zr  Zr47  1  0.59284630  1.01918603  0.75031192  1
  Zr  Zr48  1  0.43253206  0.24875528  0.06727523  1
  Zr  Zr49  1  0.00714325  0.94621538  0.69662965  1
  Sc  Sc50  1  0.75547174  0.37737817  0.89336395  1
  Sc  Sc51  1  0.52189194  0.66293226  0.71715409  1
  Sc  Sc52  1  0.12271087  0.32178697  0.90632265  1
  Sc  Sc53  1  0.52311499  0.49025582  0.34509901  1
  Sc  Sc54  1  0.93069566  0.31096375  0.79839187  1
  Sc  Sc55  1  0.38319316  0.78868583  0.91118753  1
  Sc  Sc56  1  0.29783646  0.76050065  0.50630870  1
  Sc  Sc57  1  0.90851907  0.83365220  0.07737487  1
  Sc  Sc58  1  0.23480096  0.39575248  0.52476793  1
  Sc  Sc59  1  0.80180656  0.64307940  0.18924090  1
  Sc  Sc60  1  0.65245141  0.50270874  0.76298020  1
  Sc  Sc61  1  0.45765282  0.02296827  0.97717350  1
  Sc  Sc62  1  0.32035729  0.39526538  0.92737980  1
  Sc  Sc63  1  0.01981487  0.40845798  0.62393736  1
  Sc  Sc64  1  0.04231383  0.91153454  0.91476805  1
  Sc  Sc65  1  0.53756813  0.71419453  0.49523293  1
  Sc  Sc66  1  0.52777191  0.28965701  0.26161900  1
  Sc  Sc67  1  0.72910393  0.69612658  0.81770996  1
  Sc  Sc68  1  0.43470751  0.85145621  0.69124973  1
  Sc  Sc69  1  0.56771216  0.90159157  0.12467676  1
  Sc  Sc70  1  0.80581159  0.98588032  0.63448582  1
  Sc  Sc71  1  0.30034837  0.66030636  0.08124362  1
  Sc  Sc72  1  0.63249796  0.34460359  0.07648140  1
  Sc  Sc73  1  0.15996279  0.25587886  0.69264814  1
  Sc  Sc74  1  0.57864399  0.83380121  0.88664237  1
  Sc  Sc75  1  0.28239708  0.08874890  0.11309055  1
  Sc  Sc76  1  0.84448381  0.22936596  0.46932594  1
  Sc  Sc77  1  0.38978042  0.55966928  0.51719516  1
  Sc  Sc78  1  0.75800863  0.01367685  0.17657303  1
  Sc  Sc79  1  0.94172521  0.26428326  0.01303003  1
  Sc  Sc80  1  0.22457048  0.46239297  0.74956003  1
  Sc  Sc81  1  0.16100853  0.06780077  0.59201364  1
  Sc  Sc82  1  0.87698114  0.76579891  0.68219404  1
  Sc  Sc83  1  0.86721422  0.53519340  0.75796917  1
  Sc  Sc84  1  0.09620154  0.76120192  0.64292182  1
  Sc  Sc85  1  0.92104795  0.11864110  0.29099354  1
  Sc  Sc86  1  0.74563861  0.17962331  0.74722411  1
  Sc  Sc87  1  0.66993179  0.12879352  0.53545914  1
  Sc  Sc88  1  0.24678007  0.95011038  0.94333882  1
  Sc  Sc89  1  0.42944743  0.47811322  0.70953834  1
  Sc  Sc90  1  0.68959874  0.99610822  -0.03871785  1
  Sc  Sc91  1  0.42917809  0.48372126  0.09312707  1
  Sc  Sc92  1  0.18043331  0.73095060  0.86952891  1
  Sc  Sc93  1  0.15218781  0.57014336  0.20989936  1
  Sc  Sc94  1  0.32065075  0.21185338  0.27446287  1
  Sc  Sc95  1  0.35415955  0.05385283  0.75676438  1
  Sc  Sc96  1  0.72608317  0.81102777  0.47816045  1
  Sc  Sc97  1  0.00857218  0.72644699  0.24645099  1
  Sc  Sc98  1  0.96056560  0.16528016  0.65717347  1
  Sc  Sc99  1  0.57984367  0.31285770  0.68086094  1
  Nb  Nb100  1  0.29008655  -0.00159677  0.32069910  1
  Nb  Nb101  1  0.07168459  0.58516438  0.76468626  1
  Nb  Nb102  1  0.93823860  0.84474700  0.49630129  1
  Nb  Nb103  1  0.46101665  0.05701499  0.21204633  1
  Nb  Nb104  1  0.24011809  0.31836326  0.10302313  1
  Nb  Nb105  1  0.29778900  0.66845633  0.70996079  1
  Nb  Nb106  1  0.36510395  0.58819154  0.88490382  1
  Nb  Nb107  1  0.13393469  0.07726662  0.79805128  1
  Nb  Nb108  1  0.73198712  0.39276136  0.27899345  1
  Nb  Nb109  1  0.23739134  0.58497866  0.38836520  1
  Nb  Nb110  1  0.60207628  0.13452810  0.11437737  1
  Nb  Nb111  1  0.22062402  0.78260202  0.28555288  1
  Nb  Nb112  1  0.96875427  0.47565389  0.92916414  1
  Nb  Nb113  1  0.73470141  0.62395894  0.59892957  1
  Nb  Nb114  1  0.06279576  0.24695727  0.47660163  1
  Nb  Nb115  1  0.08963633  0.70738469  0.43098361  1
  Nb  Nb116  1  0.49711796  0.70817800  0.08985448  1
  Nb  Nb117  1  -0.01933715  0.60825828  0.07543901  1
  Nb  Nb118  1  0.69164455  0.16952756  0.31592122  1
  Nb  Nb119  1  0.17301891  0.58318192  0.58136107  1
  Nb  Nb120  1  0.79349480  0.22797846  0.16468195  1
  Nb  Nb121  1  0.93322505  0.52149098  0.26829711  1
  Nb  Nb122  1  0.79458931  1.00146041  0.41062764  1
  Nb  Nb123  1  0.13399098  0.10212330  0.35511250  1
  Nb  Nb124  1  0.59424020  0.50027079  0.55835541  1
