# generated using pymatgen
data_Zr2Sc2Nb
_symmetry_space_group_name_H-M   'P 1'
_cell_length_a   14.01236472
_cell_length_b   14.18556769
_cell_length_c   14.43123558
_cell_angle_alpha   91.58297256
_cell_angle_beta   90.28822793
_cell_angle_gamma   88.67286290
_symmetry_Int_Tables_number   1
_chemical_formula_structural   Zr2Sc2Nb
_chemical_formula_sum   'Zr50 Sc50 Nb25'
_cell_volume   2866.65343242
_cell_formula_units_Z   25
loop_
 _symmetry_equiv_pos_site_id
 _symmetry_equiv_pos_as_xyz
  1  'x, y, z'
loop_
 _atom_site_type_symbol
 _atom_site_label
 _atom_site_symmetry_multiplicity
 _atom_site_fract_x
 _atom_site_fract_y
 _atom_site_fract_z
 _atom_site_occupancy
  Zr  Zr0  1  0.44608092  0.36282715  0.86937855  1
  Zr  Zr1  1  0.01837742  0.67484163  0.27673611  1
  Zr  Zr2  1  0.74343782  0.51107367  0.28075146  1
  Zr  Zr3  1  0.29022990  0.30304705  0.36908477  1
  Zr  Zr4  1  0.94959118  0.53754086  0.97893018  1
  Zr  Zr5  1  0.66868078  0.35289564  0.39895230  1
  Zr  Zr6  1  0.93732915  0.33272307  0.87686184  1
  Zr  Zr7  1  0.31578853  0.92797389  0.96452362  1
  Zr  Zr8  1  0.05454204  0.32599888  0.67796180  1
  Zr  Zr9  1  0.93432899  0.48203415  0.18757421  1
  Zr  Zr10  1  0.53418429  0.16413837  0.90693332  1
  Zr  Zr11  1  0.12820082  0.56496298  0.10088382  1
  Zr  Zr12  1  0.32010895  0.48482456  0.59443686  1
  Zr  Zr13  1  0.92956259  0.50292685  0.59225512  1
  Zr  Zr14  1  0.11610701  0.79586830  0.46888637  1
  Zr  Zr15  1  0.70307107  0.41355639  0.60438134  1
  Zr  Zr16  1  0.81263117  0.70665287  0.30801235  1
  Zr  Zr17  1  0.84281473  0.28645768  0.69636089  1
  Zr  Zr18  1  0.58141215  0.09223565  0.71370224  1
  Zr  Zr19  1  0.22812834  0.68547872  0.29785850  1
  Zr  Zr20  1  0.37650189  0.70941313  0.48344764  1
  Zr  Zr21  1  0.28118391  0.26100228  0.56493141  1
  Zr  Zr22  1  0.91998966  0.53693719  0.78281072  1
  Zr  Zr23  1  0.83995054  0.30094159  0.04966272  1
  Zr  Zr24  1  0.33565210  0.13701913  0.82661945  1
  Zr  Zr25  1  0.65115223  0.66573298  0.15150717  1
  Zr  Zr26  1  0.10739176  0.02553301  0.87260703  1
  Zr  Zr27  1  0.26315746  0.09352785  0.44254415  1
  Zr  Zr28  1  0.11793241  0.95012946  0.06967053  1
  Zr  Zr29  1  0.74897863  0.82012976  0.02341777  1
  Zr  Zr30  1  0.53780473  0.54823178  0.51052380  1
  Zr  Zr31  1  0.68177724  0.89136588  0.69993085  1
  Zr  Zr32  1  0.44673524  0.65415339  0.68612075  1
  Zr  Zr33  1  0.18953338  0.10469555  0.66091476  1
  Zr  Zr34  1  0.75383269  0.58925021  0.49295384  1
  Zr  Zr35  1  0.05034937  0.30050810  0.29371335  1
  Zr  Zr36  1  0.23671242  0.71384031  0.66957464  1
  Zr  Zr37  1  0.48484022  0.96116807  0.83258244  1
  Zr  Zr38  1  0.77812061  0.08777410  0.71352227  1
  Zr  Zr39  1  0.53963989  0.89316679  0.01374677  1
  Zr  Zr40  1  0.35459770  0.73975877  0.86294383  1
  Zr  Zr41  1  0.86695323  0.31724547  0.48009186  1
  Zr  Zr42  1  0.52755999  0.02341588  0.27491041  1
  Zr  Zr43  1  0.71249039  1.00558956  0.91536067  1
  Zr  Zr44  1  0.09206872  0.90053137  0.66740022  1
  Zr  Zr45  1  0.50718277  0.25962964  0.27619292  1
  Zr  Zr46  1  0.31804655  0.54319324  0.97603032  1
  Zr  Zr47  1  0.12797777  0.52372309  0.68925598  1
  Zr  Zr48  1  0.07955961  -0.00318583  0.46950605  1
  Zr  Zr49  1  0.65617714  0.17552091  0.09491786  1
  Sc  Sc50  1  0.32648172  0.51076117  0.18365118  1
  Sc  Sc51  1  0.60451364  0.69202963  0.36566228  1
  Sc  Sc52  1  0.26606795  0.33700009  0.97364817  1
  Sc  Sc53  1  0.52359079  0.49396257  0.29458016  1
  Sc  Sc54  1  0.26610303  0.33909908  0.75285342  1
  Sc  Sc55  1  0.74905408  0.49284888  0.05961437  1
  Sc  Sc56  1  0.74410659  0.63485587  0.91362125  1
  Sc  Sc57  1  0.48490886  0.14622714  0.45640528  1
  Sc  Sc58  1  0.44849880  0.28597254  0.08249935  1
  Sc  Sc59  1  0.94324579  0.50070358  0.38894902  1
  Sc  Sc60  1  0.23641792  0.30537798  0.17782456  1
  Sc  Sc61  1  0.30385532  0.89397871  0.35117398  1
  Sc  Sc62  1  0.58388891  0.76494973  0.83058937  1
  Sc  Sc63  1  0.10748662  0.87388281  0.25647684  1
  Sc  Sc64  1  0.13427874  0.63491486  0.88371071  1
  Sc  Sc65  1  0.89183589  0.87760220  0.17732795  1
  Sc  Sc66  1  0.12225178  0.39721086  0.48504379  1
  Sc  Sc67  1  0.34714952  0.12167918  0.24488414  1
  Sc  Sc68  1  0.32952122  0.51673242  0.39339279  1
  Sc  Sc69  1  0.85714971  0.08450343  0.10042658  1
  Sc  Sc70  1  0.84398276  0.10417854  0.50394506  1
  Sc  Sc71  1  0.05946373  0.19931768  0.48796913  1
  Sc  Sc72  1  0.13353696  0.59964655  0.48654132  1
  Sc  Sc73  1  0.11422152  0.82927948  0.87340784  1
  Sc  Sc74  1  0.64681401  1.00227064  0.52390064  1
  Sc  Sc75  1  0.14034001  0.09710301  0.25831945  1
  Sc  Sc76  1  0.46116867  0.70519253  0.05120423  1
  Sc  Sc77  1  0.98601388  0.10685508  0.69010593  1
  Sc  Sc78  1  0.51943648  0.49426349  0.08162260  1
  Sc  Sc79  1  0.27946557  0.89859790  0.55356941  1
  Sc  Sc80  1  0.89599346  0.90650224  0.58707575  1
  Sc  Sc81  1  0.92585794  0.87424878  0.38591185  1
  Sc  Sc82  1  0.11956195  0.22256832  0.85902415  1
  Sc  Sc83  1  0.70055825  0.14352570  0.32279006  1
  Sc  Sc84  1  0.83850082  0.29294062  0.26209977  1
  Sc  Sc85  1  0.47737375  0.35230265  0.49427689  1
  Sc  Sc86  1  0.93232292  0.08610436  0.30908566  1
  Sc  Sc87  1  0.81734771  0.71893619  0.68610406  1
  Sc  Sc88  1  0.66580401  0.58254875  0.71186548  1
  Sc  Sc89  1  0.04871099  0.15868288  0.06038481  1
  Sc  Sc90  1  0.53360670  0.55288595  0.87874980  1
  Sc  Sc91  1  0.24728473  0.74355412  0.08328756  1
  Sc  Sc92  1  0.50768252  0.87207770  0.43100740  1
  Sc  Sc93  1  0.27010677  0.12258758  0.03817399  1
  Sc  Sc94  1  0.90064979  0.91103365  0.79083031  1
  Sc  Sc95  1  0.36536110  0.90604447  0.16170911  1
  Sc  Sc96  1  0.39777806  0.05621443  0.62041094  1
  Sc  Sc97  1  0.28422765  0.92283202  0.76082333  1
  Sc  Sc98  1  0.72145162  0.91844528  0.32603264  1
  Sc  Sc99  1  0.06334148  0.36590825  0.06772798  1
  Nb  Nb100  1  0.74428751  0.80424816  0.49330303  1
  Nb  Nb101  1  0.02404363  0.71068193  0.68979275  1
  Nb  Nb102  1  0.74830537  0.42959116  0.84638104  1
  Nb  Nb103  1  0.42489875  0.70501406  0.26068489  1
  Nb  Nb104  1  0.47039236  0.86125145  0.65184789  1
  Nb  Nb105  1  0.93326295  0.92538075  0.98199045  1
  Nb  Nb106  1  0.45545302  0.25096920  0.67700943  1
  Nb  Nb107  1  0.86611843  0.66954500  0.10860902  1
  Nb  Nb108  1  0.62760794  0.34827374  0.96996387  1
  Nb  Nb109  1  0.93478580  0.69880390  0.50152443  1
  Nb  Nb110  1  0.47882479  0.06846322  0.08062631  1
  Nb  Nb111  1  0.11952132  0.44166946  0.87399450  1
  Nb  Nb112  1  0.66056628  0.22065039  0.56489911  1
  Nb  Nb113  1  0.68203606  -0.01685523  0.13511256  1
  Nb  Nb114  1  0.65249448  0.35472776  0.17826020  1
  Nb  Nb115  1  0.74695299  0.20971200  0.88658867  1
  Nb  Nb116  1  0.59868877  0.73539248  0.58110135  1
  Nb  Nb117  1  0.03298413  0.75247502  0.06220899  1
  Nb  Nb118  1  0.56700884  0.83608737  0.20547472  1
  Nb  Nb119  1  0.63059638  0.29874600  0.75751183  1
  Nb  Nb120  1  0.31697350  0.53448509  0.79056666  1
  Nb  Nb121  1  0.49904432  0.44404386  0.69180215  1
  Nb  Nb122  1  0.92529042  0.73254010  0.89665489  1
  Nb  Nb123  1  0.13864526  0.48052164  0.28767729  1
  Nb  Nb124  1  0.91438580  0.11463895  0.89424377  1
