# generated using pymatgen
data_Zr2Sc2Nb
_symmetry_space_group_name_H-M   'P 1'
_cell_length_a   14.35599397
_cell_length_b   14.16487943
_cell_length_c   14.16868360
_cell_angle_alpha   90.27217131
_cell_angle_beta   92.48619622
_cell_angle_gamma   90.33692223
_symmetry_Int_Tables_number   1
_chemical_formula_structural   Zr2Sc2Nb
_chemical_formula_sum   'Zr50 Sc50 Nb25'
_cell_volume   2878.41691743
_cell_formula_units_Z   25
loop_
 _symmetry_equiv_pos_site_id
 _symmetry_equiv_pos_as_xyz
  1  'x, y, z'
loop_
 _atom_site_type_symbol
 _atom_site_label
 _atom_site_symmetry_multiplicity
 _atom_site_fract_x
 _atom_site_fract_y
 _atom_site_fract_z
 _atom_site_occupancy
  Zr  Zr0  1  0.51712567  0.73154040  0.38084796  1
  Zr  Zr1  1  0.47217369  0.01839689  0.59368306  1
  Zr  Zr2  1  0.77091955  0.37011907  0.95668802  1
  Zr  Zr3  1  0.21586719  0.28800972  0.32827380  1
  Zr  Zr4  1  0.37630651  0.06723954  0.92892407  1
  Zr  Zr5  1  0.66842784  0.53763447  0.40590163  1
  Zr  Zr6  1  0.72151625  0.30101502  0.53120259  1
  Zr  Zr7  1  0.45949995  0.87327165  0.93305027  1
  Zr  Zr8  1  0.15833615  0.06224618  0.26843927  1
  Zr  Zr9  1  0.89155712  0.78853915  0.64506063  1
  Zr  Zr10  1  0.67665607  0.17191647  0.95753100  1
  Zr  Zr11  1  0.92216143  0.99294613  0.69039592  1
  Zr  Zr12  1  0.05759811  0.62445304  0.28861350  1
  Zr  Zr13  1  0.51383808  0.22781601  0.66505508  1
  Zr  Zr14  1  0.05508273  0.82366578  0.77257906  1
  Zr  Zr15  1  0.72400598  0.47862332  0.19019179  1
  Zr  Zr16  1  0.84668968  0.92206382  0.27389983  1
  Zr  Zr17  1  0.28560715  0.57407053  0.62584127  1
  Zr  Zr18  1  0.21921455  0.77794892  0.65207670  1
  Zr  Zr19  1  0.35954709  0.71243344  0.82711598  1
  Zr  Zr20  1  0.41265511  0.78540061  0.55724877  1
  Zr  Zr21  1  0.91586933  0.48186056  0.51251216  1
  Zr  Zr22  1  0.95264559  0.05984084  0.19232845  1
  Zr  Zr23  1  0.31833264  0.13574663  0.70019041  1
  Zr  Zr24  1  0.11863868  0.31788809  0.93123193  1
  Zr  Zr25  1  0.45096356  0.42421636  0.68577427  1
  Zr  Zr26  1  0.17649320  0.12895459  0.48585916  1
  Zr  Zr27  1  0.91014506  0.59095962  0.70389490  1
  Zr  Zr28  1  0.14572402  0.02172157  0.70165788  1
  Zr  Zr29  1  0.18645941  0.12766446  0.89330829  1
  Zr  Zr30  1  0.64219266  0.66783524  0.19972248  1
  Zr  Zr31  1  0.41059765  0.66209465  0.21300530  1
  Zr  Zr32  1  0.76806529  0.06153199  0.80836219  1
  Zr  Zr33  1  0.55016060  0.05140822  0.79808143  1
  Zr  Zr34  1  0.01319727  0.48063628  0.87410488  1
  Zr  Zr35  1  1.00894896  0.20845963  0.33579855  1
  Zr  Zr36  1  0.04467333  0.15767310  0.05541386  1
  Zr  Zr37  1  0.91931852  0.87225078  0.05212835  1
  Zr  Zr38  1  0.86087043  0.18370594  0.65881125  1
  Zr  Zr39  1  0.50392086  0.68676226  0.03694780  1
  Zr  Zr40  1  0.85552643  0.58075136  0.33453530  1
  Zr  Zr41  1  0.09321671  0.33817982  0.14826745  1
  Zr  Zr42  1  0.16856702  0.77066558  0.42206491  1
  Zr  Zr43  1  0.25412199  0.48369742  0.25326687  1
  Zr  Zr44  1  0.62820127  0.48662510  0.80605647  1
  Zr  Zr45  1  0.68244156  0.08492794  0.60123513  1
  Zr  Zr46  1  0.82026423  0.13155724  0.41774136  1
  Zr  Zr47  1  0.44072551  0.51743182  0.90255274  1
  Zr  Zr48  1  0.12284257  0.52951797  0.06925282  1
  Zr  Zr49  1  0.28599720  0.87611595  0.27487518  1
  Sc  Sc50  1  0.36404467  0.22426961  0.50083747  1
  Sc  Sc51  1  0.25358311  0.18473844  0.12028012  1
  Sc  Sc52  1  0.26153805  0.34923375  0.65065232  1
  Sc  Sc53  1  0.07863187  0.73557428  0.08260004  1
  Sc  Sc54  1  0.30777765  0.80518045  0.06584370  1
  Sc  Sc55  1  0.55511857  0.15404222  0.44307893  1
  Sc  Sc56  1  0.05952385  0.89404735  0.55469326  1
  Sc  Sc57  1  0.48433478  0.45591634  0.12009138  1
  Sc  Sc58  1  0.49771449  0.63249082  0.70056521  1
  Sc  Sc59  1  0.29081941  0.38657819  0.05290191  1
  Sc  Sc60  1  0.33503368  0.28536931  0.85635153  1
  Sc  Sc61  1  0.65191523  0.97684200  0.32614275  1
  Sc  Sc62  1  0.82555681  0.04367235  1.01615292  1
  Sc  Sc63  1  0.23673903  0.48527985  0.83680703  1
  Sc  Sc64  1  0.90905569  0.51513120  0.08889701  1
  Sc  Sc65  1  0.47743377  0.49722284  0.32502930  1
  Sc  Sc66  1  0.50778363  0.86105391  0.18330204  1
  Sc  Sc67  1  0.00675474  1.00644923  0.89360301  1
  Sc  Sc68  1  0.87174840  0.72020330  0.18893569  1
  Sc  Sc69  1  0.75015558  0.71511750  1.00531010  1
  Sc  Sc70  1  0.04000842  0.66000848  0.54439094  1
  Sc  Sc71  1  0.51681734  0.12981604  0.23434346  1
  Sc  Sc72  1  0.69016926  0.50300921  0.61232649  1
  Sc  Sc73  1  0.87793929  0.28303501  0.13336020  1
  Sc  Sc74  1  0.82091410  0.34683148  0.34310246  1
  Sc  Sc75  1  0.61372771  0.32325125  0.31888183  1
  Sc  Sc76  1  0.87340211  0.38709298  0.72355131  1
  Sc  Sc77  1  0.64183884  0.30417211  0.11102926  1
  Sc  Sc78  1  0.54100881  0.32134476  0.89502247  1
  Sc  Sc79  1  0.56758396  0.02699360  0.05620898  1
  Sc  Sc80  1  0.80348863  0.55324146  0.88242744  1
  Sc  Sc81  1  0.27683994  -0.04623627  0.50578864  1
  Sc  Sc82  1  0.17647485  0.68461250  0.91308987  1
  Sc  Sc83  1  0.07788443  0.23691876  0.70957626  1
  Sc  Sc84  1  0.91366015  0.22173893  0.88536973  1
  Sc  Sc85  1  0.22269342  0.90445275  0.88725174  1
  Sc  Sc86  1  0.01983608  0.42120151  0.32467807  1
  Sc  Sc87  1  0.14942405  0.96466930  0.07605604  1
  Sc  Sc88  1  0.72611047  0.69870219  0.74561124  1
  Sc  Sc89  1  0.31815164  0.63662456  0.40993782  1
  Sc  Sc90  1  0.95721031  0.69113102  0.90516000  1
  Sc  Sc91  1  0.73732527  0.12224774  0.19713027  1
  Sc  Sc92  1  0.72450308  0.77047818  0.36744985  1
  Sc  Sc93  1  0.69623765  0.27292889  0.75925090  1
  Sc  Sc94  1  0.82121227  0.93143069  0.49575164  1
  Sc  Sc95  1  0.66791248  0.89594371  0.91252274  1
  Sc  Sc96  1  0.44643074  0.22621343  0.06163470  1
  Sc  Sc97  1  0.06067408  0.85424281  0.24850997  1
  Sc  Sc98  1  0.35331344  0.92861755  0.73697580  1
  Sc  Sc99  1  0.45295241  0.95086294  0.37692673  1
  Nb  Nb100  1  0.71205613  0.90015687  0.68651447  1
  Nb  Nb101  1  0.33136909  0.42502927  0.46288609  1
  Nb  Nb102  1  0.22136331  0.68553415  0.21855672  1
  Nb  Nb103  1  0.33757849  0.11008221  0.32557308  1
  Nb  Nb104  1  0.53990639  0.83954271  0.72404276  1
  Nb  Nb105  1  0.94173567  0.29510893  0.52205148  1
  Nb  Nb106  1  0.07387614  0.44916081  0.65408572  1
  Nb  Nb107  1  0.71327808  0.88234425  0.13224032  1
  Nb  Nb108  1  0.40568987  0.30377994  0.28899881  1
  Nb  Nb109  1  0.10771296  0.62281307  0.73534519  1
  Nb  Nb110  1  0.52561683  0.37101195  0.49802442  1
  Nb  Nb111  1  0.85151832  0.86164894  0.84514730  1
  Nb  Nb112  1  0.99916977  0.11007151  0.54171955  1
  Nb  Nb113  1  0.48452207  0.56507226  0.51776338  1
  Nb  Nb114  1  0.60515489  0.89588074  0.51502144  1
  Nb  Nb115  1  0.12187607  0.32157915  0.50147913  1
  Nb  Nb116  1  0.94225747  0.77728239  0.40432027  1
  Nb  Nb117  1  1.00765910  -0.00609681  0.39051885  1
  Nb  Nb118  1  0.15424771  0.51271487  0.46378077  1
  Nb  Nb119  1  0.31165117  0.59283255  0.04305779  1
  Nb  Nb120  1  0.64064413  0.52394092  0.00913089  1
  Nb  Nb121  1  0.62930675  0.71533933  0.56207041  1
  Nb  Nb122  1  0.36165199  1.01010141  0.13711989  1
  Nb  Nb123  1  0.58402316  0.69041076  0.87273867  1
  Nb  Nb124  1  0.81121882  0.66063614  0.52081802  1
