# generated using pymatgen
data_Zr2Sc2Nb
_symmetry_space_group_name_H-M   'P 1'
_cell_length_a   14.10899474
_cell_length_b   14.32196697
_cell_length_c   14.23826692
_cell_angle_alpha   89.16640941
_cell_angle_beta   90.38940309
_cell_angle_gamma   91.42613283
_symmetry_Int_Tables_number   1
_chemical_formula_structural   Zr2Sc2Nb
_chemical_formula_sum   'Zr50 Sc50 Nb25'
_cell_volume   2875.85085974
_cell_formula_units_Z   25
loop_
 _symmetry_equiv_pos_site_id
 _symmetry_equiv_pos_as_xyz
  1  'x, y, z'
loop_
 _atom_site_type_symbol
 _atom_site_label
 _atom_site_symmetry_multiplicity
 _atom_site_fract_x
 _atom_site_fract_y
 _atom_site_fract_z
 _atom_site_occupancy
  Zr  Zr0  1  0.54346642  0.37270988  -0.00358628  1
  Zr  Zr1  1  0.14838526  0.02292765  0.36860628  1
  Zr  Zr2  1  0.98292008  0.39080420  0.20456947  1
  Zr  Zr3  1  0.44796632  0.24383087  0.85087965  1
  Zr  Zr4  1  0.65222480  0.65013351  0.26339191  1
  Zr  Zr5  1  0.85298976  0.46418842  0.58259711  1
  Zr  Zr6  1  0.30337998  0.10443694  0.87573821  1
  Zr  Zr7  1  0.07203607  0.05295602  0.18208998  1
  Zr  Zr8  1  0.44780695  0.86092058  0.47653107  1
  Zr  Zr9  1  0.88770564  0.83329080  0.69713473  1
  Zr  Zr10  1  0.95628781  0.18521812  0.84160795  1
  Zr  Zr11  1  0.46874615  0.07567538  0.72570617  1
  Zr  Zr12  1  0.70511649  0.05965378  0.03499517  1
  Zr  Zr13  1  0.60519480  0.99487342  0.57998670  1
  Zr  Zr14  1  0.37645411  0.50375683  0.07190867  1
  Zr  Zr15  1  0.65735076  0.78914055  0.46829729  1
  Zr  Zr16  1  0.62037305  0.44791617  0.60784108  1
  Zr  Zr17  1  0.61793248  0.20762094  0.65507124  1
  Zr  Zr18  1  0.18984743  0.92757858  0.87917254  1
  Zr  Zr19  1  0.16298657  0.21325658  0.44242356  1
  Zr  Zr20  1  0.73198572  0.12727304  0.45404024  1
  Zr  Zr21  1  0.11392473  0.56788530  0.78921919  1
  Zr  Zr22  1  0.11632004  0.12797594  0.98532334  1
  Zr  Zr23  1  0.05684256  0.24930350  0.64100725  1
  Zr  Zr24  1  0.78441985  0.67640858  0.84533821  1
  Zr  Zr25  1  0.22551445  0.86623806  0.50525321  1
  Zr  Zr26  1  0.17008962  0.85918383  0.24640786  1
  Zr  Zr27  1  0.21142513  0.56614092  0.46089897  1
  Zr  Zr28  1  0.91507631  0.17665620  0.07544456  1
  Zr  Zr29  1  0.88103207  0.73590510  0.49945179  1
  Zr  Zr30  1  0.86460623  0.57264529  0.15148184  1
  Zr  Zr31  1  0.39715927  0.89031348  0.87003649  1
  Zr  Zr32  1  0.41371106  0.45868662  0.85357798  1
  Zr  Zr33  1  0.85611540  0.05848628  0.24624412  1
  Zr  Zr34  1  0.65348957  0.17129277  0.87676820  1
  Zr  Zr35  1  0.22312200  0.49785645  0.94248464  1
  Zr  Zr36  1  0.91480400  0.73392072  0.01343848  1
  Zr  Zr37  1  0.10881062  0.90103794  0.05271665  1
  Zr  Zr38  1  0.02759585  0.73730009  0.17873354  1
  Zr  Zr39  1  0.24850990  0.75472234  0.75891667  1
  Zr  Zr40  1  0.30678991  0.28871850  1.01366870  1
  Zr  Zr41  1  0.81454593  0.94179550  0.53106665  1
  Zr  Zr42  1  0.81940109  0.26713703  0.68356512  1
  Zr  Zr43  1  0.76223472  0.04731864  0.73305293  1
  Zr  Zr44  1  0.07321539  0.73828119  0.39587384  1
  Zr  Zr45  1  -0.01224761  0.39031249  0.77153568  1
  Zr  Zr46  1  0.21021303  0.31993122  0.80731640  1
  Zr  Zr47  1  0.54378402  0.65971711  0.60642026  1
  Zr  Zr48  1  0.36595264  0.68895813  0.95397595  1
  Zr  Zr49  1  0.14891176  0.05796276  0.57792671  1
  Sc  Sc50  1  0.95442964  0.09620026  0.44146415  1
  Sc  Sc51  1  0.41716997  0.49304879  0.51747346  1
  Sc  Sc52  1  0.95313240  0.05471026  0.66198883  1
  Sc  Sc53  1  0.33957457  0.33039369  0.37514797  1
  Sc  Sc54  1  0.22536696  0.22051480  0.22062905  1
  Sc  Sc55  1  0.93456417  0.53448484  0.91629511  1
  Sc  Sc56  1  0.46905056  0.84949893  0.68173207  1
  Sc  Sc57  1  0.54827362  0.03587146  0.38052192  1
  Sc  Sc58  1  0.33765704  0.69806121  0.56761790  1
  Sc  Sc59  1  0.31228830  0.73644952  0.33628836  1
  Sc  Sc60  1  0.83636357  0.74924542  0.28120578  1
  Sc  Sc61  1  0.76068992  0.44754868  0.27781689  1
  Sc  Sc62  1  0.71947806  0.57910231  0.44804399  1
  Sc  Sc63  1  0.55245692  0.46264636  0.36263464  1
  Sc  Sc64  1  0.82538382  0.24967689  0.29145470  1
  Sc  Sc65  1  0.94368934  0.54294456  0.38623754  1
  Sc  Sc66  1  0.74369652  0.64570310  0.64494925  1
  Sc  Sc67  1  0.15958264  0.71712778  0.96885455  1
  Sc  Sc68  1  0.01570743  0.75480614  0.83257699  1
  Sc  Sc69  1  0.96892085  0.97300698  0.87813546  1
  Sc  Sc70  1  0.58815325  0.75702106  0.84454028  1
  Sc  Sc71  1  0.30675647  0.06664188  0.09493799  1
  Sc  Sc72  1  0.09294890  0.70465599  0.60707734  1
  Sc  Sc73  1  0.30225020  0.19175855  0.66221181  1
  Sc  Sc74  1  0.72743745  0.49735055  0.98179150  1
  Sc  Sc75  1  0.35007886  0.96505232  0.29713937  1
  Sc  Sc76  1  0.70664193  0.88782866  0.16339505  1
  Sc  Sc77  1  0.33497223  0.85482043  0.09305979  1
  Sc  Sc78  1  0.70193263  0.69489563  0.06066527  1
  Sc  Sc79  1  0.06271360  0.33832278  0.99555692  1
  Sc  Sc80  1  0.82511236  0.31908549  0.91736489  1
  Sc  Sc81  1  0.11792576  0.57072269  0.27233863  1
  Sc  Sc82  1  0.76711970  0.88216552  0.91227784  1
  Sc  Sc83  1  0.95547403  0.31961937  0.45409120  1
  Sc  Sc84  1  0.71855969  0.29107514  0.10454596  1
  Sc  Sc85  1  0.54800191  0.84889054  0.02187506  1
  Sc  Sc86  1  0.06496746  0.47743703  0.58256481  1
  Sc  Sc87  1  0.28870523  0.52119867  0.69119695  1
  Sc  Sc88  1  0.60182532  0.27794830  0.29083265  1
  Sc  Sc89  1  0.50047346  0.24481629  0.48704690  1
  Sc  Sc90  1  0.62641818  0.35884401  0.80157420  1
  Sc  Sc91  1  0.90550423  0.92893366  0.09543304  1
  Sc  Sc92  1  0.42745395  0.34736948  0.18817816  1
  Sc  Sc93  1  0.24061690  0.36426128  0.56601799  1
  Sc  Sc94  1  0.34656112  0.52983314  0.29074865  1
  Sc  Sc95  1  0.06685225  0.55105646  0.07100504  1
  Sc  Sc96  1  0.46593699  0.67749608  0.16251713  1
  Sc  Sc97  1  0.53648602  0.83887375  0.28401899  1
  Sc  Sc98  1  0.72246637  0.33178803  0.47490049  1
  Sc  Sc99  1  0.35913937  0.06680911  0.49241892  1
  Nb  Nb100  1  0.68843539  0.83952206  0.68314576  1
  Nb  Nb101  1  0.20514854  0.41829225  0.16284812  1
  Nb  Nb102  1  0.49624571  0.66147939  0.40365198  1
  Nb  Nb103  1  0.96234438  0.90548668  0.32602496  1
  Nb  Nb104  1  0.13506468  0.39201640  0.36051587  1
  Nb  Nb105  1  0.44331656  0.35377658  0.67606512  1
  Nb  Nb106  1  0.01783946  0.89877097  0.51654644  1
  Nb  Nb107  1  0.42681008  0.65384125  0.77353318  1
  Nb  Nb108  1  0.52009602  0.18945577  0.08282547  1
  Nb  Nb109  1  1.02842049  0.21439212  0.27707713  1
  Nb  Nb110  1  0.79059056  0.47378192  0.76815486  1
  Nb  Nb111  1  0.73623236  0.93638660  0.35496357  1
  Nb  Nb112  1  0.29130542  0.96711183  0.69236218  1
  Nb  Nb113  1  0.48850621  0.05129361  0.95825526  1
  Nb  Nb114  1  0.24540212  0.65556467  0.14056688  1
  Nb  Nb115  1  0.51068570  0.00459678  0.15597104  1
  Nb  Nb116  1  0.09769405  0.89906404  0.69990558  1
  Nb  Nb117  1  0.93363497  0.60645050  0.70287283  1
  Nb  Nb118  1  0.66160848  0.10249113  0.22669625  1
  Nb  Nb119  1  0.59119479  0.49205183  0.15114190  1
  Nb  Nb120  1  0.43154837  0.15628664  0.26709594  1
  Nb  Nb121  1  0.60215825  0.55439728  0.79026434  1
  Nb  Nb122  1  0.60209505  0.96771940  0.82255408  1
  Nb  Nb123  1  0.53965906  0.59382974  -0.02801752  1
  Nb  Nb124  1  0.13047493  0.10407245  0.77643940  1
