# generated using pymatgen
data_Zr2Sc2Nb
_symmetry_space_group_name_H-M   'P 1'
_cell_length_a   14.55876635
_cell_length_b   14.39440836
_cell_length_c   13.70024045
_cell_angle_alpha   89.43487798
_cell_angle_beta   89.28574188
_cell_angle_gamma   93.55876191
_symmetry_Int_Tables_number   1
_chemical_formula_structural   Zr2Sc2Nb
_chemical_formula_sum   'Zr50 Sc50 Nb25'
_cell_volume   2865.16669834
_cell_formula_units_Z   25
loop_
 _symmetry_equiv_pos_site_id
 _symmetry_equiv_pos_as_xyz
  1  'x, y, z'
loop_
 _atom_site_type_symbol
 _atom_site_label
 _atom_site_symmetry_multiplicity
 _atom_site_fract_x
 _atom_site_fract_y
 _atom_site_fract_z
 _atom_site_occupancy
  Zr  Zr0  1  0.52056851  0.21588760  0.73164068  1
  Zr  Zr1  1  0.50302278  0.48905077  0.95925303  1
  Zr  Zr2  1  0.93969333  0.63369138  0.68243682  1
  Zr  Zr3  1  0.47496186  0.69128206  0.37384109  1
  Zr  Zr4  1  0.70307838  0.86323776  0.78648288  1
  Zr  Zr5  1  0.20519402  0.31247473  0.98701717  1
  Zr  Zr6  1  0.96874051  0.21447106  0.72290493  1
  Zr  Zr7  1  0.91425007  0.08424776  0.31768201  1
  Zr  Zr8  1  0.24261674  0.99540467  0.80716551  1
  Zr  Zr9  1  0.09854611  0.89145834  0.94161329  1
  Zr  Zr10  1  0.17726968  0.87112154  0.15491368  1
  Zr  Zr11  1  0.26138387  0.13189351  0.42025859  1
  Zr  Zr12  1  0.11687743  0.05801442  0.25360609  1
  Zr  Zr13  1  0.83992212  0.71559227  0.27346910  1
  Zr  Zr14  1  0.87095328  0.88443422  0.93646652  1
  Zr  Zr15  1  0.32833629  0.69521585  0.72692920  1
  Zr  Zr16  1  0.70267969  0.16722120  0.25806328  1
  Zr  Zr17  1  0.50521232  0.83610843  0.84703825  1
  Zr  Zr18  1  0.76257807  0.24758233  0.04903939  1
  Zr  Zr19  1  0.79298222  0.68856301  0.85471064  1
  Zr  Zr20  1  0.20659592  0.89661604  0.38219009  1
  Zr  Zr21  1  0.75347986  0.40143331  0.25331739  1
  Zr  Zr22  1  0.40872162  0.86701495  0.27722464  1
  Zr  Zr23  1  0.22780149  0.23136590  0.19384441  1
  Zr  Zr24  1  0.15423340  0.80935648  0.73706585  1
  Zr  Zr25  1  0.36901809  0.39130720  0.09104363  1
  Zr  Zr26  1  0.34577643  0.31523090  0.66303018  1
  Zr  Zr27  1  0.08072468  0.24148125  0.35594129  1
  Zr  Zr28  1  0.77102675  0.27971834  0.43848879  1
  Zr  Zr29  1  0.26350895  0.69795679  0.33043757  1
  Zr  Zr30  1  0.59610999  0.40374038  0.78689774  1
  Zr  Zr31  1  0.32031505  0.73830854  0.12467926  1
  Zr  Zr32  1  0.57809586  0.57264130  0.55554082  1
  Zr  Zr33  1  0.57782945  0.13598028  0.51154166  1
  Zr  Zr34  1  0.40804077  0.66274674  0.93565874  1
  Zr  Zr35  1  0.72616098  0.88017590  0.56249305  1
  Zr  Zr36  1  0.77613261  0.89773485  0.32605632  1
  Zr  Zr37  1  -0.00114253  -0.00209338  0.08873653  1
  Zr  Zr38  1  0.70493597  0.58464564  0.18002218  1
  Zr  Zr39  1  -0.00106643  0.71251193  0.89489729  1
  Zr  Zr40  1  0.57280110  0.99068133  0.67390934  1
  Zr  Zr41  1  1.03519955  0.20089441  0.10061066  1
  Zr  Zr42  1  0.52305771  0.77110140  0.60940562  1
  Zr  Zr43  1  0.78660785  0.31230176  0.83789429  1
  Zr  Zr44  1  0.75038655  0.50677941  0.70715137  1
  Zr  Zr45  1  0.35679240  0.59656160  0.51468030  1
  Zr  Zr46  1  0.64976946  0.93410612  0.98432536  1
  Zr  Zr47  1  0.82699211  0.03415900  0.69540857  1
  Zr  Zr48  1  0.58459754  0.30662984  0.36808985  1
  Zr  Zr49  1  0.60930395  0.36347551  0.57335799  1
  Sc  Sc50  1  0.88531276  0.73839144  0.48781703  1
  Sc  Sc51  1  0.47935833  0.60119590  0.15067373  1
  Sc  Sc52  1  0.40349920  0.18987554  0.05703823  1
  Sc  Sc53  1  0.57968499  0.51634206  0.33947536  1
  Sc  Sc54  1  0.89650714  0.50828994  0.86738766  1
  Sc  Sc55  1  0.11588870  0.41300886  0.17958586  1
  Sc  Sc56  1  0.40384422  0.99763334  0.46396536  1
  Sc  Sc57  1  0.98752811  0.30957200  0.91899189  1
  Sc  Sc58  1  0.27313049  0.49478766  0.85614777  1
  Sc  Sc59  1  0.19919596  0.69591012  0.93739040  1
  Sc  Sc60  1  0.16945861  0.68538682  0.55058638  1
  Sc  Sc61  1  0.73180036  0.20716769  0.65446081  1
  Sc  Sc62  1  0.60957785  0.95656762  0.20390979  1
  Sc  Sc63  1  0.63601020  0.68589903  -0.00511756  1
  Sc  Sc64  1  0.79002019  0.52719325  0.45798109  1
  Sc  Sc65  1  0.57624606  0.34156602  0.14126528  1
  Sc  Sc66  1  -0.00960952  0.89062841  0.31965272  1
  Sc  Sc67  1  0.79976128  0.03518059  0.11917929  1
  Sc  Sc68  1  0.75087764  0.06761467  0.46209597  1
  Sc  Sc69  1  0.21536052  0.47861040  0.62383477  1
  Sc  Sc70  1  0.90318698  0.42116028  0.07977033  1
  Sc  Sc71  1  0.58168991  0.63806121  0.78641451  1
  Sc  Sc72  1  0.07540236  0.05686189  0.48122046  1
  Sc  Sc73  1  0.67579005  0.10827196  0.85492540  1
  Sc  Sc74  1  0.87178450  0.63404184  0.05749425  1
  Sc  Sc75  1  0.71028561  0.46039294  0.98405188  1
  Sc  Sc76  1  0.95414950  0.38563547  0.40701237  1
  Sc  Sc77  1  0.18211881  0.16206584  0.64344677  1
  Sc  Sc78  1  0.34018510  0.50312641  0.29151877  1
  Sc  Sc79  1  0.93671254  0.53825213  0.26521428  1
  Sc  Sc80  1  1.03954010  0.00049365  0.70641809  1
  Sc  Sc81  1  0.08837047  0.50130415  0.95824342  1
  Sc  Sc82  1  0.09594237  0.13007674  0.88596877  1
  Sc  Sc83  1  0.10340914  0.64561496  0.14114107  1
  Sc  Sc84  1  0.39460032  0.29194246  0.29269129  1
  Sc  Sc85  1  0.05535538  0.70347746  0.35752755  1
  Sc  Sc86  1  0.57227677  0.89318509  0.42293503  1
  Sc  Sc87  1  0.88123589  0.10649197  0.91657945  1
  Sc  Sc88  1  0.90741451  0.83468529  0.70921463  1
  Sc  Sc89  1  0.43219661  0.50354387  0.70766999  1
  Sc  Sc90  1  0.89808035  0.26915867  0.23471453  1
  Sc  Sc91  1  0.49585923  0.11345249  0.28594532  1
  Sc  Sc92  1  0.73442676  0.69510987  0.63691015  1
  Sc  Sc93  1  0.87071403  0.37694828  0.61555351  1
  Sc  Sc94  1  0.42298784  0.97620553  0.08037275  1
  Sc  Sc95  1  0.46191998  0.04892291  0.87558678  1
  Sc  Sc96  1  0.22603093  0.05767309  0.03606362  1
  Sc  Sc97  1  0.25116613  0.34197081  0.45154212  1
  Sc  Sc98  1  0.14579289  0.50808772  0.38724794  1
  Sc  Sc99  1  0.37725314  0.09009740  0.65319246  1
  Nb  Nb100  1  0.50773778  0.80549478  0.07467481  1
  Nb  Nb101  1  0.05721661  0.84689501  0.54177492  1
  Nb  Nb102  1  0.92489146  0.18021921  0.52186363  1
  Nb  Nb103  1  0.32386695  0.85942510  -0.06978580  1
  Nb  Nb104  1  0.30931570  0.04454479  0.24198644  1
  Nb  Nb105  1  0.27151631  0.54378384  0.07346667  1
  Nb  Nb106  1  0.61832178  0.75408744  0.23624419  1
  Nb  Nb107  1  0.03033497  0.43344540  0.73545033  1
  Nb  Nb108  1  0.11904039  0.60378769  0.75472972  1
  Nb  Nb109  1  0.39915176  0.33782655  0.87340936  1
  Nb  Nb110  1  0.76367814  0.81507355  0.10799301  1
  Nb  Nb111  1  0.30467477  0.18210208  0.84351121  1
  Nb  Nb112  1  0.59799156  0.12145402  0.06919069  1
  Nb  Nb113  1  0.42682366  0.23076590  0.49794725  1
  Nb  Nb114  1  0.01647633  0.53113415  0.54440228  1
  Nb  Nb115  1  0.43934369  0.42656862  0.48217548  1
  Nb  Nb116  1  0.57405995  0.27046609  0.93969011  1
  Nb  Nb117  1  0.97234149  0.80319182  0.11772762  1
  Nb  Nb118  1  0.16913198  0.31973284  0.78156840  1
  Nb  Nb119  1  0.37481315  0.88913766  0.70061984  1
  Nb  Nb120  1  0.90562878  0.95690555  0.51389937  1
  Nb  Nb121  1  0.07433255  0.32276606  0.56795725  1
  Nb  Nb122  1  0.22407814  0.95007622  0.58532218  1
  Nb  Nb123  1  0.67935790  0.70906516  0.42143510  1
  Nb  Nb124  1  0.34586849  0.80340022  0.51136363  1
