# generated using pymatgen
data_Zr2Sc2Nb
_symmetry_space_group_name_H-M   'P 1'
_cell_length_a   14.03858806
_cell_length_b   14.41072231
_cell_length_c   14.26459973
_cell_angle_alpha   90.10894484
_cell_angle_beta   89.87328311
_cell_angle_gamma   91.04362286
_symmetry_Int_Tables_number   1
_chemical_formula_structural   Zr2Sc2Nb
_chemical_formula_sum   'Zr50 Sc50 Nb25'
_cell_volume   2885.32612235
_cell_formula_units_Z   25
loop_
 _symmetry_equiv_pos_site_id
 _symmetry_equiv_pos_as_xyz
  1  'x, y, z'
loop_
 _atom_site_type_symbol
 _atom_site_label
 _atom_site_symmetry_multiplicity
 _atom_site_fract_x
 _atom_site_fract_y
 _atom_site_fract_z
 _atom_site_occupancy
  Zr  Zr0  1  0.56358479  0.74644569  0.91830523  1
  Zr  Zr1  1  0.33347184  0.68701366  0.52103753  1
  Zr  Zr2  1  0.74261311  0.66831857  0.82493192  1
  Zr  Zr3  1  0.60193693  0.71207786  0.28177781  1
  Zr  Zr4  1  0.91384744  0.83047834  0.80491194  1
  Zr  Zr5  1  0.95082739  0.25348567  0.82331548  1
  Zr  Zr6  1  0.50203386  0.34275255  0.93657454  1
  Zr  Zr7  1  0.28971531  0.59119415  0.76194995  1
  Zr  Zr8  1  0.48594813  0.68370047  0.10365347  1
  Zr  Zr9  1  0.72079160  0.66841907  0.08504029  1
  Zr  Zr10  1  0.09583091  0.64567184  0.47216145  1
  Zr  Zr11  1  0.26704045  0.50319450  0.56748134  1
  Zr  Zr12  1  0.34286813  0.03137044  0.71750599  1
  Zr  Zr13  1  0.68928837  0.88673862  0.76973786  1
  Zr  Zr14  1  0.30750065  0.97353950  0.32571822  1
  Zr  Zr15  1  0.02147599  0.83239936  0.58823193  1
  Zr  Zr16  1  0.78633161  0.32032929  0.66590147  1
  Zr  Zr17  1  0.89496595  0.33337356  0.46035517  1
  Zr  Zr18  1  0.11861636  0.29299005  0.95273641  1
  Zr  Zr19  1  0.08834058  0.52345823  0.68164515  1
  Zr  Zr20  1  0.61793194  0.99028837  0.93079954  1
  Zr  Zr21  1  0.32972660  0.80444429  0.71333861  1
  Zr  Zr22  1  0.43759880  0.83284946  0.41859396  1
  Zr  Zr23  1  0.69434671  0.53375465  0.65186072  1
  Zr  Zr24  1  0.50878429  0.65975225  0.72888016  1
  Zr  Zr25  1  0.12033754  0.09789994  0.89895011  1
  Zr  Zr26  1  0.09076836  0.22943786  0.45880625  1
  Zr  Zr27  1  0.93651408  0.52892974  0.36368447  1
  Zr  Zr28  1  0.24172401  0.89232606  0.52258912  1
  Zr  Zr29  1  0.11065482  0.05882608  0.31216244  1
  Zr  Zr30  1  0.69575958  0.83009223  0.44136516  1
  Zr  Zr31  1  0.75289145  0.03727970  0.32122017  1
  Zr  Zr32  1  0.75601738  0.82860288  0.96839624  1
  Zr  Zr33  1  0.44673519  0.56095227  0.92597003  1
  Zr  Zr34  1  0.92102384  0.83397235  0.07852727  1
  Zr  Zr35  1  0.46091939  0.30902589  0.46722018  1
  Zr  Zr36  1  0.90572335  0.65770861  -0.05617854  1
  Zr  Zr37  1  0.57933410  0.47779379  0.09699769  1
  Zr  Zr38  1  0.67362609  0.40171212  0.48386078  1
  Zr  Zr39  1  0.01586096  0.04448443  0.06076606  1
  Zr  Zr40  1  0.52700260  0.50888617  0.34640165  1
  Zr  Zr41  1  0.76038687  0.00814233  0.09964802  1
  Zr  Zr42  1  0.74979948  0.11718127  0.77922326  1
  Zr  Zr43  1  0.26861778  0.45947860  0.93973666  1
  Zr  Zr44  1  0.43302282  0.09130944  0.93109754  1
  Zr  Zr45  1  0.76174415  0.84148873  0.23842523  1
  Zr  Zr46  1  0.67312990  1.01328588  0.52563559  1
  Zr  Zr47  1  0.71887221  0.21360570  0.40656964  1
  Zr  Zr48  1  0.89370321  0.50929557  0.56524873  1
  Zr  Zr49  1  0.15468767  0.46069324  0.12092577  1
  Sc  Sc50  1  0.89635551  0.17223132  0.18427062  1
  Sc  Sc51  1  0.73781429  0.60375009  0.43150497  1
  Sc  Sc52  1  0.06106760  0.83856069  0.37124282  1
  Sc  Sc53  1  0.86245474  0.13926047  0.57215662  1
  Sc  Sc54  1  0.90917224  0.70864505  0.26004486  1
  Sc  Sc55  1  0.28993986  0.18107473  0.27965604  1
  Sc  Sc56  1  0.30584784  0.27895709  0.06406846  1
  Sc  Sc57  1  0.63143646  0.49988746  0.86242324  1
  Sc  Sc58  1  0.50415345  0.25681099  0.12667375  1
  Sc  Sc59  1  0.73419997  0.73523904  0.62211700  1
  Sc  Sc60  1  0.86643443  0.47068751  0.79789207  1
  Sc  Sc61  1  0.93415743  0.34907612  0.04208696  1
  Sc  Sc62  1  0.01374967  0.32317821  0.63966649  1
  Sc  Sc63  1  0.56503874  0.94345881  0.30692158  1
  Sc  Sc64  1  0.83591927  0.92465919  0.62410475  1
  Sc  Sc65  1  0.27154260  0.12992272  0.49722813  1
  Sc  Sc66  1  0.61974071  0.19943398  0.59275749  1
  Sc  Sc67  1  0.30621966  0.22835956  0.84160243  1
  Sc  Sc68  1  0.52934364  0.85220653  0.61710403  1
  Sc  Sc69  1  0.32078720  0.73132157  0.93118898  1
  Sc  Sc70  1  0.51096288  0.15170887  0.33555601  1
  Sc  Sc71  1  0.73297337  0.52307170  0.23438018  1
  Sc  Sc72  1  0.84200679  0.17202546  0.98120634  1
  Sc  Sc73  1  0.15107241  0.15865455  0.69495997  1
  Sc  Sc74  1  0.45313969  0.03096774  0.51843273  1
  Sc  Sc75  1  0.11142256  0.70368859  0.83634853  1
  Sc  Sc76  1  0.83198587  0.34567174  0.26109888  1
  Sc  Sc77  1  0.27302138  0.94362133  0.90222169  1
  Sc  Sc78  1  0.41795362  0.21992718  0.65345995  1
  Sc  Sc79  1  0.37428666  0.49730053  0.13135303  1
  Sc  Sc80  1  0.48008143  0.48622923  0.57788468  1
  Sc  Sc81  1  0.93508104  0.66438855  0.69186184  1
  Sc  Sc82  1  0.94204711  0.53125172  0.14086297  1
  Sc  Sc83  1  0.96651668  0.04472054  0.74761073  1
  Sc  Sc84  1  0.06172637  0.36713980  0.28969283  1
  Sc  Sc85  1  0.50387802  0.04643964  0.13623364  1
  Sc  Sc86  1  0.08030852  0.68020304  0.05911055  1
  Sc  Sc87  1  0.25969012  0.52722537  0.34084431  1
  Sc  Sc88  1  0.54863018  0.66682204  0.50029561  1
  Sc  Sc89  1  0.07082604  0.88219704  0.94427526  1
  Sc  Sc90  1  0.14415223  0.92107313  0.73305159  1
  Sc  Sc91  1  0.94352502  0.96392711  0.23918838  1
  Sc  Sc92  1  0.26839294  0.04403980  0.10002732  1
  Sc  Sc93  1  0.39294053  0.41067061  0.75830760  1
  Sc  Sc94  1  0.15352740  0.86706893  0.16913839  1
  Sc  Sc95  1  0.39602566  0.35892707  0.27044434  1
  Sc  Sc96  1  0.11104872  0.21406563  0.15013851  1
  Sc  Sc97  1  0.05603223  0.03023864  0.52802507  1
  Sc  Sc98  1  0.26887891  0.67452582  0.14383201  1
  Sc  Sc99  1  0.05205328  0.49764831  0.91530098  1
  Nb  Nb100  1  0.25632932  0.33754515  0.41980186  1
  Nb  Nb101  1  0.59937788  0.85462728  0.11370447  1
  Nb  Nb102  1  0.09333871  0.44093688  0.48111542  1
  Nb  Nb103  1  0.24190260  0.31833357  0.60617926  1
  Nb  Nb104  1  0.16870320  0.71132842  0.64026602  1
  Nb  Nb105  1  0.78614480  0.49539246  0.99772710  1
  Nb  Nb106  1  0.88377976  0.93616555  0.43242529  1
  Nb  Nb107  1  0.17122509  0.37481801  0.77571840  1
  Nb  Nb108  1  0.43164077  0.88862322  0.02105617  1
  Nb  Nb109  1  0.59371371  0.36509719  0.70917175  1
  Nb  Nb110  1  0.09981795  0.62452830  0.26504301  1
  Nb  Nb111  1  0.71430391  0.33249510  0.08036242  1
  Nb  Nb112  1  0.89250907  0.73071781  0.47448742  1
  Nb  Nb113  1  0.55177517  0.03891984  0.71748006  1
  Nb  Nb114  1  0.61354100  0.34321043  0.28116581  1
  Nb  Nb115  1  0.46725393  0.88979832  0.82190750  1
  Nb  Nb116  1  0.73138687  0.31768138  0.87646244  1
  Nb  Nb117  1  0.40945500  0.66317576  0.30512699  1
  Nb  Nb118  1  0.86628473  0.98630507  0.91443687  1
  Nb  Nb119  1  0.68428396  0.17603984  0.19362521  1
  Nb  Nb120  1  0.92747610  0.14189202  0.37493149  1
  Nb  Nb121  1  0.63509894  0.17243197  -0.01014730  1
  Nb  Nb122  1  0.39398177  0.84402776  0.20440436  1
  Nb  Nb123  1  0.55741436  0.20288686  0.80922842  1
  Nb  Nb124  1  0.24542390  0.76040966  0.34076878  1
