# generated using pymatgen
data_Zr2Sc2Nb
_symmetry_space_group_name_H-M   'P 1'
_cell_length_a   14.29251771
_cell_length_b   13.83131325
_cell_length_c   14.50623083
_cell_angle_alpha   92.16109163
_cell_angle_beta   90.42715467
_cell_angle_gamma   87.49177895
_symmetry_Int_Tables_number   1
_chemical_formula_structural   Zr2Sc2Nb
_chemical_formula_sum   'Zr50 Sc50 Nb25'
_cell_volume   2862.82053947
_cell_formula_units_Z   25
loop_
 _symmetry_equiv_pos_site_id
 _symmetry_equiv_pos_as_xyz
  1  'x, y, z'
loop_
 _atom_site_type_symbol
 _atom_site_label
 _atom_site_symmetry_multiplicity
 _atom_site_fract_x
 _atom_site_fract_y
 _atom_site_fract_z
 _atom_site_occupancy
  Zr  Zr0  1  0.91273891  0.84356496  0.50867051  1
  Zr  Zr1  1  0.38790913  0.41309264  0.27351700  1
  Zr  Zr2  1  0.11676587  0.14726283  0.06346722  1
  Zr  Zr3  1  0.62149941  0.94213966  0.05593289  1
  Zr  Zr4  1  0.08569349  0.34607528  0.97029420  1
  Zr  Zr5  1  0.27376494  0.66142630  1.00129257  1
  Zr  Zr6  1  0.43954703  0.78966649  0.07464578  1
  Zr  Zr7  1  0.49285436  0.56809275  0.03445890  1
  Zr  Zr8  1  0.09487614  0.53000742  0.10830153  1
  Zr  Zr9  1  0.05981168  0.75476177  0.02070290  1
  Zr  Zr10  1  0.65355614  0.47482412  0.66385546  1
  Zr  Zr11  1  0.93623359  0.79463625  0.31225597  1
  Zr  Zr12  1  0.00448325  0.36560912  0.60674974  1
  Zr  Zr13  1  0.38601909  0.23261076  0.52178263  1
  Zr  Zr14  1  0.25800913  0.66166182  0.76907866  1
  Zr  Zr15  1  -0.01488258  0.94809601  0.12991846  1
  Zr  Zr16  1  0.08101275  0.76123788  0.60827546  1
  Zr  Zr17  1  0.49824171  0.16454469  0.69214591  1
  Zr  Zr18  1  0.34703318  0.63091512  0.38361127  1
  Zr  Zr19  1  0.62371006  0.06595492  0.84466214  1
  Zr  Zr20  1  0.12688643  0.34610023  0.77149121  1
  Zr  Zr21  1  0.85462522  0.24968744  0.40279066  1
  Zr  Zr22  1  0.37738123  0.01002808  0.57180369  1
  Zr  Zr23  1  0.48486867  0.90607904  0.89868499  1
  Zr  Zr24  1  0.34915571  0.47224117  0.85818294  1
  Zr  Zr25  1  0.55559847  0.06859132  0.48441767  1
  Zr  Zr26  1  0.92146226  1.01736116  0.35438600  1
  Zr  Zr27  1  0.73816749  0.89641750  0.64276343  1
  Zr  Zr28  1  1.00615779  0.56625875  0.30030500  1
  Zr  Zr29  1  0.54356053  0.94924843  0.69474877  1
  Zr  Zr30  1  0.49678998  0.77854193  0.30930297  1
  Zr  Zr31  1  0.35112965  0.04183105  0.79191808  1
  Zr  Zr32  1  0.73943950  0.36551041  0.12833749  1
  Zr  Zr33  1  0.55576685  0.85587012  0.49932423  1
  Zr  Zr34  1  0.56063290  0.52251284  0.84203770  1
  Zr  Zr35  1  0.24128289  0.87421636  0.67374478  1
  Zr  Zr36  1  0.93904613  0.93445013  0.70914517  1
  Zr  Zr37  1  0.74184488  0.86429752  0.84403987  1
  Zr  Zr38  1  0.03525781  0.17717994  0.47970193  1
  Zr  Zr39  1  0.26418159  0.64886187  0.56156185  1
  Zr  Zr40  1  0.22508167  0.87188604  0.10206148  1
  Zr  Zr41  1  0.11956410  0.91884464  0.32443374  1
  Zr  Zr42  1  0.36031282  0.63103257  0.19032837  1
  Zr  Zr43  1  0.35535232  0.21151000  0.15713488  1
  Zr  Zr44  1  0.30070782  0.04458138  0.99909860  1
  Zr  Zr45  1  0.67338470  0.33376638  0.31170264  1
  Zr  Zr46  1  0.23080768  0.05638753  0.21752553  1
  Zr  Zr47  1  0.39116803  0.01639255  0.35548614  1
  Zr  Zr48  1  0.43506542  0.98712726  0.15476872  1
  Zr  Zr49  1  0.81720991  0.28625734  0.61947476  1
  Sc  Sc50  1  0.61927473  0.73310172  0.94495159  1
  Sc  Sc51  1  0.72436914  0.71580932  0.36971997  1
  Sc  Sc52  1  0.06883508  0.57072097  0.69263232  1
  Sc  Sc53  1  0.97475737  0.09388990  0.90001535  1
  Sc  Sc54  1  0.90843753  0.47094101  0.04550163  1
  Sc  Sc55  1  0.26761116  0.45348410  0.65891842  1
  Sc  Sc56  1  0.30275169  0.45101280  0.07778710  1
  Sc  Sc57  1  0.27713088  0.84861697  0.88730463  1
  Sc  Sc58  1  0.91285451  0.25209746  0.04213398  1
  Sc  Sc59  1  0.89447679  0.27705622  0.82198108  1
  Sc  Sc60  1  0.83482144  0.16577391  0.20765158  1
  Sc  Sc61  1  0.29285450  0.84623450  0.46339900  1
  Sc  Sc62  1  0.04917084  0.16188836  0.27062458  1
  Sc  Sc63  1  0.62601582  0.14555027  0.17118565  1
  Sc  Sc64  1  0.12676491  0.55138759  0.89944580  1
  Sc  Sc65  1  0.52417743  0.35141018  0.10715399  1
  Sc  Sc66  1  0.93502748  0.48023380  0.82214217  1
  Sc  Sc67  1  0.74004522  0.42024289  0.89277277  1
  Sc  Sc68  1  0.30261338  0.27113083  0.95448349  1
  Sc  Sc69  1  0.90923195  0.44106302  0.43316678  1
  Sc  Sc70  1  0.73623830  0.92481830  0.43110893  1
  Sc  Sc71  1  0.49250802  0.21408155  0.32912716  1
  Sc  Sc72  1  0.16011587  0.32811900  0.17982584  1
  Sc  Sc73  1  0.56793875  0.54618569  0.26005607  1
  Sc  Sc74  1  0.59921958  0.72550833  0.72415826  1
  Sc  Sc75  1  0.08967003  0.96629629  0.53943397  1
  Sc  Sc76  1  0.49305539  0.43598634  0.46690063  1
  Sc  Sc77  1  0.77726574  0.93937106  0.21451608  1
  Sc  Sc78  1  0.71937121  0.57861063  0.03940774  1
  Sc  Sc79  1  1.01305877  0.15084692  0.68918672  1
  Sc  Sc80  1  0.89787804  0.67724757  0.14486017  1
  Sc  Sc81  1  0.14547408  0.71213146  0.21201657  1
  Sc  Sc82  1  0.65186982  0.75190860  0.16571666  1
  Sc  Sc83  1  0.89945932  0.66798947  0.92350098  1
  Sc  Sc84  1  0.41685406  0.78294552  0.65471819  1
  Sc  Sc85  1  0.44293067  0.56790645  0.66479766  1
  Sc  Sc86  1  0.10523823  0.52902348  0.49238988  1
  Sc  Sc87  1  0.71091751  0.49814909  0.46251386  1
  Sc  Sc88  1  0.19069006  0.28840120  0.55464696  1
  Sc  Sc89  1  0.50673394  0.30914112  0.87816292  1
  Sc  Sc90  1  0.70072738  0.22483035  0.96511944  1
  Sc  Sc91  1  0.62691756  0.27866445  0.52443314  1
  Sc  Sc92  1  0.16777976  0.15405554  0.85220899  1
  Sc  Sc93  1  0.79367056  0.52651874  0.26098219  1
  Sc  Sc94  1  0.54284601  0.64593258  0.49482689  1
  Sc  Sc95  1  0.49135793  0.13159234  -0.00100680  1
  Sc  Sc96  1  0.85137442  0.52236230  0.63382701  1
  Sc  Sc97  1  0.89390354  0.72577426  0.71553595  1
  Sc  Sc98  1  0.80358632  0.03591460  0.00626732  1
  Sc  Sc99  1  0.86271173  0.06998522  0.54824093  1
  Nb  Nb100  1  0.12229098  0.72275337  0.40958661  1
  Nb  Nb101  1  0.68533854  0.10068560  0.62867515  1
  Nb  Nb102  1  0.32161464  0.26175530  0.74097555  1
  Nb  Nb103  1  0.80624948  0.08356817  0.78096419  1
  Nb  Nb104  1  0.74520023  0.61622079  0.80215555  1
  Nb  Nb105  1  0.21666576  0.10913573  0.64503225  1
  Nb  Nb106  1  0.21767267  0.08882836  0.43573181  1
  Nb  Nb107  1  0.58494799  -0.03574583  0.28942525  1
  Nb  Nb108  1  0.31291579  0.83406559  0.26528002  1
  Nb  Nb109  1  0.80550654  0.82202407  0.03519190  1
  Nb  Nb110  1  0.92006372  0.64875118  0.48289716  1
  Nb  Nb111  1  0.67039939  0.26992071  0.75303696  1
  Nb  Nb112  1  0.94615324  0.36412015  0.22859672  1
  Nb  Nb113  1  0.47863912  0.36674001  0.67965007  1
  Nb  Nb114  1  0.28940848  0.43127134  0.45019725  1
  Nb  Nb115  1  0.70724222  0.12094485  0.37142344  1
  Nb  Nb116  1  0.26615693  0.24780605  0.34423909  1
  Nb  Nb117  1  0.09135398  0.35109567  0.37628023  1
  Nb  Nb118  1  0.20256257  0.51114914  0.29301187  1
  Nb  Nb119  1  0.11118583  0.95619344  0.96678061  1
  Nb  Nb120  1  0.93669591  0.88714271  0.90194016  1
  Nb  Nb121  1  0.73834157  0.69752590  0.57369982  1
  Nb  Nb122  1  0.08441779  0.77219120  0.81972253  1
  Nb  Nb123  1  0.11397003  0.97055737  0.77691634  1
  Nb  Nb124  1  0.43165460  0.69010346  0.86381489  1
