# generated using pymatgen
data_Zr2Sc2Nb
_symmetry_space_group_name_H-M   'P 1'
_cell_length_a   14.33345806
_cell_length_b   14.33804714
_cell_length_c   13.91110104
_cell_angle_alpha   90.41326285
_cell_angle_beta   91.65753234
_cell_angle_gamma   87.64348066
_symmetry_Int_Tables_number   1
_chemical_formula_structural   Zr2Sc2Nb
_chemical_formula_sum   'Zr50 Sc50 Nb25'
_cell_volume   2855.25830378
_cell_formula_units_Z   25
loop_
 _symmetry_equiv_pos_site_id
 _symmetry_equiv_pos_as_xyz
  1  'x, y, z'
loop_
 _atom_site_type_symbol
 _atom_site_label
 _atom_site_symmetry_multiplicity
 _atom_site_fract_x
 _atom_site_fract_y
 _atom_site_fract_z
 _atom_site_occupancy
  Zr  Zr0  1  0.89560086  0.89386615  0.12900972  1
  Zr  Zr1  1  0.05506730  0.10879939  0.89301195  1
  Zr  Zr2  1  0.58264482  0.84563282  0.65877129  1
  Zr  Zr3  1  0.25589764  0.55683697  0.17472393  1
  Zr  Zr4  1  0.25894958  0.36721355  0.03959413  1
  Zr  Zr5  1  0.82325441  0.04526722  0.50066143  1
  Zr  Zr6  1  0.95654347  0.71759231  0.04618065  1
  Zr  Zr7  1  0.76597440  0.34080292  0.65564212  1
  Zr  Zr8  1  0.36117427  0.33734175  0.22869842  1
  Zr  Zr9  1  0.32594528  0.16764187  0.70437155  1
  Zr  Zr10  1  0.74405534  0.74424961  0.07354901  1
  Zr  Zr11  1  0.52488717  0.23321017  0.32663732  1
  Zr  Zr12  1  0.43994864  0.48975442  0.10592193  1
  Zr  Zr13  1  0.07447358  0.48542182  0.09920230  1
  Zr  Zr14  1  0.28232881  0.04069545  0.90079348  1
  Zr  Zr15  1  0.68399863  0.09180322  0.35371276  1
  Zr  Zr16  1  0.21074023  0.22477381  0.88485961  1
  Zr  Zr17  1  0.90228142  0.16070938  0.35210738  1
  Zr  Zr18  1  0.44882792  0.64949712  0.29516333  1
  Zr  Zr19  1  0.68029587  0.94604819  0.03383502  1
  Zr  Zr20  1  0.15509306  0.23954961  0.21938327  1
  Zr  Zr21  1  1.00863093  0.68758717  0.45281186  1
  Zr  Zr22  1  0.57302506  0.44749576  0.28382753  1
  Zr  Zr23  1  0.24608717  0.09072940  0.50820924  1
  Zr  Zr24  1  0.94747300  1.00500147  0.74596075  1
  Zr  Zr25  1  0.84741984  0.85976145  0.90026416  1
  Zr  Zr26  1  0.86248186  0.71114173  0.26955830  1
  Zr  Zr27  1  0.47844457  0.86392525  0.83852015  1
  Zr  Zr28  1  0.00022007  0.83670542  0.62749966  1
  Zr  Zr29  1  0.17850238  0.08548098  0.08443794  1
  Zr  Zr30  1  0.66983823  0.21786849  0.53159490  1
  Zr  Zr31  1  0.66845839  0.69228398  0.54589382  1
  Zr  Zr32  1  0.37832431  0.55610452  0.73655738  1
  Zr  Zr33  1  0.67544580  0.43601046  0.08668587  1
  Zr  Zr34  1  0.55452763  0.06745987  0.17366893  1
  Zr  Zr35  1  0.07703587  0.47942826  0.51498144  1
  Zr  Zr36  1  0.90780209  0.24915409  0.82679772  1
  Zr  Zr37  1  0.41703908  0.95091258  0.55936387  1
  Zr  Zr38  1  0.16479383  0.30662128  0.65443798  1
  Zr  Zr39  1  0.69867106  0.26342102  0.19996303  1
  Zr  Zr40  1  0.03912702  0.58446928  0.89962913  1
  Zr  Zr41  1  0.84793104  0.81632229  0.46394398  1
  Zr  Zr42  1  0.11291553  0.84607042  0.39883494  1
  Zr  Zr43  1  0.47726585  0.59671759  0.53576683  1
  Zr  Zr44  1  0.20314420  0.89583231  0.58265943  1
  Zr  Zr45  1  0.50229252  0.84817178  0.24738175  1
  Zr  Zr46  1  0.45525326  0.16537196  0.52972958  1
  Zr  Zr47  1  0.67999530  0.33547342  0.86303964  1
  Zr  Zr48  1  0.81125672  0.26854338  0.02538162  1
  Zr  Zr49  1  0.08534363  0.38476557  0.87412706  1
  Sc  Sc50  1  0.38177382  0.75587249  0.66960029  1
  Sc  Sc51  1  0.97335486  0.62470223  0.67547212  1
  Sc  Sc52  1  0.50944081  0.37097958  0.49769040  1
  Sc  Sc53  1  0.94506547  0.19629742  0.61452026  1
  Sc  Sc54  1  0.78487131  0.08011773  0.16147521  1
  Sc  Sc55  1  0.65912914  0.55493448  0.90789919  1
  Sc  Sc56  1  0.71800968  0.88901979  0.25212737  1
  Sc  Sc57  1  0.67530304  0.47982219  0.49698454  1
  Sc  Sc58  1  0.11808040  0.90633110  0.18881210  1
  Sc  Sc59  1  0.05505195  0.91905614  0.98074638  1
  Sc  Sc60  1  0.75157660  0.13677782  0.73437998  1
  Sc  Sc61  1  0.37086468  0.48844308  0.36591209  1
  Sc  Sc62  1  0.52962086  0.28570895  0.06685963  1
  Sc  Sc63  1  0.03265696  0.02248627  0.51215048  1
  Sc  Sc64  1  0.16309467  0.41706113  0.31308159  1
  Sc  Sc65  1  0.07051506  0.69722218  0.22589670  1
  Sc  Sc66  1  0.49945194  0.06270769  0.75329549  1
  Sc  Sc67  1  0.19357011  0.61340111  0.38194380  1
  Sc  Sc68  1  0.29654443  0.29754190  0.45532180  1
  Sc  Sc69  1  0.16049875  0.52266272  0.73142462  1
  Sc  Sc70  1  0.37388796  0.70936405  0.08482121  1
  Sc  Sc71  1  0.84728805  0.57913088  0.48232186  1
  Sc  Sc72  1  0.98831036  0.09581931  0.15475599  1
  Sc  Sc73  1  0.90358923  0.36747392  0.46342485  1
  Sc  Sc74  1  0.78016209  0.92601148  0.64950363  1
  Sc  Sc75  1  0.76603926  0.53961937  0.71110388  1
  Sc  Sc76  1  0.48272678  0.42995654  0.89008196  1
  Sc  Sc77  1  0.58470973  0.63612014  0.11683489  1
  Sc  Sc78  1  0.65461084  0.89416520  0.45123759  1
  Sc  Sc79  1  0.28374439  0.49047688  0.55795376  1
  Sc  Sc80  1  0.27832431  0.77309597  0.25345552  1
  Sc  Sc81  1  0.86711277  0.44359130  0.90084892  1
  Sc  Sc82  1  0.33023911  0.12782947  0.29644730  1
  Sc  Sc83  1  0.85559483  0.54085235  0.10066041  1
  Sc  Sc84  1  0.91404350  0.33288369  0.22292435  1
  Sc  Sc85  1  0.45682155  0.66435538  0.90246476  1
  Sc  Sc86  1  0.16190113  0.73066485  0.02067588  1
  Sc  Sc87  1  0.34908629  0.94999795  0.13128752  1
  Sc  Sc88  1  0.84910881  0.06847487  0.94765498  1
  Sc  Sc89  1  0.48279869  0.03382585  0.97172090  1
  Sc  Sc90  1  0.97630865  0.52212473  0.30612080  1
  Sc  Sc91  1  0.17280013  0.68571326  0.59822224  1
  Sc  Sc92  1  0.03221815  0.27498764  0.03837437  1
  Sc  Sc93  1  0.67183211  0.96882678  0.82576954  1
  Sc  Sc94  1  0.79742234  0.74326559  0.71305174  1
  Sc  Sc95  1  0.08778796  0.23961116  0.44248833  1
  Sc  Sc96  1  0.26471864  0.55759398  0.93896853  1
  Sc  Sc97  1  0.66075443  0.67628063  0.32995645  1
  Sc  Sc98  1  0.96555070  0.41180983  0.68850603  1
  Sc  Sc99  1  0.35761499  0.17717825  0.07800697  1
  Nb  Nb100  1  0.76993562  0.48436778  0.29064138  1
  Nb  Nb101  1  0.49026935  0.79365287  0.44733949  1
  Nb  Nb102  1  0.52512264  0.83235868  0.03945125  1
  Nb  Nb103  1  0.49338996  0.01280787  0.37826755  1
  Nb  Nb104  1  0.29250942  0.38018335  0.81591811  1
  Nb  Nb105  1  0.13965649  0.09122515  0.69995133  1
  Nb  Nb106  1  0.73087833  0.31278409  0.38113903  1
  Nb  Nb107  1  0.57586598  0.65266947  0.72827864  1
  Nb  Nb108  1  0.21424314  0.72955991  0.80132301  1
  Nb  Nb109  1  0.56499633  0.24799977  0.71720320  1
  Nb  Nb110  1  0.93196819  0.95038066  0.32283397  1
  Nb  Nb111  1  0.84056809  0.65168502  0.89243932  1
  Nb  Nb112  1  0.30749631  0.93388867  0.37151525  1
  Nb  Nb113  1  0.01214701  0.77027080  0.82860980  1
  Nb  Nb114  1  0.61227272  0.04422163  0.58208272  1
  Nb  Nb115  1  0.13852307  0.91482396  0.79275460  1
  Nb  Nb116  1  0.31754459  0.74677116  0.46262363  1
  Nb  Nb117  1  0.65638315  0.76319241  0.88289693  1
  Nb  Nb118  1  0.12555811  0.05821134  0.32593964  1
  Nb  Nb119  1  0.31652442  0.94848525  0.73386317  1
  Nb  Nb120  1  0.30733509  0.84494595  0.93143827  1
  Nb  Nb121  1  0.64297176  0.15490562  0.93993038  1
  Nb  Nb122  1  0.40215257  0.34788040  0.67004208  1
  Nb  Nb123  1  0.43419561  0.23093081  0.87611444  1
  Nb  Nb124  1  0.57518077  0.45401113  0.69480442  1
