# generated using pymatgen
data_Zr2Sc2Nb
_symmetry_space_group_name_H-M   'P 1'
_cell_length_a   14.38116911
_cell_length_b   14.52127244
_cell_length_c   13.76060465
_cell_angle_alpha   90.97793993
_cell_angle_beta   90.17940428
_cell_angle_gamma   90.41178130
_symmetry_Int_Tables_number   1
_chemical_formula_structural   Zr2Sc2Nb
_chemical_formula_sum   'Zr50 Sc50 Nb25'
_cell_volume   2873.15862923
_cell_formula_units_Z   25
loop_
 _symmetry_equiv_pos_site_id
 _symmetry_equiv_pos_as_xyz
  1  'x, y, z'
loop_
 _atom_site_type_symbol
 _atom_site_label
 _atom_site_symmetry_multiplicity
 _atom_site_fract_x
 _atom_site_fract_y
 _atom_site_fract_z
 _atom_site_occupancy
  Zr  Zr0  1  0.64331458  0.48445656  0.12905913  1
  Zr  Zr1  1  0.93721494  0.56290877  0.91897020  1
  Zr  Zr2  1  0.09265363  0.55113310  0.73811374  1
  Zr  Zr3  1  0.63209589  0.65740824  0.25980387  1
  Zr  Zr4  1  0.24140465  0.23561066  0.83393075  1
  Zr  Zr5  1  0.30058863  0.44234618  0.94409586  1
  Zr  Zr6  1  0.96752069  0.07388828  0.31467980  1
  Zr  Zr7  1  0.35014594  0.80073741  0.66940409  1
  Zr  Zr8  1  0.27500509  0.48310020  0.47445414  1
  Zr  Zr9  1  0.11150799  0.44367169  0.09585773  1
  Zr  Zr10  1  0.52914866  0.20999604  0.84318667  1
  Zr  Zr11  1  0.47544877  0.44015884  0.50466941  1
  Zr  Zr12  1  0.68927362  0.04744280  0.13592406  1
  Zr  Zr13  1  0.55802634  0.88181020  0.11441365  1
  Zr  Zr14  1  0.42841099  0.58768692  0.32278846  1
  Zr  Zr15  1  0.30423004  0.65256578  0.10186959  1
  Zr  Zr16  1  0.97161958  0.92517849  0.91794858  1
  Zr  Zr17  1  0.63133999  0.60099292  0.46300684  1
  Zr  Zr18  1  0.93441935  0.76036213  0.04876977  1
  Zr  Zr19  1  0.55588906  0.28392790  0.61265723  1
  Zr  Zr20  1  0.25991139  1.00351088  0.67698372  1
  Zr  Zr21  1  0.93494409  0.30974247  0.01446237  1
  Zr  Zr22  1  0.10878160  0.87190533  0.75116337  1
  Zr  Zr23  1  0.74345581  0.64935268  0.04739940  1
  Zr  Zr24  1  0.49619995  0.88891932  0.90866849  1
  Zr  Zr25  1  0.67723740  0.23544790  0.27557003  1
  Zr  Zr26  1  0.10889481  0.91170793  0.11949717  1
  Zr  Zr27  1  0.54073807  0.07584712  0.28732880  1
  Zr  Zr28  1  0.85592349  0.65929013  0.25718586  1
  Zr  Zr29  1  0.37283718  0.70284707  0.90297769  1
  Zr  Zr30  1  0.35529980  0.19028288  0.26682149  1
  Zr  Zr31  1  0.31193859  0.27796778  0.48572763  1
  Zr  Zr32  1  0.47977615  0.95606702  0.70326458  1
  Zr  Zr33  1  0.48425236  0.08940372  0.06913478  1
  Zr  Zr34  1  0.95448378  0.83712725  0.27231094  1
  Zr  Zr35  1  0.16642445  0.87531559  0.53706038  1
  Zr  Zr36  1  0.79235446  0.23702321  0.83868531  1
  Zr  Zr37  1  0.70862378  0.70666438  0.64521431  1
  Zr  Zr38  1  0.76974122  1.01542516  0.33471659  1
  Zr  Zr39  1  0.74229096  0.82584218  0.19558859  1
  Zr  Zr40  1  0.67098226  0.88206784  0.75980920  1
  Zr  Zr41  1  0.03206839  0.03772295  0.67916219  1
  Zr  Zr42  1  0.17289914  0.18355700  0.63869454  1
  Zr  Zr43  1  0.86693937  0.26653271  0.38036906  1
  Zr  Zr44  1  0.08922927  0.38361151  0.86817698  1
  Zr  Zr45  1  0.84764013  0.10070077  0.97586110  1
  Zr  Zr46  1  0.73416981  0.48754842  0.61566857  1
  Zr  Zr47  1  0.18315167  0.34675786  0.30105980  1
  Zr  Zr48  1  0.40989424  0.36313966  0.76794293  1
  Zr  Zr49  1  0.03662896  0.11072829  0.08245379  1
  Sc  Sc50  1  0.77859560  0.26634435  0.62740806  1
  Sc  Sc51  1  0.26530288  0.08599061  0.08461729  1
  Sc  Sc52  1  0.24136253  0.75814271  0.30378145  1
  Sc  Sc53  1  0.90969874  0.51203199  0.12328049  1
  Sc  Sc54  1  -0.01395483  0.46527420  0.32393767  1
  Sc  Sc55  1  0.51631009  0.37229339  0.97954969  1
  Sc  Sc56  1  0.89356414  0.60686909  0.69625185  1
  Sc  Sc57  1  0.15601444  0.14350311  0.27505577  1
  Sc  Sc58  1  0.59091676  0.88456038  0.35731919  1
  Sc  Sc59  1  0.88526413  0.10981803  0.53037361  1
  Sc  Sc60  1  0.15999856  0.03213143  0.90040159  1
  Sc  Sc61  1  0.35240812  0.97195869  0.25823647  1
  Sc  Sc62  1  0.76487456  0.78435155  0.42407015  1
  Sc  Sc63  1  0.14085947  0.93737018  0.33390392  1
  Sc  Sc64  1  0.06781251  0.28929654  0.46552338  1
  Sc  Sc65  1  0.20101789  0.38453264  0.66449019  1
  Sc  Sc66  1  0.06768276  0.51331378  0.52631611  1
  Sc  Sc67  1  0.50618347  0.28876405  0.16970712  1
  Sc  Sc68  1  0.05446977  0.69604652  0.39201204  1
  Sc  Sc69  1  0.08274737  0.67325764  0.15624915  1
  Sc  Sc70  1  0.44091996  0.77456333  0.25418378  1
  Sc  Sc71  1  0.33661138  0.86505448  0.06727868  1
  Sc  Sc72  1  0.37756055  0.06758824  0.87184635  1
  Sc  Sc73  1  0.54490229  0.53643186  0.68390803  1
  Sc  Sc74  1  0.37897229  0.86401184  0.45975945  1
  Sc  Sc75  1  0.76655191  0.43368874  0.96211761  1
  Sc  Sc76  1  0.50989122  0.04351780  0.50422467  1
  Sc  Sc77  1  0.64168942  0.05374601  0.90569616  1
  Sc  Sc78  1  1.01755740  0.18113968  0.85402726  1
  Sc  Sc79  1  0.81805839  0.74516223  0.85557423  1
  Sc  Sc80  1  0.83727011  0.04800385  0.75504103  1
  Sc  Sc81  1  0.68427859  0.24307273  0.03751003  1
  Sc  Sc82  1  0.95956997  0.90323752  0.48328273  1
  Sc  Sc83  1  0.89306098  0.96528447  0.13149484  1
  Sc  Sc84  1  0.29479326  0.06820757  0.45784935  1
  Sc  Sc85  1  0.89180241  0.41154071  0.76406609  1
  Sc  Sc86  1  0.22378518  0.67135069  0.53982511  1
  Sc  Sc87  1  0.87244697  0.61451622  0.48242020  1
  Sc  Sc88  1  0.64361533  0.38240975  0.79066558  1
  Sc  Sc89  1  0.89003577  0.84654273  0.68375600  1
  Sc  Sc90  1  0.15528095  0.59477479  0.94711629  1
  Sc  Sc91  1  0.39490685  0.16450078  0.66148951  1
  Sc  Sc92  1  0.74760842  0.89268291  0.98354924  1
  Sc  Sc93  1  0.72377493  0.95472479  0.55199843  1
  Sc  Sc94  1  0.64127721  0.10506086  0.68446668  1
  Sc  Sc95  1  0.33351725  0.55985123  0.71929036  1
  Sc  Sc96  1  0.51894746  0.55342198  0.90861038  1
  Sc  Sc97  1  0.22499295  0.54074971  0.26424391  1
  Sc  Sc98  1  0.68507355  0.35979891  0.45854438  1
  Sc  Sc99  1  0.43730391  0.65760683  0.53186340  1
  Nb  Nb100  1  0.56364571  0.81829969  0.56403850  1
  Nb  Nb101  1  0.15793999  0.79644796  0.96515593  1
  Nb  Nb102  1  0.15557811  0.25869678  0.03453424  1
  Nb  Nb103  1  0.52347355  0.72794549  0.74729031  1
  Nb  Nb104  1  0.61420454  0.73855089  0.92294311  1
  Nb  Nb105  1  0.89338203  0.40890828  0.52801539  1
  Nb  Nb106  1  0.85099517  0.17052504  0.17604714  1
  Nb  Nb107  1  0.00731180  0.28584584  0.20907604  1
  Nb  Nb108  1  0.68062164  0.15121485  0.46685530  1
  Nb  Nb109  1  0.04119169  0.72218245  0.61412326  1
  Nb  Nb110  1  0.57600183  0.44032204  0.30876370  1
  Nb  Nb111  1  0.80363671  0.36066965  0.19143045  1
  Nb  Nb112  1  0.36804346  0.24215849  -0.01151159  1
  Nb  Nb113  1  0.50524674  0.24833665  0.40615555  1
  Nb  Nb114  1  0.98708544  0.25848232  0.65833707  1
  Nb  Nb115  1  0.29918324  0.88127758  0.84938811  1
  Nb  Nb116  1  0.08987794  0.07972831  0.48776211  1
  Nb  Nb117  1  0.01670153  0.72379734  0.83855057  1
  Nb  Nb118  1  0.20402604  0.71108026  0.76763807  1
  Nb  Nb119  1  0.43329905  0.49882646  0.13413613  1
  Nb  Nb120  1  0.77385731  0.49015906  0.33488638  1
  Nb  Nb121  1  0.51515298  0.67455291  0.08594606  1
  Nb  Nb122  1  0.30051126  0.35124155  0.13339816  1
  Nb  Nb123  1  0.71147809  0.58292885  0.81975620  1
  Nb  Nb124  1  0.38339732  0.39228694  0.31653557  1
