# generated using pymatgen
data_Zr2Sc2Nb
_symmetry_space_group_name_H-M   'P 1'
_cell_length_a   14.14512946
_cell_length_b   14.59556675
_cell_length_c   13.86272789
_cell_angle_alpha   89.94671507
_cell_angle_beta   93.46516770
_cell_angle_gamma   91.71442694
_symmetry_Int_Tables_number   1
_chemical_formula_structural   Zr2Sc2Nb
_chemical_formula_sum   'Zr50 Sc50 Nb25'
_cell_volume   2855.53332760
_cell_formula_units_Z   25
loop_
 _symmetry_equiv_pos_site_id
 _symmetry_equiv_pos_as_xyz
  1  'x, y, z'
loop_
 _atom_site_type_symbol
 _atom_site_label
 _atom_site_symmetry_multiplicity
 _atom_site_fract_x
 _atom_site_fract_y
 _atom_site_fract_z
 _atom_site_occupancy
  Zr  Zr0  1  0.63578037  0.76225428  0.03881321  1
  Zr  Zr1  1  0.13837921  0.83303559  0.28689932  1
  Zr  Zr2  1  0.71415930  0.38268373  0.46375875  1
  Zr  Zr3  1  0.02183236  0.56559561  0.67727430  1
  Zr  Zr4  1  0.38753953  0.41672401  0.18748304  1
  Zr  Zr5  1  0.11566389  0.25448577  0.40461234  1
  Zr  Zr6  1  0.31414008  0.69576247  0.86381721  1
  Zr  Zr7  1  0.06922026  0.87497018  0.98064354  1
  Zr  Zr8  1  0.24013884  0.82457090  0.48333117  1
  Zr  Zr9  1  0.96882457  0.35266558  0.25588316  1
  Zr  Zr10  1  0.37656042  0.50194395  0.86689212  1
  Zr  Zr11  1  0.30537401  0.22163390  0.11947838  1
  Zr  Zr12  1  0.41926943  0.08274716  0.24975299  1
  Zr  Zr13  1  0.91185767  0.68795592  0.95924057  1
  Zr  Zr14  1  0.53025287  0.66494381  0.86625685  1
  Zr  Zr15  1  0.74918155  0.17809796  0.50401432  1
  Zr  Zr16  1  0.78101512  0.65053800  0.14923463  1
  Zr  Zr17  1  0.10935638  0.65873827  0.87865819  1
  Zr  Zr18  1  0.72407982  0.57788337  0.94147768  1
  Zr  Zr19  1  0.83449098  0.26935342  0.69705032  1
  Zr  Zr20  1  0.49706528  0.90463368  0.12905827  1
  Zr  Zr21  1  0.36472041  0.78142374  0.28940077  1
  Zr  Zr22  1  0.79371748  0.45506920  0.26956646  1
  Zr  Zr23  1  0.09734746  0.01212730  0.41035937  1
  Zr  Zr24  1  0.14671778  0.72509879  0.64191577  1
  Zr  Zr25  1  0.62585874  0.07913302  0.17024921  1
  Zr  Zr26  1  0.31455362  -0.02618592  0.38299235  1
  Zr  Zr27  1  0.08345376  0.66669815  0.42013456  1
  Zr  Zr28  1  0.19310306  0.12197740  0.26482985  1
  Zr  Zr29  1  0.74503486  0.35857313  0.88513640  1
  Zr  Zr30  1  0.50828577  0.86958478  0.88223839  1
  Zr  Zr31  1  0.44531396  0.07587062  0.03080674  1
  Zr  Zr32  1  0.95192862  0.13805992  0.30282455  1
  Zr  Zr33  1  0.23231833  -0.02283677  0.61397737  1
  Zr  Zr34  1  0.87214024  0.72740813  0.34658492  1
  Zr  Zr35  1  0.37845904  0.46420339  0.42873434  1
  Zr  Zr36  1  0.41800382  0.72509244  0.07041101  1
  Zr  Zr37  1  0.21696787  0.60474830  0.25829098  1
  Zr  Zr38  1  0.26910645  0.93948488  0.16566374  1
  Zr  Zr39  1  0.84018597  0.25973153  0.08029831  1
  Zr  Zr40  1  0.62882782  0.55099729  0.72362284  1
  Zr  Zr41  1  0.96384118  0.31972315  0.92175911  1
  Zr  Zr42  1  1.02541940  0.93783621  0.65977754  1
  Zr  Zr43  1  0.45163266  0.33693201  1.00354152  1
  Zr  Zr44  1  0.62062720  0.14240070  0.67111659  1
  Zr  Zr45  1  0.92186855  0.50575762  0.85743401  1
  Zr  Zr46  1  1.00727080  0.14103758  0.54799820  1
  Zr  Zr47  1  0.86990102  0.46764302  0.06739772  1
  Zr  Zr48  1  0.66370240  0.59542425  0.32316086  1
  Zr  Zr49  1  0.54302369  0.56134961  0.08903314  1
  Sc  Sc50  1  0.48998624  0.96694157  0.66840438  1
  Sc  Sc51  1  0.56122170  0.40725409  0.31432679  1
  Sc  Sc52  1  0.66105932  0.39107885  0.09605650  1
  Sc  Sc53  1  0.75263965  0.24834948  0.27529270  1
  Sc  Sc54  1  0.82786179  0.46482154  0.64620401  1
  Sc  Sc55  1  0.46821803  0.84270648  0.48707347  1
  Sc  Sc56  1  0.29067483  0.33449694  0.77979469  1
  Sc  Sc57  1  0.98318707  0.15317682  0.77354488  1
  Sc  Sc58  1  0.91635434  0.31829793  0.46820238  1
  Sc  Sc59  1  0.83078291  0.05725844  0.12936344  1
  Sc  Sc60  1  0.72278508  0.62898988  0.53442916  1
  Sc  Sc61  1  0.46451110  0.07800966  0.49532253  1
  Sc  Sc62  1  0.74722673  0.03519451  0.34330979  1
  Sc  Sc63  1  0.11913285  0.46468917  0.45875775  1
  Sc  Sc64  1  0.64372511  0.35375429  0.67544244  1
  Sc  Sc65  1  0.13334231  0.02680439  0.84104613  1
  Sc  Sc66  1  0.30406540  0.64166512  0.46430703  1
  Sc  Sc67  1  0.85037737  0.86720432  0.04682818  1
  Sc  Sc68  1  0.79999813  0.85047167  0.65166785  1
  Sc  Sc69  1  0.04894222  0.34319605  0.66960734  1
  Sc  Sc70  1  -0.00847078  0.74989126  0.16030147  1
  Sc  Sc71  1  0.36494973  0.26071537  0.34851724  1
  Sc  Sc72  1  0.07980173  0.50809399  0.05449476  1
  Sc  Sc73  1  0.51670204  0.27141486  0.81761375  1
  Sc  Sc74  1  0.24062597  0.52198945  0.65992760  1
  Sc  Sc75  1  0.27526347  0.32774602  0.55864562  1
  Sc  Sc76  1  0.30524329  0.89021723  0.97043425  1
  Sc  Sc77  1  0.35866079  0.80287345  0.68795593  1
  Sc  Sc78  1  0.87968082  0.96682174  0.48512954  1
  Sc  Sc79  1  0.07864019  0.24055958  0.11356605  1
  Sc  Sc80  1  0.92701707  0.71635829  0.56868986  1
  Sc  Sc81  1  0.13568269  0.45364089  0.84624555  1
  Sc  Sc82  1  0.82180758  0.05761321  0.66782233  1
  Sc  Sc83  1  0.72063831  0.87059691  0.21205462  1
  Sc  Sc84  1  0.49960269  0.28595032  0.52529524  1
  Sc  Sc85  1  0.29721234  0.55677220  0.05595971  1
  Sc  Sc86  1  0.59945398  0.76990069  0.66078043  1
  Sc  Sc87  1  0.18341349  0.16885360  0.68801293  1
  Sc  Sc88  1  0.81536905  0.65546128  0.74664294  1
  Sc  Sc89  1  0.32858996  0.17901105  0.89734889  1
  Sc  Sc90  1  0.90146884  0.53162413  0.44913229  1
  Sc  Sc91  1  0.19559858  0.73667838  0.08013326  1
  Sc  Sc92  1  0.34309781  1.00262139  0.80434548  1
  Sc  Sc93  1  0.98204742  0.09359886  0.98592884  1
  Sc  Sc94  1  0.43600830  0.61602066  0.64550338  1
  Sc  Sc95  1  0.18659991  0.39407696  0.24126285  1
  Sc  Sc96  1  0.88662658  0.94204672  0.84862876  1
  Sc  Sc97  1  0.69150964  0.81427503  0.42855757  1
  Sc  Sc98  1  -0.00871148  0.55924096  0.24889064  1
  Sc  Sc99  1  0.77399053  0.13561091  0.87957675  1
  Nb  Nb100  1  0.66508335  0.97476365  -0.01317284  1
  Nb  Nb101  1  0.52394652  0.24687685  0.18186691  1
  Nb  Nb102  1  0.26015644  0.13720446  0.49100558  1
  Nb  Nb103  1  0.65421004  0.98590763  0.53518280  1
  Nb  Nb104  1  0.55962276  0.74644968  0.25021987  1
  Nb  Nb105  1  0.17932284  0.84241363  0.79714278  1
  Nb  Nb106  1  0.03762929  0.84383611  0.47157226  1
  Nb  Nb107  1  0.54747630  0.95072357  0.33512959  1
  Nb  Nb108  1  0.56316161  0.49201743  0.52146895  1
  Nb  Nb109  1  0.56875530  0.45386018  0.88681596  1
  Nb  Nb110  1  0.58461471  0.17218965  0.36781329  1
  Nb  Nb111  1  0.24097434  0.36722980  1.00510120  1
  Nb  Nb112  1  0.63024083  0.20099133  0.00720595  1
  Nb  Nb113  1  0.04946226  0.99077767  0.16500223  1
  Nb  Nb114  1  0.51654878  0.65763439  0.44162428  1
  Nb  Nb115  1  0.39384466  0.16775292  0.67557794  1
  Nb  Nb116  1  0.67421738  0.95808090  0.77632201  1
  Nb  Nb117  1  0.92674150  0.91475412  0.28403528  1
  Nb  Nb118  1  0.13729503  0.23449478  0.90168768  1
  Nb  Nb119  1  0.44670262  0.41973862  0.67843283  1
  Nb  Nb120  1  0.43073846  0.59364045  0.26511928  1
  Nb  Nb121  1  0.19574204  0.07072531  0.03748278  1
  Nb  Nb122  1  -0.01784526  0.77578094  0.78013427  1
  Nb  Nb123  1  0.72616479  0.79269728  0.86377923  1
  Nb  Nb124  1  0.54346672  0.07924117  0.85418279  1
