# generated using pymatgen
data_Zr2Sc2Nb
_symmetry_space_group_name_H-M   'P 1'
_cell_length_a   13.94759848
_cell_length_b   14.39348696
_cell_length_c   14.26656535
_cell_angle_alpha   88.03878888
_cell_angle_beta   88.36826600
_cell_angle_gamma   89.75468690
_symmetry_Int_Tables_number   1
_chemical_formula_structural   Zr2Sc2Nb
_chemical_formula_sum   'Zr50 Sc50 Nb25'
_cell_volume   2861.22419599
_cell_formula_units_Z   25
loop_
 _symmetry_equiv_pos_site_id
 _symmetry_equiv_pos_as_xyz
  1  'x, y, z'
loop_
 _atom_site_type_symbol
 _atom_site_label
 _atom_site_symmetry_multiplicity
 _atom_site_fract_x
 _atom_site_fract_y
 _atom_site_fract_z
 _atom_site_occupancy
  Zr  Zr0  1  0.31553396  0.24419163  0.15333569  1
  Zr  Zr1  1  0.47557548  0.37919286  0.15960873  1
  Zr  Zr2  1  0.96633810  0.19832315  0.69177877  1
  Zr  Zr3  1  0.07584459  0.45839481  0.95729042  1
  Zr  Zr4  1  0.62114900  0.63079046  0.63725231  1
  Zr  Zr5  1  0.54401985  0.41048111  0.65215099  1
  Zr  Zr6  1  0.50963871  0.08450793  0.88150506  1
  Zr  Zr7  1  0.88539201  0.26974798  0.26341270  1
  Zr  Zr8  1  0.91041369  0.88443587  0.17117716  1
  Zr  Zr9  1  0.80583469  -0.00263769  0.01364623  1
  Zr  Zr10  1  0.14258943  0.37402063  0.71333944  1
  Zr  Zr11  1  0.71081369  1.09631146  0.78792527  1
  Zr  Zr12  1  0.37445473  0.29999854  0.79311540  1
  Zr  Zr13  1  0.06832214  0.38039550  0.33795809  1
  Zr  Zr14  1  0.31386553  0.90068244  0.66109835  1
  Zr  Zr15  1  0.92944931  0.82456125  0.66238661  1
  Zr  Zr16  1  0.54543148  0.56207898  0.47321960  1
  Zr  Zr17  1  0.43160108  0.77347776  0.10571335  1
  Zr  Zr18  1  0.35660543  0.98102924  0.09076290  1
  Zr  Zr19  1  0.40603356  0.71164742  0.56500448  1
  Zr  Zr20  1  0.20305850  0.08204578  0.61117246  1
  Zr  Zr21  1  0.14716431  0.64282139  0.95203081  1
  Zr  Zr22  1  0.23206421  0.31406485  0.94825351  1
  Zr  Zr23  1  0.51211358  0.12083068  0.14644502  1
  Zr  Zr24  1  0.29779253  0.63372881  0.18819545  1
  Zr  Zr25  1  0.33551004  0.27468537  0.59557562  1
  Zr  Zr26  1  0.19737916  0.08440662  0.21370852  1
  Zr  Zr27  1  0.01999366  0.70020704  0.53437915  1
  Zr  Zr28  1  0.66746602  0.41567166  0.36200553  1
  Zr  Zr29  1  0.06681056  0.92785959  0.33859062  1
  Zr  Zr30  1  0.01758611  0.01277058  0.52998844  1
  Zr  Zr31  1  0.80872723  0.29197983  0.85504430  1
  Zr  Zr32  1  0.28870370  0.87772695  0.25703862  1
  Zr  Zr33  1  0.71793058  0.20956937  0.37764660  1
  Zr  Zr34  1  0.93993002  0.70958929  0.86188957  1
  Zr  Zr35  1  0.73053764  0.85025896  0.28589260  1
  Zr  Zr36  1  0.32747178  0.58554215  0.40837348  1
  Zr  Zr37  1  0.23554174  0.80601811  0.02260750  1
  Zr  Zr38  1  0.36821134  0.49994938  0.62651861  1
  Zr  Zr39  1  0.74209738  0.47511308  0.55043256  1
  Zr  Zr40  1  0.79144336  0.78864164  0.00606368  1
  Zr  Zr41  1  0.50321257  0.56994871  0.81472572  1
  Zr  Zr42  1  0.22389409  0.77398701  0.42740054  1
  Zr  Zr43  1  0.56700504  0.73302661  0.94216339  1
  Zr  Zr44  1  0.06130241  0.56082214  0.75617672  1
  Zr  Zr45  1  0.58804699  0.29476738  0.82821384  1
  Zr  Zr46  1  0.85054674  0.67072604  0.18650602  1
  Zr  Zr47  1  0.86839823  0.20851217  0.04953054  1
  Zr  Zr48  1  0.42756495  0.39657246  0.42389402  1
  Zr  Zr49  1  0.74451310  0.27224858  0.64531525  1
  Sc  Sc50  1  0.70751310  0.50807863  0.17287411  1
  Sc  Sc51  1  0.67902766  0.27808798  0.17645409  1
  Sc  Sc52  1  0.07373732  0.53953012  0.16553347  1
  Sc  Sc53  1  0.60529945  0.80119164  0.47661437  1
  Sc  Sc54  1  0.41594078  0.88827212  0.89125852  1
  Sc  Sc55  1  0.73271605  0.71040792  0.80250442  1
  Sc  Sc56  1  0.12085433  0.78562108  0.76750430  1
  Sc  Sc57  1  0.51932186  0.98284720  0.68339321  1
  Sc  Sc58  1  0.31828876  0.70879211  0.78059430  1
  Sc  Sc59  1  0.79230028  0.68898006  0.50700409  1
  Sc  Sc60  1  0.67337340  0.08329602  0.56367840  1
  Sc  Sc61  1  0.40585028  0.90622477  0.45750398  1
  Sc  Sc62  1  0.20153038  0.63024829  0.60321081  1
  Sc  Sc63  1  0.59472746  0.93758750  0.04943626  1
  Sc  Sc64  1  0.65685994  0.39625722  0.99426608  1
  Sc  Sc65  1  0.09869076  0.12757017  1.00502526  1
  Sc  Sc66  1  0.27280434  0.50259611  0.82885094  1
  Sc  Sc67  1  0.82691496  0.90571290  0.48586464  1
  Sc  Sc68  1  0.85475733  0.03741138  0.33380325  1
  Sc  Sc69  1  0.08852794  0.26500812  0.53474162  1
  Sc  Sc70  1  0.42545358  0.10792990  0.51296425  1
  Sc  Sc71  1  0.49866941  0.54894225  0.26281361  1
  Sc  Sc72  1  0.46171825  0.73582127  0.33272018  1
  Sc  Sc73  1  0.87619131  0.15544218  0.50210936  1
  Sc  Sc74  1  0.15863286  0.17422708  0.79517020  1
  Sc  Sc75  1  0.88595569  0.53224660  0.35944483  1
  Sc  Sc76  1  0.49983460  0.22939414  0.32520102  1
  Sc  Sc77  1  0.66730101  0.16429889  0.99506944  1
  Sc  Sc78  1  0.05482754  0.15692296  0.35720577  1
  Sc  Sc79  1  0.70784184  0.86883347  0.65844443  1
  Sc  Sc80  1  0.21213122  0.42809241  0.49290966  1
  Sc  Sc81  1  0.92604070  0.10025254  0.86870960  1
  Sc  Sc82  1  0.11209304  0.58443411  0.37373870  1
  Sc  Sc83  1  0.88088776  0.40637609  0.07713567  1
  Sc  Sc84  1  0.88502970  0.34922203  0.47069965  1
  Sc  Sc85  1  0.51676952  0.78139652  0.73199605  1
  Sc  Sc86  1  0.63273421  0.71611999  0.15243862  1
  Sc  Sc87  1  0.86908072  0.59857754  0.67845607  1
  Sc  Sc88  1  0.27969975  0.46723659  0.07153783  1
  Sc  Sc89  1  0.08789605  0.30364939  0.13477072  1
  Sc  Sc90  1  1.01479374  0.91533350  -0.05670510  1
  Sc  Sc91  1  0.11556035  0.74798092  0.23025773  1
  Sc  Sc92  1  0.31345680  0.12660423  0.95653052  1
  Sc  Sc93  1  0.21487598  0.96480626  0.85768968  1
  Sc  Sc94  1  0.60611879  0.02793208  0.37485362  1
  Sc  Sc95  1  0.92840919  0.75782231  0.35333430  1
  Sc  Sc96  1  0.51986219  0.91431960  0.24082620  1
  Sc  Sc97  1  -0.02851066  0.08075129  0.16860132  1
  Sc  Sc98  1  0.26713589  0.23322248  0.37900152  1
  Sc  Sc99  1  0.70380548  0.47894467  0.78078874  1
  Nb  Nb100  1  0.58054032  0.28563317  0.51084616  1
  Nb  Nb101  1  0.04521892  0.98440864  0.73281502  1
  Nb  Nb102  1  0.69075705  0.64069508  0.34198575  1
  Nb  Nb103  1  1.00700638  0.30048994  0.88509503  1
  Nb  Nb104  1  0.64790521  0.91071453  0.85573093  1
  Nb  Nb105  1  0.46734869  0.25598580  1.00038259  1
  Nb  Nb106  1  0.01572422  0.75186407  0.06143993  1
  Nb  Nb107  1  0.38044013  0.06180220  0.30123241  1
  Nb  Nb108  1  0.36545568  0.63856648  0.96985545  1
  Nb  Nb109  1  0.27031680  0.43054547  0.27596316  1
  Nb  Nb110  1  0.44075227  0.42873227  0.93936506  1
  Nb  Nb111  1  0.12342717  0.93353974  0.11834180  1
  Nb  Nb112  1  0.72412684  0.06867398  0.18737583  1
  Nb  Nb113  1  0.51861867  0.56307164  0.05426020  1
  Nb  Nb114  1  0.52643223  0.19217560  0.68041202  1
  Nb  Nb115  1  0.14071557  0.86840082  0.57172210  1
  Nb  Nb116  1  0.35523212  0.09700375  0.74238226  1
  Nb  Nb117  1  0.72758876  0.59095334  -0.02351785  1
  Nb  Nb118  1  0.88571484  0.48713191  0.87098265  1
  Nb  Nb119  1  0.92158693  0.59558994  0.02188800  1
  Nb  Nb120  1  0.22652474  0.01052229  0.42751782  1
  Nb  Nb121  1  0.84408068  0.90615677  0.82622627  1
  Nb  Nb122  1  0.92080247  0.39457678  0.69405860  1
  Nb  Nb123  1  0.85455548  0.02691448  0.66855663  1
  Nb  Nb124  1  1.01487078  0.48927332  0.54879179  1
