# generated using pymatgen
data_Zr2Sc2Nb
_symmetry_space_group_name_H-M   'P 1'
_cell_length_a   14.21397141
_cell_length_b   14.51126209
_cell_length_c   13.93951135
_cell_angle_alpha   91.46201359
_cell_angle_beta   88.63935020
_cell_angle_gamma   88.59508029
_symmetry_Int_Tables_number   1
_chemical_formula_structural   Zr2Sc2Nb
_chemical_formula_sum   'Zr50 Sc50 Nb25'
_cell_volume   2872.54619614
_cell_formula_units_Z   25
loop_
 _symmetry_equiv_pos_site_id
 _symmetry_equiv_pos_as_xyz
  1  'x, y, z'
loop_
 _atom_site_type_symbol
 _atom_site_label
 _atom_site_symmetry_multiplicity
 _atom_site_fract_x
 _atom_site_fract_y
 _atom_site_fract_z
 _atom_site_occupancy
  Zr  Zr0  1  -0.00747402  0.08761878  1.02688298  1
  Zr  Zr1  1  0.52233535  0.22811907  0.53783222  1
  Zr  Zr2  1  0.49382725  0.32408936  0.88289938  1
  Zr  Zr3  1  0.71719348  0.87348155  0.53542727  1
  Zr  Zr4  1  0.07454025  0.75623009  0.34287059  1
  Zr  Zr5  1  0.92219998  0.72537537  0.03348158  1
  Zr  Zr6  1  0.04787801  0.32717491  0.33422373  1
  Zr  Zr7  1  0.58413042  0.70427006  0.56777563  1
  Zr  Zr8  1  0.60633082  0.16085287  0.74700393  1
  Zr  Zr9  1  0.75627591  0.60227890  0.09163021  1
  Zr  Zr10  1  0.00184547  0.14371932  0.23072623  1
  Zr  Zr11  1  0.44951792  0.84739471  0.26727214  1
  Zr  Zr12  1  0.08946335  0.51541204  0.70157563  1
  Zr  Zr13  1  0.28485709  0.49812799  0.84153151  1
  Zr  Zr14  1  0.87782664  0.46226768  0.29497073  1
  Zr  Zr15  1  0.49375674  0.65484005  0.36765894  1
  Zr  Zr16  1  0.20911151  0.33096606  0.72114368  1
  Zr  Zr17  1  0.48933566  0.86664483  0.47675371  1
  Zr  Zr18  1  0.78125950  0.69207432  0.65109847  1
  Zr  Zr19  1  0.67591103  0.52500730  0.28019520  1
  Zr  Zr20  1  0.97933232  0.33661002  0.12571048  1
  Zr  Zr21  1  0.44198013  0.58517170  0.69110321  1
  Zr  Zr22  1  0.19266007  0.13203080  0.72045130  1
  Zr  Zr23  1  0.76398515  0.81206591  0.17530272  1
  Zr  Zr24  1  0.06725331  0.97381835  0.35061400  1
  Zr  Zr25  1  0.28892796  0.28879752  0.91772949  1
  Zr  Zr26  1  0.13278756  0.42422235  0.49029006  1
  Zr  Zr27  1  0.27632951  0.86479433  0.52395143  1
  Zr  Zr28  1  0.06837896  0.99663149  0.83366273  1
  Zr  Zr29  1  0.16986628  0.86809255  0.69981657  1
  Zr  Zr30  1  0.97785788  0.56462902  0.48470508  1
  Zr  Zr31  1  0.68028787  0.37117002  0.46068253  1
  Zr  Zr32  1  0.97355017  0.12734614  0.67081331  1
  Zr  Zr33  1  0.63959536  0.33472892  0.20740121  1
  Zr  Zr34  1  0.16676508  0.03060342  0.15412231  1
  Zr  Zr35  1  0.83046643  0.27802235  0.32318199  1
  Zr  Zr36  1  0.18793732  0.17205713  0.35738078  1
  Zr  Zr37  1  0.69518051  0.73259020  0.37168207  1
  Zr  Zr38  1  0.54665628  0.95627907  0.68599781  1
  Zr  Zr39  1  0.57372474  0.90593318  0.09943520  1
  Zr  Zr40  1  0.06987606  0.59784365  0.90653838  1
  Zr  Zr41  1  0.76953890  0.56209812  0.47376647  1
  Zr  Zr42  1  0.90785446  0.35891921  0.51877584  1
  Zr  Zr43  1  0.71397550  0.85264014  0.76786329  1
  Zr  Zr44  1  0.99826898  0.32653292  0.73113486  1
  Zr  Zr45  1  0.88658591  0.49690859  0.92342383  1
  Zr  Zr46  1  0.89120172  0.28693446  0.93450198  1
  Zr  Zr47  1  0.87292045  0.86203254  0.35514552  1
  Zr  Zr48  1  0.33947315  -0.00742710  0.76501254  1
  Zr  Zr49  1  0.28579111  0.74744874  0.35611642  1
  Sc  Sc50  1  0.87141058  0.50422650  0.69584908  1
  Sc  Sc51  1  0.85282655  0.10315757  0.85987827  1
  Sc  Sc52  1  0.45216056  0.10989954  0.94326632  1
  Sc  Sc53  1  0.70236196  0.78514715  0.96964996  1
  Sc  Sc54  1  0.89266386  0.66143882  0.27315154  1
  Sc  Sc55  1  -0.03075302  0.90863066  0.16747305  1
  Sc  Sc56  1  0.49252429  0.46908499  0.50336384  1
  Sc  Sc57  1  0.27685079  0.85886033  0.90989511  1
  Sc  Sc58  1  0.14275357  0.03980257  0.53821488  1
  Sc  Sc59  1  0.25836260  0.36513893  0.25781454  1
  Sc  Sc60  1  0.66156785  0.23184913  -0.01739511  1
  Sc  Sc61  1  0.63987554  0.17600068  0.34430198  1
  Sc  Sc62  1  0.76421532  0.17960864  0.52056296  1
  Sc  Sc63  1  0.15936360  0.23986840  0.09090845  1
  Sc  Sc64  1  0.33824655  0.15978133  0.18405411  1
  Sc  Sc65  1  0.77256281  0.00352033  0.09549419  1
  Sc  Sc66  1  0.45962737  0.31317931  0.33564876  1
  Sc  Sc67  1  0.90526507  0.98898013  0.51743525  1
  Sc  Sc68  1  0.09973875  0.53418712  0.28676152  1
  Sc  Sc69  1  0.75900499  0.03559027  0.67772405  1
  Sc  Sc70  1  0.16380415  0.66213876  0.52469793  1
  Sc  Sc71  1  0.23507787  0.07141300  0.95484352  1
  Sc  Sc72  1  0.49654891  0.87423144  0.89502542  1
  Sc  Sc73  1  0.65560908  0.52045634  0.66132843  1
  Sc  Sc74  1  0.92765789  0.88073187  0.70211068  1
  Sc  Sc75  1  0.46038738  0.07334169  0.34861369  1
  Sc  Sc76  1  0.65601947  0.01654785  0.90733061  1
  Sc  Sc77  1  0.23213416  0.83656861  0.16320679  1
  Sc  Sc78  1  0.64125006  0.94091807  0.31663216  1
  Sc  Sc79  1  0.09305795  0.68926921  0.13079103  1
  Sc  Sc80  1  0.37690384  0.05710303  0.55483145  1
  Sc  Sc81  1  0.87834877  0.70063194  0.83243388  1
  Sc  Sc82  1  0.30204132  0.62213162  0.18107016  1
  Sc  Sc83  1  0.89025463  0.90358487  0.92894629  1
  Sc  Sc84  1  0.08481312  0.39201561  0.92151067  1
  Sc  Sc85  1  0.48102349  0.50891717  0.20320748  1
  Sc  Sc86  1  0.28161717  0.50026426  0.60314770  1
  Sc  Sc87  1  0.71142373  0.39034114  0.85547879  1
  Sc  Sc88  1  0.40285171  0.80172464  0.69936385  1
  Sc  Sc89  1  0.44320847  0.32060709  0.09549926  1
  Sc  Sc90  1  0.82393492  0.05845469  0.31738813  1
  Sc  Sc91  1  0.28328514  0.97467770  0.33227331  1
  Sc  Sc92  1  0.41029347  0.76244324  0.06939559  1
  Sc  Sc93  1  0.55728380  0.11629003  0.14387225  1
  Sc  Sc94  1  0.31042727  0.28347782  0.51408940  1
  Sc  Sc95  1  0.19206520  0.47664213  0.07281828  1
  Sc  Sc96  1  0.80743508  0.19920852  0.12918671  1
  Sc  Sc97  1  0.30969026  0.53025563  0.38524611  1
  Sc  Sc98  1  0.40109082  0.18803756  0.73260787  1
  Sc  Sc99  1  0.79888165  0.26780190  0.70767400  1
  Nb  Nb100  1  0.38075285  0.97484920  0.10145144  1
  Nb  Nb101  1  0.55708553  0.64062740  0.99799891  1
  Nb  Nb102  1  0.39853981  0.67603244  0.87419381  1
  Nb  Nb103  1  0.37079073  0.67962070  0.53355938  1
  Nb  Nb104  1  0.41455545  0.37922808  0.69696806  1
  Nb  Nb105  1  0.89891123  0.74432804  0.49991692  1
  Nb  Nb106  1  0.60735307  0.45585840  0.03229988  1
  Nb  Nb107  1  0.07645827  0.19840574  0.87637597  1
  Nb  Nb108  1  0.23368415  0.67608500  -0.02456391  1
  Nb  Nb109  1  0.39808189  0.51480877  0.00498469  1
  Nb  Nb110  1  0.52808972  0.50401185  0.84264964  1
  Nb  Nb111  1  1.01494501  0.69416299  0.66924209  1
  Nb  Nb112  1  0.05997015  0.84591108  0.52309196  1
  Nb  Nb113  1  0.58556482  0.70505384  0.78562015  1
  Nb  Nb114  1  0.09905950  0.24770343  0.55351450  1
  Nb  Nb115  1  0.60474688  0.04548903  0.51541964  1
  Nb  Nb116  1  0.71235980  0.59164547  0.86780442  1
  Nb  Nb117  1  0.58955416  0.70629306  0.18554054  1
  Nb  Nb118  1  0.96959160  0.52788857  0.10384674  1
  Nb  Nb119  1  0.97538799  0.16202651  0.44014085  1
  Nb  Nb120  1  0.23039627  0.67565716  0.74084082  1
  Nb  Nb121  1  0.07346693  0.77752328  0.85064465  1
  Nb  Nb122  1  0.59691576  0.34143251  0.67943318  1
  Nb  Nb123  1  0.09608927  0.87665952  0.00867163  1
  Nb  Nb124  1  0.78946741  0.40504707  0.09241279  1
