# generated using pymatgen
data_Zr2Sc2Nb
_symmetry_space_group_name_H-M   'P 1'
_cell_length_a   14.47500137
_cell_length_b   14.54046223
_cell_length_c   13.68969823
_cell_angle_alpha   86.27711197
_cell_angle_beta   90.10560809
_cell_angle_gamma   91.91163079
_symmetry_Int_Tables_number   1
_chemical_formula_structural   Zr2Sc2Nb
_chemical_formula_sum   'Zr50 Sc50 Nb25'
_cell_volume   2873.63415359
_cell_formula_units_Z   25
loop_
 _symmetry_equiv_pos_site_id
 _symmetry_equiv_pos_as_xyz
  1  'x, y, z'
loop_
 _atom_site_type_symbol
 _atom_site_label
 _atom_site_symmetry_multiplicity
 _atom_site_fract_x
 _atom_site_fract_y
 _atom_site_fract_z
 _atom_site_occupancy
  Zr  Zr0  1  0.62967393  0.69361702  0.91679855  1
  Zr  Zr1  1  0.00378090  0.17090816  0.86121504  1
  Zr  Zr2  1  0.60315141  0.73187975  0.12880602  1
  Zr  Zr3  1  0.38117710  0.71015728  0.84897457  1
  Zr  Zr4  1  0.14226669  0.25388669  0.28180798  1
  Zr  Zr5  1  0.30633360  0.33873794  0.35709399  1
  Zr  Zr6  1  0.73807494  0.85570424  0.63436765  1
  Zr  Zr7  1  0.70333388  0.50239214  0.48627179  1
  Zr  Zr8  1  0.14383100  0.48519592  0.29368158  1
  Zr  Zr9  1  0.98124143  0.20879346  0.42504658  1
  Zr  Zr10  1  0.15418232  0.15724159  0.52417113  1
  Zr  Zr11  1  0.62594662  0.15354188  0.47920594  1
  Zr  Zr12  1  0.25363455  0.68547502  0.32478037  1
  Zr  Zr13  1  0.72231832  0.21779553  0.70795785  1
  Zr  Zr14  1  0.13700036  0.36144566  0.50203926  1
  Zr  Zr15  1  0.97447214  -0.01106325  0.49448300  1
  Zr  Zr16  1  0.62436128  0.51742791  0.15199655  1
  Zr  Zr17  1  0.93534245  0.84383222  0.68353817  1
  Zr  Zr18  1  0.95297552  0.43483416  0.43404536  1
  Zr  Zr19  1  0.74414649  0.63394844  0.69227291  1
  Zr  Zr20  1  0.88573088  0.56169548  0.86879971  1
  Zr  Zr21  1  0.27616865  0.91960591  0.23154376  1
  Zr  Zr22  1  0.29637249  0.09745313  0.38423588  1
  Zr  Zr23  1  0.67546356  0.71680261  0.48721183  1
  Zr  Zr24  1  0.79835985  0.64413554  0.07245199  1
  Zr  Zr25  1  0.84769354  0.46057386  0.63447067  1
  Zr  Zr26  1  0.51782024  0.54322701  0.81250027  1
  Zr  Zr27  1  0.78216267  0.48226799  0.28877529  1
  Zr  Zr28  1  0.27415986  0.37346819  0.13327131  1
  Zr  Zr29  1  0.13623216  0.84729019  0.37733245  1
  Zr  Zr30  1  0.93923334  0.33554776  0.24303802  1
  Zr  Zr31  1  0.33677074  0.24395027  -0.00697296  1
  Zr  Zr32  1  0.51488373  0.85706320  0.95436916  1
  Zr  Zr33  1  0.23809880  0.44785832  0.68621729  1
  Zr  Zr34  1  0.66921228  0.42310525  0.73211209  1
  Zr  Zr35  1  0.14740973  0.83939917  0.73973796  1
  Zr  Zr36  1  0.73237614  0.97986922  0.44351355  1
  Zr  Zr37  1  0.84898165  0.03149850  0.70690288  1
  Zr  Zr38  1  0.05286271  0.93261718  0.19964356  1
  Zr  Zr39  1  0.60363987  0.08212034  0.88033593  1
  Zr  Zr40  1  0.58365117  0.61583419  0.33438008  1
  Zr  Zr41  1  0.69981029  0.32155509  0.14200553  1
  Zr  Zr42  1  0.09548640  0.23269989  0.06152572  1
  Zr  Zr43  1  0.19958380  0.11389868  0.89799458  1
  Zr  Zr44  1  0.69657448  0.27488249  0.93542270  1
  Zr  Zr45  1  0.37608257  0.17893612  0.20326804  1
  Zr  Zr46  1  0.33780654  0.26694206  0.56810162  1
  Zr  Zr47  1  0.69445211  0.90488920  0.83117265  1
  Zr  Zr48  1  0.08851565  0.58644700  0.48537821  1
  Zr  Zr49  1  0.82425370  0.75241316  0.86644499  1
  Sc  Sc50  1  0.19074476  0.94786781  0.54729124  1
  Sc  Sc51  1  0.97056012  0.63654280  0.67996439  1
  Sc  Sc52  1  0.06607148  0.04057963  0.70758610  1
  Sc  Sc53  1  0.54807068  0.87498408  0.51269686  1
  Sc  Sc54  1  0.79183762  0.17827632  0.31669857  1
  Sc  Sc55  1  0.87915828  0.35172338  0.83801668  1
  Sc  Sc56  1  0.45023936  0.78293436  0.26809739  1
  Sc  Sc57  1  0.86090136  0.45310342  0.06758696  1
  Sc  Sc58  1  0.43658520  0.04415777  0.54261618  1
  Sc  Sc59  1  0.45465101  0.60588428  0.03496495  1
  Sc  Sc60  1  0.14159952  0.75097932  0.14559969  1
  Sc  Sc61  1  0.89294655  0.24750260  0.04389081  1
  Sc  Sc62  1  0.78470712  0.69976444  0.27790956  1
  Sc  Sc63  1  0.44233576  0.41312316  0.66863368  1
  Sc  Sc64  1  0.94390184  0.93405235  0.88247604  1
  Sc  Sc65  1  0.31346352  0.50047126  0.88740280  1
  Sc  Sc66  1  0.48226292  0.44596522  0.43201789  1
  Sc  Sc67  1  0.74589611  0.88387353  0.04746982  1
  Sc  Sc68  1  0.49221589  0.94938035  0.74642250  1
  Sc  Sc69  1  0.13300907  0.91344171  0.98349231  1
  Sc  Sc70  1  -0.00308931  0.72269716  0.30739415  1
  Sc  Sc71  1  0.80753008  0.09431688  0.90351886  1
  Sc  Sc72  1  0.49575669  0.39676874  0.99243593  1
  Sc  Sc73  1  0.55296849  0.74145184  0.70224446  1
  Sc  Sc74  1  0.78872412  0.31135256  0.49156843  1
  Sc  Sc75  1  0.86732944  0.81597958  0.45370627  1
  Sc  Sc76  1  0.35013182  0.82262232  0.65669385  1
  Sc  Sc77  1  0.09798494  0.54040693  0.87710796  1
  Sc  Sc78  1  0.37464778  1.01789362  0.05141228  1
  Sc  Sc79  1  0.19141466  0.08523614  0.14126531  1
  Sc  Sc80  1  0.64987549  0.85959286  0.29500035  1
  Sc  Sc81  1  0.59089673  0.16434582  0.24709157  1
  Sc  Sc82  1  0.95040957  0.24380744  0.64378430  1
  Sc  Sc83  1  0.07077935  0.43272406  0.08642726  1
  Sc  Sc84  1  0.75271429  0.10063090  0.11193787  1
  Sc  Sc85  1  0.31333561  0.91224335  0.86839019  1
  Sc  Sc86  1  0.48025428  1.00535160  0.32274263  1
  Sc  Sc87  1  0.38825923  0.54917806  0.25276644  1
  Sc  Sc88  1  0.93747928  0.80900207  0.07619144  1
  Sc  Sc89  1  0.15717923  0.34121330  0.88662652  1
  Sc  Sc90  1  0.48267571  0.35646222  0.21032643  1
  Sc  Sc91  1  0.56845669  0.98223545  0.11357807  1
  Sc  Sc92  1  0.29661219  0.52121121  0.48148672  1
  Sc  Sc93  1  0.23267183  0.57927085  0.08830595  1
  Sc  Sc94  1  0.85681955  0.95045972  0.25522708  1
  Sc  Sc95  1  0.34699014  0.86831113  0.43312409  1
  Sc  Sc96  1  0.28921836  0.07652606  0.69743799  1
  Sc  Sc97  1  0.34380389  0.78503103  0.07191249  1
  Sc  Sc98  1  0.69105620  0.49176053  0.93779918  1
  Sc  Sc99  1  0.04044625  0.43480080  0.69024369  1
  Nb  Nb100  1  0.55775411  0.56552610  0.59068587  1
  Nb  Nb101  1  0.82282419  0.11718724  0.53302809  1
  Nb  Nb102  1  0.43934392  0.68202697  0.47795265  1
  Nb  Nb103  1  0.11033198  0.05172130  0.34842785  1
  Nb  Nb104  1  0.53203065  0.19070243  0.03824267  1
  Nb  Nb105  1  0.52840621  0.28720156  0.82455564  1
  Nb  Nb106  1  0.02117803  0.73797251  0.86971368  1
  Nb  Nb107  1  0.63818007  0.34488398  0.34895676  1
  Nb  Nb108  1  1.01196149  0.62650179  0.04582380  1
  Nb  Nb109  1  0.58866242  0.32823834  0.57040261  1
  Nb  Nb110  1  -0.03182398  0.04925107  1.04891652  1
  Nb  Nb111  1  0.65084415  0.03672508  0.64933329  1
  Nb  Nb112  1  0.46542585  0.23009559  0.40998176  1
  Nb  Nb113  1  0.33099094  0.27447129  0.78556894  1
  Nb  Nb114  1  0.97434722  0.12996528  0.22205763  1
  Nb  Nb115  1  0.18219154  0.64968140  0.71572695  1
  Nb  Nb116  1  0.15278191  0.24376380  0.70655186  1
  Nb  Nb117  1  0.41737644  0.11108447  0.86263404  1
  Nb  Nb118  1  0.05076314  0.77118182  0.54463822  1
  Nb  Nb119  1  0.37249372  0.61160496  0.66571311  1
  Nb  Nb120  1  0.19748925  0.71802288  0.92580404  1
  Nb  Nb121  1  0.95854534  0.55273515  0.23545928  1
  Nb  Nb122  1  0.50101414  0.17793763  0.67545394  1
  Nb  Nb123  1  0.23531250  0.71554476  0.53421844  1
  Nb  Nb124  1  0.87998962  0.61468174  0.46783106  1
