# generated using pymatgen
data_Zr2Sc2Nb
_symmetry_space_group_name_H-M   'P 1'
_cell_length_a   14.25327859
_cell_length_b   14.43101637
_cell_length_c   14.05232672
_cell_angle_alpha   88.28522151
_cell_angle_beta   90.45061896
_cell_angle_gamma   91.24768166
_symmetry_Int_Tables_number   1
_chemical_formula_structural   Zr2Sc2Nb
_chemical_formula_sum   'Zr50 Sc50 Nb25'
_cell_volume   2888.35857145
_cell_formula_units_Z   25
loop_
 _symmetry_equiv_pos_site_id
 _symmetry_equiv_pos_as_xyz
  1  'x, y, z'
loop_
 _atom_site_type_symbol
 _atom_site_label
 _atom_site_symmetry_multiplicity
 _atom_site_fract_x
 _atom_site_fract_y
 _atom_site_fract_z
 _atom_site_occupancy
  Zr  Zr0  1  0.76549121  0.51201517  0.89479193  1
  Zr  Zr1  1  0.77202907  0.96758257  0.60500014  1
  Zr  Zr2  1  0.29476790  0.42520287  0.10044207  1
  Zr  Zr3  1  0.05160518  0.34139761  0.02148309  1
  Zr  Zr4  1  0.93656739  0.32190300  0.61565754  1
  Zr  Zr5  1  0.36180922  0.34495908  0.89684338  1
  Zr  Zr6  1  0.97343247  0.64492261  0.19445123  1
  Zr  Zr7  1  0.85194740  0.52199221  0.70543958  1
  Zr  Zr8  1  0.75225976  0.21983270  0.58767298  1
  Zr  Zr9  1  0.05032029  0.69231345  0.97036679  1
  Zr  Zr10  1  0.44160218  0.73241922  0.97433912  1
  Zr  Zr11  1  0.11015225  0.79418244  0.12485109  1
  Zr  Zr12  1  0.90742767  0.70624744  0.39865468  1
  Zr  Zr13  1  0.42089974  0.08265642  0.57045539  1
  Zr  Zr14  1  0.83801462  0.51263042  0.30255976  1
  Zr  Zr15  1  0.05179282  0.03843194  0.59543292  1
  Zr  Zr16  1  0.92760531  0.51362076  0.51363895  1
  Zr  Zr17  1  0.05644663  0.47016021  0.70471627  1
  Zr  Zr18  1  0.35383475  0.23962910  0.71206692  1
  Zr  Zr19  1  0.94773830  0.86904102  0.95501414  1
  Zr  Zr20  1  0.25924588  0.63034216  0.07292926  1
  Zr  Zr21  1  0.54605615  0.21478988  0.23684911  1
  Zr  Zr22  1  0.84164204  0.71899667  0.83277895  1
  Zr  Zr23  1  0.63993852  0.09350790  0.71950065  1
  Zr  Zr24  1  0.14625956  0.29774540  0.22370843  1
  Zr  Zr25  1  0.72655493  0.42523861  0.55162028  1
  Zr  Zr26  1  0.49705977  0.33461819  0.07129010  1
  Zr  Zr27  1  0.09814633  0.50566216  0.13009222  1
  Zr  Zr28  1  0.47093976  0.70049552  0.74231643  1
  Zr  Zr29  1  0.76414368  0.70365454  0.24688645  1
  Zr  Zr30  1  0.09663259  0.82772950  0.56879771  1
  Zr  Zr31  1  0.72457164  0.62923719  0.48105659  1
  Zr  Zr32  1  0.04585014  0.48697938  0.34355430  1
  Zr  Zr33  1  0.47435066  0.92191951  0.46841912  1
  Zr  Zr34  1  0.53848917  0.23323838  0.86951645  1
  Zr  Zr35  1  0.24890450  0.05559021  0.68093876  1
  Zr  Zr36  1  0.94886283  0.34387477  0.22348479  1
  Zr  Zr37  1  0.14631396  0.41553338  0.51977670  1
  Zr  Zr38  1  0.87101664  0.72356749  0.60661089  1
  Zr  Zr39  1  0.93310214  0.89542079  0.72705717  1
  Zr  Zr40  1  0.65158445  0.13605565  0.08700232  1
  Zr  Zr41  1  0.72788512  0.86641760  0.00027376  1
  Zr  Zr42  1  0.46763007  0.43997016  0.71052411  1
  Zr  Zr43  1  0.87607879  0.46448228  0.07786057  1
  Zr  Zr44  1  0.14551564  0.29551545  0.84658872  1
  Zr  Zr45  1  0.24424899  0.74293465  0.88878179  1
  Zr  Zr46  1  0.55657810  0.86902648  0.83948352  1
  Zr  Zr47  1  0.35822444  0.34648619  0.51996373  1
  Zr  Zr48  1  0.24219643  0.17411495  0.45413042  1
  Zr  Zr49  1  0.92416636  0.06453241  0.94176121  1
  Sc  Sc50  1  0.52676570  0.71826130  0.53376232  1
  Sc  Sc51  1  0.20092764  0.65671946  0.28637454  1
  Sc  Sc52  1  0.68100406  0.53396665  0.10098372  1
  Sc  Sc53  1  0.29934526  0.84344467  0.07456580  1
  Sc  Sc54  1  0.74930762  0.16207140  0.89178030  1
  Sc  Sc55  1  0.46882887  0.54775812  0.13745624  1
  Sc  Sc56  1  0.35540262  0.93590197  0.89701037  1
  Sc  Sc57  1  0.11438604  0.63027282  0.50313791  1
  Sc  Sc58  1  0.25851004  0.45433127  0.32901660  1
  Sc  Sc59  1  0.13860073  0.24096017  0.64045065  1
  Sc  Sc60  1  0.96062510  0.13926365  0.24473853  1
  Sc  Sc61  1  0.69515779  0.35064985  0.76259571  1
  Sc  Sc62  1  0.03960720  0.68514293  0.74344687  1
  Sc  Sc63  1  0.33591757  0.55902842  0.54110794  1
  Sc  Sc64  1  0.27891391  0.04291913  0.10820872  1
  Sc  Sc65  1  0.55913492  0.46695159  0.90774658  1
  Sc  Sc66  1  0.84090506  0.32135836  0.40868905  1
  Sc  Sc67  1  0.28454588  0.12663449  0.88913219  1
  Sc  Sc68  1  0.53421891  0.49408160  0.50577664  1
  Sc  Sc69  1  0.68315708  0.89916265  0.22161183  1
  Sc  Sc70  1  0.24937993  0.89133640  0.27507552  1
  Sc  Sc71  1  0.37445039  0.56039799  0.87933851  1
  Sc  Sc72  1  0.82925457  0.02280061  0.11641581  1
  Sc  Sc73  1  0.06034466  0.82068851  0.34034843  1
  Sc  Sc74  1  0.08605454  0.14110811  0.05527992  1
  Sc  Sc75  1  0.25946939  0.43559024  0.71003283  1
  Sc  Sc76  1  0.04722069  0.24663978  0.42078830  1
  Sc  Sc77  1  0.88591708  0.11777256  0.72161410  1
  Sc  Sc78  1  0.69463053  0.84980871  0.44101661  1
  Sc  Sc79  1  0.45579216  0.39408202  0.31239740  1
  Sc  Sc80  1  0.24403700  0.96291673  0.47952509  1
  Sc  Sc81  1  0.24556823  0.66716808  0.69161190  1
  Sc  Sc82  1  0.17774180  0.50432871  0.90893290  1
  Sc  Sc83  1  0.97081925  0.52256715  0.89755097  1
  Sc  Sc84  1  0.32040496  0.75987827  0.44741726  1
  Sc  Sc85  1  0.08322634  0.08631776  0.81544002  1
  Sc  Sc86  1  0.64001498  0.68033282  0.90144481  1
  Sc  Sc87  1  0.59141863  0.73475058  0.11873022  1
  Sc  Sc88  1  0.72531066  0.33724939  0.20478471  1
  Sc  Sc89  1  0.35737798  0.87110587  0.67334177  1
  Sc  Sc90  1  0.62610073  0.08605743  0.48169166  1
  Sc  Sc91  1  0.90254207  0.31765779  0.85210563  1
  Sc  Sc92  1  0.88385826  0.10385650  0.46904673  1
  Sc  Sc93  1  0.49663178  0.93708847  0.09501642  1
  Sc  Sc94  1  0.34153388  0.23119086  0.22669381  1
  Sc  Sc95  1  0.54482915  0.26728014  0.60923420  1
  Sc  Sc96  1  0.63236908  0.50676418  0.31865332  1
  Sc  Sc97  1  0.64377721  0.57706170  0.69638779  1
  Sc  Sc98  1  0.14282428  0.88406404  0.77601750  1
  Sc  Sc99  1  0.74833635  0.13370124  0.29715233  1
  Nb  Nb100  1  0.83320611  0.67716224  1.03425132  1
  Nb  Nb101  1  0.47129574  0.85321222  0.29269678  1
  Nb  Nb102  1  0.25867317  0.25094286  0.04003739  1
  Nb  Nb103  1  0.17416827  0.10139193  0.27037106  1
  Nb  Nb104  1  0.87542960  0.93681066  0.31634781  1
  Nb  Nb105  1  0.05987157  0.01528806  0.39280843  1
  Nb  Nb106  1  0.55522822  1.03289992  0.29129255  1
  Nb  Nb107  1  0.89780413  0.82873394  0.15449561  1
  Nb  Nb108  1  0.44643458  0.14106378  0.03402290  1
  Nb  Nb109  1  0.58714859  0.03324609  0.92620144  1
  Nb  Nb110  1  0.69365092  0.78320603  0.69363643  1
  Nb  Nb111  1  0.13730346  0.94617017  0.97679908  1
  Nb  Nb112  1  0.45552174  0.05902715  0.77071006  1
  Nb  Nb113  1  0.42051838  0.60183553  0.35108612  1
  Nb  Nb114  1  0.75896720  0.94957439  0.81830424  1
  Nb  Nb115  1  0.92288396  0.89311382  0.49797680  1
  Nb  Nb116  1  0.37263399  0.04831121  0.32178413  1
  Nb  Nb117  1  0.70624340  0.33465058  0.99310916  1
  Nb  Nb118  1  0.57797008  0.70199172  0.32729050  1
  Nb  Nb119  1  0.62879610  0.30182589  0.41202092  1
  Nb  Nb120  1  0.45646025  0.19704806  0.41401728  1
  Nb  Nb121  1  0.38930551  0.72125258  0.20131777  1
  Nb  Nb122  1  0.57009994  0.91779633  0.64483759  1
  Nb  Nb123  1  0.86180401  0.23372365  0.06620901  1
  Nb  Nb124  1  0.04414894  0.97046036  0.17026424  1
