# generated using pymatgen
data_Zr2Sc2Nb
_symmetry_space_group_name_H-M   'P 1'
_cell_length_a   14.09718095
_cell_length_b   13.70037379
_cell_length_c   14.82633579
_cell_angle_alpha   89.87265750
_cell_angle_beta   90.39318837
_cell_angle_gamma   88.64628985
_symmetry_Int_Tables_number   1
_chemical_formula_structural   Zr2Sc2Nb
_chemical_formula_sum   'Zr50 Sc50 Nb25'
_cell_volume   2862.63405440
_cell_formula_units_Z   25
loop_
 _symmetry_equiv_pos_site_id
 _symmetry_equiv_pos_as_xyz
  1  'x, y, z'
loop_
 _atom_site_type_symbol
 _atom_site_label
 _atom_site_symmetry_multiplicity
 _atom_site_fract_x
 _atom_site_fract_y
 _atom_site_fract_z
 _atom_site_occupancy
  Zr  Zr0  1  0.83975765  0.20731517  0.15272833  1
  Zr  Zr1  1  0.50770699  0.19597214  0.88238152  1
  Zr  Zr2  1  0.95180936  0.76014448  0.84992345  1
  Zr  Zr3  1  0.23664146  0.46729626  0.01860368  1
  Zr  Zr4  1  0.33410689  0.79018487  0.87692489  1
  Zr  Zr5  1  0.36015776  0.99741417  0.85893691  1
  Zr  Zr6  1  0.62622141  0.70784916  0.66945969  1
  Zr  Zr7  1  0.51444063  0.05713434  0.36218733  1
  Zr  Zr8  1  0.72749298  0.48261673  0.80664280  1
  Zr  Zr9  1  0.26791298  0.86264344  0.68989894  1
  Zr  Zr10  1  0.36488066  0.92965891  0.27996477  1
  Zr  Zr11  1  0.42157601  0.74018972  0.16645624  1
  Zr  Zr12  1  0.66151012  0.69205556  0.09871012  1
  Zr  Zr13  1  0.94384389  0.16820445  0.32489033  1
  Zr  Zr14  1  0.67780881  0.68893576  0.45873957  1
  Zr  Zr15  1  0.17513763  0.19462761  0.48111424  1
  Zr  Zr16  1  0.27353686  0.26276494  0.67621705  1
  Zr  Zr17  1  0.85634893  0.57033223  0.15796122  1
  Zr  Zr18  1  0.75364250  0.31056599  0.95283465  1
  Zr  Zr19  1  0.97592386  0.12703674  0.79700778  1
  Zr  Zr20  1  0.50775928  0.79403652  -0.00831080  1
  Zr  Zr21  1  0.44372137  0.41708028  0.51484394  1
  Zr  Zr22  1  0.10279648  0.44303292  0.16453309  1
  Zr  Zr23  1  0.28886136  0.78800764  0.49799530  1
  Zr  Zr24  1  0.05096834  0.64099350  0.08192640  1
  Zr  Zr25  1  0.54725487  0.85755241  0.80533373  1
  Zr  Zr26  1  0.56181179  0.92633967  0.17128888  1
  Zr  Zr27  1  0.11041260  0.91582253  0.53685601  1
  Zr  Zr28  1  0.53503941  0.26999784  0.38713060  1
  Zr  Zr29  1  0.15330804  0.06582385  0.65719118  1
  Zr  Zr30  1  0.80867855  0.73593052  0.30094869  1
  Zr  Zr31  1  0.85128723  0.32364341  0.62324741  1
  Zr  Zr32  1  0.13671552  0.44320718  0.36320583  1
  Zr  Zr33  1  0.13031108  0.92942694  0.82724622  1
  Zr  Zr34  1  0.63939747  0.47658816  0.02225439  1
  Zr  Zr35  1  0.15118984  0.69312188  0.84394827  1
  Zr  Zr36  1  0.54426514  0.61799514  0.85436802  1
  Zr  Zr37  1  0.31094571  0.14898811  0.99384626  1
  Zr  Zr38  1  0.73495809  0.71104785  0.85656755  1
  Zr  Zr39  1  0.69089152  0.27273599  0.76310089  1
  Zr  Zr40  1  0.87452838  0.97847999  0.29065586  1
  Zr  Zr41  1  0.68301455  0.54496296  0.26845810  1
  Zr  Zr42  1  0.78598785  0.09891254  0.66003505  1
  Zr  Zr43  1  0.12839338  0.63932081  0.47176997  1
  Zr  Zr44  1  0.65407044  0.28185701  0.55782348  1
  Zr  Zr45  1  0.83568827  0.55173008  0.96060464  1
  Zr  Zr46  1  0.33204413  0.92547639  0.05888019  1
  Zr  Zr47  1  0.73709207  0.09613288  0.88360236  1
  Zr  Zr48  1  0.98503553  0.32613069  0.45652707  1
  Zr  Zr49  1  0.01021374  0.49710166  0.57450222  1
  Sc  Sc50  1  0.87937394  0.91079416  0.49416847  1
  Sc  Sc51  1  0.93561206  0.38421686  0.05070296  1
  Sc  Sc52  1  0.33552972  0.50216268  0.20513437  1
  Sc  Sc53  1  0.67554830  0.12012068  0.24417695  1
  Sc  Sc54  1  0.24603031  0.62538441  0.64069637  1
  Sc  Sc55  1  0.92384353  0.34824754  0.82760401  1
  Sc  Sc56  1  0.18926400  0.64555385  0.25793359  1
  Sc  Sc57  1  0.06339688  0.81310142  0.37077499  1
  Sc  Sc58  1  0.68613079  0.91416200  0.36600837  1
  Sc  Sc59  1  0.84076066  0.49866656  0.40816303  1
  Sc  Sc60  1  0.05990213  0.73854323  0.65587832  1
  Sc  Sc61  1  0.25564805  0.69221480  0.04908842  1
  Sc  Sc62  1  0.91241643  0.68957880  0.48807419  1
  Sc  Sc63  1  0.93023857  0.56631514  0.75385778  1
  Sc  Sc64  1  0.95472734  0.93933020  0.69768979  1
  Sc  Sc65  1  0.45586061  0.13667221  0.15951364  1
  Sc  Sc66  1  0.11232047  0.02033176  0.33473102  1
  Sc  Sc67  1  0.91208773  0.95683695  0.93223003  1
  Sc  Sc68  1  0.11158766  0.29216937  0.94545564  1
  Sc  Sc69  1  0.26538579  0.28683246  0.15341278  1
  Sc  Sc70  1  0.86433198  0.76312749  0.03389108  1
  Sc  Sc71  1  0.58770428  0.05509104  0.73457376  1
  Sc  Sc72  1  0.44150089  0.33975439  0.03574051  1
  Sc  Sc73  1  0.77913414  0.53769434  0.60140584  1
  Sc  Sc74  1  0.48960253  0.26827150  0.68608399  1
  Sc  Sc75  1  0.21832004  0.41224396  0.54618482  1
  Sc  Sc76  1  0.31702398  0.14911886  0.32161549  1
  Sc  Sc77  1  0.47366305  0.65173138  0.52173802  1
  Sc  Sc78  1  0.54689562  0.36725883  0.20950943  1
  Sc  Sc79  1  0.48850603  0.54510440  0.33658362  1
  Sc  Sc80  1  0.37855914  0.46772912  0.70361248  1
  Sc  Sc81  1  0.99155619  0.60099971  0.30428532  1
  Sc  Sc82  1  0.58060315  0.48663974  0.66426519  1
  Sc  Sc83  1  0.19591559  0.06075022  0.15701297  1
  Sc  Sc84  1  0.54161923  0.02149818  0.98808524  1
  Sc  Sc85  1  0.75290423  0.31055074  0.35142457  1
  Sc  Sc86  1  0.32844750  0.00393808  0.48630231  1
  Sc  Sc87  1  0.32019868  0.33022458  0.86633074  1
  Sc  Sc88  1  0.83245543  0.75696816  0.66190367  1
  Sc  Sc89  1  0.96879443  0.11142594  0.53661927  1
  Sc  Sc90  1  0.67258832  0.90890231  0.58129700  1
  Sc  Sc91  1  0.10389769  0.85591327  1.01845334  1
  Sc  Sc92  1  0.05965369  0.27646189  0.66348753  1
  Sc  Sc93  1  0.74843534  0.10878465  0.45084745  1
  Sc  Sc94  1  0.45141076  0.56806221  0.03826826  1
  Sc  Sc95  1  0.37585010  0.07015396  0.67641164  1
  Sc  Sc96  1  -0.01517141  0.81596485  0.19111485  1
  Sc  Sc97  1  0.32914360  0.56622452  0.86689886  1
  Sc  Sc98  1  0.04936255  0.51948831  0.92422519  1
  Sc  Sc99  1  0.15186485  0.45605635  0.75603688  1
  Nb  Nb100  1  0.58265264  0.74881503  0.28555879  1
  Nb  Nb101  1  0.50001548  0.85516255  0.43565514  1
  Nb  Nb102  1  0.30427657  0.55949790  0.42581201  1
  Nb  Nb103  1  0.75013198  0.38654904  0.15499933  1
  Nb  Nb104  1  0.75926398  0.91052230  0.78316439  1
  Nb  Nb105  1  0.04902531  0.21675244  0.13483393  1
  Nb  Nb106  1  0.20437482  0.84217228  0.20509429  1
  Nb  Nb107  1  0.10528098  0.07341700  0.97486061  1
  Nb  Nb108  1  0.93974571  0.37692394  0.25963645  1
  Nb  Nb109  1  0.12742962  0.25113893  0.29801279  1
  Nb  Nb110  1  0.54372858  0.08392099  0.54252482  1
  Nb  Nb111  1  0.42150492  0.69906080  0.71433864  1
  Nb  Nb112  1  0.92151228  0.17057711  0.97894146  1
  Nb  Nb113  1  0.32615394  0.35585905  0.35760985  1
  Nb  Nb114  1  0.20144562  0.14467585  0.82063157  1
  Nb  Nb115  1  0.53029868  0.40480221  0.86015223  1
  Nb  Nb116  1  0.76013478  1.04103195  0.06907909  1
  Nb  Nb117  1  0.62877783  0.22020845  0.06071367  1
  Nb  Nb118  1  -0.02933017  0.02295839  0.12513586  1
  Nb  Nb119  1  0.46590681  0.87562442  0.61731313  1
  Nb  Nb120  1  0.75555796  0.87598698  0.16790124  1
  Nb  Nb121  1  0.36475798  0.72822440  0.33825260  1
  Nb  Nb122  1  0.69879241  0.88031726  0.96901973  1
  Nb  Nb123  1  0.63599819  0.46802964  0.46043014  1
  Nb  Nb124  1  0.38502709  0.21598295  0.50885971  1
