# generated using pymatgen
data_Zr2Sc2Nb
_symmetry_space_group_name_H-M   'P 1'
_cell_length_a   14.06224655
_cell_length_b   13.93247127
_cell_length_c   14.65189596
_cell_angle_alpha   90.26407006
_cell_angle_beta   89.90564335
_cell_angle_gamma   88.49895197
_symmetry_Int_Tables_number   1
_chemical_formula_structural   Zr2Sc2Nb
_chemical_formula_sum   'Zr50 Sc50 Nb25'
_cell_volume   2869.60647411
_cell_formula_units_Z   25
loop_
 _symmetry_equiv_pos_site_id
 _symmetry_equiv_pos_as_xyz
  1  'x, y, z'
loop_
 _atom_site_type_symbol
 _atom_site_label
 _atom_site_symmetry_multiplicity
 _atom_site_fract_x
 _atom_site_fract_y
 _atom_site_fract_z
 _atom_site_occupancy
  Zr  Zr0  1  0.55985694  0.54275532  0.02400086  1
  Zr  Zr1  1  0.66913051  0.02762365  0.35931867  1
  Zr  Zr2  1  0.07370611  0.26024583  0.58484453  1
  Zr  Zr3  1  0.34961722  0.30217459  0.88156202  1
  Zr  Zr4  1  0.31749627  0.85039739  0.42095331  1
  Zr  Zr5  1  0.10037805  0.59281239  0.78170158  1
  Zr  Zr6  1  0.13848200  0.47202657  0.60417902  1
  Zr  Zr7  1  0.76884701  0.07768376  0.85330450  1
  Zr  Zr8  1  0.37742209  0.86530250  0.22155544  1
  Zr  Zr9  1  0.45363850  0.18397140  0.43786880  1
  Zr  Zr10  1  0.68603221  0.69052763  0.11450364  1
  Zr  Zr11  1  0.40683367  0.25148082  0.23794618  1
  Zr  Zr12  1  0.24690048  0.31171638  0.44834760  1
  Zr  Zr13  1  0.45724805  0.16782580  0.04861498  1
  Zr  Zr14  1  0.88519571  0.23049886  0.46665591  1
  Zr  Zr15  1  0.57953890  0.89127574  0.15772353  1
  Zr  Zr16  1  0.63100826  0.28196917  0.33461451  1
  Zr  Zr17  1  0.04465777  0.05223115  0.23885839  1
  Zr  Zr18  1  0.28084540  0.06663708  0.35291909  1
  Zr  Zr19  1  0.60069513  1.00055124  0.95350529  1
  Zr  Zr20  1  0.09813756  0.42991168  0.13212040  1
  Zr  Zr21  1  0.93578251  0.72021978  0.80471105  1
  Zr  Zr22  1  0.50321717  0.15379519  0.84680631  1
  Zr  Zr23  1  0.25940770  0.12266693  0.54198318  1
  Zr  Zr24  1  0.18741287  0.54656295  0.42486592  1
  Zr  Zr25  1  0.42310305  0.63204807  0.41793235  1
  Zr  Zr26  1  0.80802020  0.31992241  0.85659654  1
  Zr  Zr27  1  0.84295646  0.78338767  0.43470931  1
  Zr  Zr28  1  0.66110090  0.23628537  0.72309253  1
  Zr  Zr29  1  0.47783562  0.04898436  0.27412567  1
  Zr  Zr30  1  0.99860301  0.84568299  0.56564643  1
  Zr  Zr31  1  0.45927426  0.94318351  0.78397733  1
  Zr  Zr32  1  -0.02474042  0.26458946  0.20301499  1
  Zr  Zr33  1  0.23716971  0.67587210  0.58600762  1
  Zr  Zr34  1  0.28066621  0.87497803  0.87645355  1
  Zr  Zr35  1  0.13023152  0.79573477  0.73107055  1
  Zr  Zr36  1  0.92494630  0.92364534  0.75151181  1
  Zr  Zr37  1  0.74193129  0.44564391  1.00438330  1
  Zr  Zr38  1  0.45708719  0.52294613  0.20909787  1
  Zr  Zr39  1  0.82411391  0.16525900  0.28998527  1
  Zr  Zr40  1  0.15328921  0.22128155  0.85190166  1
  Zr  Zr41  1  0.37593326  0.38418578  0.07225246  1
  Zr  Zr42  1  0.95619944  0.15120001  0.81895245  1
  Zr  Zr43  1  0.67144484  0.22129857  -0.02090399  1
  Zr  Zr44  1  0.89489007  0.01264965  0.43590349  1
  Zr  Zr45  1  0.06944215  0.62411346  0.01685333  1
  Zr  Zr46  1  0.86418500  0.29440055  0.66503006  1
  Zr  Zr47  1  0.29557975  0.08627767  0.74859927  1
  Zr  Zr48  1  0.63120373  0.72346512  0.46731599  1
  Zr  Zr49  1  0.11308362  1.00089183  0.83899826  1
  Sc  Sc50  1  0.87398098  0.72027875  0.00243606  1
  Sc  Sc51  1  0.12561011  -0.03561861  0.44616837  1
  Sc  Sc52  1  0.54962450  0.77777367  0.92355848  1
  Sc  Sc53  1  0.55989012  0.56178985  0.59126155  1
  Sc  Sc54  1  0.06606478  0.05339371  0.63496423  1
  Sc  Sc55  1  0.36986590  0.72405005  0.75894231  1
  Sc  Sc56  1  0.83437526  0.07994059  0.63856568  1
  Sc  Sc57  1  0.74567849  0.85656887  0.84877397  1
  Sc  Sc58  1  0.85425042  0.11396624  0.06734422  1
  Sc  Sc59  1  0.05109846  0.37961597  0.36327299  1
  Sc  Sc60  1  1.00323323  0.85871154  0.11678203  1
  Sc  Sc61  1  0.44372345  0.76963743  0.57168839  1
  Sc  Sc62  1  0.72931526  0.62566709  0.86569179  1
  Sc  Sc63  1  0.78193456  0.57423369  0.51790673  1
  Sc  Sc64  1  0.17759303  0.44127553  0.93209360  1
  Sc  Sc65  1  0.97052352  0.31632229  0.99592881  1
  Sc  Sc66  1  0.89001684  0.52030430  0.15383020  1
  Sc  Sc67  1  0.29915379  0.51330897  0.75622097  1
  Sc  Sc68  1  0.66741770  0.15740119  0.52494140  1
  Sc  Sc69  1  0.96493363  0.60533485  0.37866962  1
  Sc  Sc70  1  0.26693329  0.91036668  0.62422434  1
  Sc  Sc71  1  0.40828580  0.93253265  0.02568182  1
  Sc  Sc72  1  0.82120174  0.40714562  0.33611733  1
  Sc  Sc73  1  0.17044433  0.95113646  0.04374827  1
  Sc  Sc74  1  0.29294024  0.67736558  0.26935075  1
  Sc  Sc75  1  0.43819716  0.40251269  0.37895802  1
  Sc  Sc76  1  0.66911294  0.48733202  0.20573527  1
  Sc  Sc77  1  0.69859840  0.92171464  0.54087321  1
  Sc  Sc78  1  0.68941392  0.45005028  0.72104070  1
  Sc  Sc79  1  0.42285093  0.70373588  0.07216889  1
  Sc  Sc80  1  0.59977041  0.78622641  0.70497048  1
  Sc  Sc81  1  0.36145318  0.47517270  0.55859274  1
  Sc  Sc82  1  0.88752134  0.52875481  0.70670888  1
  Sc  Sc83  1  0.99575000  0.84958148  0.32553032  1
  Sc  Sc84  1  0.92779314  0.51310527  0.91333890  1
  Sc  Sc85  1  0.80771757  0.74724722  0.64549892  1
  Sc  Sc86  1  0.03320883  0.37366552  0.77122892  1
  Sc  Sc87  1  0.06475310  0.12514260  0.02775719  1
  Sc  Sc88  1  0.47761031  0.38137055  0.72937448  1
  Sc  Sc89  1  0.27021900  0.30122434  0.67489554  1
  Sc  Sc90  1  0.26016928  0.44298197  0.25949076  1
  Sc  Sc91  1  0.65199334  0.11364849  0.16177388  1
  Sc  Sc92  1  0.52749572  0.58207508  0.80817301  1
  Sc  Sc93  1  0.18387872  0.24128317  0.24907813  1
  Sc  Sc94  1  0.28608791  0.07417282  0.15261824  1
  Sc  Sc95  1  0.76871515  0.90021699  1.06539843  1
  Sc  Sc96  1  0.94621680  0.43915428  0.52703170  1
  Sc  Sc97  1  0.46475586  0.17458270  0.64649212  1
  Sc  Sc98  1  0.08879289  0.66219608  0.22068088  1
  Sc  Sc99  1  0.47552697  0.98633909  0.54893189  1
  Nb  Nb100  1  0.54932002  0.34565753  0.54199265  1
  Nb  Nb101  1  0.93466186  0.95194843  0.94219570  1
  Nb  Nb102  1  0.84009038  0.96407468  0.23886301  1
  Nb  Nb103  1  0.73070755  0.37018028  0.52520635  1
  Nb  Nb104  1  0.13751123  0.74461375  0.42599521  1
  Nb  Nb105  1  0.38369087  0.52606350  0.93464582  1
  Nb  Nb106  1  0.55421241  0.37175999  0.91292794  1
  Nb  Nb107  1  0.07540465  0.80439956  0.92242004  1
  Nb  Nb108  1  0.24212251  0.67020142  0.91183968  1
  Nb  Nb109  1  0.57372849  0.33218878  0.12397955  1
  Nb  Nb110  1  0.18224472  0.88105649  0.25335291  1
  Nb  Nb111  1  0.75062340  0.62869560  0.31729530  1
  Nb  Nb112  1  0.61186346  0.50705718  0.39808898  1
  Nb  Nb113  1  0.01484960  0.64740400  0.58168653  1
  Nb  Nb114  1  0.29507442  0.09357392  0.94061955  1
  Nb  Nb115  1  0.22208560  0.76743426  0.08426472  1
  Nb  Nb116  1  0.63056577  0.02064890  0.71710978  1
  Nb  Nb117  1  0.70837577  0.83059401  0.29354261  1
  Nb  Nb118  1  0.07368150  0.16417333  0.40769032  1
  Nb  Nb119  1  0.86849181  0.73694170  0.21235645  1
  Nb  Nb120  1  0.25996426  0.56451147  0.09051390  1
  Nb  Nb121  1  0.52191289  0.86706177  0.37892069  1
  Nb  Nb122  1  0.54516371  0.69663087  0.26745197  1
  Nb  Nb123  1  0.22090568  0.25938161  1.05171725  1
  Nb  Nb124  1  0.77801691  0.30696579  0.14484482  1
