# generated using pymatgen
data_Zr2Sc2Nb
_symmetry_space_group_name_H-M   'P 1'
_cell_length_a   13.68674255
_cell_length_b   15.01080244
_cell_length_c   13.99737435
_cell_angle_alpha   89.74294591
_cell_angle_beta   91.84231451
_cell_angle_gamma   90.60721358
_symmetry_Int_Tables_number   1
_chemical_formula_structural   Zr2Sc2Nb
_chemical_formula_sum   'Zr50 Sc50 Nb25'
_cell_volume   2874.07376293
_cell_formula_units_Z   25
loop_
 _symmetry_equiv_pos_site_id
 _symmetry_equiv_pos_as_xyz
  1  'x, y, z'
loop_
 _atom_site_type_symbol
 _atom_site_label
 _atom_site_symmetry_multiplicity
 _atom_site_fract_x
 _atom_site_fract_y
 _atom_site_fract_z
 _atom_site_occupancy
  Zr  Zr0  1  0.69231399  0.61963797  0.89171522  1
  Zr  Zr1  1  0.60301999  0.95091013  0.02592156  1
  Zr  Zr2  1  0.92341319  0.16526213  0.91764538  1
  Zr  Zr3  1  0.08475295  0.89375572  0.20787822  1
  Zr  Zr4  1  0.88163997  0.83539102  0.13768263  1
  Zr  Zr5  1  0.91818674  0.30814847  0.76640851  1
  Zr  Zr6  1  0.60316774  0.00591969  0.83004212  1
  Zr  Zr7  1  0.68937691  0.46476911  0.76848093  1
  Zr  Zr8  1  0.43497229  0.65753014  0.31745571  1
  Zr  Zr9  1  0.96044758  0.72273852  0.54855400  1
  Zr  Zr10  1  0.12123694  0.19254201  0.56932318  1
  Zr  Zr11  1  0.70089600  0.77751047  0.02939520  1
  Zr  Zr12  1  0.15215481  0.99550854  0.66926362  1
  Zr  Zr13  1  0.82393488  0.64198163  0.70211258  1
  Zr  Zr14  1  0.78806516  0.02896621  0.12328683  1
  Zr  Zr15  1  0.28570916  0.89425169  0.50570187  1
  Zr  Zr16  1  0.74097356  0.70757780  0.44724581  1
  Zr  Zr17  1  0.49120885  0.12759524  0.70643554  1
  Zr  Zr18  1  0.09782533  0.62274056  0.40137373  1
  Zr  Zr19  1  0.11840037  0.02911605  0.43784382  1
  Zr  Zr20  1  0.09092309  0.01485244  0.86556594  1
  Zr  Zr21  1  0.29916451  0.09921471  0.83392673  1
  Zr  Zr22  1  0.76440414  0.32840735  0.92701929  1
  Zr  Zr23  1  0.69074291  0.14622336  0.97941886  1
  Zr  Zr24  1  0.52138943  0.44766653  0.91445589  1
  Zr  Zr25  1  0.49388145  0.52009801  0.16158068  1
  Zr  Zr26  1  0.53763342  0.74817213  0.50274616  1
  Zr  Zr27  1  0.54754903  0.38133878  0.47816236  1
  Zr  Zr28  1  0.72912529  0.27122003  0.15420004  1
  Zr  Zr29  1  0.05969650  0.84515370  -0.01583064  1
  Zr  Zr30  1  0.23384780  0.00533985  0.04939250  1
  Zr  Zr31  1  1.04487120  0.33658716  0.93583017  1
  Zr  Zr32  1  0.51578916  0.30913655  0.07282564  1
  Zr  Zr33  1  0.33469386  0.17632329  0.14618739  1
  Zr  Zr34  1  0.30892451  0.32331411  0.51961290  1
  Zr  Zr35  1  0.40235641  0.46515958  0.35490371  1
  Zr  Zr36  1  0.39743220  0.75373701  0.68075517  1
  Zr  Zr37  1  0.06437852  0.22009199  0.35950985  1
  Zr  Zr38  1  0.28808118  0.15873971  0.38293212  1
  Zr  Zr39  1  0.93163939  0.19645562  0.13217626  1
  Zr  Zr40  1  0.26104720  0.81673690  0.07469218  1
  Zr  Zr41  1  0.44670051  0.27529344  0.29983100  1
  Zr  Zr42  1  0.69925264  0.31175529  0.62378145  1
  Zr  Zr43  1  0.74244248  0.81497243  0.80810916  1
  Zr  Zr44  1  0.90998352  0.69409694  0.29931129  1
  Zr  Zr45  1  0.54056913  0.78817641  0.86208309  1
  Zr  Zr46  1  0.43327520  0.97926354  0.14799789  1
  Zr  Zr47  1  0.95351874  0.04481604  0.28236638  1
  Zr  Zr48  1  -0.03149988  0.92290449  0.56553196  1
  Zr  Zr49  1  0.28876199  0.68638777  0.49885384  1
  Sc  Sc50  1  0.96216043  0.86880513  0.76454150  1
  Sc  Sc51  1  0.74171858  0.16424771  0.76783828  1
  Sc  Sc52  1  0.90101016  0.46445935  0.64502588  1
  Sc  Sc53  1  0.08305596  0.68440531  0.16227051  1
  Sc  Sc54  1  0.86556027  0.28757920  0.31991773  1
  Sc  Sc55  1  0.66459006  0.11404262  0.55829197  1
  Sc  Sc56  1  0.61485032  0.55476807  0.37985804  1
  Sc  Sc57  1  0.88872021  0.55469553  0.45975081  1
  Sc  Sc58  1  0.04974083  0.40561055  0.46508283  1
  Sc  Sc59  1  0.86432667  0.61362504  0.09933266  1
  Sc  Sc60  1  0.46203358  0.86423493  0.34319435  1
  Sc  Sc61  1  0.95315593  0.10294892  0.69954148  1
  Sc  Sc62  1  0.90582176  0.39893474  0.09047314  1
  Sc  Sc63  1  0.25685516  0.76037267  0.28679883  1
  Sc  Sc64  1  0.32013410  0.40014942  0.13748657  1
  Sc  Sc65  1  0.09005058  0.82566094  0.41116066  1
  Sc  Sc66  1  0.90110066  0.26767142  0.54598403  1
  Sc  Sc67  1  0.79658940  0.49439032  0.26428509  1
  Sc  Sc68  1  0.47895365  0.77850334  0.12424723  1
  Sc  Sc69  1  0.27723746  0.97310758  0.28949147  1
  Sc  Sc70  1  0.32039582  0.52048594  0.93657564  1
  Sc  Sc71  1  0.49762501  0.37558108  0.68385616  1
  Sc  Sc72  1  1.00098118  0.01934835  0.06331274  1
  Sc  Sc73  1  0.82912354  0.97312054  0.91071406  1
  Sc  Sc74  1  0.51645866  0.07733057  0.34813873  1
  Sc  Sc75  1  0.46847482  0.99651217  0.52605586  1
  Sc  Sc76  1  0.58502756  0.88633905  0.66041560  1
  Sc  Sc77  1  0.02540086  0.47345946  0.26531111  1
  Sc  Sc78  1  0.03570853  0.68411175  0.76496976  1
  Sc  Sc79  1  0.15026758  0.17596367  0.99784299  1
  Sc  Sc80  1  0.86441437  0.87957981  0.36624501  1
  Sc  Sc81  1  0.66180107  0.89556965  0.23739235  1
  Sc  Sc82  1  0.67954722  0.93340768  0.45889296  1
  Sc  Sc83  1  0.11840050  0.30506995  0.15899399  1
  Sc  Sc84  1  0.36630625  0.94136803  0.71663479  1
  Sc  Sc85  1  0.15341465  0.66702425  0.94976633  1
  Sc  Sc86  1  0.30931658  0.46393816  0.71243935  1
  Sc  Sc87  1  0.87168757  0.08220549  0.48158293  1
  Sc  Sc88  1  0.12552342  0.49820051  0.06740936  1
  Sc  Sc89  1  0.39328936  0.92382141  0.92986409  1
  Sc  Sc90  1  0.54680339  0.25682191  0.85362366  1
  Sc  Sc91  1  0.57881759  0.13262602  0.16393223  1
  Sc  Sc92  1  0.12089782  0.36823629  0.66553413  1
  Sc  Sc93  1  0.89921867  0.71991155  0.92919972  1
  Sc  Sc94  1  0.45684812  0.56115562  0.56809473  1
  Sc  Sc95  1  0.68542398  0.47618329  0.06455217  1
  Sc  Sc96  1  0.11050772  0.49679652  0.82364947  1
  Sc  Sc97  1  0.31738688  0.30137665  0.91811407  1
  Sc  Sc98  1  0.89413202  0.50492164  0.88750205  1
  Sc  Sc99  1  0.66737738  0.67588232  0.21276232  1
  Nb  Nb100  1  0.74435823  0.09184535  0.30773810  1
  Nb  Nb101  1  0.62031931  0.68048648  0.68245309  1
  Nb  Nb102  1  0.15663070  0.78995245  0.62957948  1
  Nb  Nb103  1  0.47401564  0.20767388  0.52071368  1
  Nb  Nb104  1  0.78016435  0.81444067  0.60396427  1
  Nb  Nb105  1  0.31810841  0.62988817  0.11335540  1
  Nb  Nb106  1  0.47677053  0.59229684  0.78883962  1
  Nb  Nb107  1  0.25060192  0.64561680  0.74292924  1
  Nb  Nb108  1  0.10536108  0.57344885  0.60739554  1
  Nb  Nb109  1  0.24430071  0.50003472  0.49195423  1
  Nb  Nb110  1  0.52014263  0.62951977  0.00081506  1
  Nb  Nb111  1  0.31919475  0.25205314  0.70654400  1
  Nb  Nb112  1  0.75900768  0.40191557  0.45068712  1
  Nb  Nb113  1  0.23612813  0.54929551  0.27114248  1
  Nb  Nb114  1  0.45795781  0.11504243  0.97707473  1
  Nb  Nb115  1  0.68396694  0.53063694  0.57664693  1
  Nb  Nb116  1  0.13959247  0.10790028  0.21106854  1
  Nb  Nb117  1  0.78019903  0.98129981  0.68045755  1
  Nb  Nb118  1  0.61570491  0.38352409  0.26803351  1
  Nb  Nb119  1  0.22276152  0.35897904  0.33215526  1
  Nb  Nb120  1  0.35697878  0.71950785  0.91034223  1
  Nb  Nb121  1  0.12575279  0.20306490  0.78519700  1
  Nb  Nb122  1  0.66284293  0.23615931  0.39074209  1
  Nb  Nb123  1  0.30202505  0.10317793  0.58750737  1
  Nb  Nb124  1  0.20659789  0.83418893  0.82301642  1
