# generated using pymatgen
data_Zr2Sc2Nb
_symmetry_space_group_name_H-M   'P 1'
_cell_length_a   14.43182768
_cell_length_b   14.03323388
_cell_length_c   14.19981898
_cell_angle_alpha   87.67087715
_cell_angle_beta   89.68237452
_cell_angle_gamma   91.18793944
_symmetry_Int_Tables_number   1
_chemical_formula_structural   Zr2Sc2Nb
_chemical_formula_sum   'Zr50 Sc50 Nb25'
_cell_volume   2872.76926337
_cell_formula_units_Z   25
loop_
 _symmetry_equiv_pos_site_id
 _symmetry_equiv_pos_as_xyz
  1  'x, y, z'
loop_
 _atom_site_type_symbol
 _atom_site_label
 _atom_site_symmetry_multiplicity
 _atom_site_fract_x
 _atom_site_fract_y
 _atom_site_fract_z
 _atom_site_occupancy
  Zr  Zr0  1  0.46933811  0.91417768  0.04115906  1
  Zr  Zr1  1  0.84531104  0.87439581  0.11306108  1
  Zr  Zr2  1  0.11865830  0.95635125  0.32471865  1
  Zr  Zr3  1  0.05595195  0.70287191  0.32452365  1
  Zr  Zr4  1  0.60305772  0.56665493  0.36564964  1
  Zr  Zr5  1  0.26175734  0.89089203  0.11147994  1
  Zr  Zr6  1  0.74373455  0.72860095  0.28256121  1
  Zr  Zr7  1  0.74347454  0.67662251  0.07544268  1
  Zr  Zr8  1  0.80589898  0.78167830  0.69634076  1
  Zr  Zr9  1  0.88717491  0.43333036  0.84576098  1
  Zr  Zr10  1  0.19475029  0.31046329  0.77943268  1
  Zr  Zr11  1  0.26670350  0.25804964  0.01416499  1
  Zr  Zr12  1  0.03279314  0.04186750  0.73008226  1
  Zr  Zr13  1  0.66999033  0.32416076  0.36306583  1
  Zr  Zr14  1  0.63405901  0.90933326  0.77581802  1
  Zr  Zr15  1  0.22809816  0.46402659  0.09916991  1
  Zr  Zr16  1  0.16480188  0.06966767  0.10665753  1
  Zr  Zr17  1  0.59091864  0.09860586  0.08201018  1
  Zr  Zr18  1  0.94186120  0.03603586  0.98612472  1
  Zr  Zr19  1  0.57023027  0.74270485  0.94678724  1
  Zr  Zr20  1  0.71627390  0.93817463  0.35453807  1
  Zr  Zr21  1  0.52854034  1.01924192  0.27285159  1
  Zr  Zr22  1  0.31489135  1.02262391  0.92503525  1
  Zr  Zr23  1  0.43014074  0.83402699  0.24216041  1
  Zr  Zr24  1  0.04960477  0.86909588  0.14321782  1
  Zr  Zr25  1  0.46682034  0.50987991  0.69187434  1
  Zr  Zr26  1  0.66278412  0.10629283  0.47063987  1
  Zr  Zr27  1  0.30542304  0.77023925  0.95145590  1
  Zr  Zr28  1  0.69980533  0.36805842  0.91153488  1
  Zr  Zr29  1  0.09211555  0.35314878  0.95586527  1
  Zr  Zr30  1  0.72767740  0.70153919  0.50435174  1
  Zr  Zr31  1  0.65333155  0.10796927  0.68740210  1
  Zr  Zr32  1  0.12778107  0.90870525  0.92847104  1
  Zr  Zr33  1  0.52288163  0.27870467  0.19963719  1
  Zr  Zr34  1  0.03936415  0.00475824  0.52282356  1
  Zr  Zr35  1  0.44036503  0.88515315  0.83649693  1
  Zr  Zr36  1  0.05720174  0.17643975  0.38711718  1
  Zr  Zr37  1  0.30158088  0.32475876  0.24262819  1
  Zr  Zr38  1  0.57313215  0.43852394  0.54431293  1
  Zr  Zr39  1  0.35481065  0.81705357  0.44814645  1
  Zr  Zr40  1  0.42082229  0.58701913  0.00758671  1
  Zr  Zr41  1  0.23452304  0.55049753  0.92195636  1
  Zr  Zr42  1  0.92828522  0.38912825  0.63224491  1
  Zr  Zr43  1  0.92131200  0.33853784  0.42892213  1
  Zr  Zr44  1  0.37469480  0.39940291  0.86350131  1
  Zr  Zr45  1  0.88490274  0.16238681  0.59916832  1
  Zr  Zr46  1  0.13189147  0.71057557  0.83844065  1
  Zr  Zr47  1  0.20911592  0.62736395  0.46182545  1
  Zr  Zr48  1  0.16069091  0.82795059  0.50345200  1
  Zr  Zr49  1  0.75868988  0.59590325  0.88024693  1
  Sc  Sc50  1  0.26350912  0.51803654  0.71796323  1
  Sc  Sc51  1  0.09271664  0.64098237  0.63128910  1
  Sc  Sc52  1  0.03177594  0.83504954  0.68131719  1
  Sc  Sc53  1  -0.00028280  0.48195422  0.24203443  1
  Sc  Sc54  1  0.63984525  0.88894292  0.56224231  1
  Sc  Sc55  1  0.70711797  0.28271677  0.10711307  1
  Sc  Sc56  1  0.06505968  0.49269692  0.77921010  1
  Sc  Sc57  1  0.45817961  0.37537474  0.38718701  1
  Sc  Sc58  1  0.91411543  0.87054382  0.32503890  1
  Sc  Sc59  1  0.38194568  0.12121137  0.12345702  1
  Sc  Sc60  1  0.98052442  0.23783346  0.79560199  1
  Sc  Sc61  1  0.77456075  0.49420751  0.25624826  1
  Sc  Sc62  1  0.93731980  0.87958313  0.84921315  1
  Sc  Sc63  1  0.89681611  0.25015771  0.00314994  1
  Sc  Sc64  1  0.47439787  -0.00870917  0.47305251  1
  Sc  Sc65  1  0.55001251  0.67912080  0.17755916  1
  Sc  Sc66  1  0.87105779  0.27366685  0.23325519  1
  Sc  Sc67  1  0.55602627  0.51279967  0.87921368  1
  Sc  Sc68  1  0.21524944  0.54307248  0.28406348  1
  Sc  Sc69  1  0.61225385  0.48031395  0.09057504  1
  Sc  Sc70  1  0.24649973  0.87868152  0.72145837  1
  Sc  Sc71  1  0.50597955  0.66028491  0.53661664  1
  Sc  Sc72  1  0.83710604  0.46847199  0.06033952  1
  Sc  Sc73  1  0.50140214  0.22432894  0.54480595  1
  Sc  Sc74  1  0.23832209  0.11702884  0.69545239  1
  Sc  Sc75  1  0.85963105  0.10096529  0.38245786  1
  Sc  Sc76  1  0.72667727  0.28972119  0.56737858  1
  Sc  Sc77  1  0.55663732  0.29200258  0.75359142  1
  Sc  Sc78  1  0.41263795  0.16625584  0.35579726  1
  Sc  Sc79  1  0.60943186  0.69269436  0.73350680  1
  Sc  Sc80  1  0.15172464  0.42052921  0.57600634  1
  Sc  Sc81  1  0.13829426  0.68222131  0.10176962  1
  Sc  Sc82  1  0.43878525  0.06193116  0.68897306  1
  Sc  Sc83  1  0.45276019  0.83700020  0.64180255  1
  Sc  Sc84  1  0.34844167  0.48391090  0.51001143  1
  Sc  Sc85  1  0.02068766  0.54252226  0.99649655  1
  Sc  Sc86  1  0.70044415  0.95709787  0.96951619  1
  Sc  Sc87  1  0.95226196  0.73755863  0.99148057  1
  Sc  Sc88  1  0.43210597  0.50022689  0.21964090  1
  Sc  Sc89  1  0.08960376  0.28567433  0.17143157  1
  Sc  Sc90  1  0.71549873  0.47714071  0.70386032  1
  Sc  Sc91  1  0.64204567  0.88289483  0.16421935  1
  Sc  Sc92  1  0.83711425  0.95797722  0.56673124  1
  Sc  Sc93  1  0.13329721  0.13155703  0.90026033  1
  Sc  Sc94  1  0.25469509  0.04326202  0.48712954  1
  Sc  Sc95  1  0.77688169  0.48362514  0.48555091  1
  Sc  Sc96  1  0.98096803  0.07876919  0.20083031  1
  Sc  Sc97  1  0.08675881  0.22308583  0.58679534  1
  Sc  Sc98  1  0.82010675  0.03752946  0.78878164  1
  Sc  Sc99  1  0.94653895  0.76524390  0.51091735  1
  Nb  Nb100  1  0.13498595  0.36481324  0.37543250  1
  Nb  Nb101  1  0.53494586  0.07841594  0.87803075  1
  Nb  Nb102  1  0.37273381  0.19770312  0.84363491  1
  Nb  Nb103  1  0.93474688  0.65980521  0.80139221  1
  Nb  Nb104  1  0.39954950  0.64444263  0.35500001  1
  Nb  Nb105  1  0.41847812  0.38158442  0.05618373  1
  Nb  Nb106  1  0.31310719  0.98370547  0.29147218  1
  Nb  Nb107  1  0.52476781  0.26168567  -0.03123892  1
  Nb  Nb108  1  0.91757587  0.66952150  0.18106164  1
  Nb  Nb109  1  0.76814864  0.78992019  0.89531696  1
  Nb  Nb110  1  0.78362576  0.26215776  0.76274439  1
  Nb  Nb111  1  0.27042890  0.26454682  0.47373165  1
  Nb  Nb112  1  0.68187975  0.14633047  0.27291368  1
  Nb  Nb113  1  0.33237659  0.67808249  0.15105145  1
  Nb  Nb114  1  0.21450452  0.15399354  0.28737130  1
  Nb  Nb115  1  0.78764879  0.07718931  0.13309017  1
  Nb  Nb116  1  0.30989664  0.68968522  0.62282389  1
  Nb  Nb117  1  1.01355515  0.52546031  0.46351944  1
  Nb  Nb118  1  0.71717285  0.16169838  0.92176775  1
  Nb  Nb119  1  0.88742879  0.59253893  0.62515388  1
  Nb  Nb120  1  0.35460932  0.31542140  0.65452054  1
  Nb  Nb121  1  0.39908638  0.67166286  0.80097251  1
  Nb  Nb122  1  0.23061718  0.77736619  0.28825675  1
  Nb  Nb123  1  0.56606557  0.79518611  0.38080684  1
  Nb  Nb124  1  0.87850522  0.62368849  0.38067870  1
