# generated using pymatgen
data_Zr2Sc2Nb
_symmetry_space_group_name_H-M   'P 1'
_cell_length_a   14.39697618
_cell_length_b   14.13960560
_cell_length_c   14.12285817
_cell_angle_alpha   92.13180566
_cell_angle_beta   90.41625752
_cell_angle_gamma   89.84652581
_symmetry_Int_Tables_number   1
_chemical_formula_structural   Zr2Sc2Nb
_chemical_formula_sum   'Zr50 Sc50 Nb25'
_cell_volume   2872.88192537
_cell_formula_units_Z   25
loop_
 _symmetry_equiv_pos_site_id
 _symmetry_equiv_pos_as_xyz
  1  'x, y, z'
loop_
 _atom_site_type_symbol
 _atom_site_label
 _atom_site_symmetry_multiplicity
 _atom_site_fract_x
 _atom_site_fract_y
 _atom_site_fract_z
 _atom_site_occupancy
  Zr  Zr0  1  0.75329699  0.72604596  0.52462760  1
  Zr  Zr1  1  0.36805625  0.76725536  0.69544660  1
  Zr  Zr2  1  0.14117885  0.11328956  0.69876870  1
  Zr  Zr3  1  0.81591914  0.33428841  0.54043757  1
  Zr  Zr4  1  0.04605289  0.48634880  0.32548684  1
  Zr  Zr5  1  0.85852159  0.29521812  0.92011026  1
  Zr  Zr6  1  0.65101710  0.28584849  0.95739469  1
  Zr  Zr7  1  0.09122141  0.82957330  0.47434891  1
  Zr  Zr8  1  0.52000572  0.65077501  0.52735463  1
  Zr  Zr9  1  0.50910631  0.51865659  0.69263142  1
  Zr  Zr10  1  0.79401463  0.88298125  0.31161435  1
  Zr  Zr11  1  0.64828234  0.52194369  0.83528307  1
  Zr  Zr12  1  0.52332397  0.21984852  0.47106571  1
  Zr  Zr13  1  0.71475526  0.13246947  0.54702395  1
  Zr  Zr14  1  0.73829980  0.18716521  0.76038094  1
  Zr  Zr15  1  0.21104546  0.31779157  0.79886129  1
  Zr  Zr16  1  0.08127997  0.82230003  0.88291831  1
  Zr  Zr17  1  0.33391794  0.81928725  0.14942006  1
  Zr  Zr18  1  0.13015791  0.27009713  0.36752019  1
  Zr  Zr19  1  0.55726137  0.29635245  0.14143751  1
  Zr  Zr20  1  0.65182674  0.05107060  0.35029754  1
  Zr  Zr21  1  0.35338468  0.46397756  0.85071258  1
  Zr  Zr22  1  0.44984113  0.84214153  0.52960745  1
  Zr  Zr23  1  0.92194088  0.97444875  0.88387522  1
  Zr  Zr24  1  0.10309692  0.71829890  0.29069451  1
  Zr  Zr25  1  0.53758183  0.14460903  0.66388102  1
  Zr  Zr26  1  0.33759656  0.80711344  0.93431458  1
  Zr  Zr27  1  0.94807697  0.16479438  0.59107360  1
  Zr  Zr28  1  0.12063649  0.07005783  0.89639215  1
  Zr  Zr29  1  0.37594779  0.32980062  0.65041484  1
  Zr  Zr30  1  1.01088175  0.38815256  0.51053987  1
  Zr  Zr31  1  0.62557497  0.34438163  0.61021085  1
  Zr  Zr32  1  0.84131653  0.81249940  0.73018033  1
  Zr  Zr33  1  0.20587467  0.94248728  0.02415778  1
  Zr  Zr34  1  0.23097601  0.45772498  0.48365027  1
  Zr  Zr35  1  0.49284872  0.70588110  0.31313723  1
  Zr  Zr36  1  0.17089278  0.12498926  0.14697868  1
  Zr  Zr37  1  0.09560414  0.31590699  0.17223569  1
  Zr  Zr38  1  0.50746627  0.87660559  0.81619556  1
  Zr  Zr39  1  0.81300827  0.62723046  0.82981327  1
  Zr  Zr40  1  0.29961664  0.61571194  0.03083337  1
  Zr  Zr41  1  0.33912599  0.25951254  0.18784533  1
  Zr  Zr42  1  0.62083515  0.72808733  0.70670888  1
  Zr  Zr43  1  0.91745905  0.52703708  0.65364239  1
  Zr  Zr44  1  0.26473225  0.18828210  0.98491904  1
  Zr  Zr45  1  0.62323785  0.84604910  0.42394398  1
  Zr  Zr46  1  0.85475145  0.53565015  0.44239302  1
  Zr  Zr47  1  0.53519085  0.32881422  0.79860330  1
  Zr  Zr48  1  0.12490107  0.51594255  0.92172432  1
  Zr  Zr49  1  0.11625257  0.55643746  0.14344109  1
  Sc  Sc50  1  0.71325436  0.54281634  0.62189299  1
  Sc  Sc51  1  0.86259949  0.10437854  0.40449103  1
  Sc  Sc52  1  0.50795713  0.91860702  0.04079282  1
  Sc  Sc53  1  0.46437683  0.65103002  0.86274247  1
  Sc  Sc54  1  0.49253466  0.37239637  0.31993885  1
  Sc  Sc55  1  0.22787934  0.66338764  0.82903724  1
  Sc  Sc56  1  0.90803262  0.31696874  0.32179656  1
  Sc  Sc57  1  0.02014679  0.11698651  0.27163433  1
  Sc  Sc58  1  0.49765281  0.68790653  0.09040925  1
  Sc  Sc59  1  0.15913108  0.92627203  0.24052844  1
  Sc  Sc60  1  0.83281454  0.06428818  0.19337756  1
  Sc  Sc61  1  0.99477448  0.32568081  0.72350613  1
  Sc  Sc62  1  0.07209931  0.29575938  0.94197443  1
  Sc  Sc63  1  0.71460700  0.94246397  0.83884709  1
  Sc  Sc64  1  0.03181952  0.92456157  0.67988726  1
  Sc  Sc65  1  0.63428271  0.82745418  0.19342206  1
  Sc  Sc66  1  0.42250331  0.49251016  0.16474011  1
  Sc  Sc67  1  0.47760764  0.93782838  0.27973172  1
  Sc  Sc68  1  0.07646794  0.60457011  0.49983563  1
  Sc  Sc69  1  0.36190623  0.17009671  0.79567198  1
  Sc  Sc70  1  0.66792540  0.48293728  0.19556852  1
  Sc  Sc71  1  0.23649743  0.92354107  0.77278765  1
  Sc  Sc72  1  0.74259501  0.66308460  0.08562499  1
  Sc  Sc73  1  0.25005582  0.40130232  0.04405343  1
  Sc  Sc74  1  0.12583417  0.50099116  0.69869438  1
  Sc  Sc75  1  0.16860300  0.27694978  0.58108675  1
  Sc  Sc76  1  0.94840165  0.42055853  0.08273608  1
  Sc  Sc77  1  0.30703174  0.85347505  0.36600582  1
  Sc  Sc78  1  0.31950306  0.56517394  0.64288321  1
  Sc  Sc79  1  0.33395955  0.28351493  0.41840276  1
  Sc  Sc80  1  0.65243356  0.75417813  0.92684338  1
  Sc  Sc81  1  0.27694070  0.69268762  0.48033271  1
  Sc  Sc82  1  0.87589030  0.91378602  0.51380327  1
  Sc  Sc83  1  0.76632710  0.91382134  0.05426291  1
  Sc  Sc84  1  0.95887270  0.62670107  0.01102123  1
  Sc  Sc85  1  0.96793373  0.15287808  0.04886327  1
  Sc  Sc86  1  0.56184518  0.09320474  0.87317650  1
  Sc  Sc87  1  0.54927048  0.48292732  1.00176545  1
  Sc  Sc88  1  0.29117368  0.07624552  0.35414523  1
  Sc  Sc89  1  0.68992472  0.27166543  0.34323638  1
  Sc  Sc90  1  0.91924226  0.76804962  0.17299417  1
  Sc  Sc91  1  0.63484560  0.50788319  0.41713832  1
  Sc  Sc92  1  0.87541389  0.56036826  0.22514486  1
  Sc  Sc93  1  0.32326010  0.12220836  0.57031923  1
  Sc  Sc94  1  -0.00124197  0.93948180  0.08815609  1
  Sc  Sc95  1  0.09622417  0.04981603  0.47194607  1
  Sc  Sc96  1  0.63543895  0.08581418  0.12790800  1
  Sc  Sc97  1  0.24960132  0.44182579  0.27409407  1
  Sc  Sc98  1  0.64043511  0.94034885  0.62731980  1
  Sc  Sc99  1  0.78218252  0.27888644  0.13222500  1
  Nb  Nb100  1  0.97933379  0.91962109  0.32194982  1
  Nb  Nb101  1  0.29077377  0.65450677  0.24208082  1
  Nb  Nb102  1  0.25442813  0.92063208  0.56692105  1
  Nb  Nb103  1  0.42692452  0.31491182  -0.02720334  1
  Nb  Nb104  1  0.48305347  0.14953476  0.27588583  1
  Nb  Nb105  1  0.77944191  0.11013201  0.95888677  1
  Nb  Nb106  1  0.91745412  0.72086232  0.38653018  1
  Nb  Nb107  1  0.94325782  0.47370802  0.86274664  1
  Nb  Nb108  1  0.77263508  0.47318028  0.99005849  1
  Nb  Nb109  1  0.41984020  0.98520414  0.68854978  1
  Nb  Nb110  1  -0.12047592  0.79033573  0.93889866  1
  Nb  Nb111  1  0.00855485  0.66528496  0.79047647  1
  Nb  Nb112  1  0.78332450  0.39265578  0.76072533  1
  Nb  Nb113  1  0.94928839  0.72138078  0.59625491  1
  Nb  Nb114  1  0.34898509  0.03399221  0.14653059  1
  Nb  Nb115  1  0.14270228  0.74598619  0.07374226  1
  Nb  Nb116  1  0.72323472  0.67750062  0.31819629  1
  Nb  Nb117  1  0.15057288  0.74239235  0.65754980  1
  Nb  Nb118  1  0.95201490  0.14743620  0.80790187  1
  Nb  Nb119  1  0.84042589  0.02655977  0.69203964  1
  Nb  Nb120  1  0.39447160  0.54914182  0.38356694  1
  Nb  Nb121  1  0.45664048  0.43662704  0.51664009  1
  Nb  Nb122  1  0.48587482  0.02514862  0.47743693  1
  Nb  Nb123  1  0.36356798  0.01017770  0.91707451  1
  Nb  Nb124  1  0.45761410  0.14158466  0.04521186  1
