# generated using pymatgen
data_Zr2Sc2Nb
_symmetry_space_group_name_H-M   'P 1'
_cell_length_a   14.14729458
_cell_length_b   14.44185874
_cell_length_c   14.13532959
_cell_angle_alpha   89.41116009
_cell_angle_beta   89.19033368
_cell_angle_gamma   90.74846279
_symmetry_Int_Tables_number   1
_chemical_formula_structural   Zr2Sc2Nb
_chemical_formula_sum   'Zr50 Sc50 Nb25'
_cell_volume   2887.34202390
_cell_formula_units_Z   25
loop_
 _symmetry_equiv_pos_site_id
 _symmetry_equiv_pos_as_xyz
  1  'x, y, z'
loop_
 _atom_site_type_symbol
 _atom_site_label
 _atom_site_symmetry_multiplicity
 _atom_site_fract_x
 _atom_site_fract_y
 _atom_site_fract_z
 _atom_site_occupancy
  Zr  Zr0  1  0.64989951  0.28102196  0.91280466  1
  Zr  Zr1  1  0.17789623  0.59413104  0.70289561  1
  Zr  Zr2  1  0.12270630  0.89347809  0.45466817  1
  Zr  Zr3  1  0.51972769  0.62330469  0.06467530  1
  Zr  Zr4  1  0.88620325  0.09944993  0.69991863  1
  Zr  Zr5  1  0.70580922  0.95157670  0.07401828  1
  Zr  Zr6  1  0.18477487  0.07468725  0.36741523  1
  Zr  Zr7  1  0.97229103  0.63646397  0.09994886  1
  Zr  Zr8  1  0.04873032  0.72589760  0.32444377  1
  Zr  Zr9  1  0.96471680  0.74847927  0.91226085  1
  Zr  Zr10  1  0.63681119  0.50140900  0.88688079  1
  Zr  Zr11  1  0.25243366  0.62672133  0.31993044  1
  Zr  Zr12  1  0.76851316  0.82643096  0.24683474  1
  Zr  Zr13  1  0.84442193  0.63710122  0.26769163  1
  Zr  Zr14  1  0.68078621  0.01031792  0.28730871  1
  Zr  Zr15  1  -0.02208263  0.08855708  0.49715677  1
  Zr  Zr16  1  0.51880847  0.15247474  0.27851035  1
  Zr  Zr17  1  0.49217876  0.83054055  0.58162711  1
  Zr  Zr18  1  0.29495249  0.56762466  0.06434275  1
  Zr  Zr19  1  0.30765969  0.90493511  0.08897521  1
  Zr  Zr20  1  0.63644821  0.88353727  0.73027064  1
  Zr  Zr21  1  0.76690398  0.73910045  0.05269626  1
  Zr  Zr22  1  0.69792914  0.34740527  0.09624789  1
  Zr  Zr23  1  0.37965700  0.04160123  0.93369095  1
  Zr  Zr24  1  0.01700375  0.29843091  0.54890574  1
  Zr  Zr25  1  0.88849633  0.67835790  0.48056477  1
  Zr  Zr26  1  0.31817630  0.94732568  0.50063193  1
  Zr  Zr27  1  0.31823058  0.22341243  0.25475073  1
  Zr  Zr28  1  0.59094753  0.72592721  0.91105081  1
  Zr  Zr29  1  0.97352387  0.50915173  0.38715079  1
  Zr  Zr30  1  0.92566888  0.93094803  0.35599366  1
  Zr  Zr31  1  0.37036901  0.53100566  0.50626843  1
  Zr  Zr32  1  0.24710684  0.44952928  0.88193956  1
  Zr  Zr33  1  0.62319579  0.14393486  0.47567802  1
  Zr  Zr34  1  0.30605163  0.41708695  0.32834791  1
  Zr  Zr35  1  0.48254026  0.17119547  0.81249760  1
  Zr  Zr36  1  0.87101629  0.88661755  0.73748112  1
  Zr  Zr37  1  0.16044849  0.48883718  0.49009499  1
  Zr  Zr38  1  1.01992101  0.12680625  0.27223152  1
  Zr  Zr39  1  0.22972911  0.09939912  0.11613548  1
  Zr  Zr40  1  0.35004629  -0.00433303  0.27762313  1
  Zr  Zr41  1  0.27957063  0.33125262  0.53538955  1
  Zr  Zr42  1  0.70188669  0.54565660  0.10706193  1
  Zr  Zr43  1  0.13206992  0.29449133  0.36743037  1
  Zr  Zr44  1  0.56377616  0.81231536  0.16151223  1
  Zr  Zr45  1  0.18392536  0.09239186  0.89646319  1
  Zr  Zr46  1  0.25511413  0.82838720  0.65906773  1
  Zr  Zr47  1  0.00546207  0.98787371  0.85004624  1
  Zr  Zr48  1  0.94199930  0.85522270  0.55913810  1
  Zr  Zr49  1  0.95659512  0.82781595  0.16101338  1
  Sc  Sc50  1  0.71470591  0.57406475  0.48883840  1
  Sc  Sc51  1  0.10368674  0.89524047  0.01739608  1
  Sc  Sc52  1  0.09729490  0.69466676  0.53786263  1
  Sc  Sc53  1  0.68338489  0.32052381  0.70023247  1
  Sc  Sc54  1  0.68408966  0.10693923  0.73539690  1
  Sc  Sc55  1  0.06902423  0.18407940  0.73632241  1
  Sc  Sc56  1  0.76098918  0.98399169  0.53789957  1
  Sc  Sc57  1  0.77294741  0.72689969  0.82944301  1
  Sc  Sc58  1  0.83177205  0.41496281  0.53799857  1
  Sc  Sc59  1  0.82652348  0.12411236  0.94653640  1
  Sc  Sc60  1  0.84916681  0.55379364  0.93784398  1
  Sc  Sc61  1  0.51950492  0.95681778  0.40693058  1
  Sc  Sc62  1  0.47182652  0.31130900  0.41207702  1
  Sc  Sc63  1  0.47916719  0.27626380  0.62334022  1
  Sc  Sc64  1  0.16684741  0.72895754  0.13570639  1
  Sc  Sc65  1  0.52927217  0.90406057  0.95051343  1
  Sc  Sc66  1  0.54460676  0.50288470  0.39615277  1
  Sc  Sc67  1  0.49944261  0.01765175  0.12584931  1
  Sc  Sc68  1  0.18331388  0.15293085  0.56147594  1
  Sc  Sc69  1  0.36788692  0.74909577  0.95002172  1
  Sc  Sc70  1  0.43411188  0.55398586  0.23137299  1
  Sc  Sc71  1  0.31048114  0.04085413  0.71372287  1
  Sc  Sc72  1  0.54982709  0.48275967  0.64608060  1
  Sc  Sc73  1  0.02070611  0.09127977  0.04990035  1
  Sc  Sc74  1  0.46693268  0.74718778  0.35361233  1
  Sc  Sc75  1  0.31040785  0.72773991  0.49268327  1
  Sc  Sc76  1  0.98991529  0.51139731  0.61564953  1
  Sc  Sc77  1  0.38592663  0.66537423  0.69285906  1
  Sc  Sc78  1  0.43113014  0.56359540  0.86489868  1
  Sc  Sc79  1  0.52345723  0.36718610  0.21453222  1
  Sc  Sc80  1  0.15897110  0.66551532  0.90780405  1
  Sc  Sc81  1  0.89982064  0.30694866  0.36144268  1
  Sc  Sc82  1  0.48434793  0.22047135  0.05805007  1
  Sc  Sc83  1  0.30864899  0.25895722  0.96188790  1
  Sc  Sc84  1  0.08018264  0.47864581  0.01884584  1
  Sc  Sc85  1  0.68024943  0.79637579  0.43302731  1
  Sc  Sc86  1  0.09550082  0.98194977  0.65711284  1
  Sc  Sc87  1  0.38340947  0.13665049  0.46552100  1
  Sc  Sc88  1  0.87208866  0.22756710  0.15528293  1
  Sc  Sc89  1  0.77645695  0.53978990  0.71397981  1
  Sc  Sc90  1  0.90699791  0.44120721  0.16622147  1
  Sc  Sc91  1  0.50599159  0.03507286  0.63088017  1
  Sc  Sc92  1  0.10892134  0.28807519  0.13765911  1
  Sc  Sc93  1  0.12344790  0.49276709  0.22874333  1
  Sc  Sc94  1  0.23120382  0.88752602  0.85663619  1
  Sc  Sc95  1  0.08865328  0.29700110  0.90816751  1
  Sc  Sc96  1  0.28379539  0.25383533  0.75112370  1
  Sc  Sc97  1  0.87816879  0.34724930  0.96008620  1
  Sc  Sc98  1  0.73740837  0.45205861  0.30761757  1
  Sc  Sc99  1  0.90777906  0.33509526  0.74087263  1
  Nb  Nb100  1  0.68173092  0.14893488  0.12375632  1
  Nb  Nb101  1  0.63641968  0.65046534  0.27339607  1
  Nb  Nb102  1  0.80403202  0.21039437  0.54252656  1
  Nb  Nb103  1  0.33509919  0.45161492  0.69319099  1
  Nb  Nb104  1  0.25452597  0.82959516  0.31009429  1
  Nb  Nb105  1  0.11623775  0.94305386  0.22661192  1
  Nb  Nb106  1  0.69435759  0.25105639  0.30331319  1
  Nb  Nb107  1  0.54132446  0.65994669  0.52964599  1
  Nb  Nb108  1  0.61084928  0.08679378  0.94149974  1
  Nb  Nb109  1  0.93559989  0.68033044  0.70186129  1
  Nb  Nb110  1  0.58862669  0.67595866  0.72255967  1
  Nb  Nb111  1  0.46557786  0.36593818  0.82802834  1
  Nb  Nb112  1  0.43403250  0.86277366  0.77523973  1
  Nb  Nb113  1  0.48192028  0.42528135  0.01796269  1
  Nb  Nb114  1  0.74421381  0.74552039  0.61926724  1
  Nb  Nb115  1  0.30594203  0.38541746  0.12198968  1
  Nb  Nb116  1  0.82257709  0.11782445  0.35788853  1
  Nb  Nb117  1  0.74371838  0.94113611  0.87801748  1
  Nb  Nb118  1  0.37301757  0.74056072  0.16893535  1
  Nb  Nb119  1  0.65839769  0.34296522  0.48372312  1
  Nb  Nb120  1  0.01887780  0.51222948  0.82353880  1
  Nb  Nb121  1  0.07441138  0.79318958  0.74320295  1
  Nb  Nb122  1  0.86579099  0.02012924  0.17475607  1
  Nb  Nb123  1  0.13330364  0.38667532  0.70026052  1
  Nb  Nb124  1  0.88797391  0.91356067  0.99493904  1
