# generated using pymatgen
data_Zr2Sc2Nb
_symmetry_space_group_name_H-M   'P 1'
_cell_length_a   14.25178575
_cell_length_b   14.90894390
_cell_length_c   13.57603332
_cell_angle_alpha   87.24351542
_cell_angle_beta   90.32021632
_cell_angle_gamma   91.26182642
_symmetry_Int_Tables_number   1
_chemical_formula_structural   Zr2Sc2Nb
_chemical_formula_sum   'Zr50 Sc50 Nb25'
_cell_volume   2880.55699777
_cell_formula_units_Z   25
loop_
 _symmetry_equiv_pos_site_id
 _symmetry_equiv_pos_as_xyz
  1  'x, y, z'
loop_
 _atom_site_type_symbol
 _atom_site_label
 _atom_site_symmetry_multiplicity
 _atom_site_fract_x
 _atom_site_fract_y
 _atom_site_fract_z
 _atom_site_occupancy
  Zr  Zr0  1  0.71009915  0.12218993  0.72015538  1
  Zr  Zr1  1  0.89300841  0.67464219  0.18078720  1
  Zr  Zr2  1  0.22238342  0.54442948  0.31232335  1
  Zr  Zr3  1  0.40171101  0.68351808  0.36611561  1
  Zr  Zr4  1  0.64900780  0.88731834  0.04744066  1
  Zr  Zr5  1  0.64002108  0.69918870  0.09035737  1
  Zr  Zr6  1  0.35853382  0.55621946  0.95755919  1
  Zr  Zr7  1  0.63125204  0.35006053  0.68879769  1
  Zr  Zr8  1  0.51122725  0.58914646  0.52884083  1
  Zr  Zr9  1  0.51395466  0.54621956  0.10646756  1
  Zr  Zr10  1  0.50296706  0.83458850  0.44863432  1
  Zr  Zr11  1  0.50230010  0.25184561  0.84226557  1
  Zr  Zr12  1  0.01225782  0.94789026  0.69183173  1
  Zr  Zr13  1  0.03209689  0.81575873  0.05054658  1
  Zr  Zr14  1  0.78963242  0.28772349  0.09769506  1
  Zr  Zr15  1  0.11345931  0.13596906  0.71534980  1
  Zr  Zr16  1  0.81609139  0.74189942  0.98747798  1
  Zr  Zr17  1  0.12107502  0.03604336  0.51895893  1
  Zr  Zr18  1  0.60050052  0.06696878  0.92014525  1
  Zr  Zr19  1  0.12377313  0.32459075  0.82611616  1
  Zr  Zr20  1  0.45240161  0.38486899  0.59795718  1
  Zr  Zr21  1  0.77128435  -0.05202046  0.86132019  1
  Zr  Zr22  1  0.49384578  0.05170452  0.45315664  1
  Zr  Zr23  1  0.91480719  0.28786648  0.89666486  1
  Zr  Zr24  1  0.95799907  0.56144461  0.57758773  1
  Zr  Zr25  1  0.08246127  -0.00372625  0.12755618  1
  Zr  Zr26  1  0.75702681  0.43427342  0.84044601  1
  Zr  Zr27  1  0.40441764  0.83301232  0.69222811  1
  Zr  Zr28  1  0.09051823  0.43030068  0.44911643  1
  Zr  Zr29  1  0.73847364  0.64337118  0.55423537  1
  Zr  Zr30  1  0.14392807  0.18079695  0.21589430  1
  Zr  Zr31  1  0.16018508  0.51031125  0.09325172  1
  Zr  Zr32  1  0.21453756  0.70018721  0.99307407  1
  Zr  Zr33  1  0.33370549  0.65112297  0.16804336  1
  Zr  Zr34  1  0.31398760  0.13233879  0.57425077  1
  Zr  Zr35  1  0.38743705  0.93129975  0.29335267  1
  Zr  Zr36  1  0.46133833  0.48812099  0.33886555  1
  Zr  Zr37  1  0.00404242  0.63834468  0.96578982  1
  Zr  Zr38  1  0.83032697  0.99699819  0.29961413  1
  Zr  Zr39  1  0.64420956  0.44975635  0.46983315  1
  Zr  Zr40  1  0.71256313  0.77010092  0.77813907  1
  Zr  Zr41  1  0.27658718  0.69193721  0.78418733  1
  Zr  Zr42  1  0.86157540  0.49437866  1.01884696  1
  Zr  Zr43  1  0.74685446  0.81467459  0.23777147  1
  Zr  Zr44  1  0.43798776  0.35834023  0.02053093  1
  Zr  Zr45  1  0.49775841  0.25346853  0.41200314  1
  Zr  Zr46  1  0.01928488  0.31232167  0.64399310  1
  Zr  Zr47  1  0.69972502  0.25555049  0.51698883  1
  Zr  Zr48  1  0.91602596  0.13720323  0.54344755  1
  Zr  Zr49  1  0.16158785  0.51112531  0.65667131  1
  Sc  Sc50  1  0.71711755  0.85267170  0.48189216  1
  Sc  Sc51  1  0.32608833  0.40212480  0.80183851  1
  Sc  Sc52  1  0.09435352  0.82668870  0.51923651  1
  Sc  Sc53  1  0.30981349  0.92446466  0.49982235  1
  Sc  Sc54  1  0.45753045  0.95822541  0.06385720  1
  Sc  Sc55  1  0.16084966  0.52421055  0.87265343  1
  Sc  Sc56  1  0.56665623  0.74374343  0.63280627  1
  Sc  Sc57  1  0.59265549  0.95353071  0.65520940  1
  Sc  Sc58  1  0.98501349  0.48760226  0.23575361  1
  Sc  Sc59  1  0.55709689  0.35151126  0.22178958  1
  Sc  Sc60  1  0.96921747  0.46413091  0.78327730  1
  Sc  Sc61  1  0.30845080  0.51018703  0.50776108  1
  Sc  Sc62  1  0.30824944  0.33530574  0.39625123  1
  Sc  Sc63  1  0.06113179  0.68412910  0.73073709  1
  Sc  Sc64  1  0.24010729  0.96291717  0.70989186  1
  Sc  Sc65  1  0.06237442  0.64069968  0.40392200  1
  Sc  Sc66  1  0.70051916  0.24889128  0.89529335  1
  Sc  Sc67  1  0.50629675  0.67952480  0.84347586  1
  Sc  Sc68  1  0.00909236  0.85843063  0.28466714  1
  Sc  Sc69  1  0.71934958  0.05548217  0.48746808  1
  Sc  Sc70  1  0.86687736  0.93078453  0.08120551  1
  Sc  Sc71  1  0.71155363  0.07590774  0.11495492  1
  Sc  Sc72  1  0.83781695  0.54519340  0.38751569  1
  Sc  Sc73  1  0.23520198  0.31925172  0.61526391  1
  Sc  Sc74  1  0.29632597  0.19264843  0.80007053  1
  Sc  Sc75  1  0.39261234  0.15182117  0.00255269  1
  Sc  Sc76  1  0.88704202  0.35718610  0.48603881  1
  Sc  Sc77  1  0.76063524  0.36116814  0.30391465  1
  Sc  Sc78  1  0.13378831  0.84038676  0.85384670  1
  Sc  Sc79  1  0.89232023  0.77559731  0.62253159  1
  Sc  Sc80  1  0.07463434  0.15964898  0.95488923  1
  Sc  Sc81  1  0.42987211  0.02968354  0.79585281  1
  Sc  Sc82  1  0.67711822  0.17476068  0.29735616  1
  Sc  Sc83  1  0.95816077  0.27022439  0.29912086  1
  Sc  Sc84  1  0.28119634  0.70512217  0.55434993  1
  Sc  Sc85  1  0.87745359  0.74666559  0.40339290  1
  Sc  Sc86  1  0.93236952  0.13521639  0.12994345  1
  Sc  Sc87  1  0.72374233  0.52763343  0.18129089  1
  Sc  Sc88  1  0.21943910  0.78089835  0.32824397  1
  Sc  Sc89  1  0.12345050  0.22432648  0.44465853  1
  Sc  Sc90  1  0.22938602  0.31155497  1.02937486  1
  Sc  Sc91  1  0.22284800  0.01397066  -0.06529305  1
  Sc  Sc92  1  0.63055436  0.65800731  0.34040024  1
  Sc  Sc93  1  0.01887033  0.34076347  0.07875734  1
  Sc  Sc94  1  0.26150819  0.85520836  0.11603923  1
  Sc  Sc95  1  0.51358098  0.17538287  0.63427386  1
  Sc  Sc96  1  0.84562196  0.62139153  0.78459136  1
  Sc  Sc97  1  0.52648599  0.46323444  0.84871423  1
  Sc  Sc98  1  0.60897864  0.96259429  0.28441237  1
  Sc  Sc99  1  0.28755183  0.06031413  0.15759073  1
  Nb  Nb100  1  0.50849915  0.79284928  0.21532503  1
  Nb  Nb101  1  0.92451884  0.81856981  0.83606750  1
  Nb  Nb102  1  0.34844041  0.85351817  0.89566480  1
  Nb  Nb103  1  0.57532818  0.21806089  0.07330140  1
  Nb  Nb104  1  0.39865777  0.57279629  0.70001593  1
  Nb  Nb105  1  0.83266052  0.11021463  0.94036343  1
  Nb  Nb106  1  0.64727048  0.40656662  0.02501771  1
  Nb  Nb107  1  0.30900932  0.12360259  0.36720219  1
  Nb  Nb108  1  0.67940347  0.58809271  0.93258428  1
  Nb  Nb109  1  0.81603150  0.95612207  0.66080716  1
  Nb  Nb110  1  0.82859372  0.28265047  0.70095956  1
  Nb  Nb111  1  0.44713010  0.75211622  0.02604953  1
  Nb  Nb112  1  0.10191062  0.67545912  0.18263919  1
  Nb  Nb113  1  0.17820487  0.98090906  0.32906060  1
  Nb  Nb114  1  0.91882786  0.11765387  0.76300802  1
  Nb  Nb115  1  0.33936704  0.44194567  0.17660744  1
  Nb  Nb116  1  0.48385106  0.11951949  0.22932952  1
  Nb  Nb117  1  1.00906992  0.06997882  0.33960596  1
  Nb  Nb118  1  0.16157653  0.36186615  0.24943315  1
  Nb  Nb119  1  0.92136307  0.94367330  0.48096752  1
  Nb  Nb120  1  0.36058472  0.25466331  0.20568563  1
  Nb  Nb121  1  0.99184355  0.98583098  0.90784769  1
  Nb  Nb122  1  0.55125030  0.87027515  0.86325569  1
  Nb  Nb123  1  0.63206001  0.56251963  0.70717046  1
  Nb  Nb124  1  0.79334949  0.46384235  0.62588737  1
