# generated using pymatgen
data_Zr2Sc2Nb
_symmetry_space_group_name_H-M   'P 1'
_cell_length_a   14.15531938
_cell_length_b   14.55332858
_cell_length_c   13.94210739
_cell_angle_alpha   90.13584739
_cell_angle_beta   89.45450178
_cell_angle_gamma   89.35126149
_symmetry_Int_Tables_number   1
_chemical_formula_structural   Zr2Sc2Nb
_chemical_formula_sum   'Zr50 Sc50 Nb25'
_cell_volume   2871.84881884
_cell_formula_units_Z   25
loop_
 _symmetry_equiv_pos_site_id
 _symmetry_equiv_pos_as_xyz
  1  'x, y, z'
loop_
 _atom_site_type_symbol
 _atom_site_label
 _atom_site_symmetry_multiplicity
 _atom_site_fract_x
 _atom_site_fract_y
 _atom_site_fract_z
 _atom_site_occupancy
  Zr  Zr0  1  0.30501066  0.69078353  0.36702336  1
  Zr  Zr1  1  0.11603899  0.20323558  0.12880274  1
  Zr  Zr2  1  0.81734724  0.03103164  0.81107835  1
  Zr  Zr3  1  0.71851633  0.25047151  0.07312104  1
  Zr  Zr4  1  0.88835253  0.09832136  0.02674028  1
  Zr  Zr5  1  0.98376211  0.94093767  0.91359560  1
  Zr  Zr6  1  0.07518188  0.61780445  0.05729862  1
  Zr  Zr7  1  0.88811265  0.01546075  0.39004059  1
  Zr  Zr8  1  0.73076488  0.37274746  0.45249240  1
  Zr  Zr9  1  0.89385882  0.81341647  0.75699802  1
  Zr  Zr10  1  0.46658447  0.77964378  0.28270340  1
  Zr  Zr11  1  0.73030834  0.67736413  0.74232483  1
  Zr  Zr12  1  0.92842707  0.37468779  0.83005046  1
  Zr  Zr13  1  0.46196001  0.57416899  0.21394026  1
  Zr  Zr14  1  0.68760338  0.87474562  0.68892921  1
  Zr  Zr15  1  0.95359691  0.45298889  0.43842577  1
  Zr  Zr16  1  0.40077773  0.34595480  0.90390551  1
  Zr  Zr17  1  0.88891005  0.53274761  0.08118575  1
  Zr  Zr18  1  0.68288927  0.32405949  0.67157664  1
  Zr  Zr19  1  0.26483749  0.99043775  0.07082164  1
  Zr  Zr20  1  0.09051149  0.09529629  0.32743033  1
  Zr  Zr21  1  0.14974601  0.63340802  0.68468610  1
  Zr  Zr22  1  0.52838058  0.62884114  0.42595746  1
  Zr  Zr23  1  0.26215302  0.58144423  0.16282691  1
  Zr  Zr24  1  0.17034509  0.86389622  0.92536471  1
  Zr  Zr25  1  0.53679015  0.94923849  0.98266341  1
  Zr  Zr26  1  0.57665642  0.44101470  0.33087044  1
  Zr  Zr27  1  0.12733666  0.76214453  0.49547198  1
  Zr  Zr28  1  0.93817860  0.30749480  0.04759776  1
  Zr  Zr29  1  0.60129358  0.93883276  0.34107863  1
  Zr  Zr30  1  0.10591088  0.41690645  0.11803914  1
  Zr  Zr31  1  0.20701064  0.90664833  0.30728250  1
  Zr  Zr32  1  0.76245363  0.23280877  0.86170853  1
  Zr  Zr33  1  0.83140096  0.37348551  0.23381460  1
  Zr  Zr34  1  0.21913121  0.12985130  0.62146348  1
  Zr  Zr35  1  0.36826462  0.47230527  0.38214514  1
  Zr  Zr36  1  0.06484149  0.01061586  0.12790884  1
  Zr  Zr37  1  0.32397237  0.38926793  0.17317385  1
  Zr  Zr38  1  0.65691961  0.88003732  0.13984875  1
  Zr  Zr39  1  0.13139836  0.30675931  0.91982015  1
  Zr  Zr40  1  0.44503262  0.95235111  0.16940935  1
  Zr  Zr41  1  0.71545578  0.06389603  0.21285434  1
  Zr  Zr42  1  0.09301113  0.84438148  0.69010550  1
  Zr  Zr43  1  0.64942192  0.25742121  0.27673186  1
  Zr  Zr44  1  0.71834953  0.53509127  0.57578905  1
  Zr  Zr45  1  0.09334293  0.50893949  0.87068106  1
  Zr  Zr46  1  0.55740872  0.25987881  0.49212988  1
  Zr  Zr47  1  0.75747035  0.70678028  0.07171442  1
  Zr  Zr48  1  0.26986224  0.44470148  0.56945510  1
  Zr  Zr49  1  0.74375407  0.86084027  0.91978839  1
  Sc  Sc50  1  0.22427168  0.26682320  0.34445499  1
  Sc  Sc51  1  0.30715545  0.11037792  0.23631607  1
  Sc  Sc52  1  0.93558275  0.66744384  0.42383124  1
  Sc  Sc53  1  0.29191468  0.89091439  0.55575580  1
  Sc  Sc54  1  0.70340994  0.12277628  0.43227265  1
  Sc  Sc55  1  0.65207900  0.69491392  0.25926573  1
  Sc  Sc56  1  0.16853921  0.46469029  0.33253380  1
  Sc  Sc57  1  0.45938439  0.91233800  0.72256701  1
  Sc  Sc58  1  0.54057291  0.68783286  0.64561608  1
  Sc  Sc59  1  0.30937726  0.51622339  0.78016309  1
  Sc  Sc60  1  0.87457433  1.01024180  0.60552576  1
  Sc  Sc61  1  0.66912516  0.50600023  0.13929989  1
  Sc  Sc62  1  0.15258010  0.09759665  0.91838054  1
  Sc  Sc63  1  0.31345080  0.22415436  0.04583722  1
  Sc  Sc64  1  0.38540643  0.07053347  0.90625624  1
  Sc  Sc65  1  0.00549370  0.86137649  0.32484671  1
  Sc  Sc66  1  0.51275497  0.82970466  0.50532211  1
  Sc  Sc67  1  0.08502807  0.81223062  0.11647951  1
  Sc  Sc68  1  0.52529009  0.35685425  0.09885666  1
  Sc  Sc69  1  0.67277407  0.11097893  0.64853922  1
  Sc  Sc70  1  0.49229488  0.03768233  0.53171687  1
  Sc  Sc71  1  0.93338825  0.61574399  0.64682811  1
  Sc  Sc72  1  0.90298509  0.16338283  0.22616119  1
  Sc  Sc73  1  0.79391534  0.83238458  0.32900458  1
  Sc  Sc74  1  0.44929275  0.53716743  0.99280919  1
  Sc  Sc75  1  0.53629985  0.52862591  0.77016987  1
  Sc  Sc76  1  0.51240689  0.46705466  0.55044514  1
  Sc  Sc77  1  0.25857724  0.97599275  0.76404759  1
  Sc  Sc78  1  0.04365313  0.04303305  0.72381299  1
  Sc  Sc79  1  0.29876889  0.78735391  0.13897030  1
  Sc  Sc80  1  0.35555221  0.25510098  0.51268872  1
  Sc  Sc81  1  0.25521680  0.30872281  0.74039973  1
  Sc  Sc82  1  0.88459233  0.59548008  0.87352668  1
  Sc  Sc83  1  0.47119164  0.33776763  0.70363527  1
  Sc  Sc84  1  0.55579862  0.19331745  0.90172037  1
  Sc  Sc85  1  0.87105478  0.90912814  0.13140414  1
  Sc  Sc86  1  0.72272856  0.72991595  0.50845980  1
  Sc  Sc87  1  0.50905254  0.73817344  0.06480817  1
  Sc  Sc88  1  0.11179207  0.67698172  0.28911802  1
  Sc  Sc89  1  0.52085288  0.14191513  0.12054404  1
  Sc  Sc90  1  0.65937461  0.59247449  0.93391306  1
  Sc  Sc91  1  0.26299628  0.66398438  0.94717902  1
  Sc  Sc92  1  0.30306195  0.76187464  0.75864544  1
  Sc  Sc93  1  0.78019919  0.55580555  0.33634724  1
  Sc  Sc94  1  0.88688934  0.24321251  0.43773495  1
  Sc  Sc95  1  0.03505277  0.14486581  0.52611843  1
  Sc  Sc96  1  0.89034537  0.39101902  0.62048412  1
  Sc  Sc97  1  0.55166768  0.77120233  0.85083215  1
  Sc  Sc98  1  0.43636411  0.13919374  0.70843664  1
  Sc  Sc99  1  0.33896032  0.64554646  0.56820293  1
  Nb  Nb100  1  0.93061337  0.75963711  -0.01397275  1
  Nb  Nb101  1  0.08503383  0.44666996  0.67264802  1
  Nb  Nb102  1  0.96721635  0.17591774  0.86646323  1
  Nb  Nb103  1  0.38791171  0.93840766  0.36760041  1
  Nb  Nb104  1  0.60821816  0.38616860  0.89493820  1
  Nb  Nb105  1  0.87283561  0.20141343  0.68069168  1
  Nb  Nb106  1  0.27195618  0.07347732  0.43951979  1
  Nb  Nb107  1  0.75032146  0.47193404  0.77487014  1
  Nb  Nb108  1  0.91490500  0.83474728  0.53550559  1
  Nb  Nb109  1  0.05999297  0.25738969  0.70725331  1
  Nb  Nb110  1  0.71401799  0.93474529  0.50523430  1
  Nb  Nb111  1  0.06409224  0.71442229  0.85228434  1
  Nb  Nb112  1  0.02686921  0.31410345  0.28984456  1
  Nb  Nb113  1  0.77472290  0.41838895  0.97571621  1
  Nb  Nb114  1  0.08994511  0.95998458  0.50446631  1
  Nb  Nb115  1  0.10713702  0.33108133  0.51165478  1
  Nb  Nb116  1  0.36987987  0.86064014  0.93752150  1
  Nb  Nb117  1  0.43838791  0.28240253  0.29868575  1
  Nb  Nb118  1  0.25515032  0.45432130  0.98569681  1
  Nb  Nb119  1  0.11880071  0.56357369  0.49537111  1
  Nb  Nb120  1  0.91190917  0.70161491  0.20258248  1
  Nb  Nb121  1  0.98663554  0.52253431  0.25435494  1
  Nb  Nb122  1  0.70164287  0.05546012  -0.00186236  1
  Nb  Nb123  1  0.60733130  0.01617888  0.81492169  1
  Nb  Nb124  1  0.49273637  0.11108819  0.33885885  1
