# generated using pymatgen
data_Zr2Sc2Nb
_symmetry_space_group_name_H-M   'P 1'
_cell_length_a   14.38534278
_cell_length_b   14.05903150
_cell_length_c   14.31328629
_cell_angle_alpha   89.90166986
_cell_angle_beta   89.43022503
_cell_angle_gamma   90.79469081
_symmetry_Int_Tables_number   1
_chemical_formula_structural   Zr2Sc2Nb
_chemical_formula_sum   'Zr50 Sc50 Nb25'
_cell_volume   2894.34955472
_cell_formula_units_Z   25
loop_
 _symmetry_equiv_pos_site_id
 _symmetry_equiv_pos_as_xyz
  1  'x, y, z'
loop_
 _atom_site_type_symbol
 _atom_site_label
 _atom_site_symmetry_multiplicity
 _atom_site_fract_x
 _atom_site_fract_y
 _atom_site_fract_z
 _atom_site_occupancy
  Zr  Zr0  1  0.95576359  0.45257532  0.43029311  1
  Zr  Zr1  1  0.55149981  0.07953450  0.38308452  1
  Zr  Zr2  1  0.54115824  0.50007780  0.61480580  1
  Zr  Zr3  1  0.60064456  0.71864285  0.65893335  1
  Zr  Zr4  1  0.34190040  0.89358423  0.78654711  1
  Zr  Zr5  1  0.53094731  0.77198877  0.86007916  1
  Zr  Zr6  1  0.26721313  0.93495844  0.12109237  1
  Zr  Zr7  1  0.83733284  0.42453475  0.90336260  1
  Zr  Zr8  1  0.25067558  0.13983201  0.20442189  1
  Zr  Zr9  1  0.47309032  0.65846672  0.49693996  1
  Zr  Zr10  1  0.82067731  0.12827479  0.67977957  1
  Zr  Zr11  1  0.29271199  0.56537062  0.56287362  1
  Zr  Zr12  1  0.15787349  0.47828881  0.40258615  1
  Zr  Zr13  1  0.80410885  0.71797226  0.63299262  1
  Zr  Zr14  1  0.45050137  0.85328544  0.38435427  1
  Zr  Zr15  1  0.12222856  0.21089855  0.55567706  1
  Zr  Zr16  1  0.50105992  0.67597488  0.28019219  1
  Zr  Zr17  1  0.78733453  0.49668950  0.34468156  1
  Zr  Zr18  1  0.49897197  0.20485111  0.93496711  1
  Zr  Zr19  1  0.44181258  0.42881258  0.96967259  1
  Zr  Zr20  1  0.90414816  0.11177615  0.09019933  1
  Zr  Zr21  1  0.71400380  0.63925584  0.94384659  1
  Zr  Zr22  1  0.96607999  0.32680616  0.04946635  1
  Zr  Zr23  1  0.92601860  0.51751129  0.65251012  1
  Zr  Zr24  1  0.87812515  0.30541676  0.26430296  1
  Zr  Zr25  1  0.94123662  0.30891038  0.72229465  1
  Zr  Zr26  1  0.75071814  1.00076446  0.84130124  1
  Zr  Zr27  1  0.18833591  0.88469934  0.94105557  1
  Zr  Zr28  1  0.32719734  0.71774103  0.15421777  1
  Zr  Zr29  1  0.94437122  0.05693472  0.52686194  1
  Zr  Zr30  1  0.61247500  0.88767537  0.49861062  1
  Zr  Zr31  1  0.08330340  0.98616431  0.21589363  1
  Zr  Zr32  1  0.28469471  0.36826679  0.51710390  1
  Zr  Zr33  1  0.57095926  0.46993868  0.39735388  1
  Zr  Zr34  1  0.13360556  0.10202781  1.02576193  1
  Zr  Zr35  1  0.60703264  0.89004360  0.02823224  1
  Zr  Zr36  1  0.02927920  0.46399400  0.84458258  1
  Zr  Zr37  1  0.89779102  0.62410786  0.84911770  1
  Zr  Zr38  1  0.42780731  0.03199624  0.54434738  1
  Zr  Zr39  1  0.37121606  0.01799215  0.30536575  1
  Zr  Zr40  1  0.91400464  0.91654959  0.70296183  1
  Zr  Zr41  1  0.53766482  0.55165568  0.83464238  1
  Zr  Zr42  1  0.39578798  0.66950515  0.71974759  1
  Zr  Zr43  1  0.81083193  0.91456585  0.02504157  1
  Zr  Zr44  1  0.80787999  0.71670848  0.28479911  1
  Zr  Zr45  1  0.05908958  0.24332497  0.89336703  1
  Zr  Zr46  1  0.37071242  0.27998759  0.09771303  1
  Zr  Zr47  1  0.72198110  0.53830128  0.74498629  1
  Zr  Zr48  1  0.88683396  0.89772190  0.21651562  1
  Zr  Zr49  1  0.97676535  0.61101323  0.26588902  1
  Sc  Sc50  1  0.42430672  0.09311080  0.75977377  1
  Sc  Sc51  1  0.50991570  0.65493376  0.05646536  1
  Sc  Sc52  1  0.04783740  0.80739765  0.35663904  1
  Sc  Sc53  1  0.56394597  0.93633077  0.71097757  1
  Sc  Sc54  1  0.06388448  0.42119433  0.22151845  1
  Sc  Sc55  1  0.49068186  0.28809450  0.51779386  1
  Sc  Sc56  1  0.34976341  0.45516932  0.74238048  1
  Sc  Sc57  1  0.26184076  0.33424644  0.27985376  1
  Sc  Sc58  1  0.29513302  0.26122063  0.89024551  1
  Sc  Sc59  1  0.68542318  0.11036139  0.01329867  1
  Sc  Sc60  1  0.04179515  0.10575605  0.70798238  1
  Sc  Sc61  1  0.22042193  0.46332865  0.92039318  1
  Sc  Sc62  1  0.69981691  0.29390823  0.43624180  1
  Sc  Sc63  1  0.65194534  0.34338125  0.88842247  1
  Sc  Sc64  1  0.09800299  0.64496863  0.51061519  1
  Sc  Sc65  1  0.10593459  0.76497227  0.12855753  1
  Sc  Sc66  1  0.96038886  0.82012031  0.88932740  1
  Sc  Sc67  1  0.48089257  0.26461999  0.29328995  1
  Sc  Sc68  1  0.92487451  0.10081981  0.31828986  1
  Sc  Sc69  1  0.89837520  0.65313652  0.46774293  1
  Sc  Sc70  1  0.17959678  0.63415050  0.27620699  1
  Sc  Sc71  1  0.30822179  0.17149032  0.43408515  1
  Sc  Sc72  1  0.74452337  0.79808278  0.81535093  1
  Sc  Sc73  1  0.12753699  0.68042394  0.87544054  1
  Sc  Sc74  1  0.61671873  0.12544859  0.59544917  1
  Sc  Sc75  1  0.89958833  0.71434852  0.07233262  1
  Sc  Sc76  1  0.83799779  0.50328495  0.12718182  1
  Sc  Sc77  1  0.84519639  0.87011004  0.44727882  1
  Sc  Sc78  1  0.70614401  0.14895101  0.23136874  1
  Sc  Sc79  1  0.68899673  0.74222817  0.12893568  1
  Sc  Sc80  1  0.49593433  0.06825771  0.12822217  1
  Sc  Sc81  1  0.97078047  0.03746889  0.88672309  1
  Sc  Sc82  1  0.07031173  0.89364002  0.55484386  1
  Sc  Sc83  1  0.65618171  0.90917316  0.27010915  1
  Sc  Sc84  1  0.01311973  0.71918676  0.69366543  1
  Sc  Sc85  1  0.64251477  0.47547719  0.04577561  1
  Sc  Sc86  1  0.28550528  0.49947250  0.12643505  1
  Sc  Sc87  1  0.31640277  0.21751174  0.65614475  1
  Sc  Sc88  1  0.13362584  0.05558201  0.39864825  1
  Sc  Sc89  1  0.75063160  0.06817951  0.44093367  1
  Sc  Sc90  1  0.50690701  0.31270005  0.73839061  1
  Sc  Sc91  1  0.90080684  0.27059115  0.51277438  1
  Sc  Sc92  1  0.36581751  0.51795389  0.34980584  1
  Sc  Sc93  1  0.16573715  0.33171704  0.73697322  1
  Sc  Sc94  1  0.33775699  0.65613222  0.92880559  1
  Sc  Sc95  1  0.67450228  0.67291437  0.44528816  1
  Sc  Sc96  1  0.05454677  0.54665088  0.04930601  1
  Sc  Sc97  1  0.34233455  0.06315562  0.97425098  1
  Sc  Sc98  1  0.72299302  0.32567052  0.67267945  1
  Sc  Sc99  1  0.22262382  0.76736214  0.64482354  1
  Nb  Nb100  1  0.74808994  0.94124704  0.62382335  1
  Nb  Nb101  1  0.75095783  0.49688015  0.54278672  1
  Nb  Nb102  1  0.83536338  0.20913630  0.88778075  1
  Nb  Nb103  1  0.57414375  0.28208369  0.09813769  1
  Nb  Nb104  1  0.29226536  0.71849384  0.42606721  1
  Nb  Nb105  1  0.06412642  0.20500576  0.20057582  1
  Nb  Nb106  1  0.65232673  0.56916649  0.22937676  1
  Nb  Nb107  1  0.26696419  0.91415358  0.47374373  1
  Nb  Nb108  1  0.17362749  0.31491103  0.07000582  1
  Nb  Nb109  1  0.20598174  0.08032106  0.81825587  1
  Nb  Nb110  1  0.46298632  0.86023172  0.17998663  1
  Nb  Nb111  1  0.08529542  0.41645922  0.57813458  1
  Nb  Nb112  1  0.15585643  0.55321342  0.71015382  1
  Nb  Nb113  1  0.41201248  0.83246968  0.59071495  1
  Nb  Nb114  1  0.77088907  0.29491576  0.07022574  1
  Nb  Nb115  1  0.53056988  0.00015869  0.90047646  1
  Nb  Nb116  1  0.40371665  0.85583990  0.99074023  1
  Nb  Nb117  1  1.01460400  0.92527778  0.05136125  1
  Nb  Nb118  1  0.48642436  0.45843277  0.18597637  1
  Nb  Nb119  1  0.11605557  0.90598924  0.76369586  1
  Nb  Nb120  1  0.24493924  0.85196688  0.29147353  1
  Nb  Nb121  1  0.23379616  1.01924593  0.63063514  1
  Nb  Nb122  1  0.64100516  0.15149195  0.79636367  1
  Nb  Nb123  1  0.67309849  0.36674384  0.23433543  1
  Nb  Nb124  1  0.07871109  0.27580623  0.38170793  1
