# generated using pymatgen
data_Zr2Sc2Nb
_symmetry_space_group_name_H-M   'P 1'
_cell_length_a   14.08296127
_cell_length_b   14.09849924
_cell_length_c   14.35974189
_cell_angle_alpha   89.74837400
_cell_angle_beta   89.70486695
_cell_angle_gamma   90.41145977
_symmetry_Int_Tables_number   1
_chemical_formula_structural   Zr2Sc2Nb
_chemical_formula_sum   'Zr50 Sc50 Nb25'
_cell_volume   2850.96761588
_cell_formula_units_Z   25
loop_
 _symmetry_equiv_pos_site_id
 _symmetry_equiv_pos_as_xyz
  1  'x, y, z'
loop_
 _atom_site_type_symbol
 _atom_site_label
 _atom_site_symmetry_multiplicity
 _atom_site_fract_x
 _atom_site_fract_y
 _atom_site_fract_z
 _atom_site_occupancy
  Zr  Zr0  1  0.78453382  0.87124281  0.48682025  1
  Zr  Zr1  1  0.27837504  0.88256504  0.30134633  1
  Zr  Zr2  1  0.20902871  0.87614725  0.08951310  1
  Zr  Zr3  1  0.28118102  0.08419208  1.01431462  1
  Zr  Zr4  1  0.09741833  0.54446377  0.90739393  1
  Zr  Zr5  1  0.64442840  0.70240039  0.45074904  1
  Zr  Zr6  1  0.91739823  0.21262783  0.04869169  1
  Zr  Zr7  1  0.62449633  0.93065864  0.20617581  1
  Zr  Zr8  1  0.13027375  0.23426104  0.09738432  1
  Zr  Zr9  1  0.63050167  0.24631909  0.90591484  1
  Zr  Zr10  1  0.80388091  0.31112436  0.80856741  1
  Zr  Zr11  1  0.22714528  0.27336328  0.49960680  1
  Zr  Zr12  1  0.57208455  0.99860453  0.65486901  1
  Zr  Zr13  1  0.48842140  0.80868038  0.31894124  1
  Zr  Zr14  1  0.12350697  0.90195943  0.46105723  1
  Zr  Zr15  1  0.68801011  0.68041817  0.25266473  1
  Zr  Zr16  1  0.79745729  0.52783081  0.71730630  1
  Zr  Zr17  1  0.24408175  0.63085292  0.63624906  1
  Zr  Zr18  1  -0.00062191  0.42799139  0.07373062  1
  Zr  Zr19  1  0.14905142  0.00735410  0.70243045  1
  Zr  Zr20  1  0.49834873  0.10770053  0.09903881  1
  Zr  Zr21  1  0.62625465  0.38185030  0.66743795  1
  Zr  Zr22  1  0.33084172  0.72179782  0.17935963  1
  Zr  Zr23  1  0.92351903  0.15127883  0.67094194  1
  Zr  Zr24  1  0.53771898  0.12599998  0.48674508  1
  Zr  Zr25  1  0.45969000  0.31389444  0.54351755  1
  Zr  Zr26  1  0.11233596  0.71518667  0.32028867  1
  Zr  Zr27  1  0.08590469  0.78771247  0.72887858  1
  Zr  Zr28  1  0.43968309  0.52690851  0.66992354  1
  Zr  Zr29  1  0.05979073  0.69403926  0.53986814  1
  Zr  Zr30  1  0.47049247  0.37429361  0.80987811  1
  Zr  Zr31  1  0.58574979  0.84702236  0.81903973  1
  Zr  Zr32  1  0.27049445  0.72849378  0.81705378  1
  Zr  Zr33  1  0.98360039  0.93641641  0.85004150  1
  Zr  Zr34  1  0.26573512  0.04459556  0.43665277  1
  Zr  Zr35  1  0.45990683  0.02588657  0.30933596  1
  Zr  Zr36  1  0.11993021  0.23466395  0.69864132  1
  Zr  Zr37  1  0.70205092  0.14846547  0.07810899  1
  Zr  Zr38  1  0.65878481  0.30686775  0.43803399  1
  Zr  Zr39  1  0.44282841  0.39988290  0.32670063  1
  Zr  Zr40  1  0.64473684  0.46905296  0.28569287  1
  Zr  Zr41  1  0.75133567  0.08824385  0.53135028  1
  Zr  Zr42  1  -0.04439260  0.84578001  0.05244391  1
  Zr  Zr43  1  0.91552368  0.62585308  0.03888519  1
  Zr  Zr44  1  0.70412119  0.68058417  0.87418892  1
  Zr  Zr45  1  0.90923463  0.09825893  0.21578003  1
  Zr  Zr46  1  0.45208944  0.52526696  0.14596838  1
  Zr  Zr47  1  0.28371933  0.71351075  0.43091343  1
  Zr  Zr48  1  0.05126216  0.02908098  0.05555813  1
  Zr  Zr49  1  0.48477132  0.62320672  0.87942899  1
  Sc  Sc50  1  0.01800686  0.32662062  0.89082537  1
  Sc  Sc51  1  0.92268848  0.71039243  0.22050913  1
  Sc  Sc52  1  0.77769072  0.95129529  0.70877995  1
  Sc  Sc53  1  0.75202937  0.77069111  0.07540749  1
  Sc  Sc54  1  0.25920575  0.54958411  0.27657125  1
  Sc  Sc55  1  0.14657767  0.44690075  0.63595238  1
  Sc  Sc56  1  0.44389952  0.74999199  0.70341393  1
  Sc  Sc57  1  0.32389682  0.48783725  0.48640452  1
  Sc  Sc58  1  0.28748646  0.51039210  0.82627951  1
  Sc  Sc59  1  0.86394435  0.42065894  0.38044188  1
  Sc  Sc60  1  0.33574103  0.11543426  0.60831665  1
  Sc  Sc61  1  0.91041927  0.71909479  0.84317600  1
  Sc  Sc62  1  0.29385427  0.13891115  0.81528973  1
  Sc  Sc63  1  0.81945024  0.89018816  0.26610652  1
  Sc  Sc64  1  0.47135204  0.60856549  0.33135656  1
  Sc  Sc65  1  0.38971198  0.82867509  0.95434132  1
  Sc  Sc66  1  0.77163981  0.29462698  0.22409332  1
  Sc  Sc67  1  0.84736990  0.10723687  0.87922243  1
  Sc  Sc68  1  0.31184205  0.32877415  0.69302147  1
  Sc  Sc69  1  0.25833421  0.08087065  0.21339528  1
  Sc  Sc70  1  0.86472613  0.63174134  0.39713774  1
  Sc  Sc71  1  0.36822011  0.29182916  0.13964993  1
  Sc  Sc72  1  0.66887936  0.55010718  0.06782301  1
  Sc  Sc73  1  0.25609587  0.84095143  0.60733926  1
  Sc  Sc74  1  0.10856374  0.51017858  0.43422900  1
  Sc  Sc75  1  0.96702662  0.92626666  0.60929642  1
  Sc  Sc76  1  0.19971955  0.34583313  0.28799016  1
  Sc  Sc77  1  0.49785889  0.17417241  0.74218641  1
  Sc  Sc78  1  0.71554894  0.09077004  0.31892275  1
  Sc  Sc79  1  0.87746449  0.49527078  0.89460287  1
  Sc  Sc80  1  0.52845795  0.72713456  0.09091805  1
  Sc  Sc81  1  0.37322565  0.94260972  0.75325134  1
  Sc  Sc82  1  0.93431193  0.02050906  0.41886846  1
  Sc  Sc83  1  0.43065762  0.90443487  0.51046805  1
  Sc  Sc84  1  0.98409571  0.31073411  0.24772631  1
  Sc  Sc85  1  0.22410102  0.45538862  0.08636557  1
  Sc  Sc86  1  0.09415139  0.15057863  0.34112448  1
  Sc  Sc87  1  0.24241790  0.31843751  0.92137303  1
  Sc  Sc88  1  0.84443341  0.71678903  0.62309240  1
  Sc  Sc89  1  0.05352229  0.92264611  0.24899907  1
  Sc  Sc90  1  0.08479536  0.12821088  0.88200107  1
  Sc  Sc91  1  0.36870326  0.21198200  0.35966256  1
  Sc  Sc92  1  1.01964132  0.31067516  0.50569122  1
  Sc  Sc93  1  0.12311150  0.65003633  0.11638272  1
  Sc  Sc94  1  0.73076143  0.51828003  0.51953293  1
  Sc  Sc95  1  0.64597240  0.46783006  0.87822990  1
  Sc  Sc96  1  0.60455189  0.92080569  1.01195559  1
  Sc  Sc97  1  0.81340436  0.31751198  0.58140079  1
  Sc  Sc98  1  0.10782127  0.75709323  0.93999280  1
  Sc  Sc99  1  0.56329326  0.23257886  0.26051077  1
  Nb  Nb100  1  0.78645620  0.88439919  0.90242660  1
  Nb  Nb101  1  0.61586412  0.93470929  0.42824484  1
  Nb  Nb102  1  0.65037030  0.04884223  0.86294059  1
  Nb  Nb103  1  0.54096214  0.49855951  0.49254753  1
  Nb  Nb104  1  0.62546931  0.81332799  0.61120373  1
  Nb  Nb105  1  0.01937075  0.58559622  0.72640416  1
  Nb  Nb106  1  0.02623864  0.52160202  0.24911123  1
  Nb  Nb107  1  0.08961414  0.10696929  0.54165778  1
  Nb  Nb108  1  0.20536619  0.93936716  0.88812050  1
  Nb  Nb109  1  0.61730049  0.62479305  0.67480180  1
  Nb  Nb110  1  0.58083302  0.34777102  0.08383949  1
  Nb  Nb111  1  0.42952085  0.44165501  0.98235482  1
  Nb  Nb112  1  0.78153901  0.36463158  0.02693026  1
  Nb  Nb113  1  0.70230827  0.16892791  0.70376953  1
  Nb  Nb114  1  0.83617044  0.50557729  0.18898204  1
  Nb  Nb115  1  0.96342863  0.38561976  0.70913069  1
  Nb  Nb116  1  0.87033675  0.21033726  0.40525272  1
  Nb  Nb117  1  0.43697977  0.23181766  0.95194893  1
  Nb  Nb118  1  0.41334021  0.92516960  0.13125206  1
  Nb  Nb119  1  0.45623032  0.68479548  0.52483093  1
  Nb  Nb120  1  0.45677272  0.03032119  0.91448772  1
  Nb  Nb121  1  0.93945067  0.51224497  0.56084666  1
  Nb  Nb122  1  0.30766432  0.63021024  0.00086807  1
  Nb  Nb123  1  0.81409095  0.98984609  0.06129190  1
  Nb  Nb124  1  0.95693068  0.80992679  0.41370256  1
