# generated using pymatgen
data_Zr2Sc2Nb
_symmetry_space_group_name_H-M   'P 1'
_cell_length_a   14.06395633
_cell_length_b   14.41685781
_cell_length_c   14.18869989
_cell_angle_alpha   88.23061097
_cell_angle_beta   91.25849656
_cell_angle_gamma   87.58555834
_symmetry_Int_Tables_number   1
_chemical_formula_structural   Zr2Sc2Nb
_chemical_formula_sum   'Zr50 Sc50 Nb25'
_cell_volume   2872.16913886
_cell_formula_units_Z   25
loop_
 _symmetry_equiv_pos_site_id
 _symmetry_equiv_pos_as_xyz
  1  'x, y, z'
loop_
 _atom_site_type_symbol
 _atom_site_label
 _atom_site_symmetry_multiplicity
 _atom_site_fract_x
 _atom_site_fract_y
 _atom_site_fract_z
 _atom_site_occupancy
  Zr  Zr0  1  0.17891697  0.40678823  0.79096428  1
  Zr  Zr1  1  0.81404612  0.91615586  0.41517104  1
  Zr  Zr2  1  0.00328517  0.87125148  0.30946202  1
  Zr  Zr3  1  0.73719950  0.60632705  0.34016731  1
  Zr  Zr4  1  0.95875374  0.43287369  0.22759928  1
  Zr  Zr5  1  0.11341842  0.22502424  0.69441860  1
  Zr  Zr6  1  0.97259387  0.69221486  0.68198106  1
  Zr  Zr7  1  0.35038150  0.71363870  0.68152332  1
  Zr  Zr8  1  0.49385974  0.56019060  0.60574784  1
  Zr  Zr9  1  0.53358374  0.11092661  0.55910830  1
  Zr  Zr10  1  0.95548752  0.63892806  0.26658808  1
  Zr  Zr11  1  0.54224965  0.45486160  0.94518485  1
  Zr  Zr12  1  0.66133901  0.06668175  0.40013962  1
  Zr  Zr13  1  0.05269155  0.28985359  0.35533964  1
  Zr  Zr14  1  0.58554086  0.50618321  0.18440963  1
  Zr  Zr15  1  0.66519356  -0.03608928  0.22481738  1
  Zr  Zr16  1  0.66251099  0.65980305  0.53258655  1
  Zr  Zr17  1  0.57860625  0.28939818  0.42611858  1
  Zr  Zr18  1  0.27005803  0.49921761  0.61001508  1
  Zr  Zr19  1  0.83214848  0.81008745  0.22077806  1
  Zr  Zr20  1  0.74172879  0.11911804  0.06593707  1
  Zr  Zr21  1  0.24064740  0.15846181  0.33593943  1
  Zr  Zr22  1  0.82627648  0.68284588  0.84536216  1
  Zr  Zr23  1  0.75442308  0.38804249  0.31960331  1
  Zr  Zr24  1  1.04804011  0.47784417  0.62622514  1
  Zr  Zr25  1  0.31894607  0.26253201  0.74687423  1
  Zr  Zr26  1  0.44185628  0.08564987  0.76259888  1
  Zr  Zr27  1  0.47720253  0.63563501  0.05422739  1
  Zr  Zr28  1  0.47116404  0.77779537  0.49098867  1
  Zr  Zr29  1  0.25541787  0.36315042  0.29574349  1
  Zr  Zr30  1  0.47066542  0.34497861  0.26487334  1
  Zr  Zr31  1  0.62766175  0.40066996  0.73767461  1
  Zr  Zr32  1  0.33518068  0.00959193  0.21445018  1
  Zr  Zr33  1  0.64961607  0.59533388  0.77387737  1
  Zr  Zr34  1  0.12705943  0.90517496  0.93874447  1
  Zr  Zr35  1  0.18208477  0.89031421  0.17002542  1
  Zr  Zr36  1  0.49280798  0.69261630  0.28967920  1
  Zr  Zr37  1  -0.05923756  0.56519611  0.03380055  1
  Zr  Zr38  1  0.51151571  0.05967624  0.10533843  1
  Zr  Zr39  1  0.53385618  0.26576342  0.05704196  1
  Zr  Zr40  1  1.02999846  0.06901861  0.84940619  1
  Zr  Zr41  1  0.49867194  0.88206756  0.86919011  1
  Zr  Zr42  1  0.33320956  0.22145844  0.13854765  1
  Zr  Zr43  1  -0.01022479  0.50929344  0.82767049  1
  Zr  Zr44  1  0.13506187  0.81175482  0.72473589  1
  Zr  Zr45  1  0.88275833  0.23426706  0.21759540  1
  Zr  Zr46  1  0.81950706  0.32463452  0.69931176  1
  Zr  Zr47  1  0.80221075  0.07450775  0.82620946  1
  Zr  Zr48  1  0.90300118  0.90349913  0.94254223  1
  Zr  Zr49  1  0.16788763  0.07602925  0.05791851  1
  Sc  Sc50  1  0.93340424  0.35292899  0.03052490  1
  Sc  Sc51  1  0.83230258  0.54540584  0.65653723  1
  Sc  Sc52  1  0.20443289  0.31646423  0.52454387  1
  Sc  Sc53  1  0.33261135  0.95801365  0.99137011  1
  Sc  Sc54  1  0.40877486  0.46427667  0.77222055  1
  Sc  Sc55  1  0.32682620  0.64415553  0.46057588  1
  Sc  Sc56  1  0.05523813  0.08331450  0.25189899  1
  Sc  Sc57  1  0.13502370  0.44247426  0.99963751  1
  Sc  Sc58  1  0.28936491  0.70075970  0.13732267  1
  Sc  Sc59  1  0.70304913  0.91362533  0.03028868  1
  Sc  Sc60  1  0.38763844  1.00195079  0.43972248  1
  Sc  Sc61  1  0.12814361  0.68475948  0.54296679  1
  Sc  Sc62  1  0.91285072  0.49599035  0.43655432  1
  Sc  Sc63  1  0.75244566  0.22454427  0.52660274  1
  Sc  Sc64  1  0.46848670  0.84260132  0.11647442  1
  Sc  Sc65  1  0.90507505  0.11232265  0.41492177  1
  Sc  Sc66  1  0.36184558  0.44884214  0.11234804  1
  Sc  Sc67  1  0.72880527  0.36982139  0.09383245  1
  Sc  Sc68  1  0.16175080  0.24230509  0.93168040  1
  Sc  Sc69  1  0.04720786  0.74278534  0.11005595  1
  Sc  Sc70  1  0.77516662  0.80154393  0.62980819  1
  Sc  Sc71  1  0.14415648  0.50486840  0.41101977  1
  Sc  Sc72  1  0.70495711  0.43803290  0.53198564  1
  Sc  Sc73  1  0.88985650  0.71518086  0.46100803  1
  Sc  Sc74  1  0.17860242  0.95915771  0.39215894  1
  Sc  Sc75  1  0.94747822  0.13178901  0.03166465  1
  Sc  Sc76  1  0.57016220  0.77334794  0.70097552  1
  Sc  Sc77  1  0.17742035  0.61199252  0.76610404  1
  Sc  Sc78  1  0.11195843  0.27363607  0.14932422  1
  Sc  Sc79  1  0.30590334  0.55169708  0.93669783  1
  Sc  Sc80  1  0.12854615  1.00759742  0.65822651  1
  Sc  Sc81  1  0.65385539  0.72606251  0.15748096  1
  Sc  Sc82  1  0.72516870  0.26290660  0.90124701  1
  Sc  Sc83  1  0.77045258  0.01985471  0.60211944  1
  Sc  Sc84  1  0.66607092  0.20528137  0.23723753  1
  Sc  Sc85  1  0.55063422  0.51316433  0.39713185  1
  Sc  Sc86  1  0.16108951  0.71376478  0.32123108  1
  Sc  Sc87  1  0.96799936  0.28477658  0.83699696  1
  Sc  Sc88  1  0.14826646  0.53680273  0.18649733  1
  Sc  Sc89  1  0.96081831  0.30732290  0.53664712  1
  Sc  Sc90  1  0.93386157  0.12915685  0.65108227  1
  Sc  Sc91  1  0.93226301  0.90746966  0.73433080  1
  Sc  Sc92  1  0.29390132  0.10724642  0.59302167  1
  Sc  Sc93  1  0.79741058  0.45525667  0.87783150  1
  Sc  Sc94  1  0.01579666  0.89088345  0.52872039  1
  Sc  Sc95  1  0.59887253  0.07568006  0.90719215  1
  Sc  Sc96  1  0.30292544  0.91094845  0.76895531  1
  Sc  Sc97  1  0.47838918  0.32027087  0.61552481  1
  Sc  Sc98  1  0.29429035  0.75647552  0.91524591  1
  Sc  Sc99  1  0.03518115  0.71671115  0.89956809  1
  Nb  Nb100  1  0.38625432  0.23185920  0.43921844  1
  Nb  Nb101  1  0.23128143  0.08446701  0.83149627  1
  Nb  Nb102  1  0.79789779  0.55527824  0.16643468  1
  Nb  Nb103  1  0.73110431  0.86826508  0.82947359  1
  Nb  Nb104  1  0.61784424  0.97843122  0.71813206  1
  Nb  Nb105  1  0.43850102  0.92527543  0.63075831  1
  Nb  Nb106  1  0.61011572  0.90638032  0.51975785  1
  Nb  Nb107  1  -0.02066621  0.94016191  0.11205353  1
  Nb  Nb108  1  0.83196399  0.73606256  0.03576973  1
  Nb  Nb109  1  0.48001360  0.13035362  0.29721615  1
  Nb  Nb110  1  0.33339621  0.82137071  0.32466570  1
  Nb  Nb111  1  0.34605264  0.34242463  0.94116093  1
  Nb  Nb112  1  0.09852754  0.13442704  0.49035498  1
  Nb  Nb113  1  0.51135822  0.26888398  0.84175504  1
  Nb  Nb114  1  0.84692776  0.03243457  0.22814710  1
  Nb  Nb115  1  0.35336985  0.55086987  0.28363124  1
  Nb  Nb116  1  0.50938942  0.91115979  0.31620063  1
  Nb  Nb117  1  0.66907792  0.79408045  0.37176886  1
  Nb  Nb118  1  0.64974426  0.18497817  0.71324078  1
  Nb  Nb119  1  0.37631288  0.43041921  0.45138946  1
  Nb  Nb120  1  0.69309687  0.57806535  0.00067385  1
  Nb  Nb121  1  0.26473267  0.85246436  0.54824213  1
  Nb  Nb122  1  0.47300002  0.65055482  0.84779487  1
  Nb  Nb123  1  0.37723892  0.15175362  0.95120047  1
  Nb  Nb124  1  0.62587242  0.74212001  0.93809442  1
