# generated using pymatgen
data_Zr2Sc2Nb
_symmetry_space_group_name_H-M   'P 1'
_cell_length_a   14.20224040
_cell_length_b   14.09582556
_cell_length_c   14.34137089
_cell_angle_alpha   89.21480535
_cell_angle_beta   88.58643997
_cell_angle_gamma   89.66376381
_symmetry_Int_Tables_number   1
_chemical_formula_structural   Zr2Sc2Nb
_chemical_formula_sum   'Zr50 Sc50 Nb25'
_cell_volume   2869.84492146
_cell_formula_units_Z   25
loop_
 _symmetry_equiv_pos_site_id
 _symmetry_equiv_pos_as_xyz
  1  'x, y, z'
loop_
 _atom_site_type_symbol
 _atom_site_label
 _atom_site_symmetry_multiplicity
 _atom_site_fract_x
 _atom_site_fract_y
 _atom_site_fract_z
 _atom_site_occupancy
  Zr  Zr0  1  0.69627655  0.13475765  0.12736003  1
  Zr  Zr1  1  0.67325060  0.74239754  0.11304622  1
  Zr  Zr2  1  0.49094063  0.10369865  0.00598522  1
  Zr  Zr3  1  0.33497519  0.26578047  0.67198543  1
  Zr  Zr4  1  0.93919499  0.03598185  0.60096505  1
  Zr  Zr5  1  0.93651493  0.91389025  0.91003118  1
  Zr  Zr6  1  0.43385267  0.43974859  0.75828765  1
  Zr  Zr7  1  0.28993473  0.84522444  0.31875784  1
  Zr  Zr8  1  0.28464670  0.09212365  0.06162544  1
  Zr  Zr9  1  0.25639990  0.07461685  0.28876295  1
  Zr  Zr10  1  0.70611483  0.08642398  0.91905515  1
  Zr  Zr11  1  0.10050463  0.34391650  0.62420231  1
  Zr  Zr12  1  0.43119696  0.26685630  0.11955966  1
  Zr  Zr13  1  0.95566839  0.33190382  0.80589040  1
  Zr  Zr14  1  0.31474246  0.15415236  0.86035243  1
  Zr  Zr15  1  0.29785148  0.76385228  0.93335606  1
  Zr  Zr16  1  0.69226462  0.64605562  0.70714608  1
  Zr  Zr17  1  0.72940105  0.86979684  0.88020327  1
  Zr  Zr18  1  0.51741322  0.81832453  0.90847440  1
  Zr  Zr19  1  0.20605573  0.26331672  0.16152487  1
  Zr  Zr20  1  0.54500875  0.14994203  0.42379472  1
  Zr  Zr21  1  0.23269492  0.40639274  0.30837613  1
  Zr  Zr22  1  0.49591441  0.62363589  0.82697075  1
  Zr  Zr23  1  0.63640117  0.29753199  0.01622890  1
  Zr  Zr24  1  0.86713470  0.85965653  0.29439156  1
  Zr  Zr25  1  0.73341847  0.16887143  0.52363333  1
  Zr  Zr26  1  0.65793453  0.35999358  0.41601661  1
  Zr  Zr27  1  0.93609161  0.46134239  0.53410282  1
  Zr  Zr28  1  0.29323735  0.65837386  0.75307762  1
  Zr  Zr29  1  0.06662036  0.69417559  0.04906917  1
  Zr  Zr30  1  0.04291094  0.31880049  1.01271657  1
  Zr  Zr31  1  0.59777931  0.93776742  0.05292445  1
  Zr  Zr32  1  0.88894958  0.12754395  0.99885747  1
  Zr  Zr33  1  0.28835089  0.61034580  0.35038354  1
  Zr  Zr34  1  0.52571398  0.03023054  0.81554698  1
  Zr  Zr35  1  0.92332202  0.24170416  0.60195259  1
  Zr  Zr36  1  0.49286019  0.81952816  0.23032733  1
  Zr  Zr37  1  0.13690582  0.95669052  0.54268011  1
  Zr  Zr38  1  0.12447389  0.16426910  0.47765089  1
  Zr  Zr39  1  0.11937546  0.75949217  0.43488346  1
  Zr  Zr40  1  0.16869053  0.32235497  0.82069015  1
  Zr  Zr41  1  0.74718333  0.26056994  0.79195614  1
  Zr  Zr42  1  0.87503247  0.28080979  0.38497687  1
  Zr  Zr43  1  0.88119720  0.70326020  0.81001444  1
  Zr  Zr44  1  0.41532614  0.84718549  0.72144131  1
  Zr  Zr45  1  0.12056091  0.14516182  0.69094641  1
  Zr  Zr46  1  0.29733689  0.03609026  0.69627657  1
  Zr  Zr47  1  0.86901653  0.67979816  0.19182440  1
  Zr  Zr48  1  0.15764346  0.93377213  0.93392774  1
  Zr  Zr49  1  0.90403777  0.10770931  0.79167720  1
  Sc  Sc50  1  0.70155555  0.75560643  0.51983091  1
  Sc  Sc51  1  0.48877196  0.64184922  0.04907390  1
  Sc  Sc52  1  0.93618822  0.49900600  0.10177821  1
  Sc  Sc53  1  0.87925539  0.47823698  0.31845880  1
  Sc  Sc54  1  0.47781452  0.06139610  0.22957371  1
  Sc  Sc55  1  0.15824537  0.50259833  0.11712633  1
  Sc  Sc56  1  0.29870743  0.33817426  0.97341503  1
  Sc  Sc57  1  0.49774699  0.67325273  0.62272452  1
  Sc  Sc58  1  0.03509670  0.54880501  0.71852079  1
  Sc  Sc59  1  0.09426614  0.51446713  0.91148919  1
  Sc  Sc60  1  0.65642144  0.44784706  0.83676654  1
  Sc  Sc61  1  0.44992224  0.73412532  0.42592358  1
  Sc  Sc62  1  0.50759286  0.26025227  0.85678434  1
  Sc  Sc63  1  0.74840566  0.96382981  0.47269903  1
  Sc  Sc64  1  0.30807928  0.54693412  0.93458156  1
  Sc  Sc65  1  0.08655674  0.73699069  0.85135625  1
  Sc  Sc66  1  0.06276299  0.76999033  0.64315536  1
  Sc  Sc67  1  0.38637557  0.90094307  0.08340612  1
  Sc  Sc68  1  0.18864021  0.89446716  0.13528518  1
  Sc  Sc69  1  0.06631856  0.35851024  0.41865380  1
  Sc  Sc70  1  0.27591938  0.72709980  0.56194811  1
  Sc  Sc71  1  0.28803277  0.69171978  0.15170929  1
  Sc  Sc72  1  0.24061812  0.47218211  0.69651469  1
  Sc  Sc73  1  0.07459593  0.95657120  0.31853774  1
  Sc  Sc74  1  0.82667043  0.48673957  0.71951944  1
  Sc  Sc75  1  0.72147038  0.51435021  0.05388324  1
  Sc  Sc76  1  0.74946748  0.54411642  0.49719443  1
  Sc  Sc77  1  0.89032924  0.67119355  0.59916364  1
  Sc  Sc78  1  0.71740561  0.05614014  0.69918226  1
  Sc  Sc79  1  0.54351589  0.92312821  0.42542582  1
  Sc  Sc80  1  0.74577580  0.34758153  0.20139028  1
  Sc  Sc81  1  0.14306623  0.54700225  0.50929216  1
  Sc  Sc82  1  0.09059505  0.13173727  0.89928981  1
  Sc  Sc83  1  0.68173605  0.54369025  0.27226606  1
  Sc  Sc84  1  0.61979878  0.85560126  0.69286405  1
  Sc  Sc85  1  0.37626517  0.52313329  0.54000630  1
  Sc  Sc86  1  0.84473571  0.86967064  0.68326464  1
  Sc  Sc87  1  0.92022856  0.07463251  0.40784029  1
  Sc  Sc88  1  0.91527350  0.67375521  0.39951823  1
  Sc  Sc89  1  0.56879010  0.25116639  0.65225287  1
  Sc  Sc90  1  0.68704385  0.65804460  0.91361822  1
  Sc  Sc91  1  0.88751194  0.04948226  0.20936237  1
  Sc  Sc92  1  0.07549218  0.74631048  0.24539501  1
  Sc  Sc93  1  0.35903422  0.47473954  0.14495782  1
  Sc  Sc94  1  0.07401723  0.08556568  0.11116961  1
  Sc  Sc95  1  0.33540151  0.13968601  0.49822022  1
  Sc  Sc96  1  0.34282625  0.92109632  0.51287935  1
  Sc  Sc97  1  0.67659882  0.95329874  0.25423990  1
  Sc  Sc98  1  0.66708482  0.74009572  0.32610122  1
  Sc  Sc99  1  0.51192903  0.04068722  0.60723039  1
  Nb  Nb100  1  0.22491903  0.85767068  0.73729665  1
  Nb  Nb101  1  0.75281495  0.35274119  0.59834552  1
  Nb  Nb102  1  0.86700810  0.72397182  0.00439365  1
  Nb  Nb103  1  0.55637299  0.55709493  0.44287574  1
  Nb  Nb104  1  0.98296483  0.87832989  0.10670612  1
  Nb  Nb105  1  0.48507360  0.61862003  0.25447129  1
  Nb  Nb106  1  0.73102386  0.15329726  0.31949617  1
  Nb  Nb107  1  0.94463294  0.86435337  0.48506322  1
  Nb  Nb108  1  0.44483910  0.43646379  0.33624965  1
  Nb  Nb109  1  0.49263553  0.44364515  0.97038978  1
  Nb  Nb110  1  0.79785853  0.92164882  0.07372354  1
  Nb  Nb111  1  0.35443203  0.95887906  0.88961902  1
  Nb  Nb112  1  0.58939079  0.47075793  0.62367440  1
  Nb  Nb113  1  0.46829187  0.33584193  0.49588327  1
  Nb  Nb114  1  0.55260924  0.43924052  0.15728532  1
  Nb  Nb115  1  0.83293593  0.33619563  0.97934346  1
  Nb  Nb116  1  0.36780698  0.24861823  0.32225206  1
  Nb  Nb117  1  0.88249559  0.52475534  0.90806012  1
  Nb  Nb118  1  0.26947212  0.34905304  0.49424403  1
  Nb  Nb119  1  0.90661871  0.24562215  0.16383675  1
  Nb  Nb120  1  0.03462754  0.36806833  0.22399472  1
  Nb  Nb121  1  0.06064731  0.18361914  0.29110067  1
  Nb  Nb122  1  0.56175267  0.26915876  0.26548571  1
  Nb  Nb123  1  0.05741512  0.95508014  0.74847634  1
  Nb  Nb124  1  0.07308299  0.55395324  0.30900427  1
