# generated using pymatgen
data_Zr2Sc2Nb
_symmetry_space_group_name_H-M   'P 1'
_cell_length_a   13.99364745
_cell_length_b   14.09797105
_cell_length_c   14.61605086
_cell_angle_alpha   90.06033003
_cell_angle_beta   89.95852178
_cell_angle_gamma   90.35847173
_symmetry_Int_Tables_number   1
_chemical_formula_structural   Zr2Sc2Nb
_chemical_formula_sum   'Zr50 Sc50 Nb25'
_cell_volume   2883.42550608
_cell_formula_units_Z   25
loop_
 _symmetry_equiv_pos_site_id
 _symmetry_equiv_pos_as_xyz
  1  'x, y, z'
loop_
 _atom_site_type_symbol
 _atom_site_label
 _atom_site_symmetry_multiplicity
 _atom_site_fract_x
 _atom_site_fract_y
 _atom_site_fract_z
 _atom_site_occupancy
  Zr  Zr0  1  0.98958024  0.63414201  0.76406440  1
  Zr  Zr1  1  0.88004504  0.14051123  0.45130329  1
  Zr  Zr2  1  0.10489614  0.02921775  0.99657249  1
  Zr  Zr3  1  0.00778832  0.83902663  0.69006347  1
  Zr  Zr4  1  0.82827806  0.94057289  0.76605094  1
  Zr  Zr5  1  0.39851094  0.58239450  0.65138394  1
  Zr  Zr6  1  1.01338858  0.20310528  0.28902385  1
  Zr  Zr7  1  0.22893105  0.89215584  0.68363994  1
  Zr  Zr8  1  0.64841237  0.20957478  0.86715948  1
  Zr  Zr9  1  0.60358045  0.87913054  0.11520724  1
  Zr  Zr10  1  0.51877496  0.12640789  0.42463532  1
  Zr  Zr11  1  0.28710689  0.96952670  0.28703551  1
  Zr  Zr12  1  0.71013554  0.82852343  0.90646971  1
  Zr  Zr13  1  0.07811730  0.25312738  0.68239081  1
  Zr  Zr14  1  0.45628697  0.32022157  0.38870047  1
  Zr  Zr15  1  0.61384598  0.65927289  0.59591648  1
  Zr  Zr16  1  0.06545169  0.83761858  0.48537863  1
  Zr  Zr17  1  0.86589910  0.32680185  0.19502329  1
  Zr  Zr18  1  0.99759931  0.47628359  0.07786779  1
  Zr  Zr19  1  0.11829909  0.85562101  0.86862459  1
  Zr  Zr20  1  0.40384622  0.93392260  0.13066135  1
  Zr  Zr21  1  0.25611614  0.75343165  0.31458509  1
  Zr  Zr22  1  0.34910629  0.35609429  0.17538948  1
  Zr  Zr23  1  0.67163542  0.44201933  0.33285189  1
  Zr  Zr24  1  0.02269524  0.04813126  0.78924262  1
  Zr  Zr25  1  0.42661946  0.69285875  0.44434703  1
  Zr  Zr26  1  0.53337848  0.08607059  0.04218077  1
  Zr  Zr27  1  0.25683528  0.30125915  0.54907235  1
  Zr  Zr28  1  0.89912685  0.32354184  0.98763011  1
  Zr  Zr29  1  0.01570955  0.66982190  0.36242827  1
  Zr  Zr30  1  0.82453477  0.92390306  0.56055794  1
  Zr  Zr31  1  0.62121125  0.86868788  0.69918167  1
  Zr  Zr32  1  0.28065588  0.55115341  0.24518970  1
  Zr  Zr33  1  0.03190699  0.64145565  0.56911769  1
  Zr  Zr34  1  0.91687019  0.50372539  0.88744058  1
  Zr  Zr35  1  0.58680555  0.68031077  0.02501190  1
  Zr  Zr36  1  0.63940177  0.01058592  0.87134626  1
  Zr  Zr37  1  0.39664080  0.15858113  0.64949147  1
  Zr  Zr38  1  0.05888491  0.42617105  0.48593646  1
  Zr  Zr39  1  0.49238818  0.86425662  0.94129927  1
  Zr  Zr40  1  0.11739623  0.44531593  0.84801876  1
  Zr  Zr41  1  0.70554224  0.68911242  0.19523966  1
  Zr  Zr42  1  0.82947293  0.76327679  0.42627439  1
  Zr  Zr43  1  0.42972703  0.95866927  0.76224299  1
  Zr  Zr44  1  0.48915201  0.33571018  0.59482436  1
  Zr  Zr45  1  0.53125642  0.50558507  0.92681021  1
  Zr  Zr46  1  0.30351361  0.94998537  0.94575515  1
  Zr  Zr47  1  0.68235042  0.23392142  0.51933124  1
  Zr  Zr48  1  0.20565965  0.08612657  0.59853310  1
  Zr  Zr49  1  0.10725401  0.66185052  0.17511154  1
  Sc  Sc50  1  0.82598734  0.13537381  0.67012514  1
  Sc  Sc51  1  0.85430176  0.54990607  0.25629875  1
  Sc  Sc52  1  0.32650865  0.71998791  0.04058488  1
  Sc  Sc53  1  0.27891308  0.89801888  0.47804868  1
  Sc  Sc54  1  0.45818202  0.97113993  0.55318051  1
  Sc  Sc55  1  0.19902294  0.49532529  0.63602403  1
  Sc  Sc56  1  0.87226561  0.64233947  0.04690888  1
  Sc  Sc57  1  0.70290392  0.02568267  0.42019613  1
  Sc  Sc58  1  0.87193902  0.35134777  0.39312948  1
  Sc  Sc59  1  0.05689781  0.45511683  0.27260882  1
  Sc  Sc60  1  0.80949287  0.73410082  0.66955239  1
  Sc  Sc61  1  0.84256167  0.12978415  0.89485312  1
  Sc  Sc62  1  0.69833584  0.23141811  0.32414531  1
  Sc  Sc63  1  0.19323396  0.68006951  0.73356287  1
  Sc  Sc64  1  0.71712504  0.22026134  0.08158112  1
  Sc  Sc65  1  0.10745416  0.04145111  0.39524258  1
  Sc  Sc66  1  0.28423251  0.31962467  0.75243610  1
  Sc  Sc67  1  0.23203231  0.09425431  0.80476739  1
  Sc  Sc68  1  0.74380144  0.89792410  0.26684536  1
  Sc  Sc69  1  0.71159462  0.40366281  0.87634426  1
  Sc  Sc70  1  0.20619079  0.49403479  0.05588235  1
  Sc  Sc71  1  0.60207195  0.10258988  0.67424650  1
  Sc  Sc72  1  0.55661300  0.31083578  0.20268151  1
  Sc  Sc73  1  0.32711677  0.55485472  0.86438512  1
  Sc  Sc74  1  0.58638494  0.49560950  0.71565212  1
  Sc  Sc75  1  0.21276903  0.32424860  0.34060373  1
  Sc  Sc76  1  0.31875199  0.34825507  0.95354116  1
  Sc  Sc77  1  0.09242439  0.23721500  0.90803972  1
  Sc  Sc78  1  0.11349174  0.64923610  0.94315967  1
  Sc  Sc79  1  0.12732613  0.28941363  0.11955967  1
  Sc  Sc80  1  0.00489294  0.03161958  0.58411423  1
  Sc  Sc81  1  0.43010016  0.14755732  0.87010704  1
  Sc  Sc82  1  0.02315482  0.80947792  0.05645540  1
  Sc  Sc83  1  0.80502704  0.50751514  0.69138516  1
  Sc  Sc84  1  0.63921171  0.64251825  0.37990045  1
  Sc  Sc85  1  0.62152400  0.83585308  0.48993213  1
  Sc  Sc86  1  0.40795207  0.14423202  0.23304338  1
  Sc  Sc87  1  0.95424110  0.96709659  0.16758751  1
  Sc  Sc88  1  0.89398927  0.30821087  0.78501930  1
  Sc  Sc89  1  0.85359364  0.55166467  0.48458713  1
  Sc  Sc90  1  0.30497003  0.13821427  0.42600929  1
  Sc  Sc91  1  0.50044743  0.91335760  0.32865394  1
  Sc  Sc92  1  0.46723715  0.70803417  0.21649803  1
  Sc  Sc93  1  0.32908455  0.48364310  0.46315577  1
  Sc  Sc94  1  0.95071671  0.14981426  0.08265009  1
  Sc  Sc95  1  0.51860830  0.31735299  1.00959186  1
  Sc  Sc96  1  0.52576714  0.69813271  0.80262443  1
  Sc  Sc97  1  0.74804377  0.46306153  0.07156162  1
  Sc  Sc98  1  0.73384237  0.62466542  0.86135218  1
  Sc  Sc99  1  0.29613183  0.14135562  0.05343146  1
  Nb  Nb100  1  0.75254139  0.01738531  0.06343669  1
  Nb  Nb101  1  0.91003022  0.76668092  0.23106990  1
  Nb  Nb102  1  1.00262263  0.45214177  0.67661610  1
  Nb  Nb103  1  0.69222325  0.43188397  0.53339853  1
  Nb  Nb104  1  0.41471394  0.78343083  0.63722639  1
  Nb  Nb105  1  0.20108839  0.88075066  0.11942236  1
  Nb  Nb106  1  0.82365583  0.10242857  0.24686182  1
  Nb  Nb107  1  0.24201676  0.70158259  0.54087518  1
  Nb  Nb108  1  0.49470885  0.33047114  0.79659791  1
  Nb  Nb109  1  0.06758492  0.22576345  0.48845425  1
  Nb  Nb110  1  0.88086027  0.32481838  0.58307085  1
  Nb  Nb111  1  0.61251421  0.07006571  0.22344052  1
  Nb  Nb112  1  0.80463530  0.82816837  0.07284604  1
  Nb  Nb113  1  0.08995293  0.86379574  0.27752258  1
  Nb  Nb114  1  0.91348413  0.94966271  0.95091799  1
  Nb  Nb115  1  0.14659949  0.07082286  0.18927564  1
  Nb  Nb116  1  0.41089556  0.52342457  0.08175930  1
  Nb  Nb117  1  0.68996951  0.31072475  0.69579236  1
  Nb  Nb118  1  0.91006766  0.76771337  0.87933761  1
  Nb  Nb119  1  0.46648002  0.50828549  0.30226628  1
  Nb  Nb120  1  0.17506425  0.58098033  0.41095258  1
  Nb  Nb121  1  0.91986044  0.94719353  0.37157706  1
  Nb  Nb122  1  0.58018380  0.51969034  0.15757382  1
  Nb  Nb123  1  0.33241194  0.77858092  0.83301347  1
  Nb  Nb124  1  0.52674925  0.50832175  0.49323228  1
