# generated using pymatgen
data_Zr2Sc2Nb
_symmetry_space_group_name_H-M   'P 1'
_cell_length_a   14.17939220
_cell_length_b   14.08638303
_cell_length_c   14.36247943
_cell_angle_alpha   89.72279152
_cell_angle_beta   89.31788326
_cell_angle_gamma   92.49499701
_symmetry_Int_Tables_number   1
_chemical_formula_structural   Zr2Sc2Nb
_chemical_formula_sum   'Zr50 Sc50 Nb25'
_cell_volume   2865.74545790
_cell_formula_units_Z   25
loop_
 _symmetry_equiv_pos_site_id
 _symmetry_equiv_pos_as_xyz
  1  'x, y, z'
loop_
 _atom_site_type_symbol
 _atom_site_label
 _atom_site_symmetry_multiplicity
 _atom_site_fract_x
 _atom_site_fract_y
 _atom_site_fract_z
 _atom_site_occupancy
  Zr  Zr0  1  0.45892753  0.58516072  0.92455799  1
  Zr  Zr1  1  0.27360958  0.57866796  0.03853410  1
  Zr  Zr2  1  0.89440676  0.22409474  0.27207058  1
  Zr  Zr3  1  0.35345906  0.75074398  0.54026734  1
  Zr  Zr4  1  0.84980517  0.68431895  0.92409400  1
  Zr  Zr5  1  0.53145359  0.27748306  0.37173061  1
  Zr  Zr6  1  0.39430704  0.14226669  0.88130244  1
  Zr  Zr7  1  0.62662222  0.67932718  0.02904756  1
  Zr  Zr8  1  0.94139413  0.68480391  0.54103725  1
  Zr  Zr9  1  0.17656496  0.28924753  0.60099327  1
  Zr  Zr10  1  0.75731305  0.56731586  0.63636738  1
  Zr  Zr11  1  0.47718948  0.51606176  0.70565253  1
  Zr  Zr12  1  0.25229030  0.33470318  0.39869093  1
  Zr  Zr13  1  0.99785892  0.06414813  0.92955502  1
  Zr  Zr14  1  0.08751696  0.41492914  0.77750399  1
  Zr  Zr15  1  0.49357810  0.79451264  0.90152526  1
  Zr  Zr16  1  0.89523969  0.47142132  0.23820204  1
  Zr  Zr17  1  0.41911436  0.72867581  0.11654975  1
  Zr  Zr18  1  0.20782606  0.03835895  0.90993678  1
  Zr  Zr19  1  0.34671482  0.91918914  0.79640075  1
  Zr  Zr20  1  0.89133244  0.08858696  0.73898829  1
  Zr  Zr21  1  0.95272150  0.29958700  0.68137824  1
  Zr  Zr22  1  0.42033534  0.71213895  0.72916223  1
  Zr  Zr23  1  0.59964312  0.24165008  0.58976426  1
  Zr  Zr24  1  0.08780851  0.52026301  0.14694276  1
  Zr  Zr25  1  0.40069450  0.71040192  0.32196642  1
  Zr  Zr26  1  0.92278733  0.04898024  0.43708783  1
  Zr  Zr27  1  0.08869976  0.98050928  0.73912523  1
  Zr  Zr28  1  0.67117136  0.48474667  0.96220621  1
  Zr  Zr29  1  0.95918552  0.67348968  0.10344145  1
  Zr  Zr30  1  0.16042301  0.94704880  0.09600807  1
  Zr  Zr31  1  0.57121290  0.87871270  0.08677334  1
  Zr  Zr32  1  0.06098289  0.11046688  0.16292581  1
  Zr  Zr33  1  0.65267034  0.62002543  0.41531618  1
  Zr  Zr34  1  0.54264118  0.91459749  0.27887756  1
  Zr  Zr35  1  0.83141880  0.43700650  0.81169845  1
  Zr  Zr36  1  0.38428473  0.31497737  0.24035426  1
  Zr  Zr37  1  0.41353624  0.29207782  0.69514183  1
  Zr  Zr38  1  0.44932856  0.07383719  0.65649497  1
  Zr  Zr39  1  0.10729234  0.97998245  0.32583997  1
  Zr  Zr40  1  0.54778315  0.98884420  0.84432353  1
  Zr  Zr41  1  0.64399815  0.64544125  0.81279105  1
  Zr  Zr42  1  0.25793992  0.56677011  0.42483764  1
  Zr  Zr43  1  0.71793133  0.00846488  0.14337194  1
  Zr  Zr44  1  0.70542546  0.27598164  0.94185131  1
  Zr  Zr45  1  0.19732279  0.71973143  0.18161548  1
  Zr  Zr46  1  0.30219505  0.14748031  0.09027371  1
  Zr  Zr47  1  0.55357862  0.07343190  0.46335156  1
  Zr  Zr48  1  0.74132016  0.86330864  0.31809111  1
  Zr  Zr49  1  0.72367394  0.08783995  0.34478991  1
  Sc  Sc50  1  0.25581308  0.11627461  0.70027358  1
  Sc  Sc51  1  0.48174081  0.36542308  0.89442323  1
  Sc  Sc52  1  0.40350127  0.39426394  0.51680417  1
  Sc  Sc53  1  0.56356759  0.11335985  0.02596259  1
  Sc  Sc54  1  -0.03027297  0.58009582  0.73347484  1
  Sc  Sc55  1  0.26463244  0.51236310  0.62846821  1
  Sc  Sc56  1  0.86192125  0.15551762  0.07302279  1
  Sc  Sc57  1  0.25914514  0.29523602  0.84105625  1
  Sc  Sc58  1  0.27075236  0.78172704  0.96834422  1
  Sc  Sc59  1  0.32487750  0.36597491  0.04071516  1
  Sc  Sc60  1  0.83700060  0.67455611  0.30217349  1
  Sc  Sc61  1  0.55219703  0.80348430  0.44802745  1
  Sc  Sc62  1  0.00913967  0.82891170  0.22206515  1
  Sc  Sc63  1  0.07035205  0.41514646  0.33332374  1
  Sc  Sc64  1  0.09037348  0.19198936  0.36824556  1
  Sc  Sc65  1  0.28290067  0.51944345  0.83435741  1
  Sc  Sc66  1  0.63533407  0.40114026  0.75098144  1
  Sc  Sc67  1  0.08911959  0.61739884  0.92339505  1
  Sc  Sc68  1  0.04706951  0.63939276  0.34853985  1
  Sc  Sc69  1  0.21393635  0.72723138  0.76292508  1
  Sc  Sc70  1  0.47027175  0.50267964  0.34032281  1
  Sc  Sc71  1  0.70982065  0.95423747  0.51689984  1
  Sc  Sc72  1  0.72035914  0.85337429  0.93563121  1
  Sc  Sc73  1  0.49441105  0.11230527  0.23351170  1
  Sc  Sc74  1  0.66480276  0.45074106  0.26162824  1
  Sc  Sc75  1  0.73897612  0.30112337  0.40496992  1
  Sc  Sc76  1  0.06378293  0.83512624  0.93012407  1
  Sc  Sc77  1  0.68460850  0.86932781  0.72908834  1
  Sc  Sc78  1  0.78651447  0.35951253  0.10577421  1
  Sc  Sc79  1  0.38736913  0.96101879  0.01856237  1
  Sc  Sc80  1  0.07283210  0.89866704  0.53885458  1
  Sc  Sc81  1  0.84571124  0.50118150  0.44490508  1
  Sc  Sc82  1  0.32786470  0.91194997  0.22413233  1
  Sc  Sc83  1  0.01827919  0.78460863  0.72088208  1
  Sc  Sc84  1  0.37773504  0.95378245  0.44132209  1
  Sc  Sc85  1  0.76673179  0.76351565  0.51975356  1
  Sc  Sc86  1  0.92103983  0.48145859  -0.00627416  1
  Sc  Sc87  1  0.60940954  0.44857704  0.52934073  1
  Sc  Sc88  1  0.91127260  0.92042058  0.05160984  1
  Sc  Sc89  1  0.28150114  0.50431199  0.23152205  1
  Sc  Sc90  1  0.20674252  0.06986303  0.50409104  1
  Sc  Sc91  1  0.04979808  0.47703543  0.55243590  1
  Sc  Sc92  1  0.75240832  0.06810697  0.90096851  1
  Sc  Sc93  1  0.28713838  0.12657032  0.30361681  1
  Sc  Sc94  1  0.12679754  0.40679450  0.97622575  1
  Sc  Sc95  1  0.14646441  0.68864859  0.56531938  1
  Sc  Sc96  1  0.54584809  0.31659455  0.10091699  1
  Sc  Sc97  1  0.49517938  0.52395516  0.12853180  1
  Sc  Sc98  1  0.94642493  0.29182103  0.47455588  1
  Sc  Sc99  1  0.20229101  0.80342259  0.38674334  1
  Nb  Nb100  1  0.77600146  0.78908806  0.13446980  1
  Nb  Nb101  1  0.59753738  0.70012619  0.62318833  1
  Nb  Nb102  1  0.92903776  0.84806311  0.40795600  1
  Nb  Nb103  1  0.12857509  0.20797334  0.99729250  1
  Nb  Nb104  1  0.38000349  0.18846529  0.49640886  1
  Nb  Nb105  1  0.80092336  0.15434573  0.55911046  1
  Nb  Nb106  1  0.66767661  0.06544309  0.68084326  1
  Nb  Nb107  1  0.60995985  0.69718693  0.23296630  1
  Nb  Nb108  1  0.57324231  0.19313720  0.80372819  1
  Nb  Nb109  1  0.50327741  0.89341444  0.63031883  1
  Nb  Nb110  1  0.88375510  0.92550716  0.62028753  1
  Nb  Nb111  1  0.89587872  -0.00140663  0.24536086  1
  Nb  Nb112  1  0.08511865  0.19416613  0.78987278  1
  Nb  Nb113  1  0.68257812  0.21515073  0.20541109  1
  Nb  Nb114  1  0.02828414  0.12176698  0.59157291  1
  Nb  Nb115  1  0.81961388  0.73550081  0.72375360  1
  Nb  Nb116  1  0.76638846  0.58184050  0.11964519  1
  Nb  Nb117  1  0.93719125  0.27374462  0.90375957  1
  Nb  Nb118  1  0.78983674  0.36706938  0.60304104  1
  Nb  Nb119  1  0.17686757  0.30088323  0.18654052  1
  Nb  Nb120  1  0.26742831  0.90070934  0.62455129  1
  Nb  Nb121  1  0.88927768  0.89929407  0.82773378  1
  Nb  Nb122  1  0.76313501  0.23758060  0.75260356  1
  Nb  Nb123  1  0.99827940  0.31913792  0.11853510  1
  Nb  Nb124  1  0.46011366  0.60033769  0.51969294  1
