# generated using pymatgen
data_Zr2Sc2Nb
_symmetry_space_group_name_H-M   'P 1'
_cell_length_a   14.25211451
_cell_length_b   14.06586831
_cell_length_c   14.36592741
_cell_angle_alpha   89.87031321
_cell_angle_beta   89.34124738
_cell_angle_gamma   90.62178704
_symmetry_Int_Tables_number   1
_chemical_formula_structural   Zr2Sc2Nb
_chemical_formula_sum   'Zr50 Sc50 Nb25'
_cell_volume   2879.54585831
_cell_formula_units_Z   25
loop_
 _symmetry_equiv_pos_site_id
 _symmetry_equiv_pos_as_xyz
  1  'x, y, z'
loop_
 _atom_site_type_symbol
 _atom_site_label
 _atom_site_symmetry_multiplicity
 _atom_site_fract_x
 _atom_site_fract_y
 _atom_site_fract_z
 _atom_site_occupancy
  Zr  Zr0  1  0.07131674  0.57490578  0.51631580  1
  Zr  Zr1  1  0.24753603  0.47079079  0.66686691  1
  Zr  Zr2  1  0.12721480  0.81317473  0.51954867  1
  Zr  Zr3  1  0.44247180  0.86695723  0.77205798  1
  Zr  Zr4  1  0.10307813  0.81743579  0.95704092  1
  Zr  Zr5  1  0.47838292  0.47450460  0.77419490  1
  Zr  Zr6  1  0.36159685  0.52449448  0.10587843  1
  Zr  Zr7  1  0.26254358  0.87200596  0.29385764  1
  Zr  Zr8  1  0.15056121  -0.02540515  0.11989742  1
  Zr  Zr9  1  0.42198772  0.08390084  0.65261394  1
  Zr  Zr10  1  0.54375434  0.28915491  0.68395573  1
  Zr  Zr11  1  0.86107900  0.10936184  0.87236676  1
  Zr  Zr12  1  0.67943749  0.39087543  0.84318915  1
  Zr  Zr13  1  0.70444797  0.91447977  0.45468532  1
  Zr  Zr14  1  0.26836470  0.25096157  0.34850094  1
  Zr  Zr15  1  0.53050262  0.80831335  0.32629621  1
  Zr  Zr16  1  0.36942984  0.35238425  0.52628627  1
  Zr  Zr17  1  0.34295472  0.31617322  0.16377587  1
  Zr  Zr18  1  -0.00632734  0.65435649  0.03640789  1
  Zr  Zr19  1  0.26590029  0.96502794  0.87984079  1
  Zr  Zr20  1  0.43019273  0.14783197  0.44401903  1
  Zr  Zr21  1  0.43799086  0.68135056  0.92582958  1
  Zr  Zr22  1  0.06921425  0.18043882  0.44701271  1
  Zr  Zr23  1  0.08425461  0.87481862  0.75531587  1
  Zr  Zr24  1  0.95060912  0.87207031  0.10745591  1
  Zr  Zr25  1  0.75989230  0.73838981  0.59305338  1
  Zr  Zr26  1  0.65689778  0.09936261  0.60161009  1
  Zr  Zr27  1  0.24983031  0.18857961  0.55297861  1
  Zr  Zr28  1  0.85274079  0.54950475  0.53796957  1
  Zr  Zr29  1  0.56894144  0.70475664  0.74482883  1
  Zr  Zr30  1  0.88611704  0.16227106  0.63703370  1
  Zr  Zr31  1  0.91087780  0.31746654  0.76971983  1
  Zr  Zr32  1  0.61620460  0.81798100  0.94586998  1
  Zr  Zr33  1  0.68020063  0.29670471  0.28433920  1
  Zr  Zr34  1  0.33034754  0.34099249  0.96161284  1
  Zr  Zr35  1  0.96137075  0.50624403  0.35013010  1
  Zr  Zr36  1  0.52311341  0.05462750  0.83105033  1
  Zr  Zr37  1  0.27129453  0.07637980  0.26221694  1
  Zr  Zr38  1  0.28226724  0.88213691  0.65291945  1
  Zr  Zr39  1  0.51732475  0.46768557  0.98774356  1
  Zr  Zr40  1  0.64607492  0.98376219  0.24685999  1
  Zr  Zr41  1  0.26012237  0.99969005  0.47413042  1
  Zr  Zr42  1  0.89372370  0.68303425  0.21795324  1
  Zr  Zr43  1  0.29303918  0.82247238  0.07275433  1
  Zr  Zr44  1  0.90423388  0.29795101  0.35193122  1
  Zr  Zr45  1  0.33049215  0.68728280  0.24607506  1
  Zr  Zr46  1  0.06727680  0.02027594  0.58152873  1
  Zr  Zr47  1  0.37799252  0.66651319  0.68360734  1
  Zr  Zr48  1  0.87663066  0.06679261  0.45447809  1
  Zr  Zr49  1  0.33059919  0.28489315  0.73513996  1
  Sc  Sc50  1  0.70124926  0.79042230  0.18157314  1
  Sc  Sc51  1  0.29358501  0.58132129  0.48938239  1
  Sc  Sc52  1  0.95845805  0.70840373  0.65124079  1
  Sc  Sc53  1  0.98770695  0.46412935  0.91263531  1
  Sc  Sc54  1  0.91115370  0.48054726  0.12719236  1
  Sc  Sc55  1  0.68315126  0.45610345  0.45527624  1
  Sc  Sc56  1  0.21337204  0.64077679  0.03042022  1
  Sc  Sc57  1  0.53340913  0.27159755  0.08567105  1
  Sc  Sc58  1  0.11389986  0.55960050  0.20316643  1
  Sc  Sc59  1  0.17394167  0.68177646  0.67423951  1
  Sc  Sc60  1  0.49003010  0.13844750  0.24071282  1
  Sc  Sc61  1  0.84688478  0.95402138  0.69360035  1
  Sc  Sc62  1  0.55232314  0.73331608  0.53088732  1
  Sc  Sc63  1  0.62900122  0.89999905  0.67237924  1
  Sc  Sc64  1  0.15328028  0.42173369  0.04131142  1
  Sc  Sc65  1  0.72647335  0.69252957  0.38142768  1
  Sc  Sc66  1  0.17232887  0.19456242  0.09728204  1
  Sc  Sc67  1  0.71106175  0.16474112  0.12985835  1
  Sc  Sc68  1  0.82951110  0.31075038  0.95822117  1
  Sc  Sc69  1  0.85237228  0.89579131  0.30040006  1
  Sc  Sc70  1  0.49632264  0.25694815  0.87936233  1
  Sc  Sc71  1  0.89459651  0.28020590  0.15399806  1
  Sc  Sc72  1  0.29607516  0.47494142  0.30860543  1
  Sc  Sc73  1  0.14487678  0.68764452  0.35859409  1
  Sc  Sc74  1  0.47396531  0.35048356  0.33531495  1
  Sc  Sc75  1  0.02951578  0.49578923  0.70355000  1
  Sc  Sc76  1  0.30457044  0.53167330  0.86620738  1
  Sc  Sc77  1  0.48899838  0.51398923  0.56253674  1
  Sc  Sc78  1  0.66581373  0.54449434  0.66243745  1
  Sc  Sc79  1  0.10013389  0.34293084  0.25288125  1
  Sc  Sc80  1  0.06273366  0.92375325  0.34594234  1
  Sc  Sc81  1  0.58066911  0.28184169  0.49574331  1
  Sc  Sc82  1  0.21751994  0.17628874  0.87947739  1
  Sc  Sc83  1  0.36877554  0.10403527  0.03646382  1
  Sc  Sc84  1  0.44115190  0.92831631  0.17872297  1
  Sc  Sc85  1  0.75584785  0.49991781  0.26816287  1
  Sc  Sc86  1  0.75767474  0.96217946  0.05000882  1
  Sc  Sc87  1  0.15393414  0.38619689  0.47160280  1
  Sc  Sc88  1  0.35008506  0.78169676  0.46299238  1
  Sc  Sc89  1  0.94835697  0.35933138  0.54716000  1
  Sc  Sc90  1  0.03288840  0.12046244  0.25573211  1
  Sc  Sc91  1  0.49570481  0.95309728  0.48652856  1
  Sc  Sc92  1  0.91805995  0.87209879  0.51489848  1
  Sc  Sc93  1  0.03061316  0.24355013  0.94454855  1
  Sc  Sc94  1  0.64688465  0.60115806  0.89509034  1
  Sc  Sc95  1  0.50473399  0.59098999  0.35070376  1
  Sc  Sc96  1  0.10341292  0.26256685  0.67442102  1
  Sc  Sc97  1  0.92565098  0.08821639  0.07777550  1
  Sc  Sc98  1  0.90605457  0.89958938  0.89223383  1
  Sc  Sc99  1  0.50738107  0.70262972  0.12378315  1
  Nb  Nb100  1  0.81674479  0.11484982  0.28419718  1
  Nb  Nb101  1  0.67160717  0.17277152  0.94339857  1
  Nb  Nb102  1  0.75159299  0.35444472  0.63968261  1
  Nb  Nb103  1  0.83492163  0.53922825  0.75902928  1
  Nb  Nb104  1  0.03134261  0.08867331  0.77426645  1
  Nb  Nb105  1  0.54955550  0.46910072  0.18582448  1
  Nb  Nb106  1  0.76772323  0.75259505  0.79773214  1
  Nb  Nb107  1  0.69568990  0.59804632  0.09919948  1
  Nb  Nb108  1  0.21906677  0.06613589  0.70717733  1
  Nb  Nb109  1  0.94116584  0.70628957  0.41665930  1
  Nb  Nb110  1  0.64610141  0.11024297  0.39410696  1
  Nb  Nb111  1  0.94506229  0.68904159  0.84859855  1
  Nb  Nb112  1  0.80431768  0.74436032  0.00139215  1
  Nb  Nb113  1  0.70067121  0.97828561  0.85055867  1
  Nb  Nb114  1  0.70293259  0.39770548  0.07748526  1
  Nb  Nb115  1  0.56720140  0.03193481  0.03664719  1
  Nb  Nb116  1  0.81677549  0.54542130  0.95368941  1
  Nb  Nb117  1  0.77317743  0.24023087  0.47930779  1
  Nb  Nb118  1  0.11955410  0.61222337  0.85253234  1
  Nb  Nb119  1  0.07195162  0.02556539  0.94407561  1
  Nb  Nb120  1  0.43647278  0.89736716  -0.03391872  1
  Nb  Nb121  1  0.71125653  0.19291925  0.76383641  1
  Nb  Nb122  1  0.27324373  0.76249354  0.84994029  1
  Nb  Nb123  1  0.10965998  0.77331095  0.17877769  1
  Nb  Nb124  1  0.15991420  0.38305931  0.83270052  1
