# generated using pymatgen
data_Zr2Sc2Nb
_symmetry_space_group_name_H-M   'P 1'
_cell_length_a   14.33296872
_cell_length_b   13.88238964
_cell_length_c   14.42867966
_cell_angle_alpha   88.50231100
_cell_angle_beta   89.33147857
_cell_angle_gamma   88.48648050
_symmetry_Int_Tables_number   1
_chemical_formula_structural   Zr2Sc2Nb
_chemical_formula_sum   'Zr50 Sc50 Nb25'
_cell_volume   2868.80373628
_cell_formula_units_Z   25
loop_
 _symmetry_equiv_pos_site_id
 _symmetry_equiv_pos_as_xyz
  1  'x, y, z'
loop_
 _atom_site_type_symbol
 _atom_site_label
 _atom_site_symmetry_multiplicity
 _atom_site_fract_x
 _atom_site_fract_y
 _atom_site_fract_z
 _atom_site_occupancy
  Zr  Zr0  1  0.66416367  0.73116741  0.26275133  1
  Zr  Zr1  1  0.18254251  0.29208996  0.72202980  1
  Zr  Zr2  1  0.10884495  0.50936203  0.75557139  1
  Zr  Zr3  1  0.49839978  0.26743050  0.51413565  1
  Zr  Zr4  1  0.10165125  0.25794892  0.53184494  1
  Zr  Zr5  1  0.07082473  0.88434071  0.59801030  1
  Zr  Zr6  1  0.58941575  0.69524915  0.78712419  1
  Zr  Zr7  1  0.46652312  0.43297474  0.35387184  1
  Zr  Zr8  1  0.13124880  0.45862195  0.12471295  1
  Zr  Zr9  1  0.54620887  0.80686572  0.95167505  1
  Zr  Zr10  1  0.69686003  0.61414366  0.07625837  1
  Zr  Zr11  1  0.49071408  0.48782420  0.77193775  1
  Zr  Zr12  1  0.13067382  0.93204477  0.79753497  1
  Zr  Zr13  1  0.46548227  0.95964594  0.12844989  1
  Zr  Zr14  1  0.15760894  0.84751644  0.20619702  1
  Zr  Zr15  1  0.50480709  0.73572585  0.15050093  1
  Zr  Zr16  1  0.30338525  0.07429243  0.78029579  1
  Zr  Zr17  1  0.44085756  0.38315271  0.96492400  1
  Zr  Zr18  1  0.66826137  0.87731001  0.45266508  1
  Zr  Zr19  1  0.83430936  0.19737343  0.90973273  1
  Zr  Zr20  1  0.10780742  0.40298986  0.35655942  1
  Zr  Zr21  1  0.00566460  0.29685779  0.20849109  1
  Zr  Zr22  1  0.88603575  0.07819485  0.22918683  1
  Zr  Zr23  1  0.65574253  0.95488787  0.22342628  1
  Zr  Zr24  1  0.34042460  0.54279059  0.15941655  1
  Zr  Zr25  1  0.13750744  0.69487321  0.46585897  1
  Zr  Zr26  1  0.30662887  0.16869919  0.58539342  1
  Zr  Zr27  1  0.05533762  0.66925601  0.11919445  1
  Zr  Zr28  1  0.90421254  0.25832545  0.56608123  1
  Zr  Zr29  1  0.90308745  0.39552932  0.41687001  1
  Zr  Zr30  1  0.77452962  0.28822035  0.71851432  1
  Zr  Zr31  1  0.79065528  0.70044988  0.66253742  1
  Zr  Zr32  1  0.92690173  0.97053005  0.89926339  1
  Zr  Zr33  1  0.00531553  0.33460522  0.97155221  1
  Zr  Zr34  1  0.86318168  0.93404421  0.68040860  1
  Zr  Zr35  1  0.54355848  0.52474895  0.16757707  1
  Zr  Zr36  1  0.49900465  0.07201732  0.63832982  1
  Zr  Zr37  1  0.91650248  0.56055858  0.81280703  1
  Zr  Zr38  1  0.95897067  0.59319268  0.43839307  1
  Zr  Zr39  1  0.11087843  0.07394839  0.22204888  1
  Zr  Zr40  1  0.51889021  0.63367844  0.36479698  1
  Zr  Zr41  1  0.37384921  0.03998709  0.44147107  1
  Zr  Zr42  1  0.46358240  0.32086455  0.17067006  1
  Zr  Zr43  1  0.48376322  0.49491427  0.55832681  1
  Zr  Zr44  1  0.74540715  0.86695332  0.85943903  1
  Zr  Zr45  1  0.58799801  0.29597605  0.67553978  1
  Zr  Zr46  1  0.67267196  0.15435911  0.15547925  1
  Zr  Zr47  1  0.75331787  0.65294554  0.88529830  1
  Zr  Zr48  1  0.99829098  0.10758559  1.04559166  1
  Zr  Zr49  1  0.95161583  0.88997881  0.13103348  1
  Sc  Sc50  1  0.38465100  0.30204010  0.75504819  1
  Sc  Sc51  1  0.32069226  0.81044427  0.06631006  1
  Sc  Sc52  1  0.74303594  0.49223102  0.27105601  1
  Sc  Sc53  1  0.84041608  0.26871429  0.09246820  1
  Sc  Sc54  1  0.65500954  0.36515958  0.07354491  1
  Sc  Sc55  1  0.71673157  0.07305866  0.58921484  1
  Sc  Sc56  1  0.71071961  0.08001402  0.79639279  1
  Sc  Sc57  1  0.43943262  0.62574542  0.97186746  1
  Sc  Sc58  1  0.41252177  0.71087704  0.70276819  1
  Sc  Sc59  1  0.89849046  0.81026315  0.50305598  1
  Sc  Sc60  1  0.29221596  0.35173787  0.48133404  1
  Sc  Sc61  1  0.00289450  0.74191210  0.30793076  1
  Sc  Sc62  1  0.94338444  0.78515084  0.78584340  1
  Sc  Sc63  1  0.21713323  0.02340644  0.04093134  1
  Sc  Sc64  1  0.17350411  0.25078205  0.09107719  1
  Sc  Sc65  1  0.23915383  0.86946086  0.42258220  1
  Sc  Sc66  1  0.29453162  0.92089037  0.63725179  1
  Sc  Sc67  1  0.97351625  0.34201418  0.76913815  1
  Sc  Sc68  1  0.69438456  0.49923293  0.72687095  1
  Sc  Sc69  1  0.29644994  0.57671892  0.83757728  1
  Sc  Sc70  1  0.11219496  0.84785883  0.99210500  1
  Sc  Sc71  1  0.39887464  0.98729793  0.94283478  1
  Sc  Sc72  1  0.02501988  0.94196961  0.36117291  1
  Sc  Sc73  1  0.92237825  0.05384822  0.51145539  1
  Sc  Sc74  1  0.15503589  0.05781661  0.46427532  1
  Sc  Sc75  1  0.29731281  0.49549422  0.64338371  1
  Sc  Sc76  1  0.73817288  0.82884429  0.07127872  1
  Sc  Sc77  1  0.65136482  0.87926391  0.67123256  1
  Sc  Sc78  1  0.82657097  0.87102384  0.30573953  1
  Sc  Sc79  1  0.33836044  0.15814670  0.15685107  1
  Sc  Sc80  1  0.94452448  0.12119516  0.73649328  1
  Sc  Sc81  1  0.88165080  0.48522879  0.61577480  1
  Sc  Sc82  1  0.76078060  0.65532523  0.42763527  1
  Sc  Sc83  1  0.61962898  1.01093659  -0.01809488  1
  Sc  Sc84  1  0.29694969  0.54674055  0.40715512  1
  Sc  Sc85  1  0.32314705  0.73091678  0.27628527  1
  Sc  Sc86  1  0.20586171  0.71371676  0.66412580  1
  Sc  Sc87  1  0.11724424  0.70498448  0.84773478  1
  Sc  Sc88  1  0.88722170  0.50014282  0.06653400  1
  Sc  Sc89  1  0.37147778  0.71429302  0.50295944  1
  Sc  Sc90  1  0.11754151  0.15516671  0.87723178  1
  Sc  Sc91  1  0.68549133  0.44754878  0.49742698  1
  Sc  Sc92  1  0.50612643  0.14192574  0.83375719  1
  Sc  Sc93  1  0.60911041  0.27521701  0.32575114  1
  Sc  Sc94  1  0.48089412  0.87281589  0.33896422  1
  Sc  Sc95  1  0.10261424  0.48100230  0.55275547  1
  Sc  Sc96  1  0.59020692  0.68522865  0.56574782  1
  Sc  Sc97  1  0.22018710  0.39222653  0.92145052  1
  Sc  Sc98  1  0.91518328  0.72417487  -0.01428565  1
  Sc  Sc99  1  0.81061680  0.26643339  0.30535042  1
  Nb  Nb100  1  0.30911432  0.80561248  0.86088218  1
  Nb  Nb101  1  0.48457252  0.88556408  0.55322164  1
  Nb  Nb102  1  1.00353267  0.66774839  0.63369684  1
  Nb  Nb103  1  0.12761678  0.08789488  0.66257517  1
  Nb  Nb104  1  0.61012097  0.51233057  0.92851692  1
  Nb  Nb105  1  0.06065408  0.53635239  0.95047519  1
  Nb  Nb106  1  -0.00115076  0.18749060  0.37439115  1
  Nb  Nb107  1  0.50665077  0.17985563  0.03456389  1
  Nb  Nb108  1  0.50525277  0.09657621  0.25868776  1
  Nb  Nb109  1  0.56842760  0.07636673  0.44091781  1
  Nb  Nb110  1  0.96531019  0.52038562  0.25334817  1
  Nb  Nb111  1  0.30110495  0.98915581  0.26031282  1
  Nb  Nb112  1  0.62582193  0.30817579  0.87655520  1
  Nb  Nb113  1  0.73999137  0.07721052  0.36957779  1
  Nb  Nb114  1  0.15693455  0.59470184  0.27352728  1
  Nb  Nb115  1  0.39836903  0.22274826  0.35400595  1
  Nb  Nb116  1  0.72099430  0.24401039  0.49577092  1
  Nb  Nb117  1  0.80568032  0.03262034  0.04761243  1
  Nb  Nb118  1  0.79389590  0.41316840  0.90508226  1
  Nb  Nb119  1  0.28048911  0.37476259  0.25749601  1
  Nb  Nb120  1  0.85058474  0.67954801  0.19963090  1
  Nb  Nb121  1  0.47521798  0.90614375  0.77293543  1
  Nb  Nb122  1  0.22216674  0.63522138  0.01829000  1
  Nb  Nb123  1  0.20765745  0.20392098  0.33102180  1
  Nb  Nb124  1  0.32625833  0.19875307  0.94377851  1
