# generated using pymatgen
data_Zr2Sc2Nb
_symmetry_space_group_name_H-M   'P 1'
_cell_length_a   14.28239863
_cell_length_b   14.08717398
_cell_length_c   14.35001720
_cell_angle_alpha   92.67456948
_cell_angle_beta   89.27995295
_cell_angle_gamma   90.31379705
_symmetry_Int_Tables_number   1
_chemical_formula_structural   Zr2Sc2Nb
_chemical_formula_sum   'Zr50 Sc50 Nb25'
_cell_volume   2883.79647737
_cell_formula_units_Z   25
loop_
 _symmetry_equiv_pos_site_id
 _symmetry_equiv_pos_as_xyz
  1  'x, y, z'
loop_
 _atom_site_type_symbol
 _atom_site_label
 _atom_site_symmetry_multiplicity
 _atom_site_fract_x
 _atom_site_fract_y
 _atom_site_fract_z
 _atom_site_occupancy
  Zr  Zr0  1  0.70740724  0.94785034  0.60857128  1
  Zr  Zr1  1  0.37065311  0.88843050  0.66131582  1
  Zr  Zr2  1  0.58903787  0.78078982  0.92314750  1
  Zr  Zr3  1  0.62971464  0.55591876  0.45117570  1
  Zr  Zr4  1  0.76606066  0.30199445  0.65923453  1
  Zr  Zr5  1  0.42063825  0.35776907  0.03411190  1
  Zr  Zr6  1  0.60359181  -0.00727451  0.22608516  1
  Zr  Zr7  1  0.86440242  0.47004855  0.94981880  1
  Zr  Zr8  1  0.85391609  0.58443702  0.46166892  1
  Zr  Zr9  1  0.51225721  0.58255408  0.04972482  1
  Zr  Zr10  1  0.25389428  0.48485313  0.36968693  1
  Zr  Zr11  1  0.42898502  0.50638894  0.49509002  1
  Zr  Zr12  1  0.73876759  0.11244870  0.10206172  1
  Zr  Zr13  1  0.36218006  0.46444909  0.69994427  1
  Zr  Zr14  1  0.44824782  0.91421435  0.86259917  1
  Zr  Zr15  1  0.61999691  0.75393645  0.14205471  1
  Zr  Zr16  1  0.76854004  0.86988096  0.28097807  1
  Zr  Zr17  1  0.83629985  0.08333510  0.28715898  1
  Zr  Zr18  1  0.36518887  0.51070948  0.17932124  1
  Zr  Zr19  1  0.09477359  0.48650483  0.92141653  1
  Zr  Zr20  1  0.11514459  0.32907600  0.38556780  1
  Zr  Zr21  1  0.11556885  0.13578201  -0.02659222  1
  Zr  Zr22  1  0.75361654  0.45123172  0.30342242  1
  Zr  Zr23  1  0.70201265  0.90800383  0.80343830  1
  Zr  Zr24  1  0.27296274  0.89769697  0.04816803  1
  Zr  Zr25  1  0.99920124  0.36611844  0.08031494  1
  Zr  Zr26  1  0.73610852  0.63623885  0.94515433  1
  Zr  Zr27  1  0.69076842  0.74892536  0.51034629  1
  Zr  Zr28  1  0.50634117  0.15032150  0.37539857  1
  Zr  Zr29  1  0.90010489  0.94689133  0.11213047  1
  Zr  Zr30  1  0.93038852  0.16906780  0.73646210  1
  Zr  Zr31  1  0.39124684  0.07824998  0.52909460  1
  Zr  Zr32  1  0.61022266  0.25256012  1.01491224  1
  Zr  Zr33  1  0.54491074  0.58897257  0.26987822  1
  Zr  Zr34  1  0.36846053  0.68381854  0.33992470  1
  Zr  Zr35  1  0.48775128  0.19319717  0.17080589  1
  Zr  Zr36  1  0.30479543  0.23891388  0.37658062  1
  Zr  Zr37  1  0.70698950  0.91023695  0.04493627  1
  Zr  Zr38  1  0.52652223  0.91728131  0.51711339  1
  Zr  Zr39  1  0.55754178  0.60247888  0.64498641  1
  Zr  Zr40  1  0.07725529  0.87518196  0.44154703  1
  Zr  Zr41  1  0.43028601  0.93266466  0.33426499  1
  Zr  Zr42  1  0.39244555  0.73555879  0.97027990  1
  Zr  Zr43  1  0.52633349  0.04056482  0.72088272  1
  Zr  Zr44  1  0.07363851  -0.00061053  0.79293108  1
  Zr  Zr45  1  0.14370067  0.18283383  0.74288414  1
  Zr  Zr46  1  0.02605228  0.29219482  0.89223635  1
  Zr  Zr47  1  0.67504910  0.23275645  0.26774016  1
  Zr  Zr48  1  0.53360729  0.58255166  0.84182349  1
  Zr  Zr49  1  0.93305974  0.39743947  0.73285939  1
  Sc  Sc50  1  0.87577808  0.92965725  0.46730765  1
  Sc  Sc51  1  0.85677165  0.82284161  0.91150986  1
  Sc  Sc52  1  0.79799276  0.26954398  0.89294703  1
  Sc  Sc53  1  0.02567815  0.12819790  0.38059672  1
  Sc  Sc54  1  0.14046723  0.60012425  0.72890371  1
  Sc  Sc55  1  0.83735131  0.73786915  0.12332273  1
  Sc  Sc56  1  0.93339145  0.73268568  0.33986957  1
  Sc  Sc57  1  0.31533149  0.51355485  0.92473576  1
  Sc  Sc58  1  0.05895612  0.77797351  0.15662380  1
  Sc  Sc59  1  0.13870116  0.47968098  0.19304000  1
  Sc  Sc60  1  0.23229354  0.86337377  0.26073450  1
  Sc  Sc61  1  0.84235034  0.13594918  0.53285274  1
  Sc  Sc62  1  1.02908132  0.26697984  0.57670508  1
  Sc  Sc63  1  0.14762937  0.67567233  0.33577883  1
  Sc  Sc64  1  0.92740601  0.30942405  0.27757660  1
  Sc  Sc65  1  0.91180240  0.59656616  0.76395011  1
  Sc  Sc66  1  0.18089178  0.69530989  0.93359973  1
  Sc  Sc67  1  0.32195142  0.07351907  0.22887058  1
  Sc  Sc68  1  0.95046913  0.15730651  0.11240217  1
  Sc  Sc69  1  0.04694975  0.67015915  0.52756981  1
  Sc  Sc70  1  0.37088886  0.22668379  0.70370408  1
  Sc  Sc71  1  0.47514825  0.96944646  0.06798460  1
  Sc  Sc72  1  0.67664316  1.02725818  0.41568576  1
  Sc  Sc73  1  0.87992496  0.76230494  0.61224340  1
  Sc  Sc74  1  0.47491382  0.37451344  0.32946921  1
  Sc  Sc75  1  0.23627954  0.85705637  0.82873295  1
  Sc  Sc76  1  0.15815817  0.38810060  0.73023264  1
  Sc  Sc77  1  0.25945311  0.62866345  0.54937629  1
  Sc  Sc78  1  0.20906708  0.03594902  0.40985696  1
  Sc  Sc79  1  0.62726650  0.06062614  0.91921239  1
  Sc  Sc80  1  0.06592962  0.89850980  0.98013663  1
  Sc  Sc81  1  0.91953332  0.55031340  0.19240077  1
  Sc  Sc82  1  1.02420063  0.77859451  0.79313729  1
  Sc  Sc83  1  0.11853213  1.02347470  0.16581562  1
  Sc  Sc84  1  0.87172113  0.05377961  0.91688970  1
  Sc  Sc85  1  0.78582000  0.34073902  0.11054086  1
  Sc  Sc86  1  0.29256155  0.84475544  0.47463758  1
  Sc  Sc87  1  0.89616500  0.95475188  0.70450400  1
  Sc  Sc88  1  0.97653684  0.65548505  0.98190705  1
  Sc  Sc89  1  0.87896555  0.37280259  0.48260440  1
  Sc  Sc90  1  0.30300353  0.15674969  0.04942752  1
  Sc  Sc91  1  0.60131783  0.16734035  0.58130338  1
  Sc  Sc92  1  0.13997587  0.83434962  0.63526527  1
  Sc  Sc93  1  0.72236987  0.69490107  0.74159374  1
  Sc  Sc94  1  0.28706352  0.06032153  0.83749392  1
  Sc  Sc95  1  0.44996411  0.17054716  0.90017612  1
  Sc  Sc96  1  0.36667740  0.68888223  0.74553462  1
  Sc  Sc97  1  0.56574695  0.39437868  0.65325293  1
  Sc  Sc98  1  0.65186186  0.33923702  0.46330111  1
  Sc  Sc99  1  0.25233490  0.67376549  0.12981070  1
  Nb  Nb100  1  0.57437208  0.79057946  0.34514562  1
  Nb  Nb101  1  0.63924481  0.43523905  -0.03742784  1
  Nb  Nb102  1  0.24376856  0.39312919  0.54450510  1
  Nb  Nb103  1  0.05632466  0.47630263  0.56068833  1
  Nb  Nb104  1  0.71200885  0.46330773  0.79303224  1
  Nb  Nb105  1  0.73863518  0.10831815  0.74101079  1
  Nb  Nb106  1  0.61222813  0.25317877  0.79752889  1
  Nb  Nb107  1  0.19958491  0.34813750  0.03794908  1
  Nb  Nb108  1  0.71612979  0.55010989  0.12338002  1
  Nb  Nb109  1  0.47900952  0.38178292  0.84648293  1
  Nb  Nb110  1  0.04578831  0.04780658  0.57821184  1
  Nb  Nb111  1  0.46761013  0.72218010  0.51581714  1
  Nb  Nb112  1  0.55221901  0.80834673  0.69819858  1
  Nb  Nb113  1  0.42648802  0.29966648  0.52585002  1
  Nb  Nb114  1  0.42929414  0.78376671  0.17495303  1
  Nb  Nb115  1  -0.01671920  0.93430391  0.28552179  1
  Nb  Nb116  1  0.27143619  0.29385500  0.87613097  1
  Nb  Nb117  1  0.22533482  0.02083998  0.63267336  1
  Nb  Nb118  1  0.21597142  0.20092332  0.55029519  1
  Nb  Nb119  1  0.01904780  0.50619472  0.37061651  1
  Nb  Nb120  1  0.30324858  0.32062205  0.20646255  1
  Nb  Nb121  1  0.73687491  0.66210719  0.30071294  1
  Nb  Nb122  1  0.13470121  0.23486426  0.19312003  1
  Nb  Nb123  1  0.58201970  0.40452183  0.16340504  1
  Nb  Nb124  1  0.75946874  0.51380730  0.61594880  1
