# generated using pymatgen
data_Zr2Sc2Nb
_symmetry_space_group_name_H-M   'P 1'
_cell_length_a   13.61366978
_cell_length_b   14.25703808
_cell_length_c   14.75360696
_cell_angle_alpha   88.75362212
_cell_angle_beta   90.57154328
_cell_angle_gamma   90.81735156
_symmetry_Int_Tables_number   1
_chemical_formula_structural   Zr2Sc2Nb
_chemical_formula_sum   'Zr50 Sc50 Nb25'
_cell_volume   2862.43396341
_cell_formula_units_Z   25
loop_
 _symmetry_equiv_pos_site_id
 _symmetry_equiv_pos_as_xyz
  1  'x, y, z'
loop_
 _atom_site_type_symbol
 _atom_site_label
 _atom_site_symmetry_multiplicity
 _atom_site_fract_x
 _atom_site_fract_y
 _atom_site_fract_z
 _atom_site_occupancy
  Zr  Zr0  1  0.70419004  0.98173053  0.13871918  1
  Zr  Zr1  1  0.02578255  0.36627556  0.69228673  1
  Zr  Zr2  1  0.52496684  0.51502397  0.43933860  1
  Zr  Zr3  1  0.10225596  0.32068248  0.89911363  1
  Zr  Zr4  1  0.45946011  0.00228899  0.81067721  1
  Zr  Zr5  1  0.31870064  0.45532148  0.47949524  1
  Zr  Zr6  1  0.57110780  0.39501692  0.11533237  1
  Zr  Zr7  1  0.90411831  0.17534430  0.58759043  1
  Zr  Zr8  1  0.32418060  0.49205700  0.11660347  1
  Zr  Zr9  1  0.70499013  0.40756501  0.44828214  1
  Zr  Zr10  1  0.67837319  0.50254217  0.27518754  1
  Zr  Zr11  1  0.40455661  0.68799148  0.97063747  1
  Zr  Zr12  1  0.75333550  0.51053186  0.08703599  1
  Zr  Zr13  1  0.33346478  0.64091687  0.78298401  1
  Zr  Zr14  1  0.50584168  0.05934901  0.41251888  1
  Zr  Zr15  1  0.63864893  0.18447065  0.08981915  1
  Zr  Zr16  1  0.92025228  0.42893062  0.92381074  1
  Zr  Zr17  1  0.33568735  0.32257071  0.95819688  1
  Zr  Zr18  1  0.94158013  0.88397462  0.90761931  1
  Zr  Zr19  1  0.49257371  0.10441260  0.21147406  1
  Zr  Zr20  1  0.22117633  0.49065810  0.66319045  1
  Zr  Zr21  1  -0.01776682  0.71112492  0.78231090  1
  Zr  Zr22  1  1.02815061  0.36209251  0.49275282  1
  Zr  Zr23  1  0.22533498  0.27593354  0.56082053  1
  Zr  Zr24  1  0.85445304  0.25488314  0.40092298  1
  Zr  Zr25  1  0.94951112  0.44509658  0.12920321  1
  Zr  Zr26  1  0.43351350  0.42264041  0.28686985  1
  Zr  Zr27  1  0.73020656  0.65881866  0.42699695  1
  Zr  Zr28  1  0.38731213  0.27405523  0.14269265  1
  Zr  Zr29  1  0.86955219  0.85683906  0.48088193  1
  Zr  Zr30  1  0.24316394  0.68916626  0.11271098  1
  Zr  Zr31  1  0.46044393  0.43316753  0.79479190  1
  Zr  Zr32  1  0.43672553  0.54082150  0.62942771  1
  Zr  Zr33  1  0.98751639  0.86081505  0.26917174  1
  Zr  Zr34  1  0.11513960  0.56701410  0.23119685  1
  Zr  Zr35  1  0.85117099  0.68332521  0.60265009  1
  Zr  Zr36  1  0.53859912  0.91315143  0.25781366  1
  Zr  Zr37  1  0.09410461  0.16479522  0.44625509  1
  Zr  Zr38  1  0.37141760  0.80176566  0.20653399  1
  Zr  Zr39  1  0.90859216  0.64800999  0.21299863  1
  Zr  Zr40  1  0.92371123  0.04464599  0.39947307  1
  Zr  Zr41  1  0.71174517  0.90475222  0.93576826  1
  Zr  Zr42  1  0.16876781  0.72994244  0.90775069  1
  Zr  Zr43  1  0.52255987  0.70266503  0.53289868  1
  Zr  Zr44  1  0.66618513  0.20405244  0.49710456  1
  Zr  Zr45  1  0.87979701  0.09377255  0.20387524  1
  Zr  Zr46  1  0.38580619  0.84114548  0.42467659  1
  Zr  Zr47  1  0.87495438  0.25245755  0.81088716  1
  Zr  Zr48  1  0.55823477  0.63806629  0.78638321  1
  Zr  Zr49  1  0.86285853  0.05532688  0.77059009  1
  Sc  Sc50  1  0.03528141  0.57990810  0.61531353  1
  Sc  Sc51  1  0.30459877  0.07435639  0.48803067  1
  Sc  Sc52  1  0.25326196  0.08084133  0.88048389  1
  Sc  Sc53  1  0.67015772  0.53821698  0.62620796  1
  Sc  Sc54  1  0.50153164  0.60562641  0.15258696  1
  Sc  Sc55  1  0.35651748  0.88212687  -0.00179146  1
  Sc  Sc56  1  0.83883362  0.83035901  0.09217536  1
  Sc  Sc57  1  0.54964588  0.34568619  0.61302409  1
  Sc  Sc58  1  0.10558135  0.06566645  0.24822945  1
  Sc  Sc59  1  0.04224818  0.76396516  0.07931165  1
  Sc  Sc60  1  0.11891797  0.55677248  0.43706550  1
  Sc  Sc61  1  0.04215467  -0.00240469  0.59296112  1
  Sc  Sc62  1  0.18154710  0.75110202  0.34014026  1
  Sc  Sc63  1  0.46834435  0.21783427  0.78014836  1
  Sc  Sc64  1  0.03180334  0.09062751  0.90837924  1
  Sc  Sc65  1  0.15821077  0.36030372  0.11000692  1
  Sc  Sc66  1  0.52772382  0.70179047  0.32778644  1
  Sc  Sc67  1  0.96489913  0.23797976  0.05493033  1
  Sc  Sc68  1  0.18209987  0.15081938  0.06641528  1
  Sc  Sc69  1  0.43328316  0.26863558  0.44928398  1
  Sc  Sc70  1  0.26128679  0.30537446  0.76062997  1
  Sc  Sc71  1  0.28547417  0.18488046  0.30130205  1
  Sc  Sc72  1  0.65385944  0.68186175  -0.01604865  1
  Sc  Sc73  1  0.49624528  0.94015486  0.58113841  1
  Sc  Sc74  1  0.91278452  0.46812927  0.33007629  1
  Sc  Sc75  1  0.65469172  0.95464259  0.73969367  1
  Sc  Sc76  1  0.28098952  0.67446699  0.53420800  1
  Sc  Sc77  1  1.02008541  0.26850160  0.26640997  1
  Sc  Sc78  1  0.69740107  0.70376998  0.19464040  1
  Sc  Sc79  1  0.69372242  0.49937545  0.89077454  1
  Sc  Sc80  1  0.73207776  0.01144432  0.55416785  1
  Sc  Sc81  1  0.88500763  0.87607034  0.68757253  1
  Sc  Sc82  1  0.29178967  0.07870016  0.68526200  1
  Sc  Sc83  1  0.82556058  0.08811526  0.98857791  1
  Sc  Sc84  1  0.08393749  0.16002062  0.72153717  1
  Sc  Sc85  1  0.79192289  0.30835985  0.19579963  1
  Sc  Sc86  1  0.70701108  0.07084115  0.33366111  1
  Sc  Sc87  1  0.75328949  0.73721515  0.80135968  1
  Sc  Sc88  1  0.77681568  0.85847990  0.30203775  1
  Sc  Sc89  1  0.64725162  0.13181775  0.88144351  1
  Sc  Sc90  1  0.20322827  0.38457958  0.32402945  1
  Sc  Sc91  1  0.85872936  0.50436030  0.74043772  1
  Sc  Sc92  1  0.12949643  0.93714511  0.41618742  1
  Sc  Sc93  1  0.26580881  0.50068590  0.90739279  1
  Sc  Sc94  1  0.42983778  0.14381682  0.98489626  1
  Sc  Sc95  1  0.24876078  0.88569940  0.60167653  1
  Sc  Sc96  1  0.43891269  0.79088435  0.69364889  1
  Sc  Sc97  1  0.88954569  0.64248231  -0.03170346  1
  Sc  Sc98  1  0.60069184  0.27518840  0.30031774  1
  Sc  Sc99  1  0.09194493  0.55212675  0.01701487  1
  Nb  Nb100  1  0.29118748  0.86770865  0.81255197  1
  Nb  Nb101  1  0.55577108  0.32005282  0.94267454  1
  Nb  Nb102  1  0.68962915  0.17198596  0.68905223  1
  Nb  Nb103  1  0.15583930  0.92676454  0.98445344  1
  Nb  Nb104  1  0.10005018  0.91687206  0.77683887  1
  Nb  Nb105  1  0.67794576  0.79433929  0.61286527  1
  Nb  Nb106  1  0.05660496  0.77814086  0.55155360  1
  Nb  Nb107  1  0.55235552  0.81585403  0.08673383  1
  Nb  Nb108  1  0.18024857  0.89166823  0.17519522  1
  Nb  Nb109  1  0.32762268  0.59694768  0.31516762  1
  Nb  Nb110  1  0.62534954  0.86593001  0.43768975  1
  Nb  Nb111  1  0.33145559  0.01953558  0.12659275  1
  Nb  Nb112  1  0.50113658  0.13020355  0.60876004  1
  Nb  Nb113  1  0.52725743  0.82493784  0.87625356  1
  Nb  Nb114  1  0.87357914  0.50191244  0.51876906  1
  Nb  Nb115  1  0.54033953  0.99155606  0.02183415  1
  Nb  Nb116  1  0.76030752  0.31284015  0.98428974  1
  Nb  Nb117  1  0.31659382  0.97779740  0.30698312  1
  Nb  Nb118  1  0.48936185  0.51142915  0.96709778  1
  Nb  Nb119  1  0.08409780  0.53664811  0.81143012  1
  Nb  Nb120  1  0.68097010  0.33973136  0.78271442  1
  Nb  Nb121  1  0.16867365  0.72202710  0.70532626  1
  Nb  Nb122  1  -0.00139445  0.98514453  0.08670031  1
  Nb  Nb123  1  0.80101766  0.34000520  0.61669122  1
  Nb  Nb124  1  0.95219195  0.68256520  0.40662618  1
