# generated using pymatgen
data_Zr2Sc2Nb
_symmetry_space_group_name_H-M   'P 1'
_cell_length_a   14.27681352
_cell_length_b   14.19326064
_cell_length_c   14.13286145
_cell_angle_alpha   90.23908067
_cell_angle_beta   89.77133355
_cell_angle_gamma   89.65616537
_symmetry_Int_Tables_number   1
_chemical_formula_structural   Zr2Sc2Nb
_chemical_formula_sum   'Zr50 Sc50 Nb25'
_cell_volume   2863.70622159
_cell_formula_units_Z   25
loop_
 _symmetry_equiv_pos_site_id
 _symmetry_equiv_pos_as_xyz
  1  'x, y, z'
loop_
 _atom_site_type_symbol
 _atom_site_label
 _atom_site_symmetry_multiplicity
 _atom_site_fract_x
 _atom_site_fract_y
 _atom_site_fract_z
 _atom_site_occupancy
  Zr  Zr0  1  0.13791602  0.79687518  0.52446832  1
  Zr  Zr1  1  0.13991447  0.97588194  0.67465511  1
  Zr  Zr2  1  0.54245814  0.69697615  0.38236561  1
  Zr  Zr3  1  0.69749233  0.87139897  0.33862976  1
  Zr  Zr4  1  0.30034174  0.90849100  0.17142999  1
  Zr  Zr5  1  0.73997388  0.36804552  0.10400165  1
  Zr  Zr6  1  0.89010839  0.80165409  0.47944166  1
  Zr  Zr7  1  0.15118162  0.84959868  0.31787864  1
  Zr  Zr8  1  0.94562118  0.90783679  0.64158211  1
  Zr  Zr9  1  0.64124537  0.38298042  0.70319273  1
  Zr  Zr10  1  0.94944220  0.36346220  0.09736514  1
  Zr  Zr11  1  0.50898676  0.41789451  0.04031889  1
  Zr  Zr12  1  0.59938516  0.53271731  0.84045582  1
  Zr  Zr13  1  0.45614753  0.87103764  0.83413667  1
  Zr  Zr14  1  0.34784100  0.28294430  0.09592426  1
  Zr  Zr15  1  0.73079982  0.19948740  0.44037727  1
  Zr  Zr16  1  0.43076062  0.36065433  0.26520554  1
  Zr  Zr17  1  0.69357959  0.56037064  0.28309864  1
  Zr  Zr18  1  0.32733391  0.00448394  0.36325860  1
  Zr  Zr19  1  0.46370350  0.25120531  0.72079161  1
  Zr  Zr20  1  0.64746042  0.76360359  0.75588410  1
  Zr  Zr21  1  0.24099484  0.46604563  0.76157811  1
  Zr  Zr22  1  0.26657030  0.28143450  0.65619007  1
  Zr  Zr23  1  0.22422161  0.09910270  0.52470081  1
  Zr  Zr24  1  0.14243056  0.97885924  0.88561447  1
  Zr  Zr25  1  0.90654386  0.23221863  0.92771757  1
  Zr  Zr26  1  0.21020571  0.70489446  0.12992311  1
  Zr  Zr27  1  0.36428749  0.55614986  0.35968765  1
  Zr  Zr28  1  0.55853041  0.28868369  0.53161683  1
  Zr  Zr29  1  0.29202558  0.50864530  0.16897596  1
  Zr  Zr30  1  -0.01434938  0.15866655  0.14710345  1
  Zr  Zr31  1  0.35834716  0.67171579  0.52632930  1
  Zr  Zr32  1  0.93141637  0.13858482  0.38399051  1
  Zr  Zr33  1  0.76372753  0.73774991  0.02520944  1
  Zr  Zr34  1  0.93161133  0.01517613  -0.01843648  1
  Zr  Zr35  1  0.87475503  0.84806084  0.85624811  1
  Zr  Zr36  1  0.22499116  0.66175366  0.68380967  1
  Zr  Zr37  1  0.54079326  0.95095171  0.66460739  1
  Zr  Zr38  1  0.15497169  0.33577846  0.12865531  1
  Zr  Zr39  1  0.42066728  0.62405931  0.03131680  1
  Zr  Zr40  1  0.48754851  0.87223971  0.05620646  1
  Zr  Zr41  1  0.18422135  0.63986464  0.34941458  1
  Zr  Zr42  1  0.43275930  0.48519264  0.64105633  1
  Zr  Zr43  1  0.85772823  0.43114853  0.30830579  1
  Zr  Zr44  1  0.32686293  0.06044319  0.74672385  1
  Zr  Zr45  1  0.54192508  0.07593386  0.82487461  1
  Zr  Zr46  1  0.96049833  0.67027211  0.96307576  1
  Zr  Zr47  1  0.43065557  0.09676946  0.17271232  1
  Zr  Zr48  1  0.02991777  0.30563856  0.29793850  1
  Zr  Zr49  1  0.83753781  0.49806808  0.66890587  1
  Sc  Sc50  1  0.11694460  0.07288287  0.31725612  1
  Sc  Sc51  1  0.04775573  0.38566449  0.66444090  1
  Sc  Sc52  1  0.74849687  0.94511723  0.68748339  1
  Sc  Sc53  1  0.01949198  0.48255185  0.44655360  1
  Sc  Sc54  1  0.35929179  0.33809109  0.47634915  1
  Sc  Sc55  1  1.01063709  0.63994896  0.58930217  1
  Sc  Sc56  1  0.84449968  0.27265727  0.72163627  1
  Sc  Sc57  1  0.43918815  0.10404697  0.55752795  1
  Sc  Sc58  1  0.67062598  0.91834986  0.91065019  1
  Sc  Sc59  1  0.49980138  0.16891663  0.36049986  1
  Sc  Sc60  1  0.07512180  0.37713736  0.89460056  1
  Sc  Sc61  1  0.72464792  0.42100955  0.49734871  1
  Sc  Sc62  1  0.47222554  0.22342058  0.94782330  1
  Sc  Sc63  1  0.81775339  0.73073991  0.24980970  1
  Sc  Sc64  1  0.22138953  0.11122999  0.13110183  1
  Sc  Sc65  1  0.66376142  0.55677168  0.05477446  1
  Sc  Sc66  1  0.63095899  0.59764886  0.61566208  1
  Sc  Sc67  1  0.67914848  0.80302718  0.54127609  1
  Sc  Sc68  1  0.11058006  0.18636128  0.76908191  1
  Sc  Sc69  1  0.81389407  0.60806330  0.46846612  1
  Sc  Sc70  1  0.87423453  0.56290791  0.13050744  1
  Sc  Sc71  1  0.29749025  0.81318545  0.97204770  1
  Sc  Sc72  1  0.66276367  0.08183029  0.26156617  1
  Sc  Sc73  1  0.27463636  0.21756866  0.31353943  1
  Sc  Sc74  1  0.49492932  0.88600863  0.46616312  1
  Sc  Sc75  1  0.06245424  0.78152775  0.77116505  1
  Sc  Sc76  1  0.35438770  0.03489197  0.96565175  1
  Sc  Sc77  1  0.70226202  0.91568937  0.12401957  1
  Sc  Sc78  1  0.32331294  0.89799439  0.57807258  1
  Sc  Sc79  1  0.76321045  0.14355928  0.06034084  1
  Sc  Sc80  1  0.57467424  0.72007899  -0.05730811  1
  Sc  Sc81  1  0.02280017  0.14976879  0.59193916  1
  Sc  Sc82  1  0.64058644  0.34844644  0.30175701  1
  Sc  Sc83  1  0.08194242  0.95032078  0.13059111  1
  Sc  Sc84  1  0.90133528  0.31519639  0.51000937  1
  Sc  Sc85  1  0.28270957  0.25966306  0.87303498  1
  Sc  Sc86  1  0.01989122  0.56453164  0.78969989  1
  Sc  Sc87  1  0.95445742  0.88618159  0.30178534  1
  Sc  Sc88  1  0.66072416  0.29349839  0.90284754  1
  Sc  Sc89  1  0.75949000  0.10109424  0.83741521  1
  Sc  Sc90  1  0.53569148  0.48720549  0.43973202  1
  Sc  Sc91  1  0.10225561  0.17278735  0.97538758  1
  Sc  Sc92  1  0.78720136  0.62847512  0.83969617  1
  Sc  Sc93  1  0.28907852  0.46070755  0.96435716  1
  Sc  Sc94  1  0.13401246  0.28911085  0.47943088  1
  Sc  Sc95  1  0.83971560  0.43932926  0.90630508  1
  Sc  Sc96  1  0.50387097  0.91014699  0.25864461  1
  Sc  Sc97  1  0.21610805  0.49493747  0.53940485  1
  Sc  Sc98  1  0.39920328  0.63712964  0.81344670  1
  Sc  Sc99  1  0.09736356  0.53727523  1.04039694  1
  Nb  Nb100  1  0.99492673  0.67652395  0.36532129  1
  Nb  Nb101  1  0.81520705  0.23728690  0.24138174  1
  Nb  Nb102  1  0.85759081  0.02410652  0.21432699  1
  Nb  Nb103  1  0.47006375  0.75408211  0.65356474  1
  Nb  Nb104  1  0.59878918  0.72633509  0.17378770  1
  Nb  Nb105  1  0.65171816  0.15584538  0.65759896  1
  Nb  Nb106  1  0.90617727  0.84964442  0.08827481  1
  Nb  Nb107  1  0.82101992  0.98657248  0.44024850  1
  Nb  Nb108  1  0.51257773  0.54155480  0.21329669  1
  Nb  Nb109  1  0.64061337  0.03221015  0.49445836  1
  Nb  Nb110  1  0.83533906  0.09949038  0.59457642  1
  Nb  Nb111  1  0.95302760  0.05559146  0.78073604  1
  Nb  Nb112  1  0.08269093  0.81218312  0.98051931  1
  Nb  Nb113  1  0.05713935  0.51496657  0.23800361  1
  Nb  Nb114  1  0.27150388  0.83339299  0.76928290  1
  Nb  Nb115  1  0.83731923  0.72206049  0.67066014  1
  Nb  Nb116  1  1.02388468  0.71681462  0.17346037  1
  Nb  Nb117  1  0.03463620  0.97570662  0.47821084  1
  Nb  Nb118  1  0.44545614  0.41056021  0.83475771  1
  Nb  Nb119  1  0.33410578  0.79464887  0.36952386  1
  Nb  Nb120  1  0.20796546  0.41898845  0.33014129  1
  Nb  Nb121  1  0.57833175  0.24096294  0.13528055  1
  Nb  Nb122  1  0.57356561  0.06443923  1.03690086  1
  Nb  Nb123  1  0.19309639  0.65272381  0.89438233  1
  Nb  Nb124  1  0.40015587  0.71692072  0.20949822  1
