# generated using pymatgen
data_Zr2Sc2Nb
_symmetry_space_group_name_H-M   'P 1'
_cell_length_a   14.31642409
_cell_length_b   13.78223429
_cell_length_c   14.53873026
_cell_angle_alpha   89.84290093
_cell_angle_beta   87.96637323
_cell_angle_gamma   89.77588772
_symmetry_Int_Tables_number   1
_chemical_formula_structural   Zr2Sc2Nb
_chemical_formula_sum   'Zr50 Sc50 Nb25'
_cell_volume   2866.83204441
_cell_formula_units_Z   25
loop_
 _symmetry_equiv_pos_site_id
 _symmetry_equiv_pos_as_xyz
  1  'x, y, z'
loop_
 _atom_site_type_symbol
 _atom_site_label
 _atom_site_symmetry_multiplicity
 _atom_site_fract_x
 _atom_site_fract_y
 _atom_site_fract_z
 _atom_site_occupancy
  Zr  Zr0  1  0.63248534  0.59714738  -0.00796245  1
  Zr  Zr1  1  0.12701087  0.85348626  0.26412755  1
  Zr  Zr2  1  0.16421558  0.31506309  0.06372026  1
  Zr  Zr3  1  0.32922397  0.69671140  0.81775129  1
  Zr  Zr4  1  0.27158757  0.22204639  0.61784376  1
  Zr  Zr5  1  0.98456090  0.74916186  0.38389765  1
  Zr  Zr6  1  0.56244411  0.31560440  0.19241436  1
  Zr  Zr7  1  0.97468902  0.27958743  0.08665292  1
  Zr  Zr8  1  0.73488108  0.15453030  0.87042481  1
  Zr  Zr9  1  0.55422135  0.49638038  0.57212212  1
  Zr  Zr10  1  0.86453290  0.43179102  0.44100580  1
  Zr  Zr11  1  0.72669677  0.14992802  0.46264578  1
  Zr  Zr12  1  -0.00044742  -0.00764085  0.34475640  1
  Zr  Zr13  1  0.03630585  0.07508014  0.16741323  1
  Zr  Zr14  1  0.54000919  0.29615897  0.41294782  1
  Zr  Zr15  1  0.61516354  0.37889156  0.97267972  1
  Zr  Zr16  1  0.11400147  0.82818639  0.71028966  1
  Zr  Zr17  1  0.80867869  0.02596447  0.25751142  1
  Zr  Zr18  1  0.38401489  0.84993155  0.20390454  1
  Zr  Zr19  1  0.84440659  0.65059146  0.49612232  1
  Zr  Zr20  1  0.26245413  0.45564961  0.35731784  1
  Zr  Zr21  1  0.36679507  0.49219211  0.71529149  1
  Zr  Zr22  1  0.46205820  -0.01707567  0.05826277  1
  Zr  Zr23  1  0.21679732  0.95984083  0.10408700  1
  Zr  Zr24  1  0.79397984  0.96347528  0.75775616  1
  Zr  Zr25  1  0.63890015  0.13714053  0.28567258  1
  Zr  Zr26  1  0.45106221  0.11490941  0.23240986  1
  Zr  Zr27  1  0.13187643  0.33643647  0.49067042  1
  Zr  Zr28  1  0.49610506  0.49306970  0.33328760  1
  Zr  Zr29  1  0.63787239  0.94223229  0.40701348  1
  Zr  Zr30  1  0.12159867  0.69834563  0.91710629  1
  Zr  Zr31  1  0.19480536  0.67211030  0.37014037  1
  Zr  Zr32  1  0.61539570  0.90662605  0.21251978  1
  Zr  Zr33  1  0.67282592  0.33328508  0.76530016  1
  Zr  Zr34  1  0.06910463  0.49828321  0.01981894  1
  Zr  Zr35  1  0.05312397  0.67998784  0.56638136  1
  Zr  Zr36  1  0.50741893  0.75969155  0.36767019  1
  Zr  Zr37  1  0.99234611  0.49634110  0.82979086  1
  Zr  Zr38  1  0.85190539  0.57806285  0.28806381  1
  Zr  Zr39  1  0.05483264  0.30049627  0.87598668  1
  Zr  Zr40  1  0.76091184  0.77093721  0.89715252  1
  Zr  Zr41  1  0.55263058  0.73032941  0.84961944  1
  Zr  Zr42  1  0.70640783  0.33025208  0.55786441  1
  Zr  Zr43  1  0.95152220  0.90276187  0.86401874  1
  Zr  Zr44  1  0.89919494  0.84017063  0.59681992  1
  Zr  Zr45  1  0.36028579  0.33001496  0.22695734  1
  Zr  Zr46  1  0.15596803  0.60995843  0.73543438  1
  Zr  Zr47  1  0.77595063  0.53793630  0.85368960  1
  Zr  Zr48  1  0.47140101  0.21432634  0.03698102  1
  Zr  Zr49  1  0.15621826  0.91576118  0.88475303  1
  Sc  Sc50  1  0.41232785  0.09278341  0.72309366  1
  Sc  Sc51  1  0.04619167  0.52774141  0.40581452  1
  Sc  Sc52  1  0.36707371  0.39300722  0.51668412  1
  Sc  Sc53  1  0.16289583  0.39013771  0.70067537  1
  Sc  Sc54  1  0.21445423  0.72510823  0.13051975  1
  Sc  Sc55  1  0.88054377  0.34170117  0.71998393  1
  Sc  Sc56  1  0.46922294  0.32556824  0.83026120  1
  Sc  Sc57  1  0.51646801  0.08601819  0.52487785  1
  Sc  Sc58  1  0.26674160  0.25798940  0.84150656  1
  Sc  Sc59  1  0.34880107  0.37892681  1.00697996  1
  Sc  Sc60  1  0.30499418  0.82869364  -0.02461714  1
  Sc  Sc61  1  0.89149082  0.82650736  0.22320882  1
  Sc  Sc62  1  0.20948445  0.53648359  0.55118712  1
  Sc  Sc63  1  0.50127256  0.28245635  0.63214356  1
  Sc  Sc64  1  0.11352382  0.88619586  0.49586124  1
  Sc  Sc65  1  1.02763509  0.86622873  0.05994663  1
  Sc  Sc66  1  0.67816047  0.49897858  0.20169560  1
  Sc  Sc67  1  0.46271830  0.50467901  0.11504018  1
  Sc  Sc68  1  0.47546001  0.69167574  0.65846427  1
  Sc  Sc69  1  0.56375349  0.91431026  0.70220324  1
  Sc  Sc70  1  0.76403463  0.27328546  0.13453934  1
  Sc  Sc71  1  0.64699780  0.74608861  0.52181625  1
  Sc  Sc72  1  0.29599039  1.00314555  0.53914292  1
  Sc  Sc73  1  0.85406145  0.48612992  0.07294656  1
  Sc  Sc74  1  0.84118979  0.33021927  0.92598301  1
  Sc  Sc75  1  0.11020743  0.11804769  0.49167064  1
  Sc  Sc76  1  0.92367454  0.67624655  0.97983153  1
  Sc  Sc77  1  0.88257673  0.10313522  0.01721249  1
  Sc  Sc78  1  0.27686552  0.15495927  0.12797437  1
  Sc  Sc79  1  0.92957934  0.25386271  0.51393372  1
  Sc  Sc80  1  0.93379464  0.68883040  0.75427625  1
  Sc  Sc81  1  0.33329098  0.19928134  0.40927417  1
  Sc  Sc82  1  0.02758817  0.64269280  0.18484407  1
  Sc  Sc83  1  0.32663467  0.89456410  0.72563649  1
  Sc  Sc84  1  0.01147101  0.41547096  0.23648957  1
  Sc  Sc85  1  0.32085034  0.06624379  0.92615052  1
  Sc  Sc86  1  0.79533828  0.91457400  0.04679147  1
  Sc  Sc87  1  -0.00163523  0.01390168  0.66059029  1
  Sc  Sc88  1  0.75982633  0.70224384  0.11926453  1
  Sc  Sc89  1  0.72188914  0.73598670  0.70434076  1
  Sc  Sc90  1  0.76933816  0.51999684  0.64002045  1
  Sc  Sc91  1  0.38991333  0.62213057  0.47277492  1
  Sc  Sc92  1  0.90251957  0.21675064  0.30598912  1
  Sc  Sc93  1  0.13860136  0.23912072  0.28686592  1
  Sc  Sc94  1  0.21941131  0.50019986  0.17044443  1
  Sc  Sc95  1  0.17074779  0.08049217  0.75222153  1
  Sc  Sc96  1  0.23705094  0.02710133  0.31636508  1
  Sc  Sc97  1  0.56156498  0.68176836  0.19248212  1
  Sc  Sc98  1  0.10217745  0.11080999  0.97058070  1
  Sc  Sc99  1  0.65033190  0.08920884  0.07073082  1
  Nb  Nb100  1  0.82042577  0.86971638  0.41759231  1
  Nb  Nb101  1  0.21786251  0.47001630  0.87746293  1
  Nb  Nb102  1  0.45320056  0.86310260  0.53396598  1
  Nb  Nb103  1  0.71650725  0.72790128  0.32556690  1
  Nb  Nb104  1  0.43985187  0.71055975  0.03565283  1
  Nb  Nb105  1  0.26736736  0.75136323  0.58611653  1
  Nb  Nb106  1  0.99608458  0.47537750  0.60730632  1
  Nb  Nb107  1  0.45864222  0.90519222  0.87929871  1
  Nb  Nb108  1  0.72254627  0.96576255  0.57915227  1
  Nb  Nb109  1  0.94258231  0.13365237  0.81932411  1
  Nb  Nb110  1  0.72157616  0.34263418  0.33713973  1
  Nb  Nb111  1  0.28516898  0.59329658  0.99705551  1
  Nb  Nb112  1  0.64526809  0.95660860  0.89382051  1
  Nb  Nb113  1  0.63400069  0.12352521  0.69664509  1
  Nb  Nb114  1  0.04663468  0.22850192  0.66970943  1
  Nb  Nb115  1  0.44878445  0.53749227  0.90053039  1
  Nb  Nb116  1  0.89123157  0.04172792  0.49273060  1
  Nb  Nb117  1  0.58804824  0.52758733  0.77213327  1
  Nb  Nb118  1  0.59854384  0.82434524  1.03132948  1
  Nb  Nb119  1  0.30782474  0.82778707  0.40035399  1
  Nb  Nb120  1  0.67829155  0.53366704  0.41894555  1
  Nb  Nb121  1  0.53461026  0.11811586  0.87602754  1
  Nb  Nb122  1  0.36147571  0.64273041  0.25195792  1
  Nb  Nb123  1  0.82127374  0.14996439  0.65963512  1
  Nb  Nb124  1  0.44266843  0.97554128  0.36572551  1
