# generated using pymatgen
data_Zr2Sc2Nb
_symmetry_space_group_name_H-M   'P 1'
_cell_length_a   14.21469647
_cell_length_b   13.93040534
_cell_length_c   14.49965170
_cell_angle_alpha   92.27921072
_cell_angle_beta   91.90056451
_cell_angle_gamma   90.38733469
_symmetry_Int_Tables_number   1
_chemical_formula_structural   Zr2Sc2Nb
_chemical_formula_sum   'Zr50 Sc50 Nb25'
_cell_volume   2867.22658926
_cell_formula_units_Z   25
loop_
 _symmetry_equiv_pos_site_id
 _symmetry_equiv_pos_as_xyz
  1  'x, y, z'
loop_
 _atom_site_type_symbol
 _atom_site_label
 _atom_site_symmetry_multiplicity
 _atom_site_fract_x
 _atom_site_fract_y
 _atom_site_fract_z
 _atom_site_occupancy
  Zr  Zr0  1  0.73759484  0.27060833  0.55126265  1
  Zr  Zr1  1  0.14534119  0.83613694  0.19045478  1
  Zr  Zr2  1  0.92592458  0.11588832  0.84447302  1
  Zr  Zr3  1  0.59059109  0.71452405  0.58424217  1
  Zr  Zr4  1  0.94318796  0.64429598  0.67460359  1
  Zr  Zr5  1  0.85946736  0.90998367  0.91326696  1
  Zr  Zr6  1  0.53552421  0.45812074  0.93333015  1
  Zr  Zr7  1  0.15168677  0.67260220  0.59269061  1
  Zr  Zr8  1  0.29055536  0.94900703  0.33907225  1
  Zr  Zr9  1  0.28135766  0.67781567  0.25584914  1
  Zr  Zr10  1  0.05050564  0.28729431  0.79041628  1
  Zr  Zr11  1  0.72693294  0.08149292  0.83646468  1
  Zr  Zr12  1  0.07176280  0.45843172  0.49304631  1
  Zr  Zr13  1  0.42894694  0.99467018  0.69379310  1
  Zr  Zr14  1  0.64766391  0.60135926  0.08112372  1
  Zr  Zr15  1  0.07128009  0.95391384  0.84057448  1
  Zr  Zr16  1  0.32274407  0.19796728  0.08494088  1
  Zr  Zr17  1  0.58185523  0.83242018  0.08188654  1
  Zr  Zr18  1  0.95852667  0.50882196  0.26840952  1
  Zr  Zr19  1  0.72219481  0.58960019  0.72168521  1
  Zr  Zr20  1  0.63489501  0.95707268  0.68086960  1
  Zr  Zr21  1  0.07989313  0.65880628  0.37837851  1
  Zr  Zr22  1  0.89372637  0.54203766  0.04770260  1
  Zr  Zr23  1  0.16801157  0.27416114  0.58551887  1
  Zr  Zr24  1  0.94761303  0.33193831  0.96305869  1
  Zr  Zr25  1  0.85578471  0.33607911  0.39762607  1
  Zr  Zr26  1  0.50675459  0.29555472  0.52343418  1
  Zr  Zr27  1  0.87506819  0.55928124  0.44179772  1
  Zr  Zr28  1  0.18206840  0.33255970  -0.02418467  1
  Zr  Zr29  1  0.26965920  0.86781241  0.77636844  1
  Zr  Zr30  1  0.87069181  0.15207324  0.25114744  1
  Zr  Zr31  1  0.86625921  0.74866237  0.37417040  1
  Zr  Zr32  1  0.08938681  0.52576002  0.92560916  1
  Zr  Zr33  1  0.74156020  0.88170209  0.50232765  1
  Zr  Zr34  1  0.73988195  0.79640140  0.75053727  1
  Zr  Zr35  1  0.50414760  0.43480869  0.14332285  1
  Zr  Zr36  1  0.46411274  0.51119940  0.55055569  1
  Zr  Zr37  1  0.06170498  0.30627181  0.31696003  1
  Zr  Zr38  1  0.65793579  0.03439371  0.25046606  1
  Zr  Zr39  1  0.02252330  0.97831568  0.08258967  1
  Zr  Zr40  1  0.22774674  0.69890716  -0.00997937  1
  Zr  Zr41  1  1.02149097  0.10342309  0.66078974  1
  Zr  Zr42  1  0.85321885  0.45951695  0.61722609  1
  Zr  Zr43  1  0.23153108  0.03189715  0.14042392  1
  Zr  Zr44  1  0.21706029  0.09063528  0.71710800  1
  Zr  Zr45  1  0.63531082  0.68580480  0.89931514  1
  Zr  Zr46  1  0.70610564  0.44052513  0.28044199  1
  Zr  Zr47  1  0.10535375  0.88972089  0.63222408  1
  Zr  Zr48  1  0.65743513  0.65200175  0.38206232  1
  Zr  Zr49  1  0.09737520  0.61871555  0.14057351  1
  Sc  Sc50  1  0.07062365  0.05734734  0.28599398  1
  Sc  Sc51  1  0.39912349  0.20217158  0.69931833  1
  Sc  Sc52  1  0.01668566  0.77432879  1.00043180  1
  Sc  Sc53  1  0.27492500  0.64598992  0.77785984  1
  Sc  Sc54  1  0.28484246  0.51060600  0.09493140  1
  Sc  Sc55  1  0.88710293  0.13194774  0.04738516  1
  Sc  Sc56  1  0.66537037  0.07066149  0.03926075  1
  Sc  Sc57  1  0.36841210  0.49265856  0.29978684  1
  Sc  Sc58  1  0.09983114  0.48388198  0.70610617  1
  Sc  Sc59  1  0.80886645  0.09132552  0.63518761  1
  Sc  Sc60  1  0.15357991  0.06303692  0.49464181  1
  Sc  Sc61  1  0.87376661  0.66564948  0.87327911  1
  Sc  Sc62  1  0.08888888  0.87150069  0.40059231  1
  Sc  Sc63  1  0.08576872  0.73723145  0.80846283  1
  Sc  Sc64  1  0.74362420  0.46689307  0.89314568  1
  Sc  Sc65  1  0.47932497  0.88541791  0.50348553  1
  Sc  Sc66  1  0.50650699  0.80537564  0.76374714  1
  Sc  Sc67  1  0.88540874  0.94498909  0.30610308  1
  Sc  Sc68  1  0.25626371  0.16676498  0.31927220  1
  Sc  Sc69  1  0.11784125  0.13000155  0.95361856  1
  Sc  Sc70  1  0.90332093  0.89997578  0.69654148  1
  Sc  Sc71  1  0.58722062  0.08220529  0.50998134  1
  Sc  Sc72  1  0.44014456  0.65413483  0.99853757  1
  Sc  Sc73  1  0.30923430  0.06100030  0.90653700  1
  Sc  Sc74  1  0.67688362  0.48324077  0.50471952  1
  Sc  Sc75  1  0.38911428  0.27799195  0.90581311  1
  Sc  Sc76  1  0.50478353  0.64318329  0.21890321  1
  Sc  Sc77  1  0.46895752  0.07392336  0.32923982  1
  Sc  Sc78  1  0.80172859  0.93767182  0.11185251  1
  Sc  Sc79  1  0.93676087  0.75867652  0.18507192  1
  Sc  Sc80  1  0.36035786  0.11244681  0.51096838  1
  Sc  Sc81  1  0.27549342  0.77124199  0.43468046  1
  Sc  Sc82  1  0.51849976  0.07957583  0.87152667  1
  Sc  Sc83  1  0.31715955  0.48479598  0.88462907  1
  Sc  Sc84  1  0.37048825  0.71565723  0.60992884  1
  Sc  Sc85  1  0.46309263  0.02868068  0.11025896  1
  Sc  Sc86  1  0.87884137  0.33950678  0.16202859  1
  Sc  Sc87  1  0.49439768  0.84733817  0.29945306  1
  Sc  Sc88  1  0.41883627  0.87178534  0.93803710  1
  Sc  Sc89  1  0.30187770  0.35561207  0.44056225  1
  Sc  Sc90  1  -0.02502522  0.16916649  0.45483072  1
  Sc  Sc91  1  0.54056060  0.24436746  0.04877726  1
  Sc  Sc92  1  0.70391587  0.80300026  0.24359674  1
  Sc  Sc93  1  0.46267071  0.27014441  0.26187534  1
  Sc  Sc94  1  0.77482562  0.09057589  0.42173276  1
  Sc  Sc95  1  0.63343009  0.40033355  0.69168490  1
  Sc  Sc96  1  0.35155709  0.83409484  0.13339860  1
  Sc  Sc97  1  0.24605403  0.33574970  0.20380670  1
  Sc  Sc98  1  0.49088983  0.58622642  0.75763091  1
  Sc  Sc99  1  0.80880577  0.28518447  0.76665278  1
  Nb  Nb100  1  0.93917204  0.96759073  0.50419594  1
  Nb  Nb101  1  0.92525166  0.46760284  0.80405295  1
  Nb  Nb102  1  0.26856845  0.56619587  0.46403421  1
  Nb  Nb103  1  0.95937111  0.30344006  0.61148071  1
  Nb  Nb104  1  0.64306201  0.24763894  0.36902632  1
  Nb  Nb105  1  0.45348747  0.66059080  0.41677441  1
  Nb  Nb106  1  0.78304913  0.69187856  0.56275445  1
  Nb  Nb107  1  0.60283187  0.18027836  0.68987311  1
  Nb  Nb108  1  0.23997497  0.32325242  0.76729252  1
  Nb  Nb109  1  0.16401036  0.49371843  0.30095636  1
  Nb  Nb110  1  0.59774583  0.28108581  0.85243022  1
  Nb  Nb111  1  0.69251345  0.23675052  0.18796703  1
  Nb  Nb112  1  0.53570655  0.44829780  0.36929418  1
  Nb  Nb113  1  0.96564440  0.76923534  0.53453213  1
  Nb  Nb114  1  0.28339857  0.92072021  0.57179952  1
  Nb  Nb115  1  0.70109332  0.41015238  0.07915348  1
  Nb  Nb116  1  0.07855786  0.20803842  0.13734051  1
  Nb  Nb117  1  0.07120727  0.41576934  0.11954122  1
  Nb  Nb118  1  0.74858566  0.25618464  0.97356776  1
  Nb  Nb119  1  0.44069201  0.38824300  0.73539332  1
  Nb  Nb120  1  0.64842566  0.89671846  0.91058302  1
  Nb  Nb121  1  0.78008091  0.74544446  0.03674870  1
  Nb  Nb122  1  0.79143491  0.60587046  0.21431732  1
  Nb  Nb123  1  0.19816997  0.89669484  0.98326538  1
  Nb  Nb124  1  0.28837852  0.47234519  0.63772983  1
