# generated using pymatgen
data_Zr2Sc2Nb
_symmetry_space_group_name_H-M   'P 1'
_cell_length_a   13.89324120
_cell_length_b   14.48659952
_cell_length_c   14.28468045
_cell_angle_alpha   90.75680305
_cell_angle_beta   90.09699900
_cell_angle_gamma   90.74968266
_symmetry_Int_Tables_number   1
_chemical_formula_structural   Zr2Sc2Nb
_chemical_formula_sum   'Zr50 Sc50 Nb25'
_cell_volume   2874.51605978
_cell_formula_units_Z   25
loop_
 _symmetry_equiv_pos_site_id
 _symmetry_equiv_pos_as_xyz
  1  'x, y, z'
loop_
 _atom_site_type_symbol
 _atom_site_label
 _atom_site_symmetry_multiplicity
 _atom_site_fract_x
 _atom_site_fract_y
 _atom_site_fract_z
 _atom_site_occupancy
  Zr  Zr0  1  0.41109739  0.42917448  0.33734568  1
  Zr  Zr1  1  0.41108854  0.68583400  0.66722603  1
  Zr  Zr2  1  0.34726710  0.01838043  0.12816672  1
  Zr  Zr3  1  0.05610157  0.76663959  0.04380141  1
  Zr  Zr4  1  0.48924437  0.48867663  0.64217161  1
  Zr  Zr5  1  0.44937102  0.57417043  0.08481559  1
  Zr  Zr6  1  0.83947807  0.25287882  0.27299516  1
  Zr  Zr7  1  0.29771767  0.45837894  0.94871217  1
  Zr  Zr8  1  0.95158047  0.37090825  0.61191639  1
  Zr  Zr9  1  0.78212002  0.34040400  0.91577970  1
  Zr  Zr10  1  0.54179086  0.81832086  0.77850374  1
  Zr  Zr11  1  0.68354746  0.49038294  0.82024221  1
  Zr  Zr12  1  0.58565027  0.36788474  0.50790972  1
  Zr  Zr13  1  0.13794022  0.91692648  0.66452955  1
  Zr  Zr14  1  0.97685888  0.76420032  0.65749302  1
  Zr  Zr15  1  0.66508010  0.13680554  0.65910574  1
  Zr  Zr16  1  0.10162892  0.88352146  0.87369604  1
  Zr  Zr17  1  0.66266234  0.68211469  0.88663676  1
  Zr  Zr18  1  0.50197863  0.01357925  0.73335788  1
  Zr  Zr19  1  0.07693880  0.08878976  0.74157155  1
  Zr  Zr20  1  0.06483651  0.55784063  0.66222822  1
  Zr  Zr21  1  0.61027660  0.71490021  0.11578951  1
  Zr  Zr22  1  0.63631180  0.17352032  0.88042553  1
  Zr  Zr23  1  0.35987765  0.22306676  0.21232057  1
  Zr  Zr24  1  0.73155430  0.98203849  0.53935496  1
  Zr  Zr25  1  0.76028223  0.86824332  0.18065201  1
  Zr  Zr26  1  0.26849486  0.42406485  0.14829474  1
  Zr  Zr27  1  0.52089123  0.60838046  0.45749436  1
  Zr  Zr28  1  0.63386258  0.64118179  0.65750310  1
  Zr  Zr29  1  0.12634231  0.62360865  0.45238684  1
  Zr  Zr30  1  0.89363431  0.67715953  0.33638843  1
  Zr  Zr31  1  0.32073861  0.88032580  0.81339474  1
  Zr  Zr32  1  0.64719934  0.35017842  0.31610288  1
  Zr  Zr33  1  0.32982125  0.62496823  0.26745897  1
  Zr  Zr34  1  0.32064928  0.54930628  0.49541434  1
  Zr  Zr35  1  0.20058069  0.72571526  0.63309623  1
  Zr  Zr36  1  0.83559279  0.63394124  0.73299693  1
  Zr  Zr37  1  0.43221197  0.16679054  0.84619221  1
  Zr  Zr38  1  0.71796321  0.06078938  0.30160843  1
  Zr  Zr39  1  0.11119125  0.98014144  0.11992226  1
  Zr  Zr40  1  0.26944236  0.05497160  0.94044254  1
  Zr  Zr41  1  0.79450413  0.50502331  0.24273864  1
  Zr  Zr42  1  0.78509168  0.24684997  0.50846182  1
  Zr  Zr43  1  0.44670186  0.74849557  0.95103911  1
  Zr  Zr44  1  0.50325858  1.02167594  0.51415814  1
  Zr  Zr45  1  0.49227519  0.36415599  0.14794522  1
  Zr  Zr46  1  0.93589510  0.20484602  0.07853353  1
  Zr  Zr47  1  0.09181413  0.11007173  0.50700743  1
  Zr  Zr48  1  0.26990688  0.51289482  0.68749019  1
  Zr  Zr49  1  0.12596321  0.44193271  0.82409056  1
  Sc  Sc50  1  0.25462781  0.65642566  0.06396048  1
  Sc  Sc51  1  0.36677219  0.34756966  0.76875550  1
  Sc  Sc52  1  0.06495304  0.35327491  0.20995144  1
  Sc  Sc53  1  0.55523196  0.95266296  0.16157300  1
  Sc  Sc54  1  0.21399671  0.92738183  0.46922410  1
  Sc  Sc55  1  0.21681447  0.27927070  0.36353284  1
  Sc  Sc56  1  1.05660981  0.09636471  0.95026350  1
  Sc  Sc57  1  0.25799669  0.66740702  0.84510999  1
  Sc  Sc58  1  0.90153062  0.40850800  0.07952813  1
  Sc  Sc59  1  0.38175962  0.89908712  0.32281486  1
  Sc  Sc60  1  0.61338443  0.89760776  0.36588656  1
  Sc  Sc61  1  0.56521443  0.80886457  0.55099289  1
  Sc  Sc62  1  0.31585622  0.12453253  0.48804073  1
  Sc  Sc63  1  0.90805312  0.58025641  0.53100674  1
  Sc  Sc64  1  0.90171301  0.03491294  0.19920640  1
  Sc  Sc65  1  0.00289154  0.28479599  0.42947029  1
  Sc  Sc66  1  0.85814154  0.56989718  0.94555640  1
  Sc  Sc67  1  0.65611052  0.86997789  0.97923644  1
  Sc  Sc68  1  0.03974604  0.66192011  0.84533541  1
  Sc  Sc69  1  0.69816311  0.28912535  0.09558048  1
  Sc  Sc70  1  0.57800811  0.54561635  0.25597838  1
  Sc  Sc71  1  0.78346272  0.75857510  0.51363201  1
  Sc  Sc72  1  0.91781922  0.94404933  0.76347720  1
  Sc  Sc73  1  0.90619549  0.94418678  1.01052327  1
  Sc  Sc74  1  0.71565174  0.07533052  0.06012078  1
  Sc  Sc75  1  0.07886939  0.53096111  0.02222711  1
  Sc  Sc76  1  0.58668558  0.32356622  0.73472698  1
  Sc  Sc77  1  0.94821514  0.94743319  0.54967648  1
  Sc  Sc78  1  0.70209084  0.97994368  0.81224303  1
  Sc  Sc79  1  0.98857624  0.27737261  0.83040301  1
  Sc  Sc80  1  0.33874045  0.34662728  0.53998575  1
  Sc  Sc81  1  0.23513563  0.06850707  0.29995567  1
  Sc  Sc82  1  0.28953614  0.08617056  0.69581079  1
  Sc  Sc83  1  0.85901483  0.78355565  0.89299804  1
  Sc  Sc84  1  0.20574911  0.23508241  0.85521931  1
  Sc  Sc85  1  0.36517849  0.89035249  0.61196897  1
  Sc  Sc86  1  0.03730270  0.79737315  0.43845790  1
  Sc  Sc87  1  0.04590331  0.97203590  0.33807365  1
  Sc  Sc88  1  0.89966517  0.13603538  0.64084557  1
  Sc  Sc89  1  0.15637742  0.27780641  0.64814960  1
  Sc  Sc90  1  0.74445589  0.45750666  0.62075025  1
  Sc  Sc91  1  0.67023860  0.50547606  0.04928931  1
  Sc  Sc92  1  0.84896545  0.12829415  0.86974189  1
  Sc  Sc93  1  0.33569993  0.74483151  0.45095918  1
  Sc  Sc94  1  0.46851568  0.55917679  0.84587552  1
  Sc  Sc95  1  0.84512749  0.68259406  0.12010702  1
  Sc  Sc96  1  0.52329742  0.35964752  0.94266630  1
  Sc  Sc97  1  -0.00986077  0.48317816  0.35458822  1
  Sc  Sc98  1  0.19791065  0.81693521  0.23085515  1
  Sc  Sc99  1  0.08094798  0.62924750  0.22189789  1
  Nb  Nb100  1  0.62376594  0.16025535  0.44092362  1
  Nb  Nb101  1  0.13654130  0.43375963  0.51294006  1
  Nb  Nb102  1  0.74597425  0.81427224  0.70869112  1
  Nb  Nb103  1  0.40645481  0.80214409  0.13238360  1
  Nb  Nb104  1  0.50160035  0.73458535  0.29337507  1
  Nb  Nb105  1  0.04743875  0.16102268  0.27243924  1
  Nb  Nb106  1  0.70162534  0.71359528  0.31069069  1
  Nb  Nb107  1  0.84254009  0.89055799  0.36438686  1
  Nb  Nb108  1  0.96883412  0.82922709  0.21255377  1
  Nb  Nb109  1  0.47380737  0.20088336  0.61288662  1
  Nb  Nb110  1  0.11158027  0.32709416  0.00841905  1
  Nb  Nb111  1  0.46937822  0.07033456  0.31840548  1
  Nb  Nb112  1  0.33254083  0.26333073  1.01474854  1
  Nb  Nb113  1  0.71070417  0.56046279  0.43522092  1
  Nb  Nb114  1  0.20299190  0.47847565  0.33195719  1
  Nb  Nb115  1  0.79131394  0.28931140  0.73034547  1
  Nb  Nb116  1  0.45816200  0.24550862  0.39281000  1
  Nb  Nb117  1  0.46678124  -0.03576107  0.95209749  1
  Nb  Nb118  1  0.26122521  0.85801306  0.00993047  1
  Nb  Nb119  1  0.17223038  0.18298742  0.11538613  1
  Nb  Nb120  1  0.49877619  0.14868650  0.04759284  1
  Nb  Nb121  1  0.58203266  0.18215222  0.22290571  1
  Nb  Nb122  1  0.88781561  0.09607620  0.41461219  1
  Nb  Nb123  1  0.90879439  0.46083442  0.78636796  1
  Nb  Nb124  1  0.81773891  0.40982720  0.42479050  1
