# generated using pymatgen
data_Zr2Sc2Nb
_symmetry_space_group_name_H-M   'P 1'
_cell_length_a   14.50070592
_cell_length_b   14.07231649
_cell_length_c   14.13641445
_cell_angle_alpha   90.08306321
_cell_angle_beta   90.47554272
_cell_angle_gamma   89.69474637
_symmetry_Int_Tables_number   1
_chemical_formula_structural   Zr2Sc2Nb
_chemical_formula_sum   'Zr50 Sc50 Nb25'
_cell_volume   2884.51271049
_cell_formula_units_Z   25
loop_
 _symmetry_equiv_pos_site_id
 _symmetry_equiv_pos_as_xyz
  1  'x, y, z'
loop_
 _atom_site_type_symbol
 _atom_site_label
 _atom_site_symmetry_multiplicity
 _atom_site_fract_x
 _atom_site_fract_y
 _atom_site_fract_z
 _atom_site_occupancy
  Zr  Zr0  1  0.88605314  0.06281699  0.93125696  1
  Zr  Zr1  1  0.72090089  0.31961182  0.09267401  1
  Zr  Zr2  1  0.60849218  0.68552433  0.66273961  1
  Zr  Zr3  1  0.94610626  0.90725575  0.76659113  1
  Zr  Zr4  1  0.26771560  0.31037943  0.63041058  1
  Zr  Zr5  1  0.72119295  0.83010480  0.31332197  1
  Zr  Zr6  1  0.62627902  0.52376922  0.07078432  1
  Zr  Zr7  1  0.31224234  0.31408048  0.19422187  1
  Zr  Zr8  1  0.34066343  0.45647668  0.79605702  1
  Zr  Zr9  1  0.73410277  0.04221360  0.50535689  1
  Zr  Zr10  1  0.54260598  0.34561828  0.91937356  1
  Zr  Zr11  1  0.63495027  0.10820063  0.10967413  1
  Zr  Zr12  1  0.15401298  0.34821834  0.83648078  1
  Zr  Zr13  1  0.99264763  0.09466046  0.67478503  1
  Zr  Zr14  1  0.63347293  0.85108595  0.51695234  1
  Zr  Zr15  1  0.27916989  0.87421662  0.66338707  1
  Zr  Zr16  1  0.13246102  0.03191308  0.36360976  1
  Zr  Zr17  1  0.36666954  0.94174232  0.09752767  1
  Zr  Zr18  1  0.24546834  0.37927708  0.42304951  1
  Zr  Zr19  1  0.82852475  0.53036362  0.07708705  1
  Zr  Zr20  1  0.06478169  0.54294535  0.73479461  1
  Zr  Zr21  1  0.59346018  0.12336213  0.64015140  1
  Zr  Zr22  1  0.13190926  0.25746358  0.26164485  1
  Zr  Zr23  1  0.44749015  0.76877207  0.75904357  1
  Zr  Zr24  1  0.81962991  0.27096639  0.37119586  1
  Zr  Zr25  1  0.63876922  0.25592746  0.28601602  1
  Zr  Zr26  1  0.14175174  0.95223682  0.79839224  1
  Zr  Zr27  1  0.70013829  0.28075102  0.74420688  1
  Zr  Zr28  1  0.32338302  0.39470814  0.99076420  1
  Zr  Zr29  1  0.86494929  0.45304655  0.73043349  1
  Zr  Zr30  1  0.37956658  0.97329188  0.32267369  1
  Zr  Zr31  1  0.47368929  0.74504169  0.01395472  1
  Zr  Zr32  1  0.39503961  0.05890039  0.73745340  1
  Zr  Zr33  1  0.68551212  0.99616223  0.93709106  1
  Zr  Zr34  1  0.80350723  0.93104691  0.12347415  1
  Zr  Zr35  1  0.27704325  0.71885487  0.08692042  1
  Zr  Zr36  1  0.09081513  0.52000713  0.49420422  1
  Zr  Zr37  1  0.91581292  0.73537503  0.24280945  1
  Zr  Zr38  1  0.74784952  0.83014055  0.70976645  1
  Zr  Zr39  1  0.22940855  0.21022276  0.01816422  1
  Zr  Zr40  1  0.77657884  0.06129159  0.73773184  1
  Zr  Zr41  1  0.30447043  0.17692914  0.37548854  1
  Zr  Zr42  1  0.81565508  0.84283446  0.90738935  1
  Zr  Zr43  1  0.48776823  0.96760918  0.93047630  1
  Zr  Zr44  1  0.94505075  0.10243859  0.47550531  1
  Zr  Zr45  1  0.03989963  0.13175616  0.09449927  1
  Zr  Zr46  1  0.76504585  0.62507565  0.87144081  1
  Zr  Zr47  1  0.96885258  0.45519643  0.91669421  1
  Zr  Zr48  1  0.23434789  0.08234569  0.18348725  1
  Zr  Zr49  1  0.41781331  0.54435821  0.08896640  1
  Sc  Sc50  1  0.96606599  0.70256662  0.46524693  1
  Sc  Sc51  1  0.19284966  0.14535770  0.72110091  1
  Sc  Sc52  1  0.45510610  0.13255632  0.21573827  1
  Sc  Sc53  1  0.61843070  0.78206469  0.87937963  1
  Sc  Sc54  1  0.11636827  0.67483674  0.30202403  1
  Sc  Sc55  1  0.96730087  0.67611585  0.88147181  1
  Sc  Sc56  1  0.04641588  0.34191936  0.63774090  1
  Sc  Sc57  1  0.08884344  0.93103742  0.55193682  1
  Sc  Sc58  1  0.26268004  0.66812085  0.71702162  1
  Sc  Sc59  1  0.06332538  0.75486558  0.67877601  1
  Sc  Sc60  1  0.87467275  0.88416956  0.56311202  1
  Sc  Sc61  1  0.57162296  0.89570392  0.14196670  1
  Sc  Sc62  1  1.00837769  0.93643653  0.17741387  1
  Sc  Sc63  1  0.33262773  0.70502743  0.32216186  1
  Sc  Sc64  1  0.43994121  0.16789942  0.00836461  1
  Sc  Sc65  1  0.66099397  0.48150004  0.64641834  1
  Sc  Sc66  1  0.87249659  0.47764783  0.51491931  1
  Sc  Sc67  1  0.45812547  0.95766524  0.53869334  1
  Sc  Sc68  1  0.84297060  0.25644751  0.58841479  1
  Sc  Sc69  1  0.17088674  0.54779940  0.95455561  1
  Sc  Sc70  1  0.54124617  0.62080123  0.44465407  1
  Sc  Sc71  1  0.00869591  0.32619834  0.41726041  1
  Sc  Sc72  1  0.32055657  0.85236952  0.89615870  1
  Sc  Sc73  1  0.07399945  0.13765454  0.89251125  1
  Sc  Sc74  1  0.73377435  0.62054286  0.27274091  1
  Sc  Sc75  1  0.20845788  0.50486250  0.18581426  1
  Sc  Sc76  1  -0.05942427  0.52313940  0.31372463  1
  Sc  Sc77  1  0.92002428  0.91793370  0.36360720  1
  Sc  Sc78  1  0.52839827  0.68115243  0.21894044  1
  Sc  Sc79  1  0.91084138  0.25490400  0.79715740  1
  Sc  Sc80  1  0.64259654  0.28250696  0.51418812  1
  Sc  Sc81  1  0.20645702  0.86528152  0.23660072  1
  Sc  Sc82  1  0.54694235  0.56544242  0.85832652  1
  Sc  Sc83  1  0.18632451  0.70816264  0.51571345  1
  Sc  Sc84  1  0.02118384  0.56218994  0.11091631  1
  Sc  Sc85  1  0.86951193  0.65984112  0.67418249  1
  Sc  Sc86  1  0.26892085  0.05301247  0.54514641  1
  Sc  Sc87  1  0.49632084  0.33232644  0.70944392  1
  Sc  Sc88  1  0.75176030  0.67180097  0.48824230  1
  Sc  Sc89  1  0.74940394  0.41553975  0.90317026  1
  Sc  Sc90  1  0.47604955  0.42559369  0.50920404  1
  Sc  Sc91  1  0.38499456  0.49905710  0.30482293  1
  Sc  Sc92  1  0.57792044  -0.06015838  0.72992609  1
  Sc  Sc93  1  0.15028745  0.75550711  0.89169608  1
  Sc  Sc94  1  0.53502212  0.12186340  0.42160891  1
  Sc  Sc95  1  0.94117462  0.33436042  0.18913943  1
  Sc  Sc96  1  0.70029038  0.73165498  0.07989319  1
  Sc  Sc97  1  0.50584304  0.33978901  0.13043504  1
  Sc  Sc98  1  0.77085488  0.06860166  0.29899574  1
  Sc  Sc99  1  0.41670575  0.20799901  0.55796397  1
  Nb  Nb100  1  0.68728720  0.45785358  0.42480163  1
  Nb  Nb101  1  0.91344780  0.27962205  0.99467853  1
  Nb  Nb102  1  0.57474935  0.47145441  0.27191293  1
  Nb  Nb103  1  0.35324096  0.63161122  0.90038979  1
  Nb  Nb104  1  0.28673097  0.05686247  0.91005101  1
  Nb  Nb105  1  0.45810233  0.30742516  0.35023604  1
  Nb  Nb106  1  0.59675673  0.97797531  0.32291835  1
  Nb  Nb107  1  0.96981925  0.13433857  0.28461262  1
  Nb  Nb108  1  0.40990517  0.74525569  0.54811853  1
  Nb  Nb109  1  0.83594296  0.14461034  0.12087930  1
  Nb  Nb110  1  0.43916706  0.56768599  0.66382099  1
  Nb  Nb111  1  0.27996234  0.86771066  0.44595151  1
  Nb  Nb112  1  0.00308259  0.90291453  0.96919097  1
  Nb  Nb113  1  0.49668184  0.82047955  0.37228237  1
  Nb  Nb114  1  0.17265315  0.94512783  0.02930575  1
  Nb  Nb115  1  0.32540430  0.56834131  0.49501826  1
  Nb  Nb116  1  0.76382326  0.42547275  0.24919095  1
  Nb  Nb117  1  0.89762375  0.74181884  0.05551415  1
  Nb  Nb118  1  0.13127788  0.19279407  0.50146086  1
  Nb  Nb119  1  0.35218007  0.24193313  0.83148873  1
  Nb  Nb120  1  0.55945393  0.14812584  0.83931079  1
  Nb  Nb121  1  0.73087261  0.19921149  0.92839589  1
  Nb  Nb122  1  0.22377138  0.49297617  0.63323400  1
  Nb  Nb123  1  0.10475101  0.35677418  0.05545947  1
  Nb  Nb124  1  0.08435367  0.75536862  0.09295850  1
