# generated using pymatgen
data_Zr2Sc2Nb
_symmetry_space_group_name_H-M   'P 1'
_cell_length_a   14.11971026
_cell_length_b   14.05538921
_cell_length_c   14.50592559
_cell_angle_alpha   89.29578774
_cell_angle_beta   91.43435048
_cell_angle_gamma   90.29554838
_symmetry_Int_Tables_number   1
_chemical_formula_structural   Zr2Sc2Nb
_chemical_formula_sum   'Zr50 Sc50 Nb25'
_cell_volume   2877.66402298
_cell_formula_units_Z   25
loop_
 _symmetry_equiv_pos_site_id
 _symmetry_equiv_pos_as_xyz
  1  'x, y, z'
loop_
 _atom_site_type_symbol
 _atom_site_label
 _atom_site_symmetry_multiplicity
 _atom_site_fract_x
 _atom_site_fract_y
 _atom_site_fract_z
 _atom_site_occupancy
  Zr  Zr0  1  0.08455344  0.87095071  0.16729368  1
  Zr  Zr1  1  0.24192862  0.71501515  0.25620384  1
  Zr  Zr2  1  0.38214276  0.64232924  0.56489241  1
  Zr  Zr3  1  0.57816129  0.86838168  0.45107499  1
  Zr  Zr4  1  0.15254964  0.51923867  0.56133699  1
  Zr  Zr5  1  0.55458454  0.49242097  0.60768754  1
  Zr  Zr6  1  0.49849281  0.22162534  0.50353826  1
  Zr  Zr7  1  0.41318966  0.02871448  0.43729246  1
  Zr  Zr8  1  0.92037180  0.88644230  0.41050093  1
  Zr  Zr9  1  0.43827550  0.05366381  0.67583781  1
  Zr  Zr10  1  0.08844796  0.40827857  0.31239237  1
  Zr  Zr11  1  0.35806029  0.81533590  0.91434143  1
  Zr  Zr12  1  0.30526744  0.88057888  0.13783626  1
  Zr  Zr13  1  0.63170892  0.44894806  1.01056917  1
  Zr  Zr14  1  0.26391368  0.73724789  0.70634525  1
  Zr  Zr15  1  0.17534720  0.49061074  -0.01010620  1
  Zr  Zr16  1  0.53840233  0.88103275  0.83114028  1
  Zr  Zr17  1  0.83499301  0.59457574  0.34208890  1
  Zr  Zr18  1  0.50844731  0.74833721  0.21390120  1
  Zr  Zr19  1  0.95923672  0.03669346  0.55360667  1
  Zr  Zr20  1  0.90862437  0.57706729  0.68087301  1
  Zr  Zr21  1  0.07447938  0.67866342  0.07879874  1
  Zr  Zr22  1  0.15193636  0.31385576  0.47576112  1
  Zr  Zr23  1  0.74019283  0.66714879  0.16544784  1
  Zr  Zr24  1  0.26777061  0.51962458  0.37730747  1
  Zr  Zr25  1  0.43761959  0.27270970  0.72290073  1
  Zr  Zr26  1  0.24395305  1.01220621  0.27963751  1
  Zr  Zr27  1  0.92654832  0.75265700  0.83686301  1
  Zr  Zr28  1  0.38622514  0.55309825  0.20634697  1
  Zr  Zr29  1  0.94967495  0.19974890  0.96852107  1
  Zr  Zr30  1  0.28305765  0.35943972  0.18757955  1
  Zr  Zr31  1  0.89283522  0.79564141  0.04577540  1
  Zr  Zr32  1  0.08509807  0.06729760  0.09474766  1
  Zr  Zr33  1  0.72631143  0.86314369  0.29748339  1
  Zr  Zr34  1  0.93747166  0.54415407  0.15415195  1
  Zr  Zr35  1  0.95846928  0.48180285  0.47616800  1
  Zr  Zr36  1  0.89623619  0.98216752  0.74377095  1
  Zr  Zr37  1  0.62993105  0.07911403  0.76073650  1
  Zr  Zr38  1  0.63391412  0.05538415  0.36835860  1
  Zr  Zr39  1  0.15473561  0.87615698  0.97592359  1
  Zr  Zr40  1  0.84678883  0.31857410  0.79448299  1
  Zr  Zr41  1  0.92834671  0.75798087  0.25013125  1
  Zr  Zr42  1  0.08081649  0.87988416  0.77042419  1
  Zr  Zr43  1  0.12158818  0.20890338  0.25724897  1
  Zr  Zr44  1  0.74912055  0.58207347  0.54136734  1
  Zr  Zr45  1  0.64099656  0.05361039  0.96267382  1
  Zr  Zr46  1  0.45682902  0.84972303  0.62756729  1
  Zr  Zr47  1  0.13766263  0.08173819  0.44935092  1
  Zr  Zr48  1  0.68649643  0.25578550  0.24783556  1
  Zr  Zr49  1  0.89878360  0.18733716  0.17370002  1
  Sc  Sc50  1  0.48386847  0.57851323  0.40457347  1
  Sc  Sc51  1  -0.02849566  0.54155626  0.88940168  1
  Sc  Sc52  1  0.70762012  0.23122380  0.46108054  1
  Sc  Sc53  1  0.63129573  0.29099490  0.66543087  1
  Sc  Sc54  1  0.95630316  0.24522848  0.50075721  1
  Sc  Sc55  1  0.80142167  0.38371322  0.58865789  1
  Sc  Sc56  1  0.03913868  0.35777418  0.10747312  1
  Sc  Sc57  1  0.67649531  0.88598303  0.66338275  1
  Sc  Sc58  1  0.29262459  0.37876958  0.86213335  1
  Sc  Sc59  1  0.58848169  0.53487667  0.20678425  1
  Sc  Sc60  1  0.75789850  0.88688522  0.87765714  1
  Sc  Sc61  1  0.12725910  0.85891031  0.37331126  1
  Sc  Sc62  1  0.50528892  0.66934216  0.75829259  1
  Sc  Sc63  1  0.50617716  0.45274820  0.83935739  1
  Sc  Sc64  1  0.10394656  0.08539231  0.87575435  1
  Sc  Sc65  1  0.28651692  0.16310817  0.81267185  1
  Sc  Sc66  1  0.71529349  0.48588310  0.78245224  1
  Sc  Sc67  1  0.06803833  0.33847630  0.86112901  1
  Sc  Sc68  1  0.68299145  0.44410379  0.38518630  1
  Sc  Sc69  1  0.33652594  0.14789833  0.15393484  1
  Sc  Sc70  1  0.34169409  0.49208525  0.69449029  1
  Sc  Sc71  1  0.43893767  0.25537650  0.96071137  1
  Sc  Sc72  1  0.14080819  0.69158247  0.87886878  1
  Sc  Sc73  1  0.33589531  0.59753241  0.87052767  1
  Sc  Sc74  1  0.20337072  0.24170771  0.01074934  1
  Sc  Sc75  1  0.30035840  0.16747375  0.56964040  1
  Sc  Sc76  1  0.64049940  0.26992920  0.87634405  1
  Sc  Sc77  1  0.00656928  0.38894651  0.66269754  1
  Sc  Sc78  1  0.29501612  0.67483850  0.05832164  1
  Sc  Sc79  1  0.72800260  0.69697723  0.73093644  1
  Sc  Sc80  1  0.06733185  0.62121201  0.33358840  1
  Sc  Sc81  1  0.19551801  0.71041401  0.49601136  1
  Sc  Sc82  1  0.31071679  0.22242216  0.36349107  1
  Sc  Sc83  1  0.68810846  0.86168703  0.08502492  1
  Sc  Sc84  1  0.76821965  0.62302270  0.96301246  1
  Sc  Sc85  1  0.79367575  0.15237354  0.64153874  1
  Sc  Sc86  1  0.88058130  0.35207700  0.31801294  1
  Sc  Sc87  1  0.48357186  0.96350943  0.24497440  1
  Sc  Sc88  1  0.84592964  0.10189973  0.35675069  1
  Sc  Sc89  1  0.51647989  0.33598517  0.14274293  1
  Sc  Sc90  1  0.48773235  0.91714390  0.04336082  1
  Sc  Sc91  1  0.36092235  0.38992966  0.52345111  1
  Sc  Sc92  1  0.19566061  0.31143143  0.68154953  1
  Sc  Sc93  1  0.26966378  0.92240312  0.55068495  1
  Sc  Sc94  1  0.13911891  0.06874921  0.66527321  1
  Sc  Sc95  1  0.52232234  0.65422371  1.01214276  1
  Sc  Sc96  1  0.38885254  0.79217815  0.39456588  1
  Sc  Sc97  1  0.47337537  0.37579216  0.34108389  1
  Sc  Sc98  1  0.84629766  0.39752354  -0.00949186  1
  Sc  Sc99  1  0.28866136  0.94801145  0.78003073  1
  Nb  Nb100  1  0.59754979  0.05899211  0.56437422  1
  Nb  Nb101  1  0.88767571  0.95553262  0.18882720  1
  Nb  Nb102  1  0.81174589  0.12298802  0.85816196  1
  Nb  Nb103  1  0.50195601  0.17386126  0.29051075  1
  Nb  Nb104  1  0.82847924  0.03738066  0.03501898  1
  Nb  Nb105  1  0.58130525  0.69871659  0.56064091  1
  Nb  Nb106  1  0.53513174  0.12754654  0.10103990  1
  Nb  Nb107  1  0.69775366  0.05750623  0.18081408  1
  Nb  Nb108  1  0.45273054  0.05891828  0.88732230  1
  Nb  Nb109  1  0.76957882  0.97789216  0.51324189  1
  Nb  Nb110  1  0.07198724  0.86863842  0.57381987  1
  Nb  Nb111  1  0.72913660  0.23305463  0.05406344  1
  Nb  Nb112  1  0.39168558  0.46675210  0.02997332  1
  Nb  Nb113  1  0.76237333  0.43570673  0.16843529  1
  Nb  Nb114  1  0.17555809  0.52910594  0.17671951  1
  Nb  Nb115  1  0.89062842  0.81297841  0.63410730  1
  Nb  Nb116  1  0.76557695  0.77160006  0.49308397  1
  Nb  Nb117  1  0.02644519  0.03315666  0.29515643  1
  Nb  Nb118  1  0.29546141  1.03159188  0.98938475  1
  Nb  Nb119  1  0.96694584  0.69266833  0.49734523  1
  Nb  Nb120  1  0.06770674  0.68864629  0.67536086  1
  Nb  Nb121  1  0.98213595  0.18541530  0.72970789  1
  Nb  Nb122  1  0.14505382  0.52087022  0.76453191  1
  Nb  Nb123  1  0.96447077  0.95452374  0.94748513  1
  Nb  Nb124  1  0.64775627  0.67902323  0.36065459  1
