# generated using pymatgen
data_Zr2Sc2Nb
_symmetry_space_group_name_H-M   'P 1'
_cell_length_a   14.45842671
_cell_length_b   14.13917756
_cell_length_c   14.10536693
_cell_angle_alpha   89.84290012
_cell_angle_beta   88.95333050
_cell_angle_gamma   92.33860199
_symmetry_Int_Tables_number   1
_chemical_formula_structural   Zr2Sc2Nb
_chemical_formula_sum   'Zr50 Sc50 Nb25'
_cell_volume   2880.66395186
_cell_formula_units_Z   25
loop_
 _symmetry_equiv_pos_site_id
 _symmetry_equiv_pos_as_xyz
  1  'x, y, z'
loop_
 _atom_site_type_symbol
 _atom_site_label
 _atom_site_symmetry_multiplicity
 _atom_site_fract_x
 _atom_site_fract_y
 _atom_site_fract_z
 _atom_site_occupancy
  Zr  Zr0  1  0.03515995  0.17282113  0.37505242  1
  Zr  Zr1  1  0.72526250  0.27220885  0.22131876  1
  Zr  Zr2  1  0.58439977  0.86623144  0.91199851  1
  Zr  Zr3  1  0.38026452  0.27833893  0.44024217  1
  Zr  Zr4  1  0.87244345  0.62306188  0.48997389  1
  Zr  Zr5  1  0.77980818  0.21167454  0.87673700  1
  Zr  Zr6  1  -0.00972551  0.26717981  0.57555729  1
  Zr  Zr7  1  0.83357519  0.41410771  0.50578310  1
  Zr  Zr8  1  0.86083985  0.94727421  0.18647673  1
  Zr  Zr9  1  0.51308614  0.15060883  0.55931962  1
  Zr  Zr10  1  0.12909127  0.17919847  0.72672150  1
  Zr  Zr11  1  0.22254811  0.90507571  0.21623612  1
  Zr  Zr12  1  0.85383057  -0.00055687  0.39867912  1
  Zr  Zr13  1  0.62676830  0.88746430  0.69563871  1
  Zr  Zr14  1  0.44580280  0.37141291  0.05557321  1
  Zr  Zr15  1  0.59339795  0.25064919  0.38633888  1
  Zr  Zr16  1  0.62994225  0.28463326  1.00450906  1
  Zr  Zr17  1  0.05174489  0.95728246  0.69316985  1
  Zr  Zr18  1  0.77819990  0.72504275  0.64107402  1
  Zr  Zr19  1  -0.00990433  0.28691137  0.89230208  1
  Zr  Zr20  1  0.55192727  0.37831926  0.23115654  1
  Zr  Zr21  1  0.13849807  0.60039262  0.78469634  1
  Zr  Zr22  1  0.20393240  0.34538521  0.53087031  1
  Zr  Zr23  1  0.37667285  0.85739330  0.61003717  1
  Zr  Zr24  1  0.30886064  0.11412066  0.85164470  1
  Zr  Zr25  1  0.96836300  0.49821493  0.88409428  1
  Zr  Zr26  1  0.65487687  0.37043284  0.77485032  1
  Zr  Zr27  1  0.68094271  0.29516190  0.57842830  1
  Zr  Zr28  1  0.32691022  0.58674755  0.08846382  1
  Zr  Zr29  1  0.54582816  0.69318732  0.57517501  1
  Zr  Zr30  1  0.62768432  0.14599984  0.75124636  1
  Zr  Zr31  1  0.68287025  0.52757400  0.61550140  1
  Zr  Zr32  1  0.34276597  0.63280553  0.69330468  1
  Zr  Zr33  1  0.34264781  0.49651177  0.89016179  1
  Zr  Zr34  1  0.79319611  0.58472213  0.80484220  1
  Zr  Zr35  1  0.10552326  0.09192564  0.15740080  1
  Zr  Zr36  1  0.46249372  0.87184036  0.26125651  1
  Zr  Zr37  1  0.19942487  0.54270702  0.38590450  1
  Zr  Zr38  1  0.94747910  0.84676423  0.52905617  1
  Zr  Zr39  1  0.03376123  0.45586957  0.47284678  1
  Zr  Zr40  1  0.82868687  0.94709359  0.68203562  1
  Zr  Zr41  1  0.91201307  0.07995195  0.01026846  1
  Zr  Zr42  1  0.49420967  0.36139872  0.62076645  1
  Zr  Zr43  1  0.36696304  0.47051520  0.28258092  1
  Zr  Zr44  1  0.93697357  0.10644664  0.78433126  1
  Zr  Zr45  1  0.74404276  0.66937555  0.19496541  1
  Zr  Zr46  1  0.77518574  0.85494190  0.03563514  1
  Zr  Zr47  1  0.31441748  0.69994952  0.25719198  1
  Zr  Zr48  1  0.07665084  0.68458142  0.52443156  1
  Zr  Zr49  1  0.27479107  0.70733500  0.89591686  1
  Sc  Sc50  1  0.87515155  0.78043669  0.33941876  1
  Sc  Sc51  1  0.85660944  0.29395787  0.06526050  1
  Sc  Sc52  1  0.67780098  0.06594365  0.29039236  1
  Sc  Sc53  1  0.16396484  0.73675893  0.08427521  1
  Sc  Sc54  1  0.14166998  0.52026723  0.99099358  1
  Sc  Sc55  1  0.46210540  0.01992397  0.72117667  1
  Sc  Sc56  1  0.04098261  0.95560925  0.32151563  1
  Sc  Sc57  1  0.58662077  0.97011037  0.11016918  1
  Sc  Sc58  1  0.96511008  0.57988688  0.30578121  1
  Sc  Sc59  1  0.86226625  0.36630451  0.72596049  1
  Sc  Sc60  1  0.16113993  0.90894949  0.50421463  1
  Sc  Sc61  1  0.96259435  0.55264039  0.66300744  1
  Sc  Sc62  1  0.52603894  0.91724880  0.47230880  1
  Sc  Sc63  1  0.89866416  0.14778504  0.22091696  1
  Sc  Sc64  1  1.00603840  0.71798766  0.92580393  1
  Sc  Sc65  1  0.14037157  0.87734628  0.86822288  1
  Sc  Sc66  1  0.82410447  0.21119114  0.42832903  1
  Sc  Sc67  1  0.46121337  0.08306577  0.34641314  1
  Sc  Sc68  1  0.09569384  0.39296849  0.72404298  1
  Sc  Sc69  1  0.38284547  0.50724718  0.51231552  1
  Sc  Sc70  1  0.21747378  0.31262878  0.89217765  1
  Sc  Sc71  1  0.47158948  0.66797670  0.94138109  1
  Sc  Sc72  1  0.18942660  0.78103747  0.68276511  1
  Sc  Sc73  1  -0.05036108  0.35814413  0.29154599  1
  Sc  Sc74  1  0.17856234  0.32920403  0.30913651  1
  Sc  Sc75  1  0.72394301  0.84601973  0.49256021  1
  Sc  Sc76  1  0.25483942  0.38627797  0.11296620  1
  Sc  Sc77  1  0.33121846  0.21103879  0.66068420  1
  Sc  Sc78  1  0.30442077  0.70935461  0.47751029  1
  Sc  Sc79  1  0.57883160  0.46755226  0.43531229  1
  Sc  Sc80  1  0.52816380  0.57306294  0.14783851  1
  Sc  Sc81  1  0.36186886  0.90362223  0.86084786  1
  Sc  Sc82  1  0.71470753  0.47498375  0.10381101  1
  Sc  Sc83  1  0.38178245  0.82233338  0.06874588  1
  Sc  Sc84  1  0.95372191  0.73866287  0.14233881  1
  Sc  Sc85  1  0.58551982  0.49237393  0.92753625  1
  Sc  Sc86  1  0.45062292  0.30227418  0.83707557  1
  Sc  Sc87  1  0.69248148  0.05880666  0.53439084  1
  Sc  Sc88  1  0.24213147  0.97566057  0.02396233  1
  Sc  Sc89  1  0.11377428  0.74407652  0.31853410  1
  Sc  Sc90  1  0.06552909  0.29820849  0.10102098  1
  Sc  Sc91  1  0.51207150  0.67623848  0.34690471  1
  Sc  Sc92  1  0.16469431  0.12478059  0.52955951  1
  Sc  Sc93  1  0.30601709  0.18600387  0.05555826  1
  Sc  Sc94  1  0.10398121  0.09301427  0.92602605  1
  Sc  Sc95  1  0.94418081  0.49505013  0.10489951  1
  Sc  Sc96  1  0.24707809  0.10131491  0.32532970  1
  Sc  Sc97  1  0.67606205  0.84649455  0.28674871  1
  Sc  Sc98  1  0.76172006  0.47641854  0.31623062  1
  Sc  Sc99  1  0.51150256  0.09285266  0.95118799  1
  Nb  Nb100  1  0.30678523  0.42024346  0.70487607  1
  Nb  Nb101  1  -0.04179084  0.06764485  0.55242870  1
  Nb  Nb102  1  0.14304388  0.53824369  0.20118271  1
  Nb  Nb103  1  0.96712331  0.75896098  0.72599174  1
  Nb  Nb104  1  0.38508298  1.03464382  0.16505883  1
  Nb  Nb105  1  0.83654293  0.63139296  -0.00200106  1
  Nb  Nb106  1  0.74272777  0.00695977  0.87309975  1
  Nb  Nb107  1  0.49764411  0.53028016  0.73845135  1
  Nb  Nb108  1  0.53624604  0.17641384  0.15825500  1
  Nb  Nb109  1  0.66736385  0.67669539  0.98293666  1
  Nb  Nb110  1  0.18794107  0.54407367  0.59603656  1
  Nb  Nb111  1  0.62318855  0.67792011  0.78025154  1
  Nb  Nb112  1  0.24765900  0.00035029  0.69848747  1
  Nb  Nb113  1  0.72722178  0.10807106  0.07036702  1
  Nb  Nb114  1  0.57386127  0.76707939  0.12027798  1
  Nb  Nb115  1  0.93272281  0.91508038  0.88236427  1
  Nb  Nb116  1  0.38023036  0.25443276  0.23804149  1
  Nb  Nb117  1  1.03602771  0.91801494  0.06413609  1
  Nb  Nb118  1  0.70094625  0.65215107  0.42119772  1
  Nb  Nb119  1  0.32291034  0.90239350  0.38468076  1
  Nb  Nb120  1  0.34729226  0.04390368  0.52309450  1
  Nb  Nb121  1  0.79261439  0.42223993  0.92526357  1
  Nb  Nb122  1  0.81241203  0.17188590  0.65599010  1
  Nb  Nb123  1  0.46559971  0.76711174  0.76148433  1
  Nb  Nb124  1  0.78493230  0.79442910  0.84117738  1
