# generated using pymatgen
data_Zr2Sc2Nb
_symmetry_space_group_name_H-M   'P 1'
_cell_length_a   14.11242025
_cell_length_b   14.49237573
_cell_length_c   14.04868313
_cell_angle_alpha   86.64210011
_cell_angle_beta   86.70531651
_cell_angle_gamma   89.21611709
_symmetry_Int_Tables_number   1
_chemical_formula_structural   Zr2Sc2Nb
_chemical_formula_sum   'Zr50 Sc50 Nb25'
_cell_volume   2863.44444271
_cell_formula_units_Z   25
loop_
 _symmetry_equiv_pos_site_id
 _symmetry_equiv_pos_as_xyz
  1  'x, y, z'
loop_
 _atom_site_type_symbol
 _atom_site_label
 _atom_site_symmetry_multiplicity
 _atom_site_fract_x
 _atom_site_fract_y
 _atom_site_fract_z
 _atom_site_occupancy
  Zr  Zr0  1  0.92067242  0.76643569  0.87172035  1
  Zr  Zr1  1  0.31388973  0.12155942  -0.01117150  1
  Zr  Zr2  1  0.23892468  0.28682807  0.11205772  1
  Zr  Zr3  1  0.50567489  0.98875101  0.62545731  1
  Zr  Zr4  1  0.79633930  0.93724765  0.81021995  1
  Zr  Zr5  1  0.05741792  0.39521777  0.05449359  1
  Zr  Zr6  1  0.90411170  0.53306997  0.99471905  1
  Zr  Zr7  1  0.38350579  0.32239043  0.92587202  1
  Zr  Zr8  1  0.85103739  0.14552571  0.79068245  1
  Zr  Zr9  1  0.14903852  0.38604544  0.45665649  1
  Zr  Zr10  1  0.49252030  0.93376503  0.32286050  1
  Zr  Zr11  1  0.92420670  0.50794932  0.20905898  1
  Zr  Zr12  1  0.00835540  0.74701807  0.47410382  1
  Zr  Zr13  1  0.90498976  0.29121388  0.96768290  1
  Zr  Zr14  1  0.51388931  0.31628545  0.41003868  1
  Zr  Zr15  1  0.28144912  0.04359739  0.60341526  1
  Zr  Zr16  1  0.48745604  0.22742443  0.63028254  1
  Zr  Zr17  1  0.88253404  0.16509480  0.40166777  1
  Zr  Zr18  1  0.18115728  0.20488541  0.66295045  1
  Zr  Zr19  1  0.73009877  0.49910180  0.65675835  1
  Zr  Zr20  1  0.83657814  0.68921633  0.61697330  1
  Zr  Zr21  1  0.55309238  0.39372597  0.77131516  1
  Zr  Zr22  1  0.93452143  0.85782656  0.66846138  1
  Zr  Zr23  1  0.89372955  0.72745914  0.27991047  1
  Zr  Zr24  1  0.37643221  0.87446777  0.51758448  1
  Zr  Zr25  1  0.52009857  0.72340138  0.94277384  1
  Zr  Zr26  1  0.58616879  0.53288019  0.07442631  1
  Zr  Zr27  1  0.36973101  0.89023850  -0.02650010  1
  Zr  Zr28  1  0.71910010  0.04951950  0.95300562  1
  Zr  Zr29  1  0.03200770  0.90740462  0.12991932  1
  Zr  Zr30  1  0.64557963  0.19791862  0.08656099  1
  Zr  Zr31  1  0.73788310  0.67138198  0.97131323  1
  Zr  Zr32  1  0.12417083  0.39326237  0.66024440  1
  Zr  Zr33  1  0.09277111  0.63764524  0.89557189  1
  Zr  Zr34  1  0.54787830  0.92159572  0.83328567  1
  Zr  Zr35  1  0.81157461  0.57131299  0.43484568  1
  Zr  Zr36  1  0.17379908  0.58688743  0.53255397  1
  Zr  Zr37  1  0.44868192  0.08953061  0.45754359  1
  Zr  Zr38  1  0.23444424  0.46795687  0.94619370  1
  Zr  Zr39  1  0.33513001  0.18157596  0.29207716  1
  Zr  Zr40  1  0.71648542  0.26382387  0.89247683  1
  Zr  Zr41  1  0.17281129  0.58285061  0.09412141  1
  Zr  Zr42  1  0.04974708  0.67338936  0.68950380  1
  Zr  Zr43  1  0.02764792  0.04290664  0.68388831  1
  Zr  Zr44  1  0.32204063  0.90807895  0.76690985  1
  Zr  Zr45  1  0.57210482  0.47829921  0.52863324  1
  Zr  Zr46  1  0.55347230  0.14490520  0.27749861  1
  Zr  Zr47  1  0.11842548  0.85362093  0.81572908  1
  Zr  Zr48  1  0.63598053  0.08952432  0.74684511  1
  Zr  Zr49  1  0.38659002  0.10923201  0.78688261  1
  Sc  Sc50  1  0.68997499  -0.00205167  0.39024402  1
  Sc  Sc51  1  0.36855167  0.67484900  0.11059816  1
  Sc  Sc52  1  0.96775922  0.25222252  0.58469548  1
  Sc  Sc53  1  -0.02541649  1.00583773  0.91367928  1
  Sc  Sc54  1  0.11059415  0.10188443  0.46753611  1
  Sc  Sc55  1  0.70646215  0.76215803  0.78078953  1
  Sc  Sc56  1  0.43721459  0.52994110  0.91001025  1
  Sc  Sc57  1  0.26867903  0.73393107  0.65327041  1
  Sc  Sc58  1  0.76115847  0.39176885  0.10447466  1
  Sc  Sc59  1  0.24101225  0.54367702  0.74069950  1
  Sc  Sc60  1  0.12036250  0.23996418  0.30308573  1
  Sc  Sc61  1  0.85395233  0.93990270  0.26467157  1
  Sc  Sc62  1  0.11380052  0.72293062  0.23973040  1
  Sc  Sc63  1  0.75355881  0.35546410  0.48025450  1
  Sc  Sc64  1  0.39892877  0.03197614  0.16829849  1
  Sc  Sc65  1  0.31126908  0.69938263  0.87093140  1
  Sc  Sc66  1  0.27314925  0.86327374  0.19059028  1
  Sc  Sc67  1  0.03785427  0.44720609  0.84027701  1
  Sc  Sc68  1  0.09404183  0.91417597  0.33279053  1
  Sc  Sc69  1  0.63054238  0.65719959  0.36762050  1
  Sc  Sc70  1  0.81952223  0.07818095  0.60197894  1
  Sc  Sc71  1  0.77884129  0.79617044  0.43960071  1
  Sc  Sc72  1  0.73137854  0.46536131  0.89568466  1
  Sc  Sc73  1  0.27113913  0.57688370  0.31755917  1
  Sc  Sc74  1  0.48920056  0.76731577  0.69895497  1
  Sc  Sc75  1  1.03450510  0.56875796  0.37844368  1
  Sc  Sc76  1  0.07095810  0.16179402  0.03556979  1
  Sc  Sc77  1  0.94431690  0.36935519  0.37956470  1
  Sc  Sc78  1  0.70001155  0.27530012  0.67234741  1
  Sc  Sc79  1  -0.02467666  0.70069279  0.07804507  1
  Sc  Sc80  1  0.18863952  0.27562074  0.87441350  1
  Sc  Sc81  1  0.95658021  0.50536657  0.58517416  1
  Sc  Sc82  1  0.93063874  0.95843269  0.46887983  1
  Sc  Sc83  1  0.87776623  0.36739532  0.75013263  1
  Sc  Sc84  1  0.69001540  0.46877563  0.29427203  1
  Sc  Sc85  1  1.00041540  0.08835762  0.25012761  1
  Sc  Sc86  1  0.82951596  0.86140527  0.06758290  1
  Sc  Sc87  1  0.47695432  0.53326730  0.29149443  1
  Sc  Sc88  1  0.85074623  0.11051421  0.10524256  1
  Sc  Sc89  1  0.70346843  0.89780758  0.61163228  1
  Sc  Sc90  1  0.14008778  0.89156037  0.56573609  1
  Sc  Sc91  1  0.24347168  0.76900815  0.40829669  1
  Sc  Sc92  1  0.17869976  0.97256672  0.99788473  1
  Sc  Sc93  1  0.34164614  0.35667540  0.71406431  1
  Sc  Sc94  1  0.65039476  0.16335249  0.49591462  1
  Sc  Sc95  1  0.13716977  0.43441540  0.24093785  1
  Sc  Sc96  1  0.35203762  0.45796226  0.51196765  1
  Sc  Sc97  1  0.30829085  0.24929678  0.49389009  1
  Sc  Sc98  1  0.42931837  0.65886919  0.49900814  1
  Sc  Sc99  1  0.73901129  0.25133956  0.28211878  1
  Nb  Nb100  1  1.02376342  0.21627584  0.80519002  1
  Nb  Nb101  1  0.44116663  0.22958399  0.10328079  1
  Nb  Nb102  1  0.49391367  0.86020502  0.12659895  1
  Nb  Nb103  1  0.53830073  0.35101319  0.20504649  1
  Nb  Nb104  1  0.19620539  0.06714988  0.19003501  1
  Nb  Nb105  1  0.63444438  0.66727126  0.58594576  1
  Nb  Nb106  1  0.53301854  0.19833840  0.88268033  1
  Nb  Nb107  1  0.94217467  0.28664366  0.18962386  1
  Nb  Nb108  1  0.51924858  1.04122445  -0.00292436  1
  Nb  Nb109  1  0.37412933  0.44684232  0.11532042  1
  Nb  Nb110  1  0.45268019  0.55992939  0.68787493  1
  Nb  Nb111  1  0.56913406  0.82432206  0.47247915  1
  Nb  Nb112  1  0.64719666  0.85838639  1.00199974  1
  Nb  Nb113  1  0.17325604  0.77555300  0.01908072  1
  Nb  Nb114  1  0.61183354  0.59478525  0.79549772  1
  Nb  Nb115  1  0.67448433  0.82449049  0.24714624  1
  Nb  Nb116  1  0.58403187  0.69806471  0.15384067  1
  Nb  Nb117  1  0.27889510  -0.00604333  0.37344919  1
  Nb  Nb118  1  0.65148135  -0.00659044  0.15805494  1
  Nb  Nb119  1  0.17806366  0.06708713  0.81712651  1
  Nb  Nb120  1  0.44396857  0.75104809  0.30431212  1
  Nb  Nb121  1  0.86785139  0.59133468  0.79210842  1
  Nb  Nb122  1  0.76798415  0.63472977  0.16915742  1
  Nb  Nb123  1  0.33335039  0.37209903  0.30032091  1
  Nb  Nb124  1  0.55996116  0.36751459  0.99591065  1
