# generated using pymatgen
data_Zr2Sc2Nb
_symmetry_space_group_name_H-M   'P 1'
_cell_length_a   14.30288123
_cell_length_b   14.19343201
_cell_length_c   14.17904332
_cell_angle_alpha   88.92764851
_cell_angle_beta   90.01850042
_cell_angle_gamma   90.19951732
_symmetry_Int_Tables_number   1
_chemical_formula_structural   Zr2Sc2Nb
_chemical_formula_sum   'Zr50 Sc50 Nb25'
_cell_volume   2877.92297656
_cell_formula_units_Z   25
loop_
 _symmetry_equiv_pos_site_id
 _symmetry_equiv_pos_as_xyz
  1  'x, y, z'
loop_
 _atom_site_type_symbol
 _atom_site_label
 _atom_site_symmetry_multiplicity
 _atom_site_fract_x
 _atom_site_fract_y
 _atom_site_fract_z
 _atom_site_occupancy
  Zr  Zr0  1  0.69430000  0.13940376  0.55987834  1
  Zr  Zr1  1  0.38295277  0.70445238  0.52776154  1
  Zr  Zr2  1  0.66438037  0.49698621  0.10017258  1
  Zr  Zr3  1  0.96635206  0.35188204  0.37410197  1
  Zr  Zr4  1  0.37068898  0.89370200  0.39487273  1
  Zr  Zr5  1  0.09210881  0.75805413  0.25507308  1
  Zr  Zr6  1  0.80766169  0.92376100  0.86800030  1
  Zr  Zr7  1  0.92678603  0.97433590  0.02614632  1
  Zr  Zr8  1  0.29353748  0.92158230  0.95158576  1
  Zr  Zr9  1  0.67940754  0.74999274  0.60010431  1
  Zr  Zr10  1  0.53432430  0.90695032  0.22958103  1
  Zr  Zr11  1  0.27518527  0.90656982  0.57983501  1
  Zr  Zr12  1  0.78463137  0.32222597  0.05624834  1
  Zr  Zr13  1  0.33538821  0.56738250  0.70846388  1
  Zr  Zr14  1  0.27929758  0.36320439  0.59942793  1
  Zr  Zr15  1  0.62997225  0.02298820  0.93410556  1
  Zr  Zr16  1  0.58681641  0.63609928  0.46239914  1
  Zr  Zr17  1  0.27976541  0.87985439  0.20481619  1
  Zr  Zr18  1  0.68976830  0.34969825  0.26286532  1
  Zr  Zr19  1  0.90294221  0.03125653  0.21756073  1
  Zr  Zr20  1  1.01027680  0.93821861  0.83442382  1
  Zr  Zr21  1  0.42264257  0.48685637  0.47538255  1
  Zr  Zr22  1  0.67130537  0.91482484  0.72771059  1
  Zr  Zr23  1  0.47328031  0.87318096  0.85019569  1
  Zr  Zr24  1  0.68436433  0.58523709  0.91236392  1
  Zr  Zr25  1  0.78386937  0.66122520  0.12109694  1
  Zr  Zr26  1  0.63563870  0.78625997  0.93750676  1
  Zr  Zr27  1  0.72366061  0.32681400  0.64021453  1
  Zr  Zr28  1  0.16266527  0.34315154  0.29212742  1
  Zr  Zr29  1  0.95952501  0.35410059  0.90822831  1
  Zr  Zr30  1  0.86650297  0.46789373  0.22527751  1
  Zr  Zr31  1  0.14118950  0.07746011  0.67970797  1
  Zr  Zr32  1  0.57745213  0.85992373  0.42820445  1
  Zr  Zr33  1  0.85366326  0.24006073  0.24360277  1
  Zr  Zr34  1  0.72984179  0.11356990  0.12476809  1
  Zr  Zr35  1  0.10545313  0.28711444  0.71841019  1
  Zr  Zr36  1  0.08083153  0.54073847  0.95480757  1
  Zr  Zr37  1  0.38813057  0.76142615  0.06633489  1
  Zr  Zr38  1  0.03492934  0.14433436  0.87880659  1
  Zr  Zr39  1  0.24331735  0.70048606  0.90118645  1
  Zr  Zr40  1  0.70171177  0.75823314  0.29961516  1
  Zr  Zr41  1  0.13242453  0.25118522  0.49206446  1
  Zr  Zr42  1  0.18722252  0.87571228  0.77922843  1
  Zr  Zr43  1  0.52924332  0.12408269  0.11908124  1
  Zr  Zr44  1  0.41935993  0.53073849  0.09139196  1
  Zr  Zr45  1  0.44508415  0.70640589  0.29785357  1
  Zr  Zr46  1  0.92881511  0.24492974  0.56354625  1
  Zr  Zr47  1  0.22896218  0.64493869  0.12992116  1
  Zr  Zr48  1  0.05139558  0.44394768  0.54236995  1
  Zr  Zr49  1  0.82679283  0.14496559  0.93377046  1
  Sc  Sc50  1  0.51798274  0.46143010  0.66895257  1
  Sc  Sc51  1  0.29567406  0.11435521  0.50874535  1
  Sc  Sc52  1  0.23201225  0.10306253  0.30188782  1
  Sc  Sc53  1  0.05077607  0.68560300  0.46421700  1
  Sc  Sc54  1  0.74415245  0.37708374  0.84806006  1
  Sc  Sc55  1  0.52282056  0.49860434  0.27804661  1
  Sc  Sc56  1  0.04426645  0.71676362  0.79153447  1
  Sc  Sc57  1  0.83893592  0.49061045  0.47747911  1
  Sc  Sc58  1  0.09101193  0.53770841  0.30445906  1
  Sc  Sc59  1  0.48788734  0.86462733  0.62452330  1
  Sc  Sc60  1  0.52822903  0.26773721  0.77818626  1
  Sc  Sc61  1  0.62770700  0.42649567  0.47118853  1
  Sc  Sc62  1  0.12673827  0.50691257  0.74248982  1
  Sc  Sc63  1  0.75658241  0.93320625  0.51311975  1
  Sc  Sc64  1  0.89605689  0.04655671  0.67174954  1
  Sc  Sc65  1  0.48532209  0.26664531  0.56355157  1
  Sc  Sc66  1  0.23943124  0.13646412  0.87959746  1
  Sc  Sc67  1  0.22478668  0.53890719  0.49243142  1
  Sc  Sc68  1  0.89758138  0.73918184  0.95659467  1
  Sc  Sc69  1  0.71754253  0.89647558  0.09885543  1
  Sc  Sc70  1  0.35249929  0.29007051  0.20392758  1
  Sc  Sc71  1  0.54617819  0.67178540  0.74056446  1
  Sc  Sc72  1  0.07648397  0.04527776  0.46195254  1
  Sc  Sc73  1  0.51791688  0.44445151  0.90575764  1
  Sc  Sc74  1  0.86832889  0.09669352  0.42023729  1
  Sc  Sc75  1  0.54062571  0.33510723  0.11263375  1
  Sc  Sc76  1  0.89286455  0.55653414  0.82606993  1
  Sc  Sc77  1  0.12348034  0.02929702  0.05770395  1
  Sc  Sc78  1  0.90492245  0.82215333  0.18399348  1
  Sc  Sc79  1  0.51311770  0.28207573  0.35107146  1
  Sc  Sc80  1  0.04493753  0.17187867  0.27534414  1
  Sc  Sc81  1  0.31149311  0.50538795  0.28616938  1
  Sc  Sc82  1  0.00459357  0.61396231  0.12487349  1
  Sc  Sc83  1  0.93809544  0.86972033  0.39418854  1
  Sc  Sc84  1  0.52715441  0.06782954  0.71896465  1
  Sc  Sc85  1  0.10255406  0.81397343  0.03069466  1
  Sc  Sc86  1  0.43429281  0.08370843  0.30785454  1
  Sc  Sc87  1  0.49734336  0.05044331  0.51189588  1
  Sc  Sc88  1  0.93233269  0.62656368  0.62746419  1
  Sc  Sc89  1  0.05903974  0.87412155  0.60032962  1
  Sc  Sc90  1  0.87547407  0.82873866  0.66982359  1
  Sc  Sc91  1  0.71239979  0.14114947  0.76870068  1
  Sc  Sc92  1  0.32470405  0.35273030  0.79456374  1
  Sc  Sc93  1  0.33257852  0.07434930  0.10009987  1
  Sc  Sc94  1  0.29613236  0.50482948  0.92542192  1
  Sc  Sc95  1  0.37127939  0.28412437  0.98850838  1
  Sc  Sc96  1  0.72738671  0.54604918  0.66477984  1
  Sc  Sc97  1  0.65490256  0.11970851  0.33986264  1
  Sc  Sc98  1  0.57442589  0.69259834  0.12568682  1
  Sc  Sc99  1  0.17217382  0.23033964  0.09577603  1
  Nb  Nb100  1  0.01777201  0.38020254  0.11962448  1
  Nb  Nb101  1  0.34200875  0.99397513  0.74397312  1
  Nb  Nb102  1  0.45380867  0.65393104  0.91515612  1
  Nb  Nb103  1  0.80972831  0.70810423  0.46746333  1
  Nb  Nb104  1  0.74539790  0.94593046  0.30265222  1
  Nb  Nb105  1  0.08430675  0.95626603  0.24899894  1
  Nb  Nb106  1  0.16919727  0.86533247  0.41381142  1
  Nb  Nb107  1  0.71432106  0.56330441  0.31523325  1
  Nb  Nb108  1  0.31958096  0.31121509  0.41378381  1
  Nb  Nb109  1  0.48804175  0.93162311  0.04470420  1
  Nb  Nb110  1  0.89391803  0.23800878  0.75740643  1
  Nb  Nb111  1  0.76472763  0.72017025  0.78892978  1
  Nb  Nb112  1  0.44173544  0.09726271  0.90648413  1
  Nb  Nb113  1  0.90080223  0.65147367  0.31408686  1
  Nb  Nb114  1  0.19155683  0.70972879  0.62055688  1
  Nb  Nb115  1  0.77004037  0.28594646  0.43460201  1
  Nb  Nb116  1  0.34631250  0.76463079  0.74173293  1
  Nb  Nb117  1  0.91359102  0.41397859  0.68469120  1
  Nb  Nb118  1  0.25456688  0.70164123  0.36151443  1
  Nb  Nb119  1  0.15203190  0.34242082  0.92561022  1
  Nb  Nb120  1  0.96629329  0.19156933  0.07098264  1
  Nb  Nb121  1  0.86518992  0.50522413  0.01626868  1
  Nb  Nb122  1  0.34091275  0.17693020  0.69856824  1
  Nb  Nb123  1  0.20646822  0.44288570  0.10507722  1
  Nb  Nb124  1  0.61666162  0.22576182  0.95530322  1
