# generated using pymatgen
data_Zr2Sc2Nb
_symmetry_space_group_name_H-M   'P 1'
_cell_length_a   14.11939524
_cell_length_b   14.48032092
_cell_length_c   14.14363278
_cell_angle_alpha   90.25043233
_cell_angle_beta   90.39025329
_cell_angle_gamma   90.38971605
_symmetry_Int_Tables_number   1
_chemical_formula_structural   Zr2Sc2Nb
_chemical_formula_sum   'Zr50 Sc50 Nb25'
_cell_volume   2891.55126856
_cell_formula_units_Z   25
loop_
 _symmetry_equiv_pos_site_id
 _symmetry_equiv_pos_as_xyz
  1  'x, y, z'
loop_
 _atom_site_type_symbol
 _atom_site_label
 _atom_site_symmetry_multiplicity
 _atom_site_fract_x
 _atom_site_fract_y
 _atom_site_fract_z
 _atom_site_occupancy
  Zr  Zr0  1  0.68316165  0.65411059  0.88888143  1
  Zr  Zr1  1  0.46617356  0.41997883  0.71864552  1
  Zr  Zr2  1  0.49563374  0.79231227  0.63492758  1
  Zr  Zr3  1  0.29550206  0.79458785  0.09002597  1
  Zr  Zr4  1  0.45466979  0.02155541  0.69753737  1
  Zr  Zr5  1  0.09063986  0.90735111  0.71250697  1
  Zr  Zr6  1  0.31517227  0.82666244  0.30655945  1
  Zr  Zr7  1  0.46459755  0.22635001  0.65663506  1
  Zr  Zr8  1  0.51800083  0.79038070  0.85002997  1
  Zr  Zr9  1  0.65282829  0.17364908  0.21913664  1
  Zr  Zr10  1  0.56632090  0.27480154  0.02970059  1
  Zr  Zr11  1  0.96344943  0.68324185  0.36929423  1
  Zr  Zr12  1  0.75028135  0.63767359  0.35243032  1
  Zr  Zr13  1  0.82435954  0.04290623  0.21868354  1
  Zr  Zr14  1  0.12055769  0.82924245  0.93703533  1
  Zr  Zr15  1  0.49034552  0.08663391  0.08034728  1
  Zr  Zr16  1  0.51948633  0.06898420  0.49596630  1
  Zr  Zr17  1  0.71945534  0.87669435  0.90416862  1
  Zr  Zr18  1  0.91368538  0.13596221  0.93628052  1
  Zr  Zr19  1  0.68164525  0.43164007  0.34561889  1
  Zr  Zr20  1  0.32684720  0.42905963  0.25088168  1
  Zr  Zr21  1  0.58560842  0.85554201  0.46091754  1
  Zr  Zr22  1  0.46274617  0.57319593  0.88112367  1
  Zr  Zr23  1  0.25910485  0.50694093  0.82995834  1
  Zr  Zr24  1  0.30671723  0.86687162  0.71643973  1
  Zr  Zr25  1  1.06655333  0.16350195  0.06601591  1
  Zr  Zr26  1  0.56270906  1.00710181  0.89154791  1
  Zr  Zr27  1  0.85569779  0.25923329  0.57297220  1
  Zr  Zr28  1  0.72539296  0.36311233  0.12996557  1
  Zr  Zr29  1  0.22921676  0.76082243  0.54158358  1
  Zr  Zr30  1  0.91080902  0.13169752  0.40231522  1
  Zr  Zr31  1  0.70974671  0.74950103  0.70209940  1
  Zr  Zr32  1  0.50185038  0.95138621  0.28398570  1
  Zr  Zr33  1  0.65990246  0.95537420  0.12215801  1
  Zr  Zr34  1  0.47332486  0.67724010  0.05438550  1
  Zr  Zr35  1  0.62723379  0.64735194  0.51939024  1
  Zr  Zr36  1  1.00374235  0.99147779  0.52323349  1
  Zr  Zr37  1  0.91633424  0.30313495  0.79231806  1
  Zr  Zr38  1  0.64119779  0.56407485  0.18024939  1
  Zr  Zr39  1  0.36812276  0.65163515  0.69171670  1
  Zr  Zr40  1  0.53132033  0.34274923  0.24250901  1
  Zr  Zr41  1  0.68836478  0.02394865  0.36983480  1
  Zr  Zr42  1  0.40802166  0.69891559  0.45174080  1
  Zr  Zr43  1  0.08879699  0.36667247  0.67814328  1
  Zr  Zr44  1  0.03521967  0.26500828  0.26269080  1
  Zr  Zr45  1  0.15132858  0.70650344  0.72744089  1
  Zr  Zr46  1  0.66706142  0.22907447  0.44927182  1
  Zr  Zr47  1  0.78527071  0.04269957  0.54663153  1
  Zr  Zr48  1  0.14765146  0.94603038  0.13198858  1
  Zr  Zr49  1  0.32423565  0.63140142  0.23723825  1
  Sc  Sc50  1  0.09249016  0.41120730  0.90881195  1
  Sc  Sc51  1  0.95233192  0.09667249  0.71004665  1
  Sc  Sc52  1  0.82714977  0.28952691  0.31656274  1
  Sc  Sc53  1  0.15769723  0.36753145  0.12372219  1
  Sc  Sc54  1  0.89610479  0.72998434  0.96880785  1
  Sc  Sc55  1  0.25070586  0.55451322  0.05073669  1
  Sc  Sc56  1  0.11891572  0.89164242  0.36232360  1
  Sc  Sc57  1  0.71336077  0.11559474  0.01143178  1
  Sc  Sc58  1  0.52478447  0.74146365  0.25634999  1
  Sc  Sc59  1  0.44272164  0.15663544  0.30329371  1
  Sc  Sc60  1  0.40635190  0.36415153  0.91909280  1
  Sc  Sc61  1  0.72013532  0.83086904  0.28320661  1
  Sc  Sc62  1  0.93111824  0.93983384  0.07227735  1
  Sc  Sc63  1  0.10510685  0.02410684  0.90810356  1
  Sc  Sc64  1  0.79688306  0.54487355  0.04412074  1
  Sc  Sc65  1  0.87063762  0.88694141  0.66357212  1
  Sc  Sc66  1  0.34914097  0.93248919  0.91975430  1
  Sc  Sc67  1  0.28851898  0.02709477  0.35587883  1
  Sc  Sc68  1  0.09841457  0.50947801  0.28567993  1
  Sc  Sc69  1  0.87384436  0.46548754  0.44716277  1
  Sc  Sc70  1  0.40605135  0.15717339  0.88205276  1
  Sc  Sc71  1  0.46532354  0.47410054  0.09157242  1
  Sc  Sc72  1  0.08851877  0.63315036  0.92486685  1
  Sc  Sc73  1  0.75712311  0.09109632  0.79680687  1
  Sc  Sc74  1  0.06553213  0.57081510  0.53049089  1
  Sc  Sc75  1  0.05178952  0.33623295  0.46727978  1
  Sc  Sc76  1  0.27527721  0.29952532  0.75568376  1
  Sc  Sc77  1  0.24977904  0.08019572  0.75490649  1
  Sc  Sc78  1  0.63285340  0.44557343  0.89906405  1
  Sc  Sc79  1  0.85632344  0.64456873  0.56131755  1
  Sc  Sc80  1  0.28334814  0.33926959  0.55415824  1
  Sc  Sc81  1  0.64794256  0.94201800  0.67372639  1
  Sc  Sc82  1  0.36089017  0.25837941  0.11983151  1
  Sc  Sc83  1  0.88072634  0.71081237  0.17869882  1
  Sc  Sc84  1  0.90827683  0.89798488  0.35228404  1
  Sc  Sc85  1  0.89004512  0.50239684  0.86999221  1
  Sc  Sc86  1  0.26896387  0.52209521  0.43130994  1
  Sc  Sc87  1  0.65523469  0.43808703  0.55562746  1
  Sc  Sc88  1  0.25675629  0.27064394  0.35768440  1
  Sc  Sc89  1  0.30462028  0.71713848  0.89377905  1
  Sc  Sc90  1  0.47207745  0.32624960  0.45376832  1
  Sc  Sc91  1  0.49942605  0.53660724  0.34642490  1
  Sc  Sc92  1  0.71258733  0.33692857  0.72473546  1
  Sc  Sc93  1  0.68283088  0.74871073  0.07818869  1
  Sc  Sc94  1  0.88009636  0.49094706  0.23528718  1
  Sc  Sc95  1  0.12131479  0.17334674  0.60667313  1
  Sc  Sc96  1  0.92660914  0.70086943  0.75566457  1
  Sc  Sc97  1  0.10644522  0.71833209  0.16635364  1
  Sc  Sc98  1  0.92165405  0.92240881  0.85870985  1
  Sc  Sc99  1  0.94316766  0.35654890  1.04073901  1
  Nb  Nb100  1  0.24194438  0.51850987  0.63770503  1
  Nb  Nb101  1  0.38426853  0.91388176  0.50480285  1
  Nb  Nb102  1  0.56492685  0.59716768  0.70956719  1
  Nb  Nb103  1  0.22387702  0.25375108  0.95578251  1
  Nb  Nb104  1  0.34675455  0.98301529  0.15916410  1
  Nb  Nb105  1  0.76971095  0.29428543  0.93617377  1
  Nb  Nb106  1  0.49630933  0.87197004  0.06203251  1
  Nb  Nb107  1  0.32297907  0.13087948  0.53359143  1
  Nb  Nb108  1  0.64628281  0.15634981  0.63831704  1
  Nb  Nb109  1  0.21019513  0.14387408  0.20422777  1
  Nb  Nb110  1  0.78226710  0.82030587  0.49290792  1
  Nb  Nb111  1  0.12326334  0.12372279  0.41004381  1
  Nb  Nb112  1  0.59167370  0.22123339  0.83578003  1
  Nb  Nb113  1  0.44489813  0.51856189  0.55146147  1
  Nb  Nb114  1  0.26639847  0.08587947  0.01902292  1
  Nb  Nb115  1  0.02050017  0.78906136  0.53665836  1
  Nb  Nb116  1  0.01086586  0.54649654  0.08247834  1
  Nb  Nb117  1  0.89790831  0.45265275  0.64902437  1
  Nb  Nb118  1  0.02683976  0.05830542  0.24926651  1
  Nb  Nb119  1  0.74774694  0.54828669  0.71894074  1
  Nb  Nb120  1  0.86813282  0.20133144  0.13273727  1
  Nb  Nb121  1  0.20534558  0.97435059  0.55336679  1
  Nb  Nb122  1  0.09127558  0.20888353  0.83072398  1
  Nb  Nb123  1  0.05365757  0.53819106  0.74084996  1
  Nb  Nb124  1  0.16788340  0.69077036  0.37159972  1
