# generated using pymatgen
data_Zr2Sc2Nb
_symmetry_space_group_name_H-M   'P 1'
_cell_length_a   14.14325585
_cell_length_b   14.22219495
_cell_length_c   14.28685487
_cell_angle_alpha   90.09684010
_cell_angle_beta   88.01972745
_cell_angle_gamma   90.10100419
_symmetry_Int_Tables_number   1
_chemical_formula_structural   Zr2Sc2Nb
_chemical_formula_sum   'Zr50 Sc50 Nb25'
_cell_volume   2872.04976741
_cell_formula_units_Z   25
loop_
 _symmetry_equiv_pos_site_id
 _symmetry_equiv_pos_as_xyz
  1  'x, y, z'
loop_
 _atom_site_type_symbol
 _atom_site_label
 _atom_site_symmetry_multiplicity
 _atom_site_fract_x
 _atom_site_fract_y
 _atom_site_fract_z
 _atom_site_occupancy
  Zr  Zr0  1  0.67479817  0.79372456  0.96101826  1
  Zr  Zr1  1  0.64250890  0.00688272  0.98647496  1
  Zr  Zr2  1  0.66595857  0.22804423  0.28199295  1
  Zr  Zr3  1  0.45027749  0.24615179  0.00155866  1
  Zr  Zr4  1  1.04911459  0.84356549  0.49159539  1
  Zr  Zr5  1  0.67288935  0.17315972  0.48791472  1
  Zr  Zr6  1  0.31012317  0.34499636  0.87257737  1
  Zr  Zr7  1  0.13372654  0.46456529  0.89479420  1
  Zr  Zr8  1  0.90767670  0.81475199  0.83860226  1
  Zr  Zr9  1  0.71116815  0.52275845  0.72288656  1
  Zr  Zr10  1  0.85906083  0.54075551  0.40839497  1
  Zr  Zr11  1  0.91329752  0.54847663  0.20385128  1
  Zr  Zr12  1  0.48756623  0.81024502  0.56451384  1
  Zr  Zr13  1  0.96976922  0.13356167  0.18576492  1
  Zr  Zr14  1  0.00444102  0.09723554  0.98640676  1
  Zr  Zr15  1  0.65846558  0.47056224  0.51022697  1
  Zr  Zr16  1  0.03904022  0.30544654  0.08454205  1
  Zr  Zr17  1  0.35779510  0.15445318  0.76437830  1
  Zr  Zr18  1  0.10785288  0.86668982  0.70830628  1
  Zr  Zr19  1  0.88665781  0.22571485  0.54076616  1
  Zr  Zr20  1  0.22210907  0.69164382  0.88230025  1
  Zr  Zr21  1  0.04775459  1.02569230  0.35332174  1
  Zr  Zr22  1  0.26626608  0.30849843  0.65667663  1
  Zr  Zr23  1  0.13763019  0.47869213  0.13306629  1
  Zr  Zr24  1  0.02404156  0.89068529  0.15544322  1
  Zr  Zr25  1  0.68340539  0.89157712  0.16719593  1
  Zr  Zr26  1  0.28494403  0.07439429  0.33688794  1
  Zr  Zr27  1  0.03105138  0.62927155  0.81591611  1
  Zr  Zr28  1  0.51996362  0.44921236  1.00133116  1
  Zr  Zr29  1  0.27821998  0.52029118  0.73145787  1
  Zr  Zr30  1  0.54221655  0.05267331  0.68809667  1
  Zr  Zr31  1  0.16053928  0.21770567  0.25831980  1
  Zr  Zr32  1  0.40853669  0.46795697  0.36773362  1
  Zr  Zr33  1  0.22825886  0.08481090  0.92690088  1
  Zr  Zr34  1  0.22434686  0.48295218  0.50936614  1
  Zr  Zr35  1  0.88981944  0.65551849  0.67698365  1
  Zr  Zr36  1  0.54255040  0.35027183  0.18678232  1
  Zr  Zr37  1  0.91038323  0.43861233  0.81066270  1
  Zr  Zr38  1  0.85749441  0.15261304  0.35072452  1
  Zr  Zr39  1  0.55264330  0.75370294  0.22633125  1
  Zr  Zr40  1  0.54491221  0.10885264  0.15580176  1
  Zr  Zr41  1  0.18565035  0.67430511  0.40869718  1
  Zr  Zr42  1  0.82779861  0.63190260  0.91306662  1
  Zr  Zr43  1  0.71081163  0.74207045  0.75771044  1
  Zr  Zr44  1  0.69220152  0.37186405  0.85834959  1
  Zr  Zr45  1  0.63732807  0.16163720  0.83023996  1
  Zr  Zr46  1  0.35161945  0.07008679  0.11132201  1
  Zr  Zr47  1  0.85836428  0.92073052  0.28156074  1
  Zr  Zr48  1  0.15111298  0.05207694  0.13613690  1
  Zr  Zr49  1  0.76805530  0.08020462  0.66817932  1
  Sc  Sc50  1  0.49963250  0.30729624  0.77199855  1
  Sc  Sc51  1  0.87724970  0.28372922  0.96502191  1
  Sc  Sc52  1  -0.01534493  0.34508664  0.29631256  1
  Sc  Sc53  1  0.68803290  0.30594488  0.64443654  1
  Sc  Sc54  1  0.45424136  0.04592920  0.90922253  1
  Sc  Sc55  1  0.44908714  0.43611860  0.58956983  1
  Sc  Sc56  1  0.33433665  0.28396555  0.44588479  1
  Sc  Sc57  1  0.66858372  0.24160627  0.03160189  1
  Sc  Sc58  1  0.45639933  0.69730202  0.91412663  1
  Sc  Sc59  1  0.86937924  0.43493443  0.60689923  1
  Sc  Sc60  1  0.47632301  0.88013465  0.05379386  1
  Sc  Sc61  1  0.08718258  0.90424580  0.92590598  1
  Sc  Sc62  1  0.68212608  0.48218785  0.28436332  1
  Sc  Sc63  1  0.31432449  0.53213904  0.99380979  1
  Sc  Sc64  1  0.74930116  0.69774602  0.30489118  1
  Sc  Sc65  1  0.85664142  0.92685321  0.01324541  1
  Sc  Sc66  1  0.74052016  0.45517673  0.04096977  1
  Sc  Sc67  1  0.04083917  0.27401626  0.67173626  1
  Sc  Sc68  1  0.13670523  0.69639428  0.18737234  1
  Sc  Sc69  1  0.19817279  0.87531354  0.31116253  1
  Sc  Sc70  1  0.23625911  0.87112195  0.07518822  1
  Sc  Sc71  1  0.16017363  0.66657665  0.64980250  1
  Sc  Sc72  1  0.95587717  0.49520958  0.00879818  1
  Sc  Sc73  1  0.53242266  0.63709979  0.67257583  1
  Sc  Sc74  1  0.13846297  0.19551173  0.48116694  1
  Sc  Sc75  1  1.01303964  0.61685816  0.51527670  1
  Sc  Sc76  1  0.52537421  0.86077578  0.78916942  1
  Sc  Sc77  1  0.16459164  0.08900985  0.70744541  1
  Sc  Sc78  1  0.23725504  0.25683169  0.05751029  1
  Sc  Sc79  1  0.77784562  0.09194006  0.13671985  1
  Sc  Sc80  1  0.54579808  0.62969694  0.41397637  1
  Sc  Sc81  1  0.85976172  0.74301640  0.12422369  1
  Sc  Sc82  1  0.85121123  0.78239202  0.46815079  1
  Sc  Sc83  1  0.03693038  0.39267119  0.48281450  1
  Sc  Sc84  1  0.03913341  0.70278952  0.01119313  1
  Sc  Sc85  1  0.82240906  0.32606597  0.18219584  1
  Sc  Sc86  1  0.09514094  0.25653690  0.86646320  1
  Sc  Sc87  1  0.26293088  0.80843426  0.54556350  1
  Sc  Sc88  1  0.67252725  0.63479155  0.10068316  1
  Sc  Sc89  1  0.46874342  0.94452290  0.26633972  1
  Sc  Sc90  1  0.99049633  0.04327450  0.57288003  1
  Sc  Sc91  1  0.46583986  0.50579039  0.81153151  1
  Sc  Sc92  1  0.34170555  0.94491824  0.67842380  1
  Sc  Sc93  1  0.80097513  0.98713756  0.47727968  1
  Sc  Sc94  1  0.48580454  0.55757974  0.18984739  1
  Sc  Sc95  1  0.37952679  0.74173221  0.35108366  1
  Sc  Sc96  1  0.35585422  0.70703611  0.11742791  1
  Sc  Sc97  1  0.70094496  0.67805266  0.54880067  1
  Sc  Sc98  1  0.95575322  0.03281473  0.78259435  1
  Sc  Sc99  1  0.31249864  0.88379429  0.87665249  1
  Nb  Nb100  1  0.63649037  0.58855393  0.89580122  1
  Nb  Nb101  1  0.19015248  0.99173151  0.51599467  1
  Nb  Nb102  1  0.49009165  0.22314300  0.58013296  1
  Nb  Nb103  1  0.48311288  0.13655517  0.37542582  1
  Nb  Nb104  1  0.21031877  0.39131315  0.31815837  1
  Nb  Nb105  1  0.36062171  0.62526173  0.54315175  1
  Nb  Nb106  1  0.62431653  0.84681679  0.40270032  1
  Nb  Nb107  1  0.35006074  0.72814266  0.72463674  1
  Nb  Nb108  1  0.73200702  0.94362714  0.80697341  1
  Nb  Nb109  1  0.54988103  0.33120130  0.41148281  1
  Nb  Nb110  1  0.38056947  0.24417401  0.24336207  1
  Nb  Nb111  1  0.66452443  0.02579460  0.32304361  1
  Nb  Nb112  1  0.38328963  0.93756319  0.44716999  1
  Nb  Nb113  1  0.07957563  0.47522428  0.68110193  1
  Nb  Nb114  1  0.67696584  0.88425814  0.61321088  1
  Nb  Nb115  1  0.07363635  0.53744281  0.32512392  1
  Nb  Nb116  1  0.55374119  1.00839669  0.49978330  1
  Nb  Nb117  1  0.34829687  0.10613117  0.55211684  1
  Nb  Nb118  1  0.85127459  0.24014809  0.76362544  1
  Nb  Nb119  1  0.87641660  0.87385538  0.65202081  1
  Nb  Nb120  1  0.27967925  0.56746330  0.25860251  1
  Nb  Nb121  1  0.34265652  0.40490662  0.15133017  1
  Nb  Nb122  1  0.80491376  0.10180657  0.90741862  1
  Nb  Nb123  1  0.78725029  0.34547650  0.41562197  1
  Nb  Nb124  1  0.97891806  0.72865989  0.31477621  1
