# generated using pymatgen
data_Zr2Sc2Nb
_symmetry_space_group_name_H-M   'P 1'
_cell_length_a   14.18746894
_cell_length_b   14.29267184
_cell_length_c   14.18352450
_cell_angle_alpha   88.82968091
_cell_angle_beta   88.71338445
_cell_angle_gamma   86.07211503
_symmetry_Int_Tables_number   1
_chemical_formula_structural   Zr2Sc2Nb
_chemical_formula_sum   'Zr50 Sc50 Nb25'
_cell_volume   2868.09674097
_cell_formula_units_Z   25
loop_
 _symmetry_equiv_pos_site_id
 _symmetry_equiv_pos_as_xyz
  1  'x, y, z'
loop_
 _atom_site_type_symbol
 _atom_site_label
 _atom_site_symmetry_multiplicity
 _atom_site_fract_x
 _atom_site_fract_y
 _atom_site_fract_z
 _atom_site_occupancy
  Zr  Zr0  1  0.41027099  0.49075335  0.85431278  1
  Zr  Zr1  1  0.91217170  0.77965066  0.40598045  1
  Zr  Zr2  1  0.94714067  0.12465552  0.91798794  1
  Zr  Zr3  1  -0.00678758  0.54175177  0.89207639  1
  Zr  Zr4  1  0.84545227  0.33564430  0.25598792  1
  Zr  Zr5  1  0.51353934  0.52243945  0.65231048  1
  Zr  Zr6  1  0.06429132  0.61995081  0.70453679  1
  Zr  Zr7  1  0.73926595  0.21458247  0.86958847  1
  Zr  Zr8  1  0.44940134  0.19289853  0.19852741  1
  Zr  Zr9  1  0.02767821  0.33057796  0.97975935  1
  Zr  Zr10  1  1.00111124  0.85201634  0.18959488  1
  Zr  Zr11  1  0.93739333  0.92574903  -0.00648281  1
  Zr  Zr12  1  0.72009655  0.43152134  0.10498907  1
  Zr  Zr13  1  0.96358781  0.71131557  0.00615669  1
  Zr  Zr14  1  0.15524613  0.49385629  0.41742290  1
  Zr  Zr15  1  0.38389455  0.34472060  0.36901183  1
  Zr  Zr16  1  0.14649855  0.81539295  0.01439877  1
  Zr  Zr17  1  0.97453212  0.60646062  0.50771079  1
  Zr  Zr18  1  0.36812004  0.16528057  0.55136572  1
  Zr  Zr19  1  0.04076644  0.32305354  0.36104161  1
  Zr  Zr20  1  0.35732202  0.93623818  0.61527725  1
  Zr  Zr21  1  0.26086031  0.73519619  0.15990907  1
  Zr  Zr22  1  0.94482144  0.01477598  0.54916751  1
  Zr  Zr23  1  0.34606942  0.08303317  0.94798111  1
  Zr  Zr24  1  0.36372806  0.74354653  0.94840667  1
  Zr  Zr25  1  0.91214839  0.16160171  0.37419704  1
  Zr  Zr26  1  0.59218227  0.76232802  0.29092838  1
  Zr  Zr27  1  0.17232002  0.25898926  0.66631900  1
  Zr  Zr28  1  0.55581108  0.63571367  0.95329318  1
  Zr  Zr29  1  0.24717991  0.76488960  0.74284194  1
  Zr  Zr30  1  0.46716333  0.71426528  0.76493573  1
  Zr  Zr31  1  0.20610543  0.29035843  0.46756451  1
  Zr  Zr32  1  0.13542781  0.91568955  0.65183214  1
  Zr  Zr33  1  0.65910094  0.62582141  0.15019174  1
  Zr  Zr34  1  0.14119731  0.41484411  0.19246967  1
  Zr  Zr35  1  -0.01644890  0.23748553  0.55429398  1
  Zr  Zr36  1  0.70880947  0.48589446  0.32551202  1
  Zr  Zr37  1  0.55270592  0.90490237  0.69001345  1
  Zr  Zr38  1  0.28285360  0.54256470  0.25854224  1
  Zr  Zr39  1  0.25090964  0.08148298  0.73456712  1
  Zr  Zr40  1  0.14350962  0.96870494  0.87152159  1
  Zr  Zr41  1  0.53258201  0.30269559  0.76908675  1
  Zr  Zr42  1  0.73065684  0.08637512  0.50445964  1
  Zr  Zr43  1  0.20397993  0.90961383  0.23663913  1
  Zr  Zr44  1  0.43258022  0.30871825  0.98820989  1
  Zr  Zr45  1  0.11895215  0.09437041  0.30729981  1
  Zr  Zr46  1  0.48875238  0.84995001  0.46333520  1
  Zr  Zr47  1  0.83854590  0.24814871  0.06019893  1
  Zr  Zr48  1  0.32533599  0.27443615  0.82097244  1
  Zr  Zr49  1  0.33551790  0.55523632  0.05194889  1
  Sc  Sc50  1  0.69864009  0.85806593  0.46380259  1
  Sc  Sc51  1  0.84882501  -0.02751113  0.34901110  1
  Sc  Sc52  1  0.93386551  -0.05562580  0.77886756  1
  Sc  Sc53  1  0.61920685  0.41987212  0.90708927  1
  Sc  Sc54  1  0.21720649  0.41486777  0.98653463  1
  Sc  Sc55  1  0.55476572  0.41097250  0.47051004  1
  Sc  Sc56  1  0.35953248  0.05805391  0.37408737  1
  Sc  Sc57  1  0.23788753  0.22834649  0.07184934  1
  Sc  Sc58  1  0.74540849  0.90559964  0.18436216  1
  Sc  Sc59  1  0.62169628  0.24774117  0.06746590  1
  Sc  Sc60  1  0.96315671  0.53721647  0.30064058  1
  Sc  Sc61  1  0.55843530  0.81959124  0.07731502  1
  Sc  Sc62  1  0.45297647  0.09620138  0.73786852  1
  Sc  Sc63  1  0.71915082  0.15008386  0.24403583  1
  Sc  Sc64  1  0.67491616  0.77113145  0.80809016  1
  Sc  Sc65  1  0.91763847  0.06282886  0.16348163  1
  Sc  Sc66  1  0.36685846  0.36368707  0.61795179  1
  Sc  Sc67  1  0.92808225  0.49041523  0.09828920  1
  Sc  Sc68  1  0.17985212  0.69409654  0.52745141  1
  Sc  Sc69  1  0.16074381  0.08258237  0.51878763  1
  Sc  Sc70  1  0.55876209  0.12338357  0.90979326  1
  Sc  Sc71  1  0.54448286  0.19046718  0.39121620  1
  Sc  Sc72  1  0.15078509  0.42215094  0.79144699  1
  Sc  Sc73  1  0.06171506  0.90934729  0.40733880  1
  Sc  Sc74  1  0.58019682  0.99266528  0.31859433  1
  Sc  Sc75  1  0.49676105  0.52876150  0.28293805  1
  Sc  Sc76  1  0.75931122  0.81609634  -0.00560761  1
  Sc  Sc77  1  0.72721745  0.34130414  0.67171073  1
  Sc  Sc78  1  0.73303998  0.28985918  0.44697360  1
  Sc  Sc79  1  0.84416969  0.14024674  0.69475771  1
  Sc  Sc80  1  0.26670961  0.87643758  0.44479463  1
  Sc  Sc81  1  0.72685209  0.98184561  0.85373253  1
  Sc  Sc82  1  0.88313843  0.42647025  0.47762946  1
  Sc  Sc83  1  0.12682450  0.04008279  0.07174065  1
  Sc  Sc84  1  0.28215106  0.55789456  0.68362380  1
  Sc  Sc85  1  0.37045080  0.71093767  0.35356919  1
  Sc  Sc86  1  0.36129430  0.53634891  0.47696797  1
  Sc  Sc87  1  0.18697705  0.62141564  0.90175890  1
  Sc  Sc88  1  0.77807700  0.60434149  0.95927466  1
  Sc  Sc89  1  0.68740076  0.56947822  0.76020198  1
  Sc  Sc90  1  0.83108195  0.40396850  0.89770933  1
  Sc  Sc91  1  0.53612075  0.02201864  0.09923120  1
  Sc  Sc92  1  0.88674430  0.50355232  0.69218102  1
  Sc  Sc93  1  0.85297039  0.70215858  0.19558977  1
  Sc  Sc94  1  0.03397933  0.23410655  0.16699665  1
  Sc  Sc95  1  0.10681356  0.69799436  0.31522056  1
  Sc  Sc96  1  0.76334908  0.65679647  0.40072035  1
  Sc  Sc97  1  0.97777450  0.80028673  0.61393930  1
  Sc  Sc98  1  0.76986270  0.90661719  0.64844819  1
  Sc  Sc99  1  0.97301237  0.30233225  0.76764630  1
  Nb  Nb100  1  0.61238296  0.71653388  0.60546336  1
  Nb  Nb101  1  0.64849172  0.10728921  0.70117003  1
  Nb  Nb102  1  0.51974438  0.47117527  0.08507278  1
  Nb  Nb103  1  0.70843825  0.52539172  0.55117761  1
  Nb  Nb104  1  0.14594698  0.19447330  0.88219904  1
  Nb  Nb105  1  0.75017493  0.06337263  0.03473423  1
  Nb  Nb106  1  0.07315816  0.43046011  0.59085856  1
  Nb  Nb107  1  0.87860638  0.71812367  0.79747919  1
  Nb  Nb108  1  0.24524240  0.23694953  0.27644687  1
  Nb  Nb109  1  0.10725432  0.60696754  0.11346952  1
  Nb  Nb110  1  0.51755494  0.91185525  0.89970153  1
  Nb  Nb111  1  0.55653057  0.62904183  0.45503159  1
  Nb  Nb112  1  0.80433182  0.69256747  0.60888071  1
  Nb  Nb113  1  0.44989120  0.68123061  0.14732052  1
  Nb  Nb114  1  0.34522842  0.90515448  1.05027886  1
  Nb  Nb115  1  0.36571436  0.37590696  0.16840128  1
  Nb  Nb116  1  0.54116867  1.03386698  0.53491557  1
  Nb  Nb117  1  0.04957186  0.10318556  0.71922619  1
  Nb  Nb118  1  0.41490908  0.88306207  0.24094352  1
  Nb  Nb119  1  0.58802022  0.34188670  0.25083512  1
  Nb  Nb120  1  0.31578802  1.05723977  0.17156247  1
  Nb  Nb121  1  0.56001426  0.23454362  0.58632044  1
  Nb  Nb122  1  0.35030096  0.91230746  0.82277629  1
  Nb  Nb123  1  0.39512538  0.71714396  0.57957011  1
  Nb  Nb124  1  0.05518736  0.78254504  0.83034100  1
