# generated using pymatgen
data_Zr2Sc2Nb
_symmetry_space_group_name_H-M   'P 1'
_cell_length_a   14.01630103
_cell_length_b   14.55216662
_cell_length_c   14.14906732
_cell_angle_alpha   90.25273121
_cell_angle_beta   89.90318678
_cell_angle_gamma   91.28072384
_symmetry_Int_Tables_number   1
_chemical_formula_structural   Zr2Sc2Nb
_chemical_formula_sum   'Zr50 Sc50 Nb25'
_cell_volume   2885.19789243
_cell_formula_units_Z   25
loop_
 _symmetry_equiv_pos_site_id
 _symmetry_equiv_pos_as_xyz
  1  'x, y, z'
loop_
 _atom_site_type_symbol
 _atom_site_label
 _atom_site_symmetry_multiplicity
 _atom_site_fract_x
 _atom_site_fract_y
 _atom_site_fract_z
 _atom_site_occupancy
  Zr  Zr0  1  0.63446014  0.77232044  0.30234366  1
  Zr  Zr1  1  0.14567964  0.76400722  0.86182979  1
  Zr  Zr2  1  0.18377741  0.18986423  0.13024473  1
  Zr  Zr3  1  0.74142679  0.81794556  0.73991951  1
  Zr  Zr4  1  0.48730568  0.88356378  0.41215442  1
  Zr  Zr5  1  0.88386516  0.19766418  0.78730009  1
  Zr  Zr6  1  0.64973146  0.95521850  0.55768197  1
  Zr  Zr7  1  0.99228790  0.65480090  0.94845433  1
  Zr  Zr8  1  0.54756677  0.92715522  0.73680802  1
  Zr  Zr9  1  0.47421949  0.24541702  0.45252010  1
  Zr  Zr10  1  0.60056492  0.06771166  0.06858304  1
  Zr  Zr11  1  0.97040951  0.17843463  0.12612952  1
  Zr  Zr12  1  0.56373075  0.69856810  0.69073177  1
  Zr  Zr13  1  0.91806436  0.84942889  0.41840619  1
  Zr  Zr14  1  0.18356355  0.07598732  0.31335979  1
  Zr  Zr15  1  0.43033690  0.38967600  0.28189272  1
  Zr  Zr16  1  0.15886108  0.29807169  0.62013953  1
  Zr  Zr17  1  0.21064890  0.14241775  0.77488540  1
  Zr  Zr18  1  0.19350373  0.28017030  0.96118751  1
  Zr  Zr19  1  0.07074803  -0.00435488  0.49388052  1
  Zr  Zr20  1  0.05507575  0.33836090  0.80290885  1
  Zr  Zr21  1  0.76675906  0.65961788  0.87679058  1
  Zr  Zr22  1  0.22471390  0.39151095  0.16879840  1
  Zr  Zr23  1  0.65060052  0.37813601  0.38724976  1
  Zr  Zr24  1  0.60144765  0.35394423  0.61066928  1
  Zr  Zr25  1  0.29719641  0.89427021  0.80333403  1
  Zr  Zr26  1  0.72833399  0.46208855  0.96486900  1
  Zr  Zr27  1  0.79837233  0.61450725  0.65137091  1
  Zr  Zr28  1  0.27847988  0.36345796  0.79902437  1
  Zr  Zr29  1  0.39768165  0.83506167  0.61021677  1
  Zr  Zr30  1  0.74826915  0.04741510  0.71635235  1
  Zr  Zr31  1  0.02695911  0.40954335  0.44062438  1
  Zr  Zr32  1  0.50672054  0.86786665  0.11273346  1
  Zr  Zr33  1  0.54818692  0.59116131  0.91357854  1
  Zr  Zr34  1  0.88398615  0.48826510  0.30421420  1
  Zr  Zr35  1  0.72314464  0.59203186  0.40859115  1
  Zr  Zr36  1  0.82994541  0.74868143  0.05604858  1
  Zr  Zr37  1  0.89598827  0.52587428  0.08100855  1
  Zr  Zr38  1  0.91544018  0.97855591  0.02366667  1
  Zr  Zr39  1  0.52995731  0.48665687  0.09208741  1
  Zr  Zr40  1  -0.01889333  0.70007873  0.71404574  1
  Zr  Zr41  1  0.71757470  0.76496543  0.51852891  1
  Zr  Zr42  1  0.92430274  0.89502026  0.20607815  1
  Zr  Zr43  1  0.91009240  0.33010494  0.97014646  1
  Zr  Zr44  1  0.71790597  0.89640098  0.14042855  1
  Zr  Zr45  1  0.43943039  0.72136248  0.24906632  1
  Zr  Zr46  1  0.86163557  0.08113267  0.52362758  1
  Zr  Zr47  1  0.29938619  0.75128897  0.42759786  1
  Zr  Zr48  1  0.83387107  0.39424483  0.73766594  1
  Zr  Zr49  1  0.71669395  0.54645538  0.18275507  1
  Sc  Sc50  1  0.01309287  0.68117340  0.18538987  1
  Sc  Sc51  1  0.15843606  0.58923776  0.49068896  1
  Sc  Sc52  1  0.39182496  0.26440616  0.65702425  1
  Sc  Sc53  1  0.19749999  0.63840571  0.03201502  1
  Sc  Sc54  1  0.50860265  0.38681487  0.88247038  1
  Sc  Sc55  1  0.95865210  0.07195187  0.31906460  1
  Sc  Sc56  1  0.33243128  0.49038726  0.96254575  1
  Sc  Sc57  1  0.10355269  0.80135522  0.52334173  1
  Sc  Sc58  1  0.26231298  0.06634213  0.95948277  1
  Sc  Sc59  1  0.27758143  0.85069151  0.02946112  1
  Sc  Sc60  1  0.82789982  0.71408610  0.27343013  1
  Sc  Sc61  1  0.77036877  0.10956171  0.20200928  1
  Sc  Sc62  1  0.67942070  0.27904128  0.81146472  1
  Sc  Sc63  1  0.65197859  0.13887580  0.43735625  1
  Sc  Sc64  1  0.11278451  0.86418832  0.30628662  1
  Sc  Sc65  1  0.93682194  0.63728128  0.47143019  1
  Sc  Sc66  1  0.45185774  0.97108337  0.93700217  1
  Sc  Sc67  1  0.01906629  0.49491528  0.64554461  1
  Sc  Sc68  1  0.94658548  0.28535427  0.59734440  1
  Sc  Sc69  1  0.80845456  0.43595519  0.52420143  1
  Sc  Sc70  1  0.15619625  0.54777216  0.80945307  1
  Sc  Sc71  1  0.32990511  0.91355679  0.24231533  1
  Sc  Sc72  1  0.78369935  0.33459358  0.16562114  1
  Sc  Sc73  1  0.08847564  0.45685081  0.00015086  1
  Sc  Sc74  1  0.54113512  0.55630751  0.30849569  1
  Sc  Sc75  1  0.23880217  0.37524621  0.42291264  1
  Sc  Sc76  1  1.03665689  0.09986306  0.67229868  1
  Sc  Sc77  1  0.39760071  0.30520363  0.07993959  1
  Sc  Sc78  1  0.21318879  0.71312946  0.66784293  1
  Sc  Sc79  1  0.23253246  0.71404308  0.21758286  1
  Sc  Sc80  1  0.11716319  -0.00591278  0.11637263  1
  Sc  Sc81  1  0.79489766  0.14396909  0.97574793  1
  Sc  Sc82  1  0.26466506  0.15482539  0.50082379  1
  Sc  Sc83  1  0.61887975  0.27689834  0.03114992  1
  Sc  Sc84  1  0.75409131  0.95027481  0.36367947  1
  Sc  Sc85  1  0.41193882  0.20431552  0.88713461  1
  Sc  Sc86  1  0.39262621  0.09169436  0.13570408  1
  Sc  Sc87  1  0.12148328  0.52502897  0.27951833  1
  Sc  Sc88  1  0.86959764  0.26965513  0.36879863  1
  Sc  Sc89  1  0.72531538  0.93466591  0.92206907  1
  Sc  Sc90  1  0.44285214  0.04105107  0.54846701  1
  Sc  Sc91  1  0.59677408  0.10273585  0.85987294  1
  Sc  Sc92  1  0.36691232  0.67783450  0.81773935  1
  Sc  Sc93  1  0.44696346  0.49371472  0.71595679  1
  Sc  Sc94  1  0.43700198  0.44746731  0.49533568  1
  Sc  Sc95  1  0.66158904  0.50302102  0.76024447  1
  Sc  Sc96  1  0.55679527  0.22034308  0.24170938  1
  Sc  Sc97  1  0.56799475  0.79033539  0.90885032  1
  Sc  Sc98  1  0.89483474  0.89205064  0.62405271  1
  Sc  Sc99  1  0.57400016  1.00561359  0.26702459  1
  Nb  Nb100  1  0.51103565  0.68924972  0.46369606  1
  Nb  Nb101  1  0.92455253  0.82526487  0.86471041  1
  Nb  Nb102  1  0.37576559  0.62391570  0.57810960  1
  Nb  Nb103  1  0.09659655  0.26902230  0.29923749  1
  Nb  Nb104  1  0.35036757  0.54702790  0.16920035  1
  Nb  Nb105  1  0.41421476  0.68495894  0.04085829  1
  Nb  Nb106  1  0.08264553  0.89595364  0.71425073  1
  Nb  Nb107  1  0.03802577  0.14309696  0.92899136  1
  Nb  Nb108  1  0.61385371  0.69207218  0.10017019  1
  Nb  Nb109  1  0.06008640  0.19339173  0.46430437  1
  Nb  Nb110  1  0.39821686  0.05947395  0.74482841  1
  Nb  Nb111  1  0.99983277  0.37192317  0.17900629  1
  Nb  Nb112  1  0.27503327  0.94275378  0.44567394  1
  Nb  Nb113  1  0.57536639  0.14830366  0.65571036  1
  Nb  Nb114  1  0.09970525  0.96147384  0.89317655  1
  Nb  Nb115  1  0.92154744  0.51508587  0.84815513  1
  Nb  Nb116  1  0.05394829  0.81959345  0.04322288  1
  Nb  Nb117  1  0.32969787  0.56551882  0.36618519  1
  Nb  Nb118  1  0.91637029  0.00122690  0.81637579  1
  Nb  Nb119  1  0.25196881  0.47312759  0.62587145  1
  Nb  Nb120  1  0.75047874  0.23230029  0.60339340  1
  Nb  Nb121  1  0.60573500  0.55050420  0.55813618  1
  Nb  Nb122  1  0.31694033  0.23323760  0.28706771  1
  Nb  Nb123  1  0.23788987  0.98109151  0.63128187  1
  Nb  Nb124  1  0.40632009  0.08104421  0.35143693  1
