# generated using pymatgen
data_Zr2Sc2Nb
_symmetry_space_group_name_H-M   'P 1'
_cell_length_a   14.12546777
_cell_length_b   14.21874874
_cell_length_c   14.39355768
_cell_angle_alpha   91.23727774
_cell_angle_beta   93.99848544
_cell_angle_gamma   89.49708357
_symmetry_Int_Tables_number   1
_chemical_formula_structural   Zr2Sc2Nb
_chemical_formula_sum   'Zr50 Sc50 Nb25'
_cell_volume   2883.10958810
_cell_formula_units_Z   25
loop_
 _symmetry_equiv_pos_site_id
 _symmetry_equiv_pos_as_xyz
  1  'x, y, z'
loop_
 _atom_site_type_symbol
 _atom_site_label
 _atom_site_symmetry_multiplicity
 _atom_site_fract_x
 _atom_site_fract_y
 _atom_site_fract_z
 _atom_site_occupancy
  Zr  Zr0  1  0.27352077  0.09554921  0.47247205  1
  Zr  Zr1  1  0.45264824  0.38912045  0.79442782  1
  Zr  Zr2  1  0.40806390  0.49615689  0.60255367  1
  Zr  Zr3  1  0.92926184  0.12761998  0.14263089  1
  Zr  Zr4  1  0.45632850  0.57300963  0.41387363  1
  Zr  Zr5  1  0.95899690  -0.00454747  0.96516038  1
  Zr  Zr6  1  0.72946767  0.65452921  0.83776070  1
  Zr  Zr7  1  0.65446984  0.48552204  0.13708906  1
  Zr  Zr8  1  0.46211896  0.90373727  0.69652098  1
  Zr  Zr9  1  0.83557895  0.50475543  0.71048812  1
  Zr  Zr10  1  0.82217564  0.94834497  0.74836389  1
  Zr  Zr11  1  0.58858828  0.26482033  0.67209314  1
  Zr  Zr12  1  0.49247800  0.68888024  0.07033683  1
  Zr  Zr13  1  0.14984078  0.25471033  0.20565237  1
  Zr  Zr14  1  0.40129157  -0.00765075  0.32335260  1
  Zr  Zr15  1  0.52755125  0.76858508  0.88639796  1
  Zr  Zr16  1  0.85108106  0.07589440  0.33709742  1
  Zr  Zr17  1  0.20116373  0.92200784  0.35044413  1
  Zr  Zr18  1  0.60163684  0.94664019  0.26955105  1
  Zr  Zr19  1  0.42063584  0.91156132  0.09263876  1
  Zr  Zr20  1  0.71938788  0.68363395  0.03053708  1
  Zr  Zr21  1  0.65470379  0.70698798  0.42861216  1
  Zr  Zr22  1  0.13971983  0.49909272  0.94999543  1
  Zr  Zr23  1  0.57705704  0.27818845  0.13139838  1
  Zr  Zr24  1  0.63588651  0.30289155  0.92350045  1
  Zr  Zr25  1  0.31616530  0.10662282  0.96961013  1
  Zr  Zr26  1  0.82367002  0.55607808  0.49575967  1
  Zr  Zr27  1  0.03587853  0.52037611  0.68727261  1
  Zr  Zr28  1  0.87722187  0.98134225  0.53524194  1
  Zr  Zr29  1  0.48437280  0.13043740  0.78460202  1
  Zr  Zr30  1  0.94249250  0.19059418  0.49525442  1
  Zr  Zr31  1  0.96528072  0.39698121  0.49129540  1
  Zr  Zr32  1  0.96085049  0.41609968  0.86885243  1
  Zr  Zr33  1  0.64187500  0.45643264  0.74373082  1
  Zr  Zr34  1  0.79797259  0.84788932  0.92556829  1
  Zr  Zr35  1  0.14938045  0.26281303  0.42504720  1
  Zr  Zr36  1  0.50273609  0.72430195  0.57118642  1
  Zr  Zr37  1  0.34078244  0.22231334  0.32786781  1
  Zr  Zr38  1  0.10722908  0.79791723  0.48324640  1
  Zr  Zr39  1  0.23655337  0.61077034  0.49547567  1
  Zr  Zr40  1  0.33259715  0.77444569  0.41856220  1
  Zr  Zr41  1  0.35425124  0.25525634  0.11954040  1
  Zr  Zr42  1  0.11448502  0.31906501  0.78869425  1
  Zr  Zr43  1  0.96965384  0.89622647  0.35084818  1
  Zr  Zr44  1  0.85773826  0.54495966  0.12467419  1
  Zr  Zr45  1  0.40732793  0.94958380  0.88735278  1
  Zr  Zr46  1  0.71638842  0.66756518  0.63030142  1
  Zr  Zr47  1  0.68248553  0.05911985  0.44824255  1
  Zr  Zr48  1  0.15830773  0.66163551  0.83498157  1
  Zr  Zr49  1  0.87594068  0.47277469  0.30330685  1
  Sc  Sc50  1  0.12825567  0.72480767  0.04147272  1
  Sc  Sc51  1  0.67827356  0.70929232  0.22242991  1
  Sc  Sc52  1  0.95662693  0.27928652  0.29557909  1
  Sc  Sc53  1  0.25092070  0.48063358  0.74722348  1
  Sc  Sc54  1  0.82398842  0.92447185  0.17198812  1
  Sc  Sc55  1  0.51911413  0.90958486  0.47794200  1
  Sc  Sc56  1  0.34221487  0.28019539  0.59385120  1
  Sc  Sc57  1  0.09426763  0.71702559  0.28830911  1
  Sc  Sc58  1  0.79286613  0.30839705  0.12236908  1
  Sc  Sc59  1  0.13378452  0.08044968  0.84809772  1
  Sc  Sc60  1  0.08941173  0.02788321  0.52143466  1
  Sc  Sc61  1  0.27474202  0.80368546  0.18199354  1
  Sc  Sc62  1  0.92549861  0.75160886  0.11235198  1
  Sc  Sc63  1  -0.03042756  0.11726078  0.71329062  1
  Sc  Sc64  1  0.47880541  0.11832320  0.53353121  1
  Sc  Sc65  1  0.94303384  0.62708688  0.93373313  1
  Sc  Sc66  1  0.77628594  0.15662295  0.61980825  1
  Sc  Sc67  1  0.28393692  0.06995061  0.69814222  1
  Sc  Sc68  1  0.28091138  0.60674256  0.28172244  1
  Sc  Sc69  1  0.10941078  0.46112834  0.33620845  1
  Sc  Sc70  1  0.37905144  0.59331804  0.88252196  1
  Sc  Sc71  1  0.07796220  0.08920163  0.30846097  1
  Sc  Sc72  1  0.89705931  0.76404903  0.52743085  1
  Sc  Sc73  1  0.57700519  0.53305217  0.93228736  1
  Sc  Sc74  1  0.76526587  0.06742102  -0.00032912  1
  Sc  Sc75  1  0.65485869  0.49567460  0.34886075  1
  Sc  Sc76  1  0.91071892  0.72266389  0.73623417  1
  Sc  Sc77  1  0.78013312  0.45902598  0.94315853  1
  Sc  Sc78  1  0.22574990  0.86875905  0.78593176  1
  Sc  Sc79  1  0.99099280  0.35281537  0.08362619  1
  Sc  Sc80  1  0.51636746  0.34534143  0.47077650  1
  Sc  Sc81  1  0.71253229  0.13322822  0.81598978  1
  Sc  Sc82  1  0.27153879  0.43016358  0.17266725  1
  Sc  Sc83  1  0.74880978  0.35976600  0.55392867  1
  Sc  Sc84  1  0.32707211  0.69968741  0.69072831  1
  Sc  Sc85  1  0.47819620  0.77143016  0.28278564  1
  Sc  Sc86  1  0.06590010  0.92170531  0.15300078  1
  Sc  Sc87  1  0.03531408  0.90022484  0.67602829  1
  Sc  Sc88  1  0.07576251  0.55000360  0.14432791  1
  Sc  Sc89  1  0.93168276  0.20641349  0.91273339  1
  Sc  Sc90  1  0.73911536  0.28464476  0.34183068  1
  Sc  Sc91  1  0.69573236  0.10960327  0.18694252  1
  Sc  Sc92  1  0.25932222  0.05044809  0.17722298  1
  Sc  Sc93  1  0.54491579  0.17662020  0.32867415  1
  Sc  Sc94  1  0.62772184  0.89345015  0.05848258  1
  Sc  Sc95  1  0.17123334  0.42201509  0.55883601  1
  Sc  Sc96  1  0.16628089  0.27974342  0.98634866  1
  Sc  Sc97  1  0.87789304  0.68800968  0.32152351  1
  Sc  Sc98  1  0.27663916  0.89301990  0.57492901  1
  Sc  Sc99  1  0.03633281  0.83270026  0.88146300  1
  Nb  Nb100  1  0.76508655  0.87304940  0.37309262  1
  Nb  Nb101  1  0.29716257  0.24931623  0.80162170  1
  Nb  Nb102  1  0.13645850  0.21613597  0.62176964  1
  Nb  Nb103  1  0.71038964  0.87014458  0.56261791  1
  Nb  Nb104  1  0.47225199  0.38453000  0.26812362  1
  Nb  Nb105  1  0.31633038  0.41821312  0.39860168  1
  Nb  Nb106  1  0.44863487  0.25711293  0.95350811  1
  Nb  Nb107  1  0.64882814  0.81735126  0.73378551  1
  Nb  Nb108  1  0.94423489  0.31814616  0.66817888  1
  Nb  Nb109  1  0.53013153  0.62267870  0.73669315  1
  Nb  Nb110  1  0.62000865  0.95862091  0.85444469  1
  Nb  Nb111  1  0.20221746  0.93178821  -0.00418448  1
  Nb  Nb112  1  0.31093075  0.40443066  0.94310611  1
  Nb  Nb113  1  0.02573808  0.59763367  0.47541182  1
  Nb  Nb114  1  0.09980559  0.11197834  0.05684772  1
  Nb  Nb115  1  0.62492121  1.01986057  0.65538441  1
  Nb  Nb116  1  0.47211787  0.09403515  0.15059525  1
  Nb  Nb117  1  0.60690513  0.52167953  0.55506528  1
  Nb  Nb118  1  0.31242004  0.77264131  -0.04038172  1
  Nb  Nb119  1  0.55371981  0.09143824  0.98861904  1
  Nb  Nb120  1  0.47753912  0.56755819  0.21800040  1
  Nb  Nb121  1  0.10986029  0.70216326  0.64619869  1
  Nb  Nb122  1  0.30145113  0.60025132  0.06922240  1
  Nb  Nb123  1  0.79097791  0.31165577  0.77363250  1
  Nb  Nb124  1  0.45750548  0.44730648  0.06169859  1
