# generated using pymatgen
data_Zr2Sc2Nb
_symmetry_space_group_name_H-M   'P 1'
_cell_length_a   14.23582950
_cell_length_b   13.68985853
_cell_length_c   14.72026335
_cell_angle_alpha   90.40464735
_cell_angle_beta   89.29416092
_cell_angle_gamma   87.60071535
_symmetry_Int_Tables_number   1
_chemical_formula_structural   Zr2Sc2Nb
_chemical_formula_sum   'Zr50 Sc50 Nb25'
_cell_volume   2865.96563002
_cell_formula_units_Z   25
loop_
 _symmetry_equiv_pos_site_id
 _symmetry_equiv_pos_as_xyz
  1  'x, y, z'
loop_
 _atom_site_type_symbol
 _atom_site_label
 _atom_site_symmetry_multiplicity
 _atom_site_fract_x
 _atom_site_fract_y
 _atom_site_fract_z
 _atom_site_occupancy
  Zr  Zr0  1  0.29328717  0.37657581  -0.00250015  1
  Zr  Zr1  1  0.34592062  0.31050252  0.47883064  1
  Zr  Zr2  1  0.76249850  0.33339928  0.85757203  1
  Zr  Zr3  1  0.36720039  0.48352698  0.63480638  1
  Zr  Zr4  1  -0.00748253  0.56755122  0.10138950  1
  Zr  Zr5  1  0.70700617  0.77841056  0.86237337  1
  Zr  Zr6  1  0.02989649  0.78300173  0.09164879  1
  Zr  Zr7  1  0.40430078  0.49430424  0.85315285  1
  Zr  Zr8  1  0.84001421  0.48131129  -0.01787296  1
  Zr  Zr9  1  0.56829862  0.25236079  0.44047865  1
  Zr  Zr10  1  0.50322659  0.59664408  0.33360595  1
  Zr  Zr11  1  0.80847987  0.12863965  0.96724002  1
  Zr  Zr12  1  0.92655889  0.71934650  0.73833927  1
  Zr  Zr13  1  0.85734357  0.37187737  0.67991300  1
  Zr  Zr14  1  0.52838629  0.83773609  0.76310835  1
  Zr  Zr15  1  0.53825535  0.82024955  0.32655337  1
  Zr  Zr16  1  0.47348828  0.72941220  0.15280403  1
  Zr  Zr17  1  0.82247314  0.95471296  0.47701336  1
  Zr  Zr18  1  0.25338394  0.75440554  0.12088470  1
  Zr  Zr19  1  0.45114524  0.09716971  0.53035317  1
  Zr  Zr20  1  0.39057004  0.91586523  0.45074969  1
  Zr  Zr21  1  0.21308581  0.44958579  0.79782852  1
  Zr  Zr22  1  0.57416008  0.64157277  0.65968668  1
  Zr  Zr23  1  0.25307226  0.08096145  0.55270713  1
  Zr  Zr24  1  0.58834716  0.88369626  0.54475105  1
  Zr  Zr25  1  0.69230464  0.66016139  0.26483416  1
  Zr  Zr26  1  0.33654216  0.71227564  0.92229234  1
  Zr  Zr27  1  0.30046418  0.29659801  0.20400435  1
  Zr  Zr28  1  0.47529600  0.02580473  0.90857745  1
  Zr  Zr29  1  0.96291065  0.56370227  0.59315644  1
  Zr  Zr30  1  0.75404396  0.86607660  0.30760217  1
  Zr  Zr31  1  0.65711403  0.67606504  0.46182936  1
  Zr  Zr32  1  0.93654333  0.70362621  0.28903612  1
  Zr  Zr33  1  0.87695387  0.30636191  0.32080853  1
  Zr  Zr34  1  0.08717533  0.63791409  0.42790671  1
  Zr  Zr35  1  0.96214721  0.27667087  0.90173360  1
  Zr  Zr36  1  0.44468607  0.27724778  0.86276488  1
  Zr  Zr37  1  0.57682617  0.02627353  0.35553041  1
  Zr  Zr38  1  0.22297295  0.57270082  1.02267323  1
  Zr  Zr39  1  0.66990565  0.27923967  0.25509393  1
  Zr  Zr40  1  0.34197582  0.91414721  0.03560690  1
  Zr  Zr41  1  0.63557947  0.17484702  0.84470990  1
  Zr  Zr42  1  0.25955376  0.27894743  0.65963128  1
  Zr  Zr43  1  0.70496962  0.05892566  0.16498084  1
  Zr  Zr44  1  0.73951056  0.76687706  0.65284659  1
  Zr  Zr45  1  0.85926220  0.93232269  0.06820402  1
  Zr  Zr46  1  0.33261594  0.90376378  0.25754422  1
  Zr  Zr47  1  0.44164185  0.70353892  0.51433216  1
  Zr  Zr48  1  0.77125468  0.11712524  0.35231430  1
  Zr  Zr49  1  0.89025198  0.90541700  0.86909873  1
  Sc  Sc50  1  0.49267446  0.17890086  0.21473209  1
  Sc  Sc51  1  0.37233190  0.17154235  0.02297970  1
  Sc  Sc52  1  0.58814690  0.43598035  0.74047351  1
  Sc  Sc53  1  0.30735307  0.70378104  0.33522712  1
  Sc  Sc54  1  0.05451514  0.31181380  0.69383182  1
  Sc  Sc55  1  0.50487705  0.98193881  0.13252451  1
  Sc  Sc56  1  0.09430676  0.87070608  0.77011651  1
  Sc  Sc57  1  0.88563429  0.69297302  0.93898985  1
  Sc  Sc58  1  0.60096479  0.48400778  0.16356171  1
  Sc  Sc59  1  0.74593864  0.31295732  0.07139790  1
  Sc  Sc60  1  0.14779891  0.63743546  0.70645701  1
  Sc  Sc61  1  0.12058255  0.24403301  0.46826004  1
  Sc  Sc62  1  0.08888637  0.99234579  0.12499702  1
  Sc  Sc63  1  0.15131934  0.02730605  0.34409910  1
  Sc  Sc64  1  0.02108120  0.05563517  0.93311496  1
  Sc  Sc65  1  0.46364142  0.38082526  0.31176671  1
  Sc  Sc66  1  0.32118728  0.89801880  0.82370747  1
  Sc  Sc67  1  0.14488326  0.61205022  0.23209701  1
  Sc  Sc68  1  0.36884723  0.68165583  0.72134506  1
  Sc  Sc69  1  0.71927004  0.97638700  0.74214259  1
  Sc  Sc70  1  0.34484789  0.51984029  0.19620164  1
  Sc  Sc71  1  0.09164947  0.67690585  0.90030947  1
  Sc  Sc72  1  0.75339302  0.56546064  0.79587400  1
  Sc  Sc73  1  0.05796787  0.01291499  0.54875797  1
  Sc  Sc74  1  0.09117504  0.23705733  0.25985724  1
  Sc  Sc75  1  0.16087645  0.45653490  0.55171598  1
  Sc  Sc76  1  0.07807289  0.43155089  0.95905861  1
  Sc  Sc77  1  0.90903137  0.92023373  0.65453520  1
  Sc  Sc78  1  0.19521119  0.84849205  0.44781279  1
  Sc  Sc79  1  1.01377228  0.45954007  0.30763694  1
  Sc  Sc80  1  0.67343757  0.08944227  0.54441790  1
  Sc  Sc81  1  0.26952422  0.86680925  0.63057957  1
  Sc  Sc82  1  0.34147262  0.13052135  0.35730715  1
  Sc  Sc83  1  0.88990922  0.17533800  0.55292861  1
  Sc  Sc84  1  0.66199085  0.63410393  0.02543699  1
  Sc  Sc85  1  0.74144559  0.51486560  0.57971686  1
  Sc  Sc86  1  0.33356774  0.10946385  0.75932235  1
  Sc  Sc87  1  0.81517575  0.48860873  0.20309280  1
  Sc  Sc88  1  0.12602814  0.21921652  0.05062117  1
  Sc  Sc89  1  0.66846795  0.96948064  0.96332248  1
  Sc  Sc90  1  0.97403512  0.50590028  0.80089299  1
  Sc  Sc91  1  0.90691580  0.14655346  0.16154270  1
  Sc  Sc92  1  0.86522699  0.73053842  0.49072401  1
  Sc  Sc93  1  0.47628312  0.27632165  0.65056171  1
  Sc  Sc94  1  0.52773273  0.05407830  0.70607572  1
  Sc  Sc95  1  0.26543179  0.08191628  0.16354350  1
  Sc  Sc96  1  0.82570450  0.72498825  0.12564760  1
  Sc  Sc97  1  0.87813935  0.13452147  0.76276017  1
  Sc  Sc98  1  0.69127114  0.25466147  0.66074084  1
  Sc  Sc99  1  0.11824808  0.09216774  0.74242727  1
  Nb  Nb100  1  0.66618557  0.45994002  0.36725583  1
  Nb  Nb101  1  0.54580666  0.63463457  0.85703863  1
  Nb  Nb102  1  0.58829845  0.18807918  1.02784158  1
  Nb  Nb103  1  0.75186502  0.32428276  0.47642949  1
  Nb  Nb104  1  0.19504996  0.24981802  0.86304238  1
  Nb  Nb105  1  0.96474599  0.10145439  0.37561399  1
  Nb  Nb106  1  0.22711386  0.05752823  0.93559465  1
  Nb  Nb107  1  0.95790461  0.35049034  0.11440598  1
  Nb  Nb108  1  0.84272318  0.53190167  0.40562569  1
  Nb  Nb109  1  0.14628548  0.41561470  0.15020867  1
  Nb  Nb110  1  0.92655274  0.94431908  0.25330755  1
  Nb  Nb111  1  0.15835141  0.86815712  0.96208287  1
  Nb  Nb112  1  0.65429225  0.83799863  0.13083469  1
  Nb  Nb113  1  0.47616272  0.35375969  0.08088755  1
  Nb  Nb114  1  0.21378046  0.42431075  0.34612915  1
  Nb  Nb115  1  0.34481437  0.51878189  0.43698822  1
  Nb  Nb116  1  0.05672686  0.77638657  0.58012357  1
  Nb  Nb117  1  -0.00609155  0.87200882  0.41191475  1
  Nb  Nb118  1  0.94828634  0.38242081  0.49850718  1
  Nb  Nb119  1  0.11786984  0.82708393  0.26466542  1
  Nb  Nb120  1  0.51855785  0.80441434  0.97141487  1
  Nb  Nb121  1  0.59800899  0.42483026  -0.05251811  1
  Nb  Nb122  1  0.53943721  0.46282186  0.51688103  1
  Nb  Nb123  1  0.45270930  0.56903446  1.02646560  1
  Nb  Nb124  1  0.24889703  0.66215559  0.54148503  1
