# generated using pymatgen
data_Zr2Sc2Nb
_symmetry_space_group_name_H-M   'P 1'
_cell_length_a   13.20144430
_cell_length_b   14.56925906
_cell_length_c   14.92479122
_cell_angle_alpha   89.23655077
_cell_angle_beta   90.77723582
_cell_angle_gamma   88.49051771
_symmetry_Int_Tables_number   1
_chemical_formula_structural   Zr2Sc2Nb
_chemical_formula_sum   'Zr50 Sc50 Nb25'
_cell_volume   2869.03466395
_cell_formula_units_Z   25
loop_
 _symmetry_equiv_pos_site_id
 _symmetry_equiv_pos_as_xyz
  1  'x, y, z'
loop_
 _atom_site_type_symbol
 _atom_site_label
 _atom_site_symmetry_multiplicity
 _atom_site_fract_x
 _atom_site_fract_y
 _atom_site_fract_z
 _atom_site_occupancy
  Zr  Zr0  1  0.83835482  0.31779605  0.50024996  1
  Zr  Zr1  1  0.12126057  0.78482435  0.04527416  1
  Zr  Zr2  1  0.29460077  0.63996087  0.03039440  1
  Zr  Zr3  1  0.26975408  0.47321161  0.52835367  1
  Zr  Zr4  1  0.45443069  0.76698916  0.51504373  1
  Zr  Zr5  1  0.84602788  0.51159975  1.04426825  1
  Zr  Zr6  1  0.89705513  0.71342002  0.98047996  1
  Zr  Zr7  1  0.51213442  0.14138806  0.88070291  1
  Zr  Zr8  1  0.76397628  0.85093767  0.29422045  1
  Zr  Zr9  1  0.12101325  0.50622523  0.34849579  1
  Zr  Zr10  1  0.45265547  0.35511406  0.47667962  1
  Zr  Zr11  1  0.33218452  0.13130449  0.32106086  1
  Zr  Zr12  1  0.18013563  0.32120102  0.24550990  1
  Zr  Zr13  1  0.89498264  0.51979411  0.42927887  1
  Zr  Zr14  1  0.56818878  0.07552024  0.68415008  1
  Zr  Zr15  1  0.34871289  0.05180603  0.76468828  1
  Zr  Zr16  1  0.93653511  0.64952701  0.25725702  1
  Zr  Zr17  1  0.05209071  0.37054646  0.05187155  1
  Zr  Zr18  1  0.50112656  0.54857876  0.90993270  1
  Zr  Zr19  1  0.77647899  0.16048808  0.23272986  1
  Zr  Zr20  1  0.14685559  0.52739050  0.71276832  1
  Zr  Zr21  1  0.85748786  0.12271369  0.61963905  1
  Zr  Zr22  1  0.42792898  0.96195000  0.57042410  1
  Zr  Zr23  1  0.26534902  0.29722769  0.04238928  1
  Zr  Zr24  1  0.25884576  0.46508421  0.93168111  1
  Zr  Zr25  1  0.09017571  0.18233966  0.95165438  1
  Zr  Zr26  1  0.16354884  0.93735601  0.23200073  1
  Zr  Zr27  1  0.36005526  0.88750821  0.94695919  1
  Zr  Zr28  1  0.69200054  0.63648242  0.54046961  1
  Zr  Zr29  1  0.74752143  0.98723171  0.12815096  1
  Zr  Zr30  1  0.46208319  0.20707552  0.07252218  1
  Zr  Zr31  1  0.04934379  0.58787459  0.08288417  1
  Zr  Zr32  1  0.60181959  0.83296924  0.67073586  1
  Zr  Zr33  1  0.37642705  0.82170202  0.72315349  1
  Zr  Zr34  1  0.72991465  0.64248758  0.74631574  1
  Zr  Zr35  1  0.29896793  0.64847442  0.40186095  1
  Zr  Zr36  1  0.33075295  0.65798510  0.82864743  1
  Zr  Zr37  1  0.87730087  0.14982871  0.40737254  1
  Zr  Zr38  1  0.26217044  0.12638171  0.55649918  1
  Zr  Zr39  1  0.94144058  1.01050166  0.27399835  1
  Zr  Zr40  1  0.97163808  0.94690718  0.72049840  1
  Zr  Zr41  1  0.15247442  0.72490947  0.69100951  1
  Zr  Zr42  1  0.76482889  0.83041673  0.82829268  1
  Zr  Zr43  1  0.69999585  0.21547853  0.79803779  1
  Zr  Zr44  1  0.86817127  0.31358751  0.91424216  1
  Zr  Zr45  1  0.34868021  0.82490491  0.31288385  1
  Zr  Zr46  1  0.17004658  0.13716402  0.14685638  1
  Zr  Zr47  1  0.69631269  0.17606287  0.02228825  1
  Zr  Zr48  1  0.56278041  0.71350358  0.33594168  1
  Zr  Zr49  1  0.45859978  0.15231329  0.48613225  1
  Sc  Sc50  1  0.23174527  0.81403453  0.51355382  1
  Sc  Sc51  1  0.45471127  0.33940117  0.89588078  1
  Sc  Sc52  1  0.36638054  0.00707004  0.16006977  1
  Sc  Sc53  1  0.06633296  0.00333798  0.50120368  1
  Sc  Sc54  1  0.93210119  0.09838724  0.06880419  1
  Sc  Sc55  1  0.80825085  0.46654431  0.63504129  1
  Sc  Sc56  1  0.05364078  0.82558102  0.36786475  1
  Sc  Sc57  1  0.04030447  0.42913638  0.56146914  1
  Sc  Sc58  1  0.69266542  0.44503181  0.81695676  1
  Sc  Sc59  1  0.21958537  0.31552996  0.65831888  1
  Sc  Sc60  1  0.19302559  0.94495061  0.66316152  1
  Sc  Sc61  1  0.37136153  0.46411054  0.73773302  1
  Sc  Sc62  1  0.95058750  0.92596955  0.93995428  1
  Sc  Sc63  1  0.56256202  0.10234715  0.22928494  1
  Sc  Sc64  1  0.74955554  0.70672255  0.14742769  1
  Sc  Sc65  1  0.94019024  0.84836496  0.14771524  1
  Sc  Sc66  1  0.11411214  0.13404212  0.35516624  1
  Sc  Sc67  1  0.67016743  0.05990222  0.49883633  1
  Sc  Sc68  1  0.09105172  0.36343197  0.83955036  1
  Sc  Sc69  1  0.91273170  0.52533979  0.83712649  1
  Sc  Sc70  1  0.61520994  0.32053539  0.18033568  1
  Sc  Sc71  1  0.90651469  0.11333352  0.83642414  1
  Sc  Sc72  1  0.63196482  0.25386208  0.38109683  1
  Sc  Sc73  1  0.65489847  0.25496844  0.59349123  1
  Sc  Sc74  1  0.10878908  0.62336958  0.89270589  1
  Sc  Sc75  1  0.91841435  0.29918675  0.71319982  1
  Sc  Sc76  1  0.48688921  0.56391300  0.47936300  1
  Sc  Sc77  1  0.68625189  0.84070744  0.00357767  1
  Sc  Sc78  1  0.66035287  0.84244711  0.47800796  1
  Sc  Sc79  1  0.62979668  0.54041264  0.13618471  1
  Sc  Sc80  1  0.04985391  0.21849302  0.53814276  1
  Sc  Sc81  1  0.83671591  0.31806973  0.10731323  1
  Sc  Sc82  1  0.16403680  0.83275538  0.85685018  1
  Sc  Sc83  1  0.40828050  0.62958480  0.21341947  1
  Sc  Sc84  1  0.54742301  0.93787231  0.83964227  1
  Sc  Sc85  1  0.17364685  0.69176398  0.22937234  1
  Sc  Sc86  1  0.42557107  0.44504090  0.10066107  1
  Sc  Sc87  1  0.86559014  0.72657807  0.44252321  1
  Sc  Sc88  1  0.78872125  0.38864150  0.29542257  1
  Sc  Sc89  1  0.44017702  0.25234864  0.68952937  1
  Sc  Sc90  1  0.57340757  0.44719734  0.64117061  1
  Sc  Sc91  1  0.09554359  0.63715405  0.50230463  1
  Sc  Sc92  1  0.64890071  0.38658989  0.99429898  1
  Sc  Sc93  1  0.10040148  0.14636561  0.72178926  1
  Sc  Sc94  1  0.50820948  0.71872173  0.04236084  1
  Sc  Sc95  1  0.95751586  0.74153013  0.78341680  1
  Sc  Sc96  1  0.41470388  0.30262247  0.26535593  1
  Sc  Sc97  1  0.55164170  0.86713757  0.18437813  1
  Sc  Sc98  1  0.50407760  0.96139997  0.37106105  1
  Sc  Sc99  1  0.85879301  0.94273782  0.48426245  1
  Nb  Nb100  1  0.51368395  0.63667105  0.69376619  1
  Nb  Nb101  1  0.31782395  0.09162932  0.97651359  1
  Nb  Nb102  1  0.72706857  0.02668735  0.90917484  1
  Nb  Nb103  1  0.97941678  0.44993313  0.21666860  1
  Nb  Nb104  1  0.27448041  0.97945016  0.41809684  1
  Nb  Nb105  1  0.15810806  0.97368249  0.03954736  1
  Nb  Nb106  1  0.31815078  0.81787431  0.12302273  1
  Nb  Nb107  1  0.54886884  0.73823357  0.84940203  1
  Nb  Nb108  1  0.72579520  0.59803942  0.32804893  1
  Nb  Nb109  1  0.97996361  0.23084490  0.22409625  1
  Nb  Nb110  1  0.21655494  0.48931526  0.15569349  1
  Nb  Nb111  1  0.67419875  0.44734616  0.46050181  1
  Nb  Nb112  1  0.93228640  0.62590348  0.62800620  1
  Nb  Nb113  1  0.81373833  0.80176714  0.63278892  1
  Nb  Nb114  1  0.15660723  0.02500430  0.86274942  1
  Nb  Nb115  1  0.00755070  0.33346580  0.37545876  1
  Nb  Nb116  1  0.33380875  0.47036464  0.32789502  1
  Nb  Nb117  1  0.54893753  0.47444017  0.31065528  1
  Nb  Nb118  1  0.00966988  0.81565001  0.57764926  1
  Nb  Nb119  1  0.54151984  0.01129905  0.03112342  1
  Nb  Nb120  1  0.32387127  0.63690058  0.61488700  1
  Nb  Nb121  1  0.70321086  0.62700290  0.94382257  1
  Nb  Nb122  1  0.75379162  -0.01028148  0.71054343  1
  Nb  Nb123  1  0.27621312  0.22681058  0.84489717  1
  Nb  Nb124  1  0.23610648  0.30134314  0.43525755  1
