# generated using pymatgen
data_Zr2Sc2Nb
_symmetry_space_group_name_H-M   'P 1'
_cell_length_a   14.03700630
_cell_length_b   14.62648655
_cell_length_c   14.05371958
_cell_angle_alpha   89.64532164
_cell_angle_beta   87.31118748
_cell_angle_gamma   92.15834767
_symmetry_Int_Tables_number   1
_chemical_formula_structural   Zr2Sc2Nb
_chemical_formula_sum   'Zr50 Sc50 Nb25'
_cell_volume   2880.08550796
_cell_formula_units_Z   25
loop_
 _symmetry_equiv_pos_site_id
 _symmetry_equiv_pos_as_xyz
  1  'x, y, z'
loop_
 _atom_site_type_symbol
 _atom_site_label
 _atom_site_symmetry_multiplicity
 _atom_site_fract_x
 _atom_site_fract_y
 _atom_site_fract_z
 _atom_site_occupancy
  Zr  Zr0  1  0.44502447  0.32989612  0.01998417  1
  Zr  Zr1  1  0.50601928  0.39955368  0.21079852  1
  Zr  Zr2  1  0.04804194  0.88166895  0.89151063  1
  Zr  Zr3  1  0.16620808  0.51316594  0.75571823  1
  Zr  Zr4  1  0.30261470  0.43058909  0.87408260  1
  Zr  Zr5  1  0.60154240  0.43428264  0.87980827  1
  Zr  Zr6  1  0.78750808  0.89164066  0.65609552  1
  Zr  Zr7  1  0.27520576  0.68748732  0.10889815  1
  Zr  Zr8  1  0.40741482  0.52347141  0.03320360  1
  Zr  Zr9  1  0.48007802  0.14344337  0.12053825  1
  Zr  Zr10  1  0.33021420  0.65483820  0.88985042  1
  Zr  Zr11  1  0.69835506  0.12445218  0.16543171  1
  Zr  Zr12  1  0.07396946  0.55588739  0.19350127  1
  Zr  Zr13  1  0.00027066  0.36315919  0.69467871  1
  Zr  Zr14  1  0.53307880  0.68796236  0.39781629  1
  Zr  Zr15  1  0.34104776  0.71747810  0.29691591  1
  Zr  Zr16  1  0.93636898  0.76577131  0.76191488  1
  Zr  Zr17  1  0.70878547  0.31208645  0.27533793  1
  Zr  Zr18  1  0.71973625  0.72044371  0.29066539  1
  Zr  Zr19  1  0.00651016  0.36708651  0.10721682  1
  Zr  Zr20  1  0.59834735  0.89724757  0.43500954  1
  Zr  Zr21  1  0.89948582  0.99660486  0.47774017  1
  Zr  Zr22  1  0.67969115  0.10033306  0.36968855  1
  Zr  Zr23  1  0.91805717  0.65790595  0.39615459  1
  Zr  Zr24  1  0.11464540  0.68891545  0.86595402  1
  Zr  Zr25  1  0.11607432  0.55734713  0.40655154  1
  Zr  Zr26  1  0.06934894  0.76081044  0.08382030  1
  Zr  Zr27  1  0.06361848  0.39239482  0.89574681  1
  Zr  Zr28  1  0.09396898  0.99119876  0.05571301  1
  Zr  Zr29  1  0.49857296  0.73922572  0.76040467  1
  Zr  Zr30  1  0.41639726  0.99920310  0.93939211  1
  Zr  Zr31  1  0.64990407  0.58415219  0.71132859  1
  Zr  Zr32  1  0.26834644  0.08859128  0.10197484  1
  Zr  Zr33  1  0.17960684  0.43565916  0.55153863  1
  Zr  Zr34  1  0.06976673  0.17759730  0.78346563  1
  Zr  Zr35  1  -0.02787707  0.56367876  -0.00222525  1
  Zr  Zr36  1  0.10503954  0.20103427  0.98509368  1
  Zr  Zr37  1  0.66119617  0.51379706  0.30422797  1
  Zr  Zr38  1  0.93484394  0.13039103  0.09615579  1
  Zr  Zr39  1  0.39745577  0.07981206  0.73963924  1
  Zr  Zr40  1  0.38725990  0.39183700  0.41460528  1
  Zr  Zr41  1  0.20159335  0.02491393  0.84576562  1
  Zr  Zr42  1  0.22089357  0.87936080  0.21152840  1
  Zr  Zr43  1  0.38783931  0.89249574  0.37310741  1
  Zr  Zr44  1  0.54092090  0.16041810  0.91491749  1
  Zr  Zr45  1  0.79557189  0.44487671  0.71927314  1
  Zr  Zr46  1  0.89527117  0.24742377  0.86752267  1
  Zr  Zr47  1  0.97834288  0.81070577  0.53343258  1
  Zr  Zr48  1  0.88908948  0.66986834  0.17468924  1
  Zr  Zr49  1  0.77211571  0.60294377  0.89775563  1
  Sc  Sc50  1  0.31425400  0.27189485  0.23347684  1
  Sc  Sc51  1  0.47463593  0.78523094  -0.00020680  1
  Sc  Sc52  1  0.10454849  0.73813159  0.30400911  1
  Sc  Sc53  1  0.74839246  0.10952933  0.95703224  1
  Sc  Sc54  1  0.25345533  0.85564020  0.98016471  1
  Sc  Sc55  1  0.22393343  0.36112312  0.07408002  1
  Sc  Sc56  1  0.30558318  0.65533240  0.67390872  1
  Sc  Sc57  1  0.13175973  -0.03569860  0.46767045  1
  Sc  Sc58  1  0.49488597  0.21507073  0.32452333  1
  Sc  Sc59  1  0.61953119  0.97965288  0.81633317  1
  Sc  Sc60  1  0.53685867  0.50960365  0.52595826  1
  Sc  Sc61  1  0.81558543  0.41656716  0.93874482  1
  Sc  Sc62  1  0.69701199  0.77093516  0.82209357  1
  Sc  Sc63  1  0.51314076  0.62659267  0.18048143  1
  Sc  Sc64  1  0.61216164  0.26995560  0.49102520  1
  Sc  Sc65  1  0.33377318  0.58567410  0.46973359  1
  Sc  Sc66  1  0.29682346  0.50599960  0.24075396  1
  Sc  Sc67  1  0.87433033  0.06853848  0.28335952  1
  Sc  Sc68  1  0.58986425  0.16075952  0.68904228  1
  Sc  Sc69  1  0.45366639  0.30711748  0.78673631  1
  Sc  Sc70  1  0.34941244  0.86797863  0.77303491  1
  Sc  Sc71  1  0.20003753  0.10147118  0.62727570  1
  Sc  Sc72  1  0.48517845  0.07409583  0.49382031  1
  Sc  Sc73  1  0.23035704  0.29951051  0.71856055  1
  Sc  Sc74  1  0.15623422  0.84618020  0.68368473  1
  Sc  Sc75  1  0.04602256  0.15923040  0.39272740  1
  Sc  Sc76  1  0.32829866  -0.04819747  0.57314537  1
  Sc  Sc77  1  0.93841762  0.52031355  0.55918632  1
  Sc  Sc78  1  0.22059172  0.76934110  0.48138653  1
  Sc  Sc79  1  0.61660130  0.95254192  0.06153677  1
  Sc  Sc80  1  0.98739419  0.34328591  0.47476059  1
  Sc  Sc81  1  0.82378411  0.92053046  0.87850434  1
  Sc  Sc82  1  0.22620035  0.24803183  0.46125352  1
  Sc  Sc83  1  0.81739477  0.47073346  0.15021438  1
  Sc  Sc84  1  0.97414636  0.16368022  0.59828948  1
  Sc  Sc85  1  0.63117291  0.75316598  0.58946034  1
  Sc  Sc86  1  0.40813466  0.25253195  0.58322909  1
  Sc  Sc87  1  0.07759124  1.00543898  0.26294788  1
  Sc  Sc88  1  0.08154591  0.65145731  0.62017587  1
  Sc  Sc89  1  0.29857191  0.07476365  0.32324312  1
  Sc  Sc90  1  0.40343733  0.92618117  0.14209010  1
  Sc  Sc91  1  0.69559435  0.73875663  0.06802086  1
  Sc  Sc92  1  0.99474120  0.98047295  0.69747102  1
  Sc  Sc93  1  0.87653097  0.91450034  0.08881503  1
  Sc  Sc94  1  0.71193437  0.05391524  0.56743990  1
  Sc  Sc95  1  0.92497990  0.85243189  0.29528846  1
  Sc  Sc96  1  0.31058211  0.19635065  0.91312407  1
  Sc  Sc97  1  0.73210947  0.60314165  0.48288518  1
  Sc  Sc98  1  0.12309128  0.36897676  0.30323136  1
  Sc  Sc99  1  0.76980354  0.40412625  0.47916438  1
  Nb  Nb100  1  0.79109437  0.26025034  0.63989115  1
  Nb  Nb101  1  0.91322096  0.47199395  0.32503322  1
  Nb  Nb102  1  0.96323941  0.05926429  0.90447674  1
  Nb  Nb103  1  0.82926952  0.20539261  0.44598495  1
  Nb  Nb104  1  0.54583911  0.81957803  0.23104294  1
  Nb  Nb105  1  0.91467546  0.27713113  0.27251840  1
  Nb  Nb106  1  0.81614319  0.09682529  0.74772729  1
  Nb  Nb107  1  0.42671298  0.78072609  0.55036114  1
  Nb  Nb108  1  0.56034974  0.62195547  0.92734799  1
  Nb  Nb109  1  0.69636808  0.27040218  0.82627977  1
  Nb  Nb110  1  0.63397987  0.49895383  0.07029463  1
  Nb  Nb111  1  0.78591490  0.81862302  0.45707843  1
  Nb  Nb112  1  0.17660741  0.54526109  1.00414383  1
  Nb  Nb113  1  0.90113628  0.74216737  0.96361096  1
  Nb  Nb114  1  0.11039934  0.19450901  0.19175247  1
  Nb  Nb115  1  0.82173824  0.27545115  0.08454711  1
  Nb  Nb116  1  0.53104031  0.01389611  0.27126656  1
  Nb  Nb117  1  0.64191070  0.29972610  0.05042062  1
  Nb  Nb118  1  -0.04653328  0.56068649  0.78788256  1
  Nb  Nb119  1  0.53165470  0.92875731  0.64233572  1
  Nb  Nb120  1  0.83144629  0.67636442  0.63707633  1
  Nb  Nb121  1  0.72129652  0.91878979  0.25675960  1
  Nb  Nb122  1  0.45884069  0.53013275  0.77168727  1
  Nb  Nb123  1  0.36333415  0.44475694  0.63780656  1
  Nb  Nb124  1  0.60284991  0.38070684  0.66584625  1
