# generated using pymatgen
data_Zr2Sc2Nb
_symmetry_space_group_name_H-M   'P 1'
_cell_length_a   14.49207802
_cell_length_b   13.97799750
_cell_length_c   14.25007077
_cell_angle_alpha   88.60679120
_cell_angle_beta   86.94696667
_cell_angle_gamma   88.61515800
_symmetry_Int_Tables_number   1
_chemical_formula_structural   Zr2Sc2Nb
_chemical_formula_sum   'Zr50 Sc50 Nb25'
_cell_volume   2880.93438100
_cell_formula_units_Z   25
loop_
 _symmetry_equiv_pos_site_id
 _symmetry_equiv_pos_as_xyz
  1  'x, y, z'
loop_
 _atom_site_type_symbol
 _atom_site_label
 _atom_site_symmetry_multiplicity
 _atom_site_fract_x
 _atom_site_fract_y
 _atom_site_fract_z
 _atom_site_occupancy
  Zr  Zr0  1  0.49591629  0.93236967  0.53343271  1
  Zr  Zr1  1  0.42935024  0.85905451  0.36032782  1
  Zr  Zr2  1  0.28013101  0.68951822  0.65940812  1
  Zr  Zr3  1  0.07505031  0.04922706  0.94506503  1
  Zr  Zr4  1  0.65827124  0.87398357  0.34914955  1
  Zr  Zr5  1  0.05445825  0.30715469  0.74871252  1
  Zr  Zr6  1  0.53042189  0.03321767  0.26439013  1
  Zr  Zr7  1  0.21545781  0.94502265  0.36495205  1
  Zr  Zr8  1  0.38613178  0.31647591  0.39121819  1
  Zr  Zr9  1  0.42108505  0.82769100  0.98289085  1
  Zr  Zr10  1  0.35051151  0.96678260  0.69984973  1
  Zr  Zr11  1  0.68217678  0.84314668  0.59090959  1
  Zr  Zr12  1  0.19460315  0.84935158  0.99660346  1
  Zr  Zr13  1  0.24194504  0.60441672  0.85810843  1
  Zr  Zr14  1  0.58332381  0.41468848  0.04212916  1
  Zr  Zr15  1  0.68951958  0.54933183  0.17282778  1
  Zr  Zr16  1  0.19020762  0.35823648  0.46907754  1
  Zr  Zr17  1  0.68628183  0.49387447  0.39020574  1
  Zr  Zr18  1  0.61371893  0.07654555  0.44869145  1
  Zr  Zr19  1  0.32764649  0.13985741  0.20350425  1
  Zr  Zr20  1  0.73756374  0.12299252  0.26381725  1
  Zr  Zr21  1  0.95671872  0.88281521  0.81646351  1
  Zr  Zr22  1  0.45335883  0.09699579  0.81702035  1
  Zr  Zr23  1  0.80642787  0.27430624  0.38191214  1
  Zr  Zr24  1  0.45547679  0.14838859  0.60273715  1
  Zr  Zr25  1  0.86095461  0.73887638  0.69524436  1
  Zr  Zr26  1  0.08755532  0.63316924  0.04811664  1
  Zr  Zr27  1  0.85097132  0.88384725  0.24544510  1
  Zr  Zr28  1  0.61253086  0.23755726  0.72608890  1
  Zr  Zr29  1  0.07001496  0.68016715  0.70614627  1
  Zr  Zr30  1  0.71066331  0.75606222  0.14116836  1
  Zr  Zr31  1  0.88364188  0.64557510  0.10499814  1
  Zr  Zr32  1  0.90230125  0.27580767  0.16634718  1
  Zr  Zr33  1  0.84135874  1.00551295  0.94240192  1
  Zr  Zr34  1  0.73455827  0.57920612  0.95645532  1
  Zr  Zr35  1  0.49994927  0.50938806  0.43540272  1
  Zr  Zr36  1  0.88000660  0.81195363  0.46678193  1
  Zr  Zr37  1  0.37701290  0.69856533  0.23119693  1
  Zr  Zr38  1  0.64012683  0.06341026  0.89245674  1
  Zr  Zr39  1  0.30228065  0.00216040  0.93188929  1
  Zr  Zr40  1  0.06572184  0.44810538  0.17485677  1
  Zr  Zr41  1  0.75543624  0.62291405  0.55934133  1
  Zr  Zr42  1  0.49789108  0.47330632  0.23596596  1
  Zr  Zr43  1  0.19545729  0.73327685  0.37795933  1
  Zr  Zr44  1  0.08487663  0.80925464  0.53601042  1
  Zr  Zr45  1  0.16662116  0.77720155  0.18930934  1
  Zr  Zr46  1  0.81469647  1.00664741  0.42605076  1
  Zr  Zr47  1  0.52330504  0.23670140  0.21920631  1
  Zr  Zr48  1  0.27627483  0.29473912  0.63542291  1
  Zr  Zr49  1  0.88682854  0.41272974  0.86390227  1
  Sc  Sc50  1  0.69870623  0.97487065  0.10977906  1
  Sc  Sc51  1  0.52254417  0.88875036  0.79028407  1
  Sc  Sc52  1  0.54530415  0.57456166  0.63302772  1
  Sc  Sc53  1  0.48527007  0.03922257  0.05101040  1
  Sc  Sc54  1  1.03020427  0.00567780  0.49993571  1
  Sc  Sc55  1  0.53153361  0.64177922  0.05358285  1
  Sc  Sc56  1  0.01370830  0.31714975  0.35166778  1
  Sc  Sc57  1  0.38063066  0.68248907  0.46318753  1
  Sc  Sc58  1  0.89898622  0.20885322  0.94369177  1
  Sc  Sc59  1  0.86876171  0.44771948  0.48794199  1
  Sc  Sc60  1  0.65925281  0.71229314  0.78483627  1
  Sc  Sc61  1  0.37740731  0.08581399  0.41324595  1
  Sc  Sc62  1  0.59353365  0.28992294  0.42156348  1
  Sc  Sc63  1  0.15107834  0.90550014  0.73001925  1
  Sc  Sc64  1  1.00005673  0.21595658  0.54327562  1
  Sc  Sc65  1  0.80187995  0.12895506  0.76889686  1
  Sc  Sc66  1  0.52838500  0.84254785  0.16164697  1
  Sc  Sc67  1  0.27929446  0.21404927  -0.00875218  1
  Sc  Sc68  1  0.85245084  0.32574196  0.67651021  1
  Sc  Sc69  1  0.21908563  0.14635841  0.79146723  1
  Sc  Sc70  1  0.21312351  0.08101809  0.57524144  1
  Sc  Sc71  1  0.48385283  0.36092504  0.60002563  1
  Sc  Sc72  1  0.98696667  0.69402986  0.28466380  1
  Sc  Sc73  1  0.16989995  0.15628467  0.37020309  1
  Sc  Sc74  1  0.10714459  0.21688467  0.14588828  1
  Sc  Sc75  1  0.29181526  0.52346602  0.32974424  1
  Sc  Sc76  1  0.23139449  0.36475149  0.84485143  1
  Sc  Sc77  1  0.56072752  0.43520091  0.81048815  1
  Sc  Sc78  1  0.45774509  0.65768887  0.83432880  1
  Sc  Sc79  1  0.69544266  0.19196520  0.06437944  1
  Sc  Sc80  1  0.07253351  0.50265708  0.86838897  1
  Sc  Sc81  1  0.30256827  0.64746196  0.04449216  1
  Sc  Sc82  1  0.50930823  0.24576703  0.96086180  1
  Sc  Sc83  1  0.92436543  0.06054665  0.12330434  1
  Sc  Sc84  1  0.77627684  0.68049152  0.34035904  1
  Sc  Sc85  1  0.37551057  0.35584227  0.12226568  1
  Sc  Sc86  1  0.33017479  0.92095482  0.16708276  1
  Sc  Sc87  1  0.01253041  0.08863338  0.73557466  1
  Sc  Sc88  1  0.78047080  0.38859924  0.05090961  1
  Sc  Sc89  1  0.98810929  0.85101275  0.06397023  1
  Sc  Sc90  1  0.07351664  0.52070070  0.36962405  1
  Sc  Sc91  1  0.75455546  0.17911288  0.56115463  1
  Sc  Sc92  1  0.96732838  0.10686415  0.31744588  1
  Sc  Sc93  1  0.85708792  0.96639224  0.63171666  1
  Sc  Sc94  1  0.22288877  0.33790759  0.25476285  1
  Sc  Sc95  1  0.86874002  0.47448837  0.26045198  1
  Sc  Sc96  1  0.13629736  0.00398857  0.16055887  1
  Sc  Sc97  1  0.81414124  0.79190068  0.94973674  1
  Sc  Sc98  1  0.74185060  0.50874420  0.74538278  1
  Sc  Sc99  1  0.39330883  0.45905075  -0.05995964  1
  Nb  Nb100  1  0.06814700  0.30359093  0.96880987  1
  Nb  Nb101  1  0.02855319  0.89494412  0.32220250  1
  Nb  Nb102  1  0.09012681  0.74722723  0.88243717  1
  Nb  Nb103  1  0.73764139  0.90828472  0.79216878  1
  Nb  Nb104  1  0.40725682  0.28706142  0.78635371  1
  Nb  Nb105  1  0.28915879  0.86686372  0.53834836  1
  Nb  Nb106  1  0.68006651  0.40053569  0.57884053  1
  Nb  Nb107  1  0.68719878  0.34429957  0.23196502  1
  Nb  Nb108  1  0.45983904  0.77029274  0.64234460  1
  Nb  Nb109  1  -0.03165574  0.63475875  0.51714468  1
  Nb  Nb110  1  0.32664551  0.48773603  0.54137542  1
  Nb  Nb111  1  0.17306696  0.48638292  0.68371969  1
  Nb  Nb112  1  0.63122213  0.03316027  0.66845812  1
  Nb  Nb113  1  0.19811255  0.43675511  0.03351074  1
  Nb  Nb114  1  0.58517434  0.71654168  0.47026849  1
  Nb  Nb115  1  0.16502809  0.59575620  0.52444500  1
  Nb  Nb116  1  0.30570738  0.80466806  0.82513032  1
  Nb  Nb117  1  0.94144456  0.52978871  0.69331602  1
  Nb  Nb118  1  0.56270611  0.67269546  0.29091316  1
  Nb  Nb119  1  0.62284611  0.84497736  0.96259661  1
  Nb  Nb120  1  0.71279112  0.30448839  0.87689888  1
  Nb  Nb121  1  0.92166382  0.63467837  0.87955933  1
  Nb  Nb122  1  0.95343461  0.46590298  0.03325992  1
  Nb  Nb123  1  0.04103399  0.42717018  0.57142071  1
  Nb  Nb124  1  0.36824966  0.48831408  0.72822576  1
