# generated using pymatgen
data_Zr2Sc2Nb
_symmetry_space_group_name_H-M   'P 1'
_cell_length_a   14.49671669
_cell_length_b   14.07458563
_cell_length_c   14.06731469
_cell_angle_alpha   91.66195062
_cell_angle_beta   90.40941453
_cell_angle_gamma   89.83873891
_symmetry_Int_Tables_number   1
_chemical_formula_structural   Zr2Sc2Nb
_chemical_formula_sum   'Zr50 Sc50 Nb25'
_cell_volume   2868.93810231
_cell_formula_units_Z   25
loop_
 _symmetry_equiv_pos_site_id
 _symmetry_equiv_pos_as_xyz
  1  'x, y, z'
loop_
 _atom_site_type_symbol
 _atom_site_label
 _atom_site_symmetry_multiplicity
 _atom_site_fract_x
 _atom_site_fract_y
 _atom_site_fract_z
 _atom_site_occupancy
  Zr  Zr0  1  0.66077274  0.74399693  0.82829067  1
  Zr  Zr1  1  0.48524047  0.64503825  0.44109896  1
  Zr  Zr2  1  0.45206326  0.70845234  0.79920604  1
  Zr  Zr3  1  0.03674414  0.36733335  0.85430891  1
  Zr  Zr4  1  0.83471812  0.33743779  0.30209019  1
  Zr  Zr5  1  0.51105358  0.71006534  -0.00167723  1
  Zr  Zr6  1  0.76458381  0.85065839  0.52568671  1
  Zr  Zr7  1  0.18170849  0.80546592  0.57617445  1
  Zr  Zr8  1  0.38062231  0.49686057  0.26040279  1
  Zr  Zr9  1  0.04772697  0.31407111  0.26713500  1
  Zr  Zr10  1  0.69918511  0.37542654  0.11672844  1
  Zr  Zr11  1  0.54384918  0.86530526  0.53740691  1
  Zr  Zr12  1  0.92735586  0.71959452  0.08559197  1
  Zr  Zr13  1  0.58787316  0.51451643  0.29723887  1
  Zr  Zr14  1  0.79879610  0.36960246  0.53792554  1
  Zr  Zr15  1  0.45985087  0.70743036  0.22589755  1
  Zr  Zr16  1  0.51190094  0.90398934  0.74759056  1
  Zr  Zr17  1  0.72272941  0.26505806  0.92284057  1
  Zr  Zr18  1  0.46287092  0.53149191  0.65681266  1
  Zr  Zr19  1  0.20570009  0.26436642  0.70058965  1
  Zr  Zr20  1  0.84801551  0.04074443  0.53831860  1
  Zr  Zr21  1  0.44386148  0.43676717  0.46342964  1
  Zr  Zr22  1  0.15500249  0.02712944  0.73846908  1
  Zr  Zr23  1  0.16875542  0.97703199  0.17411394  1
  Zr  Zr24  1  0.41998857  1.01466782  0.43767155  1
  Zr  Zr25  1  0.45039902  0.52164147  0.90043870  1
  Zr  Zr26  1  0.22844364  0.09718146  0.53450797  1
  Zr  Zr27  1  0.84047528  0.31516849  0.74879601  1
  Zr  Zr28  1  0.25076531  0.63696617  0.69104736  1
  Zr  Zr29  1  0.71966854  0.16660000  0.65424149  1
  Zr  Zr30  1  0.20085784  0.47771313  0.37416278  1
  Zr  Zr31  1  -0.00227341  0.02198802  0.90037413  1
  Zr  Zr32  1  0.80159784  0.54783591  0.11048878  1
  Zr  Zr33  1  0.64462749  0.49368199  0.51732742  1
  Zr  Zr34  1  0.93169109  0.51254274  0.71133710  1
  Zr  Zr35  1  0.27173074  0.65609674  0.90028180  1
  Zr  Zr36  1  0.57263137  0.88731083  0.33047500  1
  Zr  Zr37  1  0.96341854  0.82075388  0.54023759  1
  Zr  Zr38  1  0.70423832  0.17858029  0.21088400  1
  Zr  Zr39  1  0.34104633  0.10523488  0.78676557  1
  Zr  Zr40  1  0.24914860  0.30793196  0.24757514  1
  Zr  Zr41  1  0.90111061  0.32571921  0.09738707  1
  Zr  Zr42  1  0.75734137  0.98435015  0.34185270  1
  Zr  Zr43  1  0.66711500  0.93862259  0.91878124  1
  Zr  Zr44  1  0.18403449  0.92444006  0.39153288  1
  Zr  Zr45  1  0.78712459  0.52994354  0.34230962  1
  Zr  Zr46  1  0.25475804  0.68242140  0.27418039  1
  Zr  Zr47  1  0.86012551  0.86607628  0.90414772  1
  Zr  Zr48  1  0.16884117  0.28796440  0.45760276  1
  Zr  Zr49  1  0.31372503  0.80737260  0.05932138  1
  Sc  Sc50  1  0.61508648  0.69530879  0.63084022  1
  Sc  Sc51  1  0.02547228  0.34078690  0.62217041  1
  Sc  Sc52  1  0.62993161  0.36796357  0.73330915  1
  Sc  Sc53  1  0.33685459  0.94457356  0.62326807  1
  Sc  Sc54  1  0.07226714  0.67499649  0.42415083  1
  Sc  Sc55  1  0.35472970  0.90321597  0.24420289  1
  Sc  Sc56  1  0.13790681  0.66414351  0.07637970  1
  Sc  Sc57  1  0.72123280  0.73842290  0.02149990  1
  Sc  Sc58  1  0.67759840  0.69780751  0.42058434  1
  Sc  Sc59  1  0.17646690  0.48798985  0.16536084  1
  Sc  Sc60  1  0.23559792  0.01141275  0.95633667  1
  Sc  Sc61  1  0.73294343  0.54385711  0.72516854  1
  Sc  Sc62  1  0.37398812  0.23520117  0.51917403  1
  Sc  Sc63  1  0.51214570  0.29099817  0.14042087  1
  Sc  Sc64  1  0.43726417  0.28220982  0.32584271  1
  Sc  Sc65  1  0.94967807  0.93625730  0.12910749  1
  Sc  Sc66  1  0.05278533  0.01201349  0.55049474  1
  Sc  Sc67  1  0.29205575  0.11349508  0.31759965  1
  Sc  Sc68  1  0.90157676  0.13207577  0.25822637  1
  Sc  Sc69  1  0.82416836  0.09877666  0.03920722  1
  Sc  Sc70  1  0.11547659  0.32220691  0.04881948  1
  Sc  Sc71  1  0.53870450  0.51871370  0.09666446  1
  Sc  Sc72  1  0.44417398  0.07980709  0.16726154  1
  Sc  Sc73  1  0.44250809  0.95328329  0.94271232  1
  Sc  Sc74  1  0.11734287  0.51882095  0.55707900  1
  Sc  Sc75  1  0.74243820  0.92697568  0.13757230  1
  Sc  Sc76  1  0.04264281  0.13284428  0.09555399  1
  Sc  Sc77  1  0.57631105  0.12064131  0.82033332  1
  Sc  Sc78  1  0.52455161  0.33451860  0.92836519  1
  Sc  Sc79  1  0.25998616  0.17388207  0.08964863  1
  Sc  Sc80  1  0.54317231  0.88470590  0.11489586  1
  Sc  Sc81  1  0.09798252  0.84790068  0.98881283  1
  Sc  Sc82  1  0.67148925  0.70706792  0.21320601  1
  Sc  Sc83  1  0.95855811  0.21116764  0.45850169  1
  Sc  Sc84  1  0.07412538  0.79244667  0.23888230  1
  Sc  Sc85  1  0.96969875  0.95030032  0.35538571  1
  Sc  Sc86  1  0.28137739  0.85027181  0.80523300  1
  Sc  Sc87  1  0.60672060  0.11148596  1.03406725  1
  Sc  Sc88  1  0.85263005  0.63202086  0.89605030  1
  Sc  Sc89  1  0.35552905  0.80706456  0.42727790  1
  Sc  Sc90  1  0.05893351  0.83687470  0.76494446  1
  Sc  Sc91  1  0.84176321  0.74494885  0.70670610  1
  Sc  Sc92  1  0.49762416  0.09394674  0.62623196  1
  Sc  Sc93  1  0.05610551  0.63944453  0.86846655  1
  Sc  Sc94  1  0.43346714  0.29688651  0.72153845  1
  Sc  Sc95  1  0.97112729  0.45324457  0.43187334  1
  Sc  Sc96  1  0.97884404  0.15247267  0.71482354  1
  Sc  Sc97  1  0.98434758  0.55551687  0.23626445  1
  Sc  Sc98  1  0.56530904  0.12312276  0.34815253  1
  Sc  Sc99  1  0.86990538  0.74806916  0.32639628  1
  Nb  Nb100  1  0.70192238  0.94182063  0.70367584  1
  Nb  Nb101  1  0.85583172  0.61722409  0.53062925  1
  Nb  Nb102  1  0.19883311  0.48217005  -0.04683743  1
  Nb  Nb103  1  0.93124970  0.22267123  0.92033664  1
  Nb  Nb104  1  0.29674235  0.61082301  0.48751961  1
  Nb  Nb105  1  0.10103443  0.11818453  0.32963009  1
  Nb  Nb106  1  0.74926064  0.18949212  0.42890903  1
  Nb  Nb107  1  0.28323651  0.29509537  0.89630013  1
  Nb  Nb108  1  0.28577591  0.42276136  0.59105143  1
  Nb  Nb109  1  0.13968676  0.48537097  0.75050608  1
  Nb  Nb110  1  0.31524705  0.45567674  0.78876294  1
  Nb  Nb111  1  0.64495606  0.03358243  0.50883531  1
  Nb  Nb112  1  0.39991475  0.74251402  0.61540307  1
  Nb  Nb113  1  0.99549101  0.50609814  0.02313375  1
  Nb  Nb114  1  0.41568237  0.16973968  0.96717590  1
  Nb  Nb115  1  0.80051925  0.08546402  0.82565376  1
  Nb  Nb116  1  0.03341965  0.66628508  0.65109563  1
  Nb  Nb117  1  0.89841180  0.95354859  0.70881820  1
  Nb  Nb118  1  0.83542493  0.43048767  0.92065423  1
  Nb  Nb119  1  0.34226905  0.59580536  0.08215021  1
  Nb  Nb120  1  0.34727341  0.38746678  0.05790439  1
  Nb  Nb121  1  0.13220860  0.17626201  0.88591635  1
  Nb  Nb122  1  0.64009955  0.33708251  0.35069199  1
  Nb  Nb123  1  0.58590733  0.26905224  0.52705749  1
  Nb  Nb124  1  0.66339390  0.52652096  0.93056232  1
