# generated using pymatgen
data_Zr2Sc2Nb
_symmetry_space_group_name_H-M   'P 1'
_cell_length_a   14.15334941
_cell_length_b   14.11159202
_cell_length_c   14.39881650
_cell_angle_alpha   91.09256475
_cell_angle_beta   89.24640908
_cell_angle_gamma   87.57893282
_symmetry_Int_Tables_number   1
_chemical_formula_structural   Zr2Sc2Nb
_chemical_formula_sum   'Zr50 Sc50 Nb25'
_cell_volume   2872.45235896
_cell_formula_units_Z   25
loop_
 _symmetry_equiv_pos_site_id
 _symmetry_equiv_pos_as_xyz
  1  'x, y, z'
loop_
 _atom_site_type_symbol
 _atom_site_label
 _atom_site_symmetry_multiplicity
 _atom_site_fract_x
 _atom_site_fract_y
 _atom_site_fract_z
 _atom_site_occupancy
  Zr  Zr0  1  0.67208704  0.84769779  0.09297972  1
  Zr  Zr1  1  0.74329061  0.03365651  0.61818160  1
  Zr  Zr2  1  0.89200963  0.13341836  0.74058049  1
  Zr  Zr3  1  0.68816292  0.12124833  0.39925600  1
  Zr  Zr4  1  0.32988306  0.71723220  0.07436781  1
  Zr  Zr5  1  0.59850846  0.18435178  0.57112875  1
  Zr  Zr6  1  0.46923073  0.83269707  0.19356360  1
  Zr  Zr7  1  0.90134838  0.55981652  0.68788657  1
  Zr  Zr8  1  0.36224515  0.27502717  0.91194933  1
  Zr  Zr9  1  0.86996422  0.16612517  0.52623620  1
  Zr  Zr10  1  0.49710978  0.35194095  0.69891870  1
  Zr  Zr11  1  0.47165884  1.05561811  0.43428194  1
  Zr  Zr12  1  0.27154249  0.15532237  0.35747524  1
  Zr  Zr13  1  0.77855791  0.26737116  0.09649031  1
  Zr  Zr14  1  0.06959929  0.48720554  0.16149161  1
  Zr  Zr15  1  0.60762674  0.49531834  0.58022409  1
  Zr  Zr16  1  0.23223810  0.11716883  0.90793707  1
  Zr  Zr17  1  0.26778548  0.53587916  0.23856862  1
  Zr  Zr18  1  0.27360963  0.07628183  0.57363098  1
  Zr  Zr19  1  0.12292655  0.77110283  0.95346352  1
  Zr  Zr20  1  0.67537968  0.72371631  0.26461361  1
  Zr  Zr21  1  0.11545802  0.70910175  0.14499365  1
  Zr  Zr22  1  0.53005262  0.34990154  0.44620520  1
  Zr  Zr23  1  0.72783877  0.27899114  0.68191256  1
  Zr  Zr24  1  0.89930336  0.80625372  0.00540930  1
  Zr  Zr25  1  0.34043602  0.42724980  0.59299662  1
  Zr  Zr26  1  0.66973516  0.10399640  0.79417112  1
  Zr  Zr27  1  0.98251365  0.60396509  0.01228676  1
  Zr  Zr28  1  0.08429711  0.86812014  0.34236289  1
  Zr  Zr29  1  0.28348142  0.91544096  0.94634977  1
  Zr  Zr30  1  0.14278461  0.63454634  0.79181231  1
  Zr  Zr31  1  1.01345446  0.84640377  0.75924984  1
  Zr  Zr32  1  0.06803358  0.22658979  0.84696357  1
  Zr  Zr33  1  0.28409357  0.44974448  0.79543592  1
  Zr  Zr34  1  0.45201739  0.86684627  0.79585767  1
  Zr  Zr35  1  0.64582337  0.51974763  0.17540542  1
  Zr  Zr36  1  0.67089954  0.32278095  0.27259910  1
  Zr  Zr37  1  0.22823321  0.82919290  0.76198473  1
  Zr  Zr38  1  0.61170638  0.94654209  0.29445970  1
  Zr  Zr39  1  0.25159897  0.24796427  0.71845418  1
  Zr  Zr40  1  0.27202681  0.94189659  0.39841204  1
  Zr  Zr41  1  0.92197431  0.09688216  0.16400717  1
  Zr  Zr42  1  0.47435937  0.64078770  0.27412884  1
  Zr  Zr43  1  0.64085469  0.92301843  0.91032750  1
  Zr  Zr44  1  0.11097570  0.03897671  0.73373115  1
  Zr  Zr45  1  0.83556239  0.94219690  0.81853848  1
  Zr  Zr46  1  0.95224996  0.34750403  0.98144768  1
  Zr  Zr47  1  0.76813830  0.73002954  0.85709055  1
  Zr  Zr48  1  0.24845409  0.73420338  0.47202901  1
  Zr  Zr49  1  0.05482001  0.69729749  0.60138120  1
  Sc  Sc50  1  0.22835889  0.54149621  0.00416455  1
  Sc  Sc51  1  0.84319959  0.46918704  0.11767484  1
  Sc  Sc52  1  0.34733595  0.35305754  0.12717192  1
  Sc  Sc53  1  0.53498019  0.03241312  0.10880401  1
  Sc  Sc54  1  0.35398689  0.67731230  0.87012289  1
  Sc  Sc55  1  0.24303723  0.92445633  0.15017674  1
  Sc  Sc56  1  0.80586393  0.57343416  0.50672335  1
  Sc  Sc57  1  0.32058312  0.36608031  0.36078912  1
  Sc  Sc58  1  0.89432831  0.65336273  0.22488055  1
  Sc  Sc59  1  0.45334665  0.47452594  0.91320736  1
  Sc  Sc60  1  0.06299684  0.46449033  0.85841039  1
  Sc  Sc61  1  0.83015913  0.87985748  0.23154078  1
  Sc  Sc62  1  0.38756918  0.23338440  0.53251117  1
  Sc  Sc63  1  0.17053848  0.32688848  1.01165149  1
  Sc  Sc64  1  0.08809768  0.64477027  0.33424586  1
  Sc  Sc65  1  0.29440221  0.64115661  0.65046625  1
  Sc  Sc66  1  0.90824762  0.75754054  0.43004578  1
  Sc  Sc67  1  0.98693316  0.29993742  0.18132661  1
  Sc  Sc68  1  0.45945521  0.06378052  0.91947723  1
  Sc  Sc69  1  0.74578363  0.34832854  0.47769574  1
  Sc  Sc70  1  0.49292009  0.72752393  0.63255079  1
  Sc  Sc71  1  0.43522890  0.57539053  0.47033596  1
  Sc  Sc72  1  0.57003977  0.67793897  0.86598374  1
  Sc  Sc73  1  0.90730880  0.02131272  0.36403604  1
  Sc  Sc74  1  0.11144228  0.45025725  0.64418292  1
  Sc  Sc75  1  0.28093639  0.75760006  0.27682976  1
  Sc  Sc76  1  0.02917371  0.91366590  0.13587211  1
  Sc  Sc77  1  0.09009891  0.06416356  0.46929858  1
  Sc  Sc78  1  0.51743722  0.97870189  0.61649405  1
  Sc  Sc79  1  0.84879336  0.23544296  0.31895273  1
  Sc  Sc80  1  0.66239610  0.85208294  0.70239767  1
  Sc  Sc81  1  0.93466423  0.94376433  0.57782658  1
  Sc  Sc82  1  0.04311299  0.98216107  0.93278097  1
  Sc  Sc83  1  0.95301334  0.36688126  0.51547768  1
  Sc  Sc84  1  0.14246301  0.89039356  0.57540123  1
  Sc  Sc85  1  0.45300063  0.15401917  0.73272241  1
  Sc  Sc86  1  0.57473629  0.28341225  0.87777964  1
  Sc  Sc87  1  0.89441320  0.13913173  0.94906783  1
  Sc  Sc88  1  0.49281128  0.19918435  0.27060672  1
  Sc  Sc89  1  0.05981134  0.21379763  0.62336728  1
  Sc  Sc90  1  0.73510255  0.89896824  0.46079197  1
  Sc  Sc91  1  0.65512833  0.52435794  0.37252045  1
  Sc  Sc92  1  0.67870336  0.46787572  0.77767242  1
  Sc  Sc93  1  0.31036942  0.13298859  0.11198440  1
  Sc  Sc94  1  0.20816038  0.52821314  0.46913836  1
  Sc  Sc95  1  0.55766387  0.31062397  0.08773083  1
  Sc  Sc96  1  0.46474869  0.82772192  0.41781154  1
  Sc  Sc97  1  0.64522989  0.71534449  0.48976522  1
  Sc  Sc98  1  0.91579856  0.35529965  0.74587421  1
  Sc  Sc99  1  0.65676358  0.47913826  0.98035901  1
  Nb  Nb100  1  0.18003943  0.27957176  0.22465227  1
  Nb  Nb101  1  0.71487908  0.09521825  0.19717572  1
  Nb  Nb102  1  0.18195980  0.29851005  0.49274693  1
  Nb  Nb103  1  0.39331228  1.00561232  0.26313346  1
  Nb  Nb104  1  0.55621448  0.67634182  0.06875869  1
  Nb  Nb105  1  0.34381321  0.87325001  0.59690702  1
  Nb  Nb106  1  0.31567770  0.01184779  0.75199541  1
  Nb  Nb107  1  0.84335474  0.51951882  0.89290955  1
  Nb  Nb108  1  0.67627678  0.12916639  0.99184536  1
  Nb  Nb109  1  0.69272881  0.64365682  0.68523099  1
  Nb  Nb110  1  0.95525988  0.68296518  0.82807122  1
  Nb  Nb111  1  0.43938580  0.53338972  0.10288868  1
  Nb  Nb112  1  0.76129244  0.65656035  0.05028517  1
  Nb  Nb113  1  0.80586232  -0.01473513  0.03996821  1
  Nb  Nb114  1  0.48470430  0.43467071  0.26840671  1
  Nb  Nb115  1  0.84390052  0.76367507  0.64203899  1
  Nb  Nb116  1  0.08939586  0.41792830  0.34658515  1
  Nb  Nb117  1  -0.00171754  0.55439323  0.47925555  1
  Nb  Nb118  1  0.47382499  0.54980752  0.72251510  1
  Nb  Nb119  1  0.04237120  0.22650748  0.36995767  1
  Nb  Nb120  1  0.12108252  0.07293323  0.25361771  1
  Nb  Nb121  1  0.88808583  0.45269493  0.32803006  1
  Nb  Nb122  1  0.47046746  0.84817108  -0.00472166  1
  Nb  Nb123  1  0.09637626  0.13983847  0.06780023  1
  Nb  Nb124  1  0.77483603  0.30131931  0.89001633  1
