# generated using pymatgen
data_Zr2Sc2Nb
_symmetry_space_group_name_H-M   'P 1'
_cell_length_a   14.28511015
_cell_length_b   14.15680798
_cell_length_c   14.22917655
_cell_angle_alpha   91.86900476
_cell_angle_beta   91.01380604
_cell_angle_gamma   89.78695225
_symmetry_Int_Tables_number   1
_chemical_formula_structural   Zr2Sc2Nb
_chemical_formula_sum   'Zr50 Sc50 Nb25'
_cell_volume   2875.59330570
_cell_formula_units_Z   25
loop_
 _symmetry_equiv_pos_site_id
 _symmetry_equiv_pos_as_xyz
  1  'x, y, z'
loop_
 _atom_site_type_symbol
 _atom_site_label
 _atom_site_symmetry_multiplicity
 _atom_site_fract_x
 _atom_site_fract_y
 _atom_site_fract_z
 _atom_site_occupancy
  Zr  Zr0  1  0.38954261  0.72853181  0.89345154  1
  Zr  Zr1  1  0.73627291  0.09116879  0.09341934  1
  Zr  Zr2  1  0.65893917  0.45470666  0.49728416  1
  Zr  Zr3  1  0.85565855  0.96309054  0.80221778  1
  Zr  Zr4  1  0.62018822  0.23062143  0.44970107  1
  Zr  Zr5  1  0.90876507  0.42841181  0.35407921  1
  Zr  Zr6  1  0.44382607  0.10579899  0.37435242  1
  Zr  Zr7  1  0.10038820  0.28799360  0.72085309  1
  Zr  Zr8  1  0.81309245  0.47059837  0.15320714  1
  Zr  Zr9  1  0.44813823  0.25386415  0.15761349  1
  Zr  Zr10  1  0.45228156  0.78536282  0.70067507  1
  Zr  Zr11  1  0.10966794  0.43454458  0.95485104  1
  Zr  Zr12  1  0.25110156  0.75623122  0.19360489  1
  Zr  Zr13  1  0.05765328  0.84818928  0.02202527  1
  Zr  Zr14  1  0.69358835  0.38824654  0.86415135  1
  Zr  Zr15  1  0.38233458  0.26001777  0.51000760  1
  Zr  Zr16  1  0.09128899  0.23153446  0.92359619  1
  Zr  Zr17  1  0.81937156  0.30569994  0.49420613  1
  Zr  Zr18  1  0.28778206  0.18397836  0.68339012  1
  Zr  Zr19  1  0.69552526  0.81031849  0.31205231  1
  Zr  Zr20  1  0.41848147  0.85707569  0.09014604  1
  Zr  Zr21  1  0.51591235  0.06108878  0.04742316  1
  Zr  Zr22  1  0.94297175  0.14178281  0.77391262  1
  Zr  Zr23  1  0.85494581  0.92004620  0.02189987  1
  Zr  Zr24  1  0.08546965  0.76358643  0.35459298  1
  Zr  Zr25  1  0.89643807  0.63388311  0.28895537  1
  Zr  Zr26  1  0.28223982  0.32152557  0.85230923  1
  Zr  Zr27  1  0.34660759  0.47973812  0.24136658  1
  Zr  Zr28  1  0.48712854  0.35241246  0.34647247  1
  Zr  Zr29  1  0.56892882  0.69479172  0.05703227  1
  Zr  Zr30  1  0.79976868  0.08958355  0.45611048  1
  Zr  Zr31  1  0.51970532  0.56006432  0.37826820  1
  Zr  Zr32  1  0.65049165  0.89133161  0.10935755  1
  Zr  Zr33  1  0.71836901  0.18807904  0.85954433  1
  Zr  Zr34  1  0.01637175  0.46805441  0.16108721  1
  Zr  Zr35  1  0.41077089  0.62057025  0.55723174  1
  Zr  Zr36  1  0.94150204  0.06417525  0.18408103  1
  Zr  Zr37  1  0.91837169  0.95418303  0.59330886  1
  Zr  Zr38  1  0.57002424  0.95329862  0.70789895  1
  Zr  Zr39  1  0.78788695  0.59441461  0.79717012  1
  Zr  Zr40  1  0.91294823  0.85529104  0.22188202  1
  Zr  Zr41  1  0.97293733  0.27231593  0.16336542  1
  Zr  Zr42  1  0.45637539  0.32502280  0.73674755  1
  Zr  Zr43  1  0.69833903  0.54632795  -0.00193607  1
  Zr  Zr44  1  0.51737742  0.27548180  0.95237789  1
  Zr  Zr45  1  0.80149644  0.21628672  0.27642201  1
  Zr  Zr46  1  0.85977129  0.73800715  0.62456147  1
  Zr  Zr47  1  0.88617764  0.82691341  0.42608195  1
  Zr  Zr48  1  0.29572292  0.25708216  0.30716608  1
  Zr  Zr49  1  0.05167015  0.00459673  0.90193981  1
  Sc  Sc50  1  0.67663450  -0.00501797  0.90462640  1
  Sc  Sc51  1  0.44588199  0.93721474  0.52296467  1
  Sc  Sc52  1  0.96631331  0.46372227  0.79868574  1
  Sc  Sc53  1  0.75020610  0.64361270  0.44008127  1
  Sc  Sc54  1  0.91364143  0.57922821  0.98871846  1
  Sc  Sc55  1  0.47715490  0.72608301  0.24810476  1
  Sc  Sc56  1  0.17734447  0.58237474  0.55406089  1
  Sc  Sc57  1  0.27065197  0.80284049  0.54517584  1
  Sc  Sc58  1  0.34390322  0.05460542  0.18995151  1
  Sc  Sc59  1  0.28970170  0.44386085  0.43619076  1
  Sc  Sc60  1  0.73865601  0.08469701  0.65652461  1
  Sc  Sc61  1  0.68763783  0.39928668  0.29849150  1
  Sc  Sc62  1  0.58321595  0.65896212  0.83125993  1
  Sc  Sc63  1  0.12169960  0.92830739  0.22277930  1
  Sc  Sc64  1  0.13934746  0.12234822  0.31743455  1
  Sc  Sc65  1  0.04119448  0.68776486  0.14268193  1
  Sc  Sc66  1  0.18837761  0.31735051  0.12996509  1
  Sc  Sc67  1  0.60613477  0.49042277  0.70718958  1
  Sc  Sc68  1  0.53887128  0.77571562  0.44782480  1
  Sc  Sc69  1  0.30933411  0.66422988  0.37536439  1
  Sc  Sc70  1  0.11945934  0.03810846  0.68798314  1
  Sc  Sc71  1  0.84967402  0.31186415  0.71473937  1
  Sc  Sc72  1  0.50778555  0.12695823  0.60629574  1
  Sc  Sc73  1  0.12978084  0.11153817  0.08927619  1
  Sc  Sc74  1  0.69207703  0.29892837  0.07788880  1
  Sc  Sc75  1  0.54322977  0.46483790  0.13883993  1
  Sc  Sc76  1  0.23067375  0.70048799  0.73265552  1
  Sc  Sc77  1  0.89982115  0.13874188  0.98149780  1
  Sc  Sc78  1  0.49421923  0.49031534  0.91909089  1
  Sc  Sc79  1  0.83714192  0.50818931  0.60703067  1
  Sc  Sc80  1  0.20043031  0.55567347  0.10895895  1
  Sc  Sc81  1  0.98680762  0.16290532  0.56434999  1
  Sc  Sc82  1  0.09310207  0.65364377  0.89068845  1
  Sc  Sc83  1  0.46438061  0.11907619  0.82475007  1
  Sc  Sc84  1  0.04342585  0.84188029  0.73818876  1
  Sc  Sc85  1  0.38844114  0.54017552  0.73874007  1
  Sc  Sc86  1  0.27227986  0.07029356  0.49691350  1
  Sc  Sc87  1  0.60360249  0.13999491  0.25026781  1
  Sc  Sc88  1  0.64850360  0.28987930  0.65375145  1
  Sc  Sc89  1  0.71216353  0.81541194  0.75122002  1
  Sc  Sc90  1  0.62835880  0.67191974  0.60944338  1
  Sc  Sc91  1  0.34994153  0.39720822  0.03757624  1
  Sc  Sc92  1  0.91007098  0.75965941  0.86148102  1
  Sc  Sc93  1  0.32307888  0.89804448  0.34305411  1
  Sc  Sc94  1  0.11015725  0.94538967  0.47618064  1
  Sc  Sc95  1  0.12062778  0.55865173  0.33132962  1
  Sc  Sc96  1  0.88708703  0.35411622  0.96676476  1
  Sc  Sc97  1  0.79502384  0.70989175  0.12258758  1
  Sc  Sc98  1  0.03178062  0.41098656  0.55465491  1
  Sc  Sc99  1  0.33077930  0.96537495  0.70267242  1
  Nb  Nb100  1  0.61892018  1.00347662  0.43945940  1
  Nb  Nb101  1  0.27094765  0.39021887  0.63383665  1
  Nb  Nb102  1  0.38974753  0.61788964  0.07846421  1
  Nb  Nb103  1  0.38593170  0.95262109  0.90891877  1
  Nb  Nb104  1  0.27978428  0.54962320  0.91232093  1
  Nb  Nb105  1  0.01284141  0.62484623  0.68826541  1
  Nb  Nb106  1  0.32766156  0.16518407  0.00668344  1
  Nb  Nb107  1  0.75968348  -0.00741561  0.27803069  1
  Nb  Nb108  1  0.11059636  0.35093075  0.33136671  1
  Nb  Nb109  1  0.96809174  0.61058121  0.47789533  1
  Nb  Nb110  1  0.23798778  0.74736776  1.00431686  1
  Nb  Nb111  1  0.21091754  0.87447375  0.85399293  1
  Nb  Nb112  1  0.23472274  0.08954522  0.86268654  1
  Nb  Nb113  1  0.16719259  0.49298354  0.75359122  1
  Nb  Nb114  1  0.97338424  0.22318653  0.37510304  1
  Nb  Nb115  1  0.52833011  0.94045676  0.26990702  1
  Nb  Nb116  1  0.54720374  0.85451052  0.90540859  1
  Nb  Nb117  1  0.47476928  0.42654640  0.55444089  1
  Nb  Nb118  1  0.05912668  0.76163316  0.55391446  1
  Nb  Nb119  1  0.71255580  0.87862529  0.54276049  1
  Nb  Nb120  1  0.72692563  0.76640644  0.94470861  1
  Nb  Nb121  1  0.24061383  0.95185273  0.03530389  1
  Nb  Nb122  1  0.66666807  0.60793196  0.24111484  1
  Nb  Nb123  1  0.95737304  0.01460375  0.37078006  1
  Nb  Nb124  1  0.16760598  0.25824284  0.49826495  1
