# generated using pymatgen
data_Zr2Sc2Nb
_symmetry_space_group_name_H-M   'P 1'
_cell_length_a   14.03901267
_cell_length_b   14.10146726
_cell_length_c   14.53163676
_cell_angle_alpha   93.13121600
_cell_angle_beta   90.34516579
_cell_angle_gamma   92.04132547
_symmetry_Int_Tables_number   1
_chemical_formula_structural   Zr2Sc2Nb
_chemical_formula_sum   'Zr50 Sc50 Nb25'
_cell_volume   2870.62853189
_cell_formula_units_Z   25
loop_
 _symmetry_equiv_pos_site_id
 _symmetry_equiv_pos_as_xyz
  1  'x, y, z'
loop_
 _atom_site_type_symbol
 _atom_site_label
 _atom_site_symmetry_multiplicity
 _atom_site_fract_x
 _atom_site_fract_y
 _atom_site_fract_z
 _atom_site_occupancy
  Zr  Zr0  1  0.90752942  0.33831642  0.11939987  1
  Zr  Zr1  1  0.50002977  0.36160469  0.14428755  1
  Zr  Zr2  1  0.29498430  0.20462465  0.23164775  1
  Zr  Zr3  1  0.94694092  0.17132010  0.83318793  1
  Zr  Zr4  1  0.42393809  0.93327271  0.85512689  1
  Zr  Zr5  1  0.36993939  0.51789551  0.07491885  1
  Zr  Zr6  1  0.49507037  0.14286820  0.15750770  1
  Zr  Zr7  1  0.26826148  0.94002187  0.46430835  1
  Zr  Zr8  1  0.56598273  0.08351814  0.75130669  1
  Zr  Zr9  1  0.75613000  0.64656711  0.25573215  1
  Zr  Zr10  1  0.70085227  0.23516274  0.06160305  1
  Zr  Zr11  1  0.89693108  0.09329803  1.01933965  1
  Zr  Zr12  1  0.87695141  0.53677191  0.41017640  1
  Zr  Zr13  1  0.57224799  0.80567064  0.96533992  1
  Zr  Zr14  1  0.84302582  0.34380887  0.32389454  1
  Zr  Zr15  1  0.58192635  0.57833461  0.13966155  1
  Zr  Zr16  1  0.12217570  0.73637564  0.92061940  1
  Zr  Zr17  1  0.31465139  0.59457889  0.84791242  1
  Zr  Zr18  1  0.23603362  0.85798170  0.09460284  1
  Zr  Zr19  1  0.84592880  0.65662347  0.65638532  1
  Zr  Zr20  1  0.22346295  0.75105973  0.56091089  1
  Zr  Zr21  1  0.09467160  0.05360847  0.14857830  1
  Zr  Zr22  1  0.48060940  0.48478527  0.50578789  1
  Zr  Zr23  1  0.45134399  0.26047307  0.74891256  1
  Zr  Zr24  1  0.80169446  0.40479098  -0.03908529  1
  Zr  Zr25  1  0.39731221  0.07934543  0.61398183  1
  Zr  Zr26  1  0.62712929  0.30646033  0.44573388  1
  Zr  Zr27  1  0.26984826  0.78068799  0.76156598  1
  Zr  Zr28  1  0.63258182  0.69014857  0.62471598  1
  Zr  Zr29  1  0.86592855  0.83514911  0.52726594  1
  Zr  Zr30  1  0.62295405  0.89000200  0.77605217  1
  Zr  Zr31  1  0.89242877  0.93402078  0.16862464  1
  Zr  Zr32  1  0.70354244  0.69966106  0.82699801  1
  Zr  Zr33  1  0.08938277  0.24160384  0.05792689  1
  Zr  Zr34  1  0.80744348  0.27293825  0.52788668  1
  Zr  Zr35  1  0.29249503  0.30730591  0.05687423  1
  Zr  Zr36  1  0.78414215  0.89052125  0.97287607  1
  Zr  Zr37  1  0.60685530  0.11450726  0.54286675  1
  Zr  Zr38  1  0.33499183  0.00255631  0.26224831  1
  Zr  Zr39  1  0.45118826  0.32928839  0.34142361  1
  Zr  Zr40  1  0.45057634  0.94290436  0.07176603  1
  Zr  Zr41  1  0.48005488  0.20887348  0.96116672  1
  Zr  Zr42  1  0.33468528  0.59853998  0.63667290  1
  Zr  Zr43  1  0.97618285  0.94715198  0.86427480  1
  Zr  Zr44  1  0.83887293  0.33268431  0.74263334  1
  Zr  Zr45  1  0.11782231  0.46290174  0.12622240  1
  Zr  Zr46  1  0.93802333  0.74086557  0.32984242  1
  Zr  Zr47  1  0.27689296  0.41505959  0.25662793  1
  Zr  Zr48  1  0.29069123  0.57570572  0.42510560  1
  Zr  Zr49  1  0.29326607  0.40742481  0.69625405  1
  Sc  Sc50  1  0.52206033  0.59454847  0.93179541  1
  Sc  Sc51  1  0.58099233  0.74515868  0.35103834  1
  Sc  Sc52  1  0.31979616  0.10144241  0.82355263  1
  Sc  Sc53  1  0.11244526  0.08709163  0.54089351  1
  Sc  Sc54  1  0.50158819  0.48241834  0.71190280  1
  Sc  Sc55  1  0.75365970  0.88287851  0.34631806  1
  Sc  Sc56  1  0.91044686  0.73791828  0.88365536  1
  Sc  Sc57  1  0.06598642  0.88321433  0.50505826  1
  Sc  Sc58  1  0.89202591  0.15167334  0.22021544  1
  Sc  Sc59  1  0.07536370  0.29040749  0.26321584  1
  Sc  Sc60  1  0.08059586  0.37689798  0.71715638  1
  Sc  Sc61  1  0.43375999  0.73602600  0.13958650  1
  Sc  Sc62  1  0.07679208  0.51744772  0.33087171  1
  Sc  Sc63  1  0.67236179  0.80683276  0.14649004  1
  Sc  Sc64  1  0.95201323  0.97690893  0.36192894  1
  Sc  Sc65  1  0.45167193  0.71575788  0.50489240  1
  Sc  Sc66  1  0.65284774  0.48901412  0.34781820  1
  Sc  Sc67  1  0.32510494  0.15110550  0.44167678  1
  Sc  Sc68  1  0.65282290  0.89573028  0.54962223  1
  Sc  Sc69  1  0.74307109  0.60248735  0.01077876  1
  Sc  Sc70  1  0.54256857  0.93975193  0.26436685  1
  Sc  Sc71  1  0.04637746  0.33898894  0.47079940  1
  Sc  Sc72  1  0.45323751  0.55915840  0.29858488  1
  Sc  Sc73  1  0.17820120  0.46763595  0.92329087  1
  Sc  Sc74  1  0.90980991  0.53180221  0.81221028  1
  Sc  Sc75  1  0.13643520  0.10327082  0.34404956  1
  Sc  Sc76  1  0.25268705  0.62916192  0.23105605  1
  Sc  Sc77  1  0.70462813  0.48702762  0.56855783  1
  Sc  Sc78  1  0.48085385  0.71541961  0.77036498  1
  Sc  Sc79  1  0.61211466  0.03829454  0.95882795  1
  Sc  Sc80  1  0.73086516  0.11078874  0.36176544  1
  Sc  Sc81  1  0.13570166  0.52815382  0.54688797  1
  Sc  Sc82  1  0.99691853  0.35893446  0.91812124  1
  Sc  Sc83  1  0.69141728  0.48325466  0.79459254  1
  Sc  Sc84  1  0.27227255  0.36162268  0.47817195  1
  Sc  Sc85  1  0.69719184  0.04141572  0.15405011  1
  Sc  Sc86  1  -0.02296240  0.20838939  0.62824225  1
  Sc  Sc87  1  0.67730361  0.24376272  0.85240903  1
  Sc  Sc88  1  0.05206355  0.82216677  0.70486054  1
  Sc  Sc89  1  0.34994884  0.79480138  0.33439342  1
  Sc  Sc90  1  0.29610790  0.07992256  0.04165259  1
  Sc  Sc91  1  0.92562199  0.46681357  0.59947423  1
  Sc  Sc92  1  0.98861315  0.56910631  0.00709105  1
  Sc  Sc93  1  0.12544759  0.88215941  0.27170914  1
  Sc  Sc94  1  0.19485605  0.26079494  0.85442800  1
  Sc  Sc95  1  0.81440386  0.86027612  0.72420020  1
  Sc  Sc96  1  0.43707831  0.87715803  0.64022410  1
  Sc  Sc97  1  0.88474542  0.73696201  0.10501534  1
  Sc  Sc98  1  0.39705617  0.39916649  0.89709061  1
  Sc  Sc99  1  0.10495803  0.60993264  0.73533158  1
  Nb  Nb100  1  0.23193813  0.95809583  0.66968492  1
  Nb  Nb101  1  0.11595071  0.07908660  0.75127532  1
  Nb  Nb102  1  0.24687171  0.21105945  0.64841531  1
  Nb  Nb103  1  0.59678940  0.40895638  0.98271117  1
  Nb  Nb104  1  0.20239203  0.92648201  0.88694091  1
  Nb  Nb105  1  0.22366807  0.64329274  0.04223318  1
  Nb  Nb106  1  0.91052835  0.53509501  0.19535693  1
  Nb  Nb107  1  -0.00273139  0.67440043  0.52357801  1
  Nb  Nb108  1  0.94593808  1.00725010  0.66857664  1
  Nb  Nb109  1  0.35470748  0.77069839  0.95155507  1
  Nb  Nb110  1  0.72487344  0.43558079  0.15744164  1
  Nb  Nb111  1  0.13807454  0.71422102  0.38557568  1
  Nb  Nb112  1  0.45128269  0.28379124  0.55698843  1
  Nb  Nb113  1  0.47111927  0.95487708  0.44809025  1
  Nb  Nb114  1  0.78132959  0.04078919  0.83632895  1
  Nb  Nb115  1  0.94463670  0.17247601  0.41701356  1
  Nb  Nb116  1  0.51048864  0.13450784  0.35831655  1
  Nb  Nb117  1  0.65545897  0.26488061  0.24930094  1
  Nb  Nb118  1  0.76957287  0.13203279  0.68196246  1
  Nb  Nb119  1  0.03634579  0.88279032  0.04018515  1
  Nb  Nb120  1  0.10863884  0.07885797  0.94836737  1
  Nb  Nb121  1  0.83332878  0.04297539  0.52234816  1
  Nb  Nb122  1  0.07378330  0.69524255  0.16737108  1
  Nb  Nb123  1  0.75231922  0.68129189  0.46219528  1
  Nb  Nb124  1  0.63416018  0.30057254  0.65822940  1
