# generated using pymatgen
data_Zr2Sc2Nb
_symmetry_space_group_name_H-M   'P 1'
_cell_length_a   13.86063346
_cell_length_b   14.12789199
_cell_length_c   14.59344214
_cell_angle_alpha   89.82975157
_cell_angle_beta   89.10856291
_cell_angle_gamma   90.08290013
_symmetry_Int_Tables_number   1
_chemical_formula_structural   Zr2Sc2Nb
_chemical_formula_sum   'Zr50 Sc50 Nb25'
_cell_volume   2857.34853088
_cell_formula_units_Z   25
loop_
 _symmetry_equiv_pos_site_id
 _symmetry_equiv_pos_as_xyz
  1  'x, y, z'
loop_
 _atom_site_type_symbol
 _atom_site_label
 _atom_site_symmetry_multiplicity
 _atom_site_fract_x
 _atom_site_fract_y
 _atom_site_fract_z
 _atom_site_occupancy
  Zr  Zr0  1  0.75221272  0.78637962  0.96254130  1
  Zr  Zr1  1  0.35118550  0.65163639  0.32951743  1
  Zr  Zr2  1  0.53269836  0.99689278  0.29063797  1
  Zr  Zr3  1  0.60726607  0.97347036  0.72294258  1
  Zr  Zr4  1  0.24570264  0.64002182  0.51513021  1
  Zr  Zr5  1  0.80215997  0.25933369  0.20078960  1
  Zr  Zr6  1  0.81324619  0.71012204  0.28728490  1
  Zr  Zr7  1  0.26134982  0.04828688  0.44191184  1
  Zr  Zr8  1  0.03337559  0.38218387  0.93215559  1
  Zr  Zr9  1  0.27382602  0.51816468  0.18668748  1
  Zr  Zr10  1  0.76467908  0.87820341  0.61346201  1
  Zr  Zr11  1  0.19545371  0.33123026  0.25674554  1
  Zr  Zr12  1  0.07556620  0.52098137  0.56760331  1
  Zr  Zr13  1  0.06201057  0.35552795  0.44755346  1
  Zr  Zr14  1  0.37625803  0.97898442  0.75573944  1
  Zr  Zr15  1  0.96460221  0.85698883  0.34853820  1
  Zr  Zr16  1  0.59638960  0.83340991  0.47372133  1
  Zr  Zr17  1  0.29862836  0.41513641  0.62901371  1
  Zr  Zr18  1  0.76728347  0.56912906  0.92643425  1
  Zr  Zr19  1  0.03810484  0.25606133  0.12940916  1
  Zr  Zr20  1  0.56422148  0.66403537  1.00256318  1
  Zr  Zr21  1  0.38327980  0.94807611  0.96185798  1
  Zr  Zr22  1  0.47600420  0.09520294  0.08159670  1
  Zr  Zr23  1  0.26565255  0.25167406  0.44756555  1
  Zr  Zr24  1  0.17105047  -0.03705817  0.64113733  1
  Zr  Zr25  1  0.11086642  0.73225066  0.65150559  1
  Zr  Zr26  1  0.60078487  0.44083666  0.89817638  1
  Zr  Zr27  1  0.96460985  0.46421834  0.76491194  1
  Zr  Zr28  1  0.64700364  0.28369301  0.76049909  1
  Zr  Zr29  1  0.88799294  0.19985991  1.00867038  1
  Zr  Zr30  1  0.52175073  0.11635605  0.85948254  1
  Zr  Zr31  1  0.80609168  0.35653907  0.89023800  1
  Zr  Zr32  1  0.75611961  0.12737213  0.86083421  1
  Zr  Zr33  1  0.07666611  0.48159051  0.11959457  1
  Zr  Zr34  1  0.90905020  0.63846757  0.64514339  1
  Zr  Zr35  1  0.38643751  0.62069535  0.67005421  1
  Zr  Zr36  1  -0.04416550  0.82774460  0.76138032  1
  Zr  Zr37  1  0.69603719  0.25795305  0.53850321  1
  Zr  Zr38  1  0.11504852  0.68340465  0.07444346  1
  Zr  Zr39  1  0.30423697  0.16871053  0.63917963  1
  Zr  Zr40  1  0.14919162  0.97997436  0.26183294  1
  Zr  Zr41  1  0.67764761  0.63669046  0.14771443  1
  Zr  Zr42  1  0.48335799  0.15039979  0.42125500  1
  Zr  Zr43  1  0.21396108  0.54379601  -0.04122003  1
  Zr  Zr44  1  0.68826114  0.05706764  0.15601709  1
  Zr  Zr45  1  0.30525449  0.15271436  0.87142223  1
  Zr  Zr46  1  0.53661511  0.77306062  0.26100252  1
  Zr  Zr47  1  0.96776408  0.03976598  0.86206306  1
  Zr  Zr48  1  0.35702060  0.72274644  0.11470886  1
  Zr  Zr49  1  0.98108530  0.83545652  0.96314318  1
  Sc  Sc50  1  0.17066620  0.75970552  0.26182064  1
  Sc  Sc51  1  0.86662615  0.43538621  0.08259629  1
  Sc  Sc52  1  0.64932799  0.22499239  0.01763971  1
  Sc  Sc53  1  0.88600018  0.66221136  0.08087829  1
  Sc  Sc54  1  0.37210017  0.71784537  0.88227299  1
  Sc  Sc55  1  0.73234179  0.91054596  0.33444028  1
  Sc  Sc56  1  0.54418513  0.45392138  0.67081989  1
  Sc  Sc57  1  0.80075228  0.71248084  0.48864033  1
  Sc  Sc58  1  0.27427833  0.45623479  0.42495084  1
  Sc  Sc59  1  0.84204257  -0.01729387  0.02700161  1
  Sc  Sc60  1  0.99342795  0.62093037  0.89349031  1
  Sc  Sc61  1  0.77521814  0.48813377  0.27410728  1
  Sc  Sc62  1  0.40973725  0.31939122  0.14169462  1
  Sc  Sc63  1  0.63706828  0.41523500  0.10699518  1
  Sc  Sc64  1  0.36485018  0.87284070  0.35573990  1
  Sc  Sc65  1  0.52492053  0.14654777  0.63994418  1
  Sc  Sc66  1  0.18851817  0.84041308  0.46926720  1
  Sc  Sc67  1  0.55578687  0.83896917  0.86914515  1
  Sc  Sc68  1  0.88283441  0.38917950  0.59277022  1
  Sc  Sc69  1  0.71387843  0.48555730  0.50796958  1
  Sc  Sc70  1  0.17726342  0.55105325  0.75469447  1
  Sc  Sc71  1  0.03255435  0.18084371  0.33687429  1
  Sc  Sc72  1  0.10237409  0.32746527  0.65849342  1
  Sc  Sc73  1  0.46666088  0.52948435  0.47925398  1
  Sc  Sc74  1  0.16609367  0.75788317  0.85563136  1
  Sc  Sc75  1  0.19056609  0.87622039  0.06255494  1
  Sc  Sc76  1  0.90012805  0.03634832  0.23767260  1
  Sc  Sc77  1  0.44533634  0.30133951  0.94508809  1
  Sc  Sc78  1  0.74510696  0.50368900  0.72656746  1
  Sc  Sc79  1  0.24770443  0.11026318  0.07650197  1
  Sc  Sc80  1  0.49896507  0.52177847  0.23723086  1
  Sc  Sc81  1  0.84795936  0.01867020  0.46723503  1
  Sc  Sc82  1  0.02918719  0.68868751  0.44539741  1
  Sc  Sc83  1  0.62177161  0.35620580  0.35778897  1
  Sc  Sc84  1  0.17391488  0.97061526  0.86698463  1
  Sc  Sc85  1  0.76506658  0.10569518  0.65853811  1
  Sc  Sc86  1  0.42414021  0.51325653  0.03346893  1
  Sc  Sc87  1  0.93383392  0.23383307  0.75846077  1
  Sc  Sc88  1  0.62127323  0.63150373  0.38023329  1
  Sc  Sc89  1  0.38304822  0.48281903  0.83180834  1
  Sc  Sc90  1  0.73606691  0.73211220  0.75563795  1
  Sc  Sc91  1  0.04457488  0.03489010  0.07172106  1
  Sc  Sc92  1  0.34329299  0.13819070  0.26173757  1
  Sc  Sc93  1  0.71437505  0.14421844  0.35647825  1
  Sc  Sc94  1  0.46918939  0.32182491  0.53068127  1
  Sc  Sc95  1  0.42580708  0.95841949  0.55282283  1
  Sc  Sc96  1  0.56051831  0.62412581  0.80115235  1
  Sc  Sc97  1  0.22985092  0.33532172  0.02918436  1
  Sc  Sc98  1  0.54093399  0.86710856  0.08661484  1
  Sc  Sc99  1  0.96299182  0.02826656  0.65790168  1
  Nb  Nb100  1  0.74631265  0.84435131  0.14685894  1
  Nb  Nb101  1  0.12556949  0.53985230  0.33491346  1
  Nb  Nb102  1  0.35519444  0.93458743  0.17282503  1
  Nb  Nb103  1  0.22139065  0.33717925  0.82239778  1
  Nb  Nb104  1  0.30325314  0.80372785  0.67320931  1
  Nb  Nb105  1  0.63390131  0.02891751  0.50780379  1
  Nb  Nb106  1  0.97256050  0.83769023  0.15988931  1
  Nb  Nb107  1  0.98615728  0.62432273  0.24709626  1
  Nb  Nb108  1  0.78834336  0.93222415  0.82000433  1
  Nb  Nb109  1  0.42506936  0.73989590  0.50373833  1
  Nb  Nb110  1  0.42146375  0.29294300  0.74852940  1
  Nb  Nb111  1  0.05369296  1.00892865  0.45416316  1
  Nb  Nb112  1  0.41221620  0.34342832  0.32972390  1
  Nb  Nb113  1  0.91346342  0.52378790  0.42228646  1
  Nb  Nb114  1  0.09812067  0.18933874  0.92963796  1
  Nb  Nb115  1  0.61176146  0.65590558  0.59585246  1
  Nb  Nb116  1  -0.02528730  0.39957482  0.27008089  1
  Nb  Nb117  1  0.13492801  0.14150779  0.75105825  1
  Nb  Nb118  1  0.97100965  0.84996152  0.55642630  1
  Nb  Nb119  1  0.56467748  0.21378106  0.22557147  1
  Nb  Nb120  1  0.84332963  0.32003211  0.39573674  1
  Nb  Nb121  1  0.92299133  0.19732472  0.52889975  1
  Nb  Nb122  1  0.51106039  0.79929471  0.67573500  1
  Nb  Nb123  1  0.64231403  0.99317453  0.96590407  1
  Nb  Nb124  1  0.11049810  0.15746710  0.55196605  1
