# generated using pymatgen
data_Zr2Sc2Nb
_symmetry_space_group_name_H-M   'P 1'
_cell_length_a   14.51786843
_cell_length_b   14.09350618
_cell_length_c   14.04682972
_cell_angle_alpha   88.01896342
_cell_angle_beta   88.32841097
_cell_angle_gamma   91.11582036
_symmetry_Int_Tables_number   1
_chemical_formula_structural   Zr2Sc2Nb
_chemical_formula_sum   'Zr50 Sc50 Nb25'
_cell_volume   2870.54542549
_cell_formula_units_Z   25
loop_
 _symmetry_equiv_pos_site_id
 _symmetry_equiv_pos_as_xyz
  1  'x, y, z'
loop_
 _atom_site_type_symbol
 _atom_site_label
 _atom_site_symmetry_multiplicity
 _atom_site_fract_x
 _atom_site_fract_y
 _atom_site_fract_z
 _atom_site_occupancy
  Zr  Zr0  1  0.22491607  0.39504841  0.86309870  1
  Zr  Zr1  1  0.66664901  0.61660340  0.07939091  1
  Zr  Zr2  1  0.22866579  0.95006402  0.01348076  1
  Zr  Zr3  1  0.72863515  0.17565785  0.78133315  1
  Zr  Zr4  1  0.69751008  0.76832221  0.73288158  1
  Zr  Zr5  1  0.05629916  0.88572852  0.68172866  1
  Zr  Zr6  1  0.94999659  0.44205061  0.55429613  1
  Zr  Zr7  1  0.30485041  0.75294514  0.98615514  1
  Zr  Zr8  1  0.86981520  0.41903733  0.11474098  1
  Zr  Zr9  1  0.44439018  0.36559154  0.34913101  1
  Zr  Zr10  1  0.75559292  0.35715787  0.65467326  1
  Zr  Zr11  1  0.65651190  0.89949631  0.29591854  1
  Zr  Zr12  1  0.45395379  0.92865949  0.27843685  1
  Zr  Zr13  1  0.08847016  0.24001040  0.89792096  1
  Zr  Zr14  1  0.45085603  0.89612632  0.05509960  1
  Zr  Zr15  1  0.46040914  0.05622916  0.67622613  1
  Zr  Zr16  1  0.60866784  0.35455234  0.49312544  1
  Zr  Zr17  1  0.64667195  0.82954004  0.09466060  1
  Zr  Zr18  1  0.91820513  0.13981933  0.82279379  1
  Zr  Zr19  1  0.04118798  0.83150648  -0.04465670  1
  Zr  Zr20  1  0.89622929  0.10678751  0.44314889  1
  Zr  Zr21  1  0.10443164  0.73485629  0.51755560  1
  Zr  Zr22  1  0.05582361  0.92866423  0.16911920  1
  Zr  Zr23  1  0.15702189  0.63009368  0.32700283  1
  Zr  Zr24  1  0.69773393  0.15829128  0.55211740  1
  Zr  Zr25  1  0.19677677  0.83801292  0.82348275  1
  Zr  Zr26  1  0.86600139  0.01814709  0.64434437  1
  Zr  Zr27  1  0.49854086  0.12894959  0.33241937  1
  Zr  Zr28  1  0.18440482  0.51375955  0.06413106  1
  Zr  Zr29  1  0.34774908  0.55574768  0.38149133  1
  Zr  Zr30  1  0.63387303  0.20103861  0.98867668  1
  Zr  Zr31  1  0.03651499  0.26622889  0.47339603  1
  Zr  Zr32  1  0.01419433  0.43062080  0.94917055  1
  Zr  Zr33  1  0.44027021  0.29683782  0.93352363  1
  Zr  Zr34  1  0.44287487  0.20829419  0.51660036  1
  Zr  Zr35  1  0.30651546  0.85381110  0.63885202  1
  Zr  Zr36  1  0.73211016  0.10158367  0.33205513  1
  Zr  Zr37  1  0.23494019  0.42748695  0.25824631  1
  Zr  Zr38  1  0.97769980  0.70740759  0.78697601  1
  Zr  Zr39  1  0.25202492  0.01815689  0.27995334  1
  Zr  Zr40  1  0.97312671  0.62979507  1.00039922  1
  Zr  Zr41  1  0.16308571  0.61972717  0.88107976  1
  Zr  Zr42  1  0.26085796  0.05783595  0.68036077  1
  Zr  Zr43  1  0.38138575  -0.01146539  0.48065469  1
  Zr  Zr44  1  0.78246453  0.73264278  0.92780965  1
  Zr  Zr45  1  0.76576770  0.90655263  0.49507628  1
  Zr  Zr46  1  0.50849841  0.84648518  0.65502604  1
  Zr  Zr47  1  0.64021829  0.28391817  0.29671727  1
  Zr  Zr48  1  0.78421186  1.02347014  0.12923423  1
  Zr  Zr49  1  0.60141224  0.61015295  0.84867986  1
  Sc  Sc50  1  0.06946668  0.33611171  0.13413728  1
  Sc  Sc51  1  0.35453536  0.54011896  0.94392929  1
  Sc  Sc52  1  0.30245133  0.79217733  0.39727971  1
  Sc  Sc53  1  0.33073211  0.27835950  0.70318975  1
  Sc  Sc54  1  0.91403051  0.29823683  0.28448880  1
  Sc  Sc55  1  0.69376854  0.70526393  0.53658230  1
  Sc  Sc56  1  0.70896125  0.98864704  0.93227005  1
  Sc  Sc57  1  0.12040758  0.72363233  0.12399257  1
  Sc  Sc58  1  0.52523640  0.51976690  0.21531231  1
  Sc  Sc59  1  0.17689244  -0.05567663  0.50345234  1
  Sc  Sc60  1  0.58371836  0.05861358  0.14644498  1
  Sc  Sc61  1  0.54739932  0.26515828  0.70287652  1
  Sc  Sc62  1  0.33049235  0.22618949  0.25664087  1
  Sc  Sc63  1  0.58034485  0.99291826  0.48624656  1
  Sc  Sc64  1  0.05676982  0.51727383  0.72899590  1
  Sc  Sc65  1  0.33641395  0.65614793  0.56085653  1
  Sc  Sc66  1  0.92088999  0.35717751  0.77710786  1
  Sc  Sc67  1  0.12700165  0.11920769  0.09641381  1
  Sc  Sc68  1  0.55038852  0.82972424  0.87795507  1
  Sc  Sc69  1  0.71668346  0.47577624  0.28688356  1
  Sc  Sc70  1  0.80374199  0.51776344  0.92392461  1
  Sc  Sc71  1  0.88097417  0.92368242  0.30457727  1
  Sc  Sc72  1  0.42573522  0.44617623  0.56654329  1
  Sc  Sc73  1  0.37671872  0.69678649  0.78831191  1
  Sc  Sc74  1  0.87826380  0.90540735  0.83095669  1
  Sc  Sc75  1  0.50950255  1.06977243  0.88527908  1
  Sc  Sc76  1  0.25038758  0.35983372  0.47938205  1
  Sc  Sc77  1  0.25630189  0.28532144  1.04934362  1
  Sc  Sc78  1  0.11880630  0.31697048  0.67226747  1
  Sc  Sc79  1  0.89950103  0.51379861  0.34545247  1
  Sc  Sc80  1  0.10529533  0.03158768  0.84180183  1
  Sc  Sc81  1  0.33672205  0.62116617  0.17230853  1
  Sc  Sc82  1  0.12868862  0.22499550  0.29302716  1
  Sc  Sc83  1  0.95274116  0.01769365  0.00439263  1
  Sc  Sc84  1  0.56078521  0.56644240  0.43233244  1
  Sc  Sc85  1  0.38263325  0.10104601  0.08599990  1
  Sc  Sc86  1  0.06154676  0.09840760  0.61314889  1
  Sc  Sc87  1  0.50787288  0.77830111  0.44522897  1
  Sc  Sc88  1  0.96028209  0.72118131  0.28866669  1
  Sc  Sc89  1  0.66809172  0.98152786  0.70660856  1
  Sc  Sc90  1  0.67210335  0.39409585  0.08553786  1
  Sc  Sc91  1  0.28728043  0.82987799  0.19036392  1
  Sc  Sc92  1  0.86560761  0.81967837  0.10252277  1
  Sc  Sc93  1  0.72222951  0.69584444  0.30795407  1
  Sc  Sc94  1  0.81573102  0.58154995  0.70331235  1
  Sc  Sc95  1  0.64516262  0.38621058  0.84763073  1
  Sc  Sc96  1  0.45279917  0.46271994  0.77803818  1
  Sc  Sc97  1  0.24099060  0.14890711  0.46725042  1
  Sc  Sc98  1  0.29408027  0.13467456  0.88202663  1
  Sc  Sc99  1  0.90948313  0.66597183  0.50428615  1
  Nb  Nb100  1  0.11378261  0.84744006  0.33295779  1
  Nb  Nb101  1  0.89414624  0.22511327  0.62047659  1
  Nb  Nb102  1  0.62367544  0.50001295  0.65050752  1
  Nb  Nb103  1  0.80654480  0.31577282  0.44907752  1
  Nb  Nb104  1  0.50752277  0.73644877  0.22904297  1
  Nb  Nb105  1  0.50855710  0.27408531  0.14178328  1
  Nb  Nb106  1  0.06329478  0.04367681  0.36342201  1
  Nb  Nb107  1  0.36846671  0.92748778  0.83784513  1
  Nb  Nb108  1  0.26536060  0.50489557  0.69703158  1
  Nb  Nb109  1  0.84194324  0.61314621  0.14807598  1
  Nb  Nb110  1  0.15560830  0.53159547  0.53081296  1
  Nb  Nb111  1  0.52681656  0.47332607  0.99804629  1
  Nb  Nb112  1  0.86814612  0.80546162  0.64445416  1
  Nb  Nb113  1  0.48913547  0.68012335  0.03301395  1
  Nb  Nb114  1  0.38255268  0.41654456  0.12393669  1
  Nb  Nb115  1  0.76335126  0.22027985  0.14791165  1
  Nb  Nb116  1  0.97263281  0.89641274  0.48730241  1
  Nb  Nb117  1  0.93323352  0.21725333  0.04122564  1
  Nb  Nb118  1  0.75655510  0.50945177  0.49789461  1
  Nb  Nb119  1  0.02914016  0.53208147  0.18714849  1
  Nb  Nb120  1  0.94471676  0.11267093  0.21617969  1
  Nb  Nb121  1  0.51899390  0.64562313  0.64385508  1
  Nb  Nb122  1  0.07634671  0.43480930  0.36679110  1
  Nb  Nb123  1  0.17608026  0.68808865  0.68970757  1
  Nb  Nb124  1  0.80773642  0.29794296  0.94022981  1
