# generated using pymatgen
data_Zr2Sc2Nb
_symmetry_space_group_name_H-M   'P 1'
_cell_length_a   13.89087911
_cell_length_b   14.34903632
_cell_length_c   14.43111434
_cell_angle_alpha   89.46872347
_cell_angle_beta   90.13199016
_cell_angle_gamma   90.17690538
_symmetry_Int_Tables_number   1
_chemical_formula_structural   Zr2Sc2Nb
_chemical_formula_sum   'Zr50 Sc50 Nb25'
_cell_volume   2876.27541733
_cell_formula_units_Z   25
loop_
 _symmetry_equiv_pos_site_id
 _symmetry_equiv_pos_as_xyz
  1  'x, y, z'
loop_
 _atom_site_type_symbol
 _atom_site_label
 _atom_site_symmetry_multiplicity
 _atom_site_fract_x
 _atom_site_fract_y
 _atom_site_fract_z
 _atom_site_occupancy
  Zr  Zr0  1  0.87167834  0.63270489  0.64562258  1
  Zr  Zr1  1  0.82009378  0.93128445  0.85850802  1
  Zr  Zr2  1  0.51978926  0.57949811  0.55681136  1
  Zr  Zr3  1  0.67169338  0.87727273  0.45919713  1
  Zr  Zr4  1  0.23819111  0.65018771  0.23133732  1
  Zr  Zr5  1  0.47143701  0.73447167  0.36911852  1
  Zr  Zr6  1  0.51550243  0.78709439  0.57468103  1
  Zr  Zr7  1  0.95663354  0.96173508  0.19921154  1
  Zr  Zr8  1  0.87383441  0.67485721  0.85162897  1
  Zr  Zr9  1  0.71171247  0.47400223  0.13211931  1
  Zr  Zr10  1  0.45540892  0.66995167  0.97389391  1
  Zr  Zr11  1  0.30734818  0.70846450  0.84382044  1
  Zr  Zr12  1  0.24911127  0.57946034  0.01900360  1
  Zr  Zr13  1  0.67803099  0.78580361  0.91503580  1
  Zr  Zr14  1  0.93419200  0.18208712  0.51821886  1
  Zr  Zr15  1  0.19834373  0.51014240  0.57348187  1
  Zr  Zr16  1  0.26648606  0.88069487  0.50313402  1
  Zr  Zr17  1  0.08196674  0.60337055  0.72719796  1
  Zr  Zr18  1  0.44765323  0.84832742  0.16027754  1
  Zr  Zr19  1  0.44028370  0.88453375  0.95710832  1
  Zr  Zr20  1  0.07922589  0.73679192  0.55343754  1
  Zr  Zr21  1  0.12011527  0.24564490  0.42542430  1
  Zr  Zr22  1  0.75211793  0.26138298  0.43849861  1
  Zr  Zr23  1  0.93370695  0.82281787  0.01937600  1
  Zr  Zr24  1  0.11068048  0.05771491  0.47303049  1
  Zr  Zr25  1  0.34661069  0.45655975  0.17397507  1
  Zr  Zr26  1  0.60376166  0.91661254  0.24890942  1
  Zr  Zr27  1  0.71122891  0.88528226  0.68024601  1
  Zr  Zr28  1  0.46507011  0.95510763  0.40754491  1
  Zr  Zr29  1  0.55048134  0.51952040  0.28429887  1
  Zr  Zr30  1  0.09992502  0.16100381  0.90380543  1
  Zr  Zr31  1  0.80931738  0.47203389  0.90895834  1
  Zr  Zr32  1  0.81404543  0.31418010  0.22470741  1
  Zr  Zr33  1  0.64414573  0.59483995  0.91704786  1
  Zr  Zr34  1  0.94254115  0.81384235  0.70576022  1
  Zr  Zr35  1  0.31202286  0.10551547  0.35915615  1
  Zr  Zr36  1  0.13376415  0.96191047  0.04627328  1
  Zr  Zr37  1  0.06599594  0.87367821  0.37824087  1
  Zr  Zr38  1  0.82261212  0.63774727  0.05307379  1
  Zr  Zr39  1  0.68147471  0.09756961  0.75582133  1
  Zr  Zr40  1  0.10871644  0.35635575  0.79659094  1
  Zr  Zr41  1  0.23243539  0.27068035  0.24297142  1
  Zr  Zr42  1  0.44592507  0.20874417  0.67191429  1
  Zr  Zr43  1  0.26603616  0.78397298  0.06027130  1
  Zr  Zr44  1  0.93419821  0.42409886  0.07213628  1
  Zr  Zr45  1  0.24353539  0.91373832  0.87295348  1
  Zr  Zr46  1  0.51910592  0.16938198  0.45683185  1
  Zr  Zr47  1  0.12676702  0.06170597  0.26528806  1
  Zr  Zr48  1  0.09273179  0.74651692  0.91009579  1
  Zr  Zr49  1  0.48501383  0.37537083  0.77269071  1
  Sc  Sc50  1  0.71926657  0.08227370  0.55389782  1
  Sc  Sc51  1  0.05839088  0.66718194  0.33514288  1
  Sc  Sc52  1  0.90470166  0.13277851  0.31555065  1
  Sc  Sc53  1  0.25677896  0.68433407  0.44056957  1
  Sc  Sc54  1  0.27657192  0.86539245  0.29338641  1
  Sc  Sc55  1  0.34706825  0.89094513  0.69107492  1
  Sc  Sc56  1  0.74039782  0.47678659  0.36908668  1
  Sc  Sc57  1  0.68669394  0.71015496  0.30899897  1
  Sc  Sc58  1  0.04032576  0.64317583  0.09877773  1
  Sc  Sc59  1  0.91689777  0.52370322  0.25610373  1
  Sc  Sc60  1  0.97441278  0.54903131  0.48944451  1
  Sc  Sc61  1  0.73315304  0.11689436  0.16706335  1
  Sc  Sc62  1  0.24598187  0.29401664  0.65737837  1
  Sc  Sc63  1  0.87851305  0.76251587  0.45034985  1
  Sc  Sc64  1  0.10858666  0.95492615  0.63829844  1
  Sc  Sc65  1  0.52839829  0.99696283  0.61684829  1
  Sc  Sc66  1  0.81083660  0.42861049  0.56218693  1
  Sc  Sc67  1  0.86332502  0.26483442  0.68923947  1
  Sc  Sc68  1  0.52054471  0.20318690  0.91377222  1
  Sc  Sc69  1  0.13027227  0.46687842  0.16755870  1
  Sc  Sc70  1  0.03819730  0.96391497  0.83631576  1
  Sc  Sc71  1  0.88691912  0.75477564  0.22450689  1
  Sc  Sc72  1  0.35182214  0.24475864  0.07450702  1
  Sc  Sc73  1  0.89281608  0.97229155  0.47205344  1
  Sc  Sc74  1  0.03715020  0.36512392  0.58868915  1
  Sc  Sc75  1  0.73481096  0.91640234  0.07777783  1
  Sc  Sc76  1  0.31824628  0.08484359  0.56009823  1
  Sc  Sc77  1  0.33464097  0.67076517  0.64086860  1
  Sc  Sc78  1  0.02948712  0.28940388  0.22611423  1
  Sc  Sc79  1  0.04519321  0.52168794  0.92095377  1
  Sc  Sc80  1  0.89517954  0.03046935  0.67590085  1
  Sc  Sc81  1  0.56535268  0.29337043  0.10717494  1
  Sc  Sc82  1  0.62156987  0.71114737  0.11488578  1
  Sc  Sc83  1  0.66798742  0.68767306  0.71617111  1
  Sc  Sc84  1  0.27753234  0.49459473  0.78320041  1
  Sc  Sc85  1  0.32313117  0.02963468  0.15205073  1
  Sc  Sc86  1  0.43340993  0.30837881  0.29104130  1
  Sc  Sc87  1  0.92844091  0.03324604  0.01479119  1
  Sc  Sc88  1  0.14489026  0.45453408  0.37427778  1
  Sc  Sc89  1  0.44415956  0.04160156  0.80984470  1
  Sc  Sc90  1  0.71288616  0.28888484  0.82596071  1
  Sc  Sc91  1  0.63816238  0.28205671  0.62410202  1
  Sc  Sc92  1  0.36808922  0.51380229  0.39539453  1
  Sc  Sc93  1  0.32759948  0.30420724  0.46925403  1
  Sc  Sc94  1  0.54792591  0.38753185  0.46837222  1
  Sc  Sc95  1  0.68106190  0.48240146  0.72102125  1
  Sc  Sc96  1  0.50863493  0.11375946  0.24072644  1
  Sc  Sc97  1  0.38247912  0.42945879  0.95537650  1
  Sc  Sc98  1  0.70558762  0.64903383  0.50782739  1
  Sc  Sc99  1  0.24043582  0.09398281  0.75360128  1
  Nb  Nb100  1  0.68258612  0.07798242  0.36117402  1
  Nb  Nb101  1  0.79432454  0.92286141  0.30127424  1
  Nb  Nb102  1  0.61731273  0.96592697  0.88050749  1
  Nb  Nb103  1  0.72582487  0.11292132  0.96431240  1
  Nb  Nb104  1  0.48252310  0.57948689  0.77623796  1
  Nb  Nb105  1  0.39453398  0.44476466  0.61304527  1
  Nb  Nb106  1  0.92344374  0.46512796  0.74259232  1
  Nb  Nb107  1  0.75986942  0.29453589  0.01931313  1
  Nb  Nb108  1  0.16479485  0.78630436  0.72179690  1
  Nb  Nb109  1  0.88729493  0.14153489  0.85064063  1
  Nb  Nb110  1  0.63169209  0.29136255  0.29521555  1
  Nb  Nb111  1  0.09892043  0.81799591  0.18183191  1
  Nb  Nb112  1  0.14163170  0.15772418  0.09241484  1
  Nb  Nb113  1  0.93886413  0.31615339  0.88983596  1
  Nb  Nb114  1  0.14466103  0.33592657  1.01085114  1
  Nb  Nb115  1  0.52188391  0.51342156  0.08443453  1
  Nb  Nb116  1  0.53178745  0.04052364  0.05024043  1
  Nb  Nb117  1  0.31049557  0.08448759  0.96068543  1
  Nb  Nb118  1  0.93469909  0.35884507  0.39731312  1
  Nb  Nb119  1  0.42283087  0.65148522  0.18405972  1
  Nb  Nb120  1  0.30321503  0.25920614  0.86282217  1
  Nb  Nb121  1  0.05507458  0.17016784  0.69240679  1
  Nb  Nb122  1  0.50905836  0.79945949  0.78421612  1
  Nb  Nb123  1  0.93611374  0.21573022  0.05941337  1
  Nb  Nb124  1  0.59894683  0.41147594  0.93703687  1
