# generated using pymatgen
data_Zr2Sc2Nb
_symmetry_space_group_name_H-M   'P 1'
_cell_length_a   14.43796099
_cell_length_b   14.44626957
_cell_length_c   13.81884972
_cell_angle_alpha   90.93848834
_cell_angle_beta   88.81443347
_cell_angle_gamma   90.70342296
_symmetry_Int_Tables_number   1
_chemical_formula_structural   Zr2Sc2Nb
_chemical_formula_sum   'Zr50 Sc50 Nb25'
_cell_volume   2881.05308232
_cell_formula_units_Z   25
loop_
 _symmetry_equiv_pos_site_id
 _symmetry_equiv_pos_as_xyz
  1  'x, y, z'
loop_
 _atom_site_type_symbol
 _atom_site_label
 _atom_site_symmetry_multiplicity
 _atom_site_fract_x
 _atom_site_fract_y
 _atom_site_fract_z
 _atom_site_occupancy
  Zr  Zr0  1  0.60999971  0.69772977  0.47977931  1
  Zr  Zr1  1  0.47165974  0.61913155  0.34056673  1
  Zr  Zr2  1  0.46917699  0.69391655  0.08579729  1
  Zr  Zr3  1  0.62640360  0.50381756  0.12911263  1
  Zr  Zr4  1  0.91020245  -0.00175905  0.10051696  1
  Zr  Zr5  1  0.10730631  0.90186081  0.17463525  1
  Zr  Zr6  1  0.70923840  0.81213863  0.80567902  1
  Zr  Zr7  1  0.35642375  0.09284963  0.35382054  1
  Zr  Zr8  1  0.95969919  0.41294351  0.52857544  1
  Zr  Zr9  1  0.30990244  0.08336871  0.73310368  1
  Zr  Zr10  1  0.77856126  0.84986123  0.14541337  1
  Zr  Zr11  1  0.45115614  0.33953922  0.05231571  1
  Zr  Zr12  1  0.70445450  0.19955228  0.27700563  1
  Zr  Zr13  1  0.86588998  0.64386338  0.16987558  1
  Zr  Zr14  1  0.50057367  0.52686884  0.95968376  1
  Zr  Zr15  1  0.80447954  0.97120037  0.91717850  1
  Zr  Zr16  1  0.94912574  0.31949242  0.33377248  1
  Zr  Zr17  1  0.39490650  0.78359465  0.46612674  1
  Zr  Zr18  1  0.44635894  0.93777951  0.73739667  1
  Zr  Zr19  1  0.68952780  0.06154339  0.10130857  1
  Zr  Zr20  1  0.62198221  0.83416723  1.03157532  1
  Zr  Zr21  1  0.90826137  0.59192994  0.92462980  1
  Zr  Zr22  1  0.82051695  0.20032056  0.46359309  1
  Zr  Zr23  1  0.67886922  0.61915632  0.67304460  1
  Zr  Zr24  1  0.05698996  0.72851202  0.32578190  1
  Zr  Zr25  1  0.52742752  0.76290523  0.68239869  1
  Zr  Zr26  1  -0.04956964  0.13275649  0.89079299  1
  Zr  Zr27  1  0.04766715  0.33999557  0.80557550  1
  Zr  Zr28  1  0.90519171  0.53840575  0.35409958  1
  Zr  Zr29  1  0.34251619  0.43231999  0.61721566  1
  Zr  Zr30  1  0.64099518  0.69953062  0.22459327  1
  Zr  Zr31  1  0.29908288  0.98304677  0.14912330  1
  Zr  Zr32  1  0.13989808  0.38081885  0.60464917  1
  Zr  Zr33  1  0.41719118  0.50487081  0.17425611  1
  Zr  Zr34  1  0.68292120  0.54379794  0.35836876  1
  Zr  Zr35  1  0.67904263  0.18889627  0.65887610  1
  Zr  Zr36  1  0.16407012  0.82008953  0.51829125  1
  Zr  Zr37  1  0.67923347  0.87624799  0.35057447  1
  Zr  Zr38  1  0.06985313  0.48652901  0.97262523  1
  Zr  Zr39  1  0.49184354  0.98695199  0.11012678  1
  Zr  Zr40  1  0.88310481  0.27325438  0.66692616  1
  Zr  Zr41  1  0.22820424  0.34388903  -0.01286981  1
  Zr  Zr42  1  1.02450874  0.19496548  0.48833790  1
  Zr  Zr43  1  0.67807556  0.39214803  0.66415613  1
  Zr  Zr44  1  0.81272058  0.72511460  0.37506179  1
  Zr  Zr45  1  0.03973944  0.93057831  0.93469009  1
  Zr  Zr46  1  0.66315397  0.29273590  0.07387582  1
  Zr  Zr47  1  0.29175228  0.67624762  0.23664437  1
  Zr  Zr48  1  0.56145022  0.04796354  0.33178453  1
  Zr  Zr49  1  0.85429734  0.48090989  0.70811147  1
  Sc  Sc50  1  0.55226008  0.37901513  0.28925703  1
  Sc  Sc51  1  0.71992326  0.65815295  1.01163985  1
  Sc  Sc52  1  0.77419687  0.38851368  0.25624430  1
  Sc  Sc53  1  0.24410598  0.88282202  0.86509247  1
  Sc  Sc54  1  0.21184926  0.46912842  0.18307489  1
  Sc  Sc55  1  0.84686003  0.33536774  0.88237705  1
  Sc  Sc56  1  0.72002004  0.15767608  0.87773213  1
  Sc  Sc57  1  0.33513060  0.30182074  0.24298207  1
  Sc  Sc58  1  0.70094291  0.50433125  0.86979204  1
  Sc  Sc59  1  0.16612497  0.05024092  0.49929490  1
  Sc  Sc60  1  0.88274685  0.69434725  0.72119141  1
  Sc  Sc61  1  0.11745623  0.27500993  0.19160689  1
  Sc  Sc62  1  0.84707904  0.06816859  0.69201735  1
  Sc  Sc63  1  0.09944046  0.64578797  0.12700101  1
  Sc  Sc64  1  0.86736822  0.21654798  0.11382654  1
  Sc  Sc65  1  0.74633547  0.83658395  0.57775889  1
  Sc  Sc66  1  0.93292412  0.89149540  0.74861328  1
  Sc  Sc67  1  0.59114658  -0.02062999  0.89969648  1
  Sc  Sc68  1  0.48862266  0.10563085  0.56271477  1
  Sc  Sc69  1  0.09417882  0.09660652  0.08537195  1
  Sc  Sc70  1  0.58028376  0.32294786  0.86324646  1
  Sc  Sc71  1  0.42088183  0.29566427  0.44172235  1
  Sc  Sc72  1  0.21621200  0.49194615  0.80884742  1
  Sc  Sc73  1  0.08641609  0.71718446  0.91379382  1
  Sc  Sc74  1  0.47218233  0.29288684  0.67313194  1
  Sc  Sc75  1  0.11318037  0.49620888  0.37743484  1
  Sc  Sc76  1  0.13784490  0.95629342  0.69817465  1
  Sc  Sc77  1  0.97159896  0.10895448  0.28618773  1
  Sc  Sc78  1  0.36713640  0.65292813  0.81369148  1
  Sc  Sc79  1  0.07968204  0.16068503  0.69250842  1
  Sc  Sc80  1  0.30484071  0.79315033  0.66884983  1
  Sc  Sc81  1  0.25961444  0.88443677  0.33739705  1
  Sc  Sc82  1  0.99731097  0.45143247  0.17117062  1
  Sc  Sc83  1  0.54101419  0.91262551  0.52018741  1
  Sc  Sc84  1  0.95519883  0.80942112  0.52784064  1
  Sc  Sc85  1  0.28616638  0.57382403  0.00661785  1
  Sc  Sc86  1  0.28283479  0.20400801  0.56791655  1
  Sc  Sc87  1  0.27272734  0.79301231  0.05902742  1
  Sc  Sc88  1  0.46801970  0.83882003  0.25957389  1
  Sc  Sc89  1  0.89618207  1.00098483  0.48430999  1
  Sc  Sc90  1  0.21821335  0.60574935  0.62168601  1
  Sc  Sc91  1  0.18753992  0.29091403  0.39812588  1
  Sc  Sc92  1  0.61577834  0.26159904  0.46668475  1
  Sc  Sc93  1  0.04038873  0.55290041  0.74367463  1
  Sc  Sc94  1  0.31164466  0.16751088  0.08581215  1
  Sc  Sc95  1  0.51238534  0.51761842  0.72875439  1
  Sc  Sc96  1  0.82868568  0.44862023  0.05810469  1
  Sc  Sc97  1  0.17263189  0.13615929  0.89471816  1
  Sc  Sc98  1  0.33053350  0.47912115  0.39652327  1
  Sc  Sc99  1  0.03034905  0.62363248  0.53379002  1
  Nb  Nb100  1  0.24647199  0.29159303  0.76046764  1
  Nb  Nb101  1  0.37837361  0.22045990  0.88151623  1
  Nb  Nb102  1  0.52048820  0.12427074  0.78491751  1
  Nb  Nb103  1  0.78605128  1.02962170  0.29493081  1
  Nb  Nb104  1  0.69392347  0.04842654  0.49550468  1
  Nb  Nb105  1  0.09075561  0.75844843  0.70844362  1
  Nb  Nb106  1  0.97141982  0.79537954  0.09589013  1
  Nb  Nb107  1  0.91095176  0.87527786  0.29170077  1
  Nb  Nb108  1  0.50569127  0.18858250  0.20264074  1
  Nb  Nb109  1  0.38347833  0.41045850  0.84945855  1
  Nb  Nb110  1  0.55327239  0.47605423  0.51162471  1
  Nb  Nb111  1  0.86976930  0.78867934  0.93870836  1
  Nb  Nb112  1  0.42060232  0.61580332  0.56396867  1
  Nb  Nb113  1  0.56934764  0.68698628  0.87054191  1
  Nb  Nb114  1  0.06254753  0.94189821  0.37375908  1
  Nb  Nb115  1  0.81566005  0.59450932  0.53220253  1
  Nb  Nb116  1  0.17538747  0.09530009  0.28579747  1
  Nb  Nb117  1  0.24590790  0.66122895  0.42645805  1
  Nb  Nb118  1  0.52485695  0.15632421  -0.00113015  1
  Nb  Nb119  1  0.44285800  0.83048564  0.92288853  1
  Nb  Nb120  1  0.38077968  0.02373667  0.93498473  1
  Nb  Nb121  1  0.02617419  0.29191862  0.00280614  1
  Nb  Nb122  1  0.76992382  0.40266499  0.48225154  1
  Nb  Nb123  1  0.33245530  0.96692800  0.54836377  1
  Nb  Nb124  1  0.65062342  -0.01124274  0.69594034  1
