# generated using pymatgen
data_Zr2Sc2Nb
_symmetry_space_group_name_H-M   'P 1'
_cell_length_a   14.46472657
_cell_length_b   14.13335305
_cell_length_c   14.00762340
_cell_angle_alpha   91.51691926
_cell_angle_beta   90.12479832
_cell_angle_gamma   91.83311113
_symmetry_Int_Tables_number   1
_chemical_formula_structural   Zr2Sc2Nb
_chemical_formula_sum   'Zr50 Sc50 Nb25'
_cell_volume   2861.16805559
_cell_formula_units_Z   25
loop_
 _symmetry_equiv_pos_site_id
 _symmetry_equiv_pos_as_xyz
  1  'x, y, z'
loop_
 _atom_site_type_symbol
 _atom_site_label
 _atom_site_symmetry_multiplicity
 _atom_site_fract_x
 _atom_site_fract_y
 _atom_site_fract_z
 _atom_site_occupancy
  Zr  Zr0  1  0.83637377  0.16950678  0.71333405  1
  Zr  Zr1  1  0.83505180  0.53171901  0.33579633  1
  Zr  Zr2  1  0.12553117  0.35899389  0.30536761  1
  Zr  Zr3  1  0.39404359  0.07873787  0.53939995  1
  Zr  Zr4  1  -0.01334061  0.78310256  0.74843908  1
  Zr  Zr5  1  0.10013817  0.15150617  0.21984373  1
  Zr  Zr6  1  0.88600571  0.24479089  0.10754432  1
  Zr  Zr7  1  0.09994405  0.75481067  0.16926610  1
  Zr  Zr8  1  0.18147086  0.35244534  0.52689749  1
  Zr  Zr9  1  0.12015796  0.49968848  0.65928316  1
  Zr  Zr10  1  0.76448132  0.57893615  0.90557482  1
  Zr  Zr11  1  0.92298315  0.25013673  0.32726604  1
  Zr  Zr12  1  0.91287786  0.03294577  0.40836603  1
  Zr  Zr13  1  0.64214122  0.17197322  0.09231809  1
  Zr  Zr14  1  0.21411357  0.14213315  0.66993983  1
  Zr  Zr15  1  0.57470447  0.83106504  -0.02267322  1
  Zr  Zr16  1  0.54696386  0.79046177  0.43034261  1
  Zr  Zr17  1  0.43633316  0.93608709  0.34878678  1
  Zr  Zr18  1  0.27089987  0.36666659  0.74346425  1
  Zr  Zr19  1  0.35279336  0.33719909  0.03298701  1
  Zr  Zr20  1  0.72574249  0.32274026  0.22682013  1
  Zr  Zr21  1  0.83130529  0.87042556  0.25799083  1
  Zr  Zr22  1  0.28009878  0.80806650  0.84451250  1
  Zr  Zr23  1  0.94522227  0.26100354  0.88981577  1
  Zr  Zr24  1  0.50628741  0.92631887  0.60233300  1
  Zr  Zr25  1  0.08692930  0.32830021  0.06539723  1
  Zr  Zr26  1  0.63753521  0.90360102  0.25487085  1
  Zr  Zr27  1  0.18817804  0.74106891  0.63325333  1
  Zr  Zr28  1  0.74497852  0.50651541  0.11373806  1
  Zr  Zr29  1  0.94772037  0.86816242  0.08972906  1
  Zr  Zr30  1  0.07216506  0.57536202  0.28837537  1
  Zr  Zr31  1  0.93100096  0.30418688  0.55538955  1
  Zr  Zr32  1  0.02417194  0.09522731  0.00396259  1
  Zr  Zr33  1  0.39511748  0.75700600  0.66735235  1
  Zr  Zr34  1  0.91024365  0.93051758  0.89442187  1
  Zr  Zr35  1  0.67311902  0.97967080  0.78768840  1
  Zr  Zr36  1  0.25699234  0.86760381  0.28843052  1
  Zr  Zr37  1  0.69841372  0.33718219  0.63643624  1
  Zr  Zr38  1  0.32417134  0.58395890  0.75973295  1
  Zr  Zr39  1  0.84411359  0.49917503  0.56287454  1
  Zr  Zr40  1  0.19196681  0.02036062  0.88088507  1
  Zr  Zr41  1  0.70754538  0.56832912  0.69197227  1
  Zr  Zr42  1  -0.00036456  0.08838388  0.59998349  1
  Zr  Zr43  1  0.60668345  0.45710102  0.48961897  1
  Zr  Zr44  1  0.49512233  0.58906898  0.35613521  1
  Zr  Zr45  1  0.16466698  0.97697333  0.51624562  1
  Zr  Zr46  1  0.73342512  0.96594513  0.06397299  1
  Zr  Zr47  1  0.29611920  0.25575869  0.22682289  1
  Zr  Zr48  1  0.34413220  0.69108394  0.45352922  1
  Zr  Zr49  1  0.91409169  0.72782561  0.37906358  1
  Sc  Sc50  1  0.28188515  0.65803936  0.24553212  1
  Sc  Sc51  1  0.78416544  0.16269249  0.49696984  1
  Sc  Sc52  1  0.10383455  0.84074714  0.94591934  1
  Sc  Sc53  1  1.01079947  0.63764847  0.54565892  1
  Sc  Sc54  1  0.49032609  0.33983660  0.24877588  1
  Sc  Sc55  1  0.23029252  0.15816223  0.04198039  1
  Sc  Sc56  1  0.90518830  0.45158053  0.99007869  1
  Sc  Sc57  1  0.64984438  0.79459682  0.65139158  1
  Sc  Sc58  1  0.35828486  0.48386592  0.55999941  1
  Sc  Sc59  1  0.73785197  0.10821463  0.28010721  1
  Sc  Sc60  1  0.51509274  0.27123534  0.89144002  1
  Sc  Sc61  1  0.98574594  0.86386217  0.53640457  1
  Sc  Sc62  1  0.52356068  0.63110565  0.57961919  1
  Sc  Sc63  1  0.51126658  -0.02393193  0.11606136  1
  Sc  Sc64  1  0.40562443  0.68169108  0.96747404  1
  Sc  Sc65  1  0.74456245  0.31786858  0.97315328  1
  Sc  Sc66  1  0.90633729  0.64923710  0.16582969  1
  Sc  Sc67  1  0.45078413  0.25979192  0.65835149  1
  Sc  Sc68  1  0.32218408  0.45773659  0.34423652  1
  Sc  Sc69  1  0.26457138  0.07889616  0.36126071  1
  Sc  Sc70  1  0.75687729  0.75364302  0.05522518  1
  Sc  Sc71  1  0.91437626  0.05386647  0.18103596  1
  Sc  Sc72  1  0.70749550  0.64644321  0.46491605  1
  Sc  Sc73  1  0.76677983  0.77789769  0.82742016  1
  Sc  Sc74  1  0.23078498  0.47226419  0.15109506  1
  Sc  Sc75  1  0.32644055  0.03778500  0.16567598  1
  Sc  Sc76  1  0.80075093  0.10719420  0.92928425  1
  Sc  Sc77  1  0.44438321  0.53092822  0.14507348  1
  Sc  Sc78  1  0.61878584  0.12425086  0.62378481  1
  Sc  Sc79  1  0.59258538  0.25295760  0.43459890  1
  Sc  Sc80  1  0.36624674  0.27083614  0.44351058  1
  Sc  Sc81  1  0.47997046  0.75524488  0.19187666  1
  Sc  Sc82  1  0.68394888  0.68894986  0.24998138  1
  Sc  Sc83  1  0.95641131  0.68255935  0.95582650  1
  Sc  Sc84  1  0.51279424  0.45554523  0.70509279  1
  Sc  Sc85  1  0.13851434  0.75739263  0.41656723  1
  Sc  Sc86  1  0.61366897  1.02073387  0.43779340  1
  Sc  Sc87  1  0.33739432  0.18172580  0.85176802  1
  Sc  Sc88  1  0.05158949  0.92728890  0.30663702  1
  Sc  Sc89  1  0.05753119  0.28583397  0.70501380  1
  Sc  Sc90  1  0.49615203  0.13014091  0.27983149  1
  Sc  Sc91  1  0.09370903  0.18189150  0.44029198  1
  Sc  Sc92  1  0.92825166  0.57479515  0.75530995  1
  Sc  Sc93  1  0.55813545  0.65977161  0.81481688  1
  Sc  Sc94  1  0.30886049  0.84624021  0.07084851  1
  Sc  Sc95  1  0.76237769  0.87071343  0.46773823  1
  Sc  Sc96  1  0.12975922  0.63936260  0.83507219  1
  Sc  Sc97  1  0.85191076  0.94608949  0.67541018  1
  Sc  Sc98  1  0.45322066  0.48079662  0.91303384  1
  Sc  Sc99  1  0.23436778  0.47513792  0.93175626  1
  Nb  Nb100  1  0.31415963  0.96017871  0.70816571  1
  Nb  Nb101  1  0.94098779  0.42338104  0.20762330  1
  Nb  Nb102  1  0.32158109  0.87859932  0.50884774  1
  Nb  Nb103  1  1.00150670  0.44323300  0.43400146  1
  Nb  Nb104  1  0.83919913  0.72402226  0.61391343  1
  Nb  Nb105  1  0.44754875  0.17622075  0.06586117  1
  Nb  Nb106  1  0.20989640  0.66464453  0.02928538  1
  Nb  Nb107  1  0.01447365  0.08452806  0.79696347  1
  Nb  Nb108  1  0.06687401  0.54518507  0.06432798  1
  Nb  Nb109  1  0.05523777  0.43666793  0.85668880  1
  Nb  Nb110  1  0.57488162  0.38670765  0.06617875  1
  Nb  Nb111  1  0.77954958  0.36328272  0.41824437  1
  Nb  Nb112  1  0.63594151  0.48412829  0.28275395  1
  Nb  Nb113  1  0.15132875  0.25032251  0.87840523  1
  Nb  Nb114  1  0.47812367  0.07381584  0.76059696  1
  Nb  Nb115  1  0.18293391  0.55362851  0.46269480  1
  Nb  Nb116  1  0.57374018  0.06085895  0.93321542  1
  Nb  Nb117  1  0.11228184  0.92937006  0.71397185  1
  Nb  Nb118  1  0.38633942  -0.00496235  0.93873140  1
  Nb  Nb119  1  0.64741665  0.43530953  0.85579500  1
  Nb  Nb120  1  0.48607882  0.87703978  0.81198192  1
  Nb  Nb121  1  0.13761324  0.96946626  0.11738830  1
  Nb  Nb122  1  0.83850491  0.38618179  0.77372929  1
  Nb  Nb123  1  0.59690204  0.60503425  1.02684892  1
  Nb  Nb124  1  0.67005838  0.21216837  0.80435596  1
