# generated using pymatgen
data_Zr2Sc2Nb
_symmetry_space_group_name_H-M   'P 1'
_cell_length_a   14.23521941
_cell_length_b   14.67541830
_cell_length_c   13.74495088
_cell_angle_alpha   88.66348472
_cell_angle_beta   91.20777418
_cell_angle_gamma   90.90469768
_symmetry_Int_Tables_number   1
_chemical_formula_structural   Zr2Sc2Nb
_chemical_formula_sum   'Zr50 Sc50 Nb25'
_cell_volume   2869.67232981
_cell_formula_units_Z   25
loop_
 _symmetry_equiv_pos_site_id
 _symmetry_equiv_pos_as_xyz
  1  'x, y, z'
loop_
 _atom_site_type_symbol
 _atom_site_label
 _atom_site_symmetry_multiplicity
 _atom_site_fract_x
 _atom_site_fract_y
 _atom_site_fract_z
 _atom_site_occupancy
  Zr  Zr0  1  0.45757395  0.52199974  0.08325968  1
  Zr  Zr1  1  0.21121679  0.76531223  0.89178266  1
  Zr  Zr2  1  0.93130544  0.74264217  0.24258898  1
  Zr  Zr3  1  0.15661438  0.18725998  0.72533553  1
  Zr  Zr4  1  0.20601528  0.23616013  0.15969537  1
  Zr  Zr5  1  0.88351109  -0.02127969  0.88303715  1
  Zr  Zr6  1  0.69076963  0.75363082  0.18344322  1
  Zr  Zr7  1  0.28737198  0.32390039  0.83364288  1
  Zr  Zr8  1  0.23151600  0.72873267  0.50514001  1
  Zr  Zr9  1  0.13735349  0.90433612  0.46835773  1
  Zr  Zr10  1  0.85221341  0.63314535  0.04404070  1
  Zr  Zr11  1  0.91480555  0.67989541  0.66326323  1
  Zr  Zr12  1  0.66915088  0.92687419  0.04059344  1
  Zr  Zr13  1  -0.01333441  0.43308216  0.94827970  1
  Zr  Zr14  1  0.51623056  0.94990724  0.16621296  1
  Zr  Zr15  1  0.38415208  0.33089463  0.21163856  1
  Zr  Zr16  1  0.41397679  0.12161641  0.13872691  1
  Zr  Zr17  1  0.32936891  0.95193747  0.28975438  1
  Zr  Zr18  1  0.78287651  0.90220107  0.26111359  1
  Zr  Zr19  1  0.47069797  0.23887504  0.43798147  1
  Zr  Zr20  1  0.40298311  0.68078157  0.93200072  1
  Zr  Zr21  1  0.35787585  0.89254254  0.49265074  1
  Zr  Zr22  1  0.94880937  0.26251136  0.81135423  1
  Zr  Zr23  1  0.10236753  0.39542436  0.74992713  1
  Zr  Zr24  1  0.05832812  0.54107059  0.09557506  1
  Zr  Zr25  1  0.78413396  0.35878392  0.55280259  1
  Zr  Zr26  1  0.35465371  0.07908500  0.76963976  1
  Zr  Zr27  1  0.47962919  0.73534577  0.13228859  1
  Zr  Zr28  1  0.54595797  0.86840680  0.58844191  1
  Zr  Zr29  1  0.91927215  0.32814330  0.38016565  1
  Zr  Zr30  1  0.46804038  0.88233646  0.93542972  1
  Zr  Zr31  1  0.84319273  0.15135819  0.49926781  1
  Zr  Zr32  1  0.45086419  0.45844454  0.47934164  1
  Zr  Zr33  1  0.45610428  0.05281107  0.59347649  1
  Zr  Zr34  1  0.93872987  0.88404775  0.64452965  1
  Zr  Zr35  1  0.73943149  0.79147610  0.67395453  1
  Zr  Zr36  1  0.84596995  0.04633613  0.09377856  1
  Zr  Zr37  1  0.50168911  0.03897151  0.37506405  1
  Zr  Zr38  1  0.25903098  0.63823484  0.09031776  1
  Zr  Zr39  1  0.05552129  0.93232985  0.03076891  1
  Zr  Zr40  1  0.67164951  0.55220835  0.13347065  1
  Zr  Zr41  1  0.05394703  0.11864006  0.51671305  1
  Zr  Zr42  1  0.83342322  0.76566167  0.46223561  1
  Zr  Zr43  1  0.24997926  0.53750493  0.47157423  1
  Zr  Zr44  1  0.43037062  0.67531159  0.52072144  1
  Zr  Zr45  1  0.10743236  0.28263363  0.96396273  1
  Zr  Zr46  1  0.13174761  0.04750215  0.30968618  1
  Zr  Zr47  1  0.76468448  0.62170207  0.32884546  1
  Zr  Zr48  1  0.10193831  0.56385992  0.63029665  1
  Zr  Zr49  1  0.02609077  0.70419645  0.46249245  1
  Sc  Sc50  1  0.55463751  0.41875246  0.28836905  1
  Sc  Sc51  1  0.64625108  0.35501136  0.10240822  1
  Sc  Sc52  1  0.70227276  0.08355367  0.30675091  1
  Sc  Sc53  1  0.72771567  0.57303724  0.64437337  1
  Sc  Sc54  1  0.35730490  0.86298105  0.72669477  1
  Sc  Sc55  1  0.79545477  0.25200528  0.21278265  1
  Sc  Sc56  1  0.30948420  0.45269261  0.66218111  1
  Sc  Sc57  1  0.63568325  0.69484912  0.50117355  1
  Sc  Sc58  1  0.21568313  0.03178313  0.11507969  1
  Sc  Sc59  1  0.16857160  0.97898933  0.68030321  1
  Sc  Sc60  1  0.63936068  0.12928434  0.53822569  1
  Sc  Sc61  1  0.85610296  0.24779839  1.00315558  1
  Sc  Sc62  1  0.78125438  0.44380081  0.92912879  1
  Sc  Sc63  1  0.71082137  0.08465876  0.88433715  1
  Sc  Sc64  1  0.49841677  0.09743628  0.93303410  1
  Sc  Sc65  1  0.64465693  0.13915663  0.08757427  1
  Sc  Sc66  1  0.28431881  0.15894198  0.95722246  1
  Sc  Sc67  1  0.45332199  0.30946760  0.00231551  1
  Sc  Sc68  1  0.14643366  0.83261187  0.24619144  1
  Sc  Sc69  1  0.51908927  0.53078380  0.67849324  1
  Sc  Sc70  1  0.54753062  0.72977240  0.76541731  1
  Sc  Sc71  1  0.37089610  0.25364226  0.63294392  1
  Sc  Sc72  1  0.35130434  0.53466337  0.27293749  1
  Sc  Sc73  1  0.89663053  0.46391980  0.72892391  1
  Sc  Sc74  1  0.26258441  0.10391952  0.50763283  1
  Sc  Sc75  1  0.30331670  0.84650336  0.08135680  1
  Sc  Sc76  1  0.71361957  0.93564563  0.47516415  1
  Sc  Sc77  1  0.16114387  0.43140163  0.25588091  1
  Sc  Sc78  1  0.04805473  0.74026532  0.04261048  1
  Sc  Sc79  1  0.34425654  0.74159108  0.31083247  1
  Sc  Sc80  1  0.88628786  0.53302620  0.49816378  1
  Sc  Sc81  1  0.95629796  0.08377902  0.69929564  1
  Sc  Sc82  1  0.25607126  0.42506815  0.04604404  1
  Sc  Sc83  1  0.58900248  0.50874317  0.90558886  1
  Sc  Sc84  1  0.31526022  0.65183130  0.71585230  1
  Sc  Sc85  1  0.29035992  0.33914024  0.40882389  1
  Sc  Sc86  1  0.11873086  0.76736121  0.68036048  1
  Sc  Sc87  1  0.14438748  0.63397743  0.29887910  1
  Sc  Sc88  1  0.74610402  1.00108585  0.68474169  1
  Sc  Sc89  1  0.93009404  0.12192745  0.29965832  1
  Sc  Sc90  1  0.54401049  0.61916990  0.31476014  1
  Sc  Sc91  1  0.76759242  0.21614751  0.71116429  1
  Sc  Sc92  1  0.10851103  0.24827455  0.35687853  1
  Sc  Sc93  1  0.63396531  0.71142264  0.97909893  1
  Sc  Sc94  1  0.19246308  0.54639643  0.87923981  1
  Sc  Sc95  1  0.00415813  0.62759846  0.85475072  1
  Sc  Sc96  1  0.07889008  0.08851182  0.89716732  1
  Sc  Sc97  1  0.54866154  0.83278806  0.35042804  1
  Sc  Sc98  1  0.93575477  0.94873824  0.42762400  1
  Sc  Sc99  1  0.95831256  0.52741131  0.28960253  1
  Nb  Nb100  1  0.97721268  0.29423889  0.59866637  1
  Nb  Nb101  1  0.67821400  0.27970611  0.39679046  1
  Nb  Nb102  1  0.05364282  0.88124282  0.83394773  1
  Nb  Nb103  1  0.24816470  0.95861727  0.89941543  1
  Nb  Nb104  1  0.85087228  0.83829035  0.05275935  1
  Nb  Nb105  1  0.64627940  0.27670357  0.89791920  1
  Nb  Nb106  1  0.76415794  0.63769021  0.83596605  1
  Nb  Nb107  1  0.54809036  0.21452043  0.25080581  1
  Nb  Nb108  1  0.00430189  0.32546271  0.16046682  1
  Nb  Nb109  1  0.76074614  0.43385985  0.31265466  1
  Nb  Nb110  1  0.64834631  0.48525108  0.47443349  1
  Nb  Nb111  1  0.38834062  0.49534651  0.87101342  1
  Nb  Nb112  1  0.57793228  0.32635749  0.59428697  1
  Nb  Nb113  1  0.85558180  0.43957058  0.13134905  1
  Nb  Nb114  1  0.56179957  0.17603581  0.73752953  1
  Nb  Nb115  1  0.55410973  0.96935647  0.76856529  1
  Nb  Nb116  1  1.02993015  0.13544002  0.11288050  1
  Nb  Nb117  1  0.97892764  0.94096925  0.21156209  1
  Nb  Nb118  1  0.16901069  0.31342521  0.56952311  1
  Nb  Nb119  1  0.88409903  0.78430596  0.85816480  1
  Nb  Nb120  1  0.49009804  0.34721965  0.78770325  1
  Nb  Nb121  1  0.70222008  0.86229770  0.85751720  1
  Nb  Nb122  1  0.07288155  0.44428676  0.46270772  1
  Nb  Nb123  1  0.32522133  0.15148661  0.31147471  1
  Nb  Nb124  1  0.68149569  0.39821355  0.74161751  1
