# generated using pymatgen
data_Zr2Sc2Nb
_symmetry_space_group_name_H-M   'P 1'
_cell_length_a   14.03064566
_cell_length_b   14.36532153
_cell_length_c   14.27514865
_cell_angle_alpha   90.30251886
_cell_angle_beta   88.79351945
_cell_angle_gamma   90.90611766
_symmetry_Int_Tables_number   1
_chemical_formula_structural   Zr2Sc2Nb
_chemical_formula_sum   'Zr50 Sc50 Nb25'
_cell_volume   2876.19102694
_cell_formula_units_Z   25
loop_
 _symmetry_equiv_pos_site_id
 _symmetry_equiv_pos_as_xyz
  1  'x, y, z'
loop_
 _atom_site_type_symbol
 _atom_site_label
 _atom_site_symmetry_multiplicity
 _atom_site_fract_x
 _atom_site_fract_y
 _atom_site_fract_z
 _atom_site_occupancy
  Zr  Zr0  1  0.29344923  0.46437759  0.04146836  1
  Zr  Zr1  1  0.90235011  0.47694222  0.37729689  1
  Zr  Zr2  1  0.77035895  0.75284550  0.68822551  1
  Zr  Zr3  1  0.89857839  0.94238304  0.77542015  1
  Zr  Zr4  1  0.16577712  0.32586057  0.90961770  1
  Zr  Zr5  1  0.59548028  0.29872284  0.90352682  1
  Zr  Zr6  1  0.56628257  0.65879497  0.32884111  1
  Zr  Zr7  1  0.99069137  0.06454953  0.23848706  1
  Zr  Zr8  1  0.41472850  0.96271881  0.05160211  1
  Zr  Zr9  1  -0.01817984  0.70352633  0.65229954  1
  Zr  Zr10  1  0.83533496  0.40522672  0.17609349  1
  Zr  Zr11  1  0.30818101  0.89062959  0.60755218  1
  Zr  Zr12  1  0.24840167  0.49980770  0.83494349  1
  Zr  Zr13  1  0.89050784  0.46253608  0.97746860  1
  Zr  Zr14  1  0.89008549  0.21625762  0.10311106  1
  Zr  Zr15  1  0.50143402  0.80736900  0.66187080  1
  Zr  Zr16  1  0.69699548  0.24468977  0.70637771  1
  Zr  Zr17  1  0.27645040  0.63201473  0.15901124  1
  Zr  Zr18  1  0.47870070  0.56929437  0.14986224  1
  Zr  Zr19  1  0.31185807  0.20248581  0.34932258  1
  Zr  Zr20  1  0.75740832  0.58361026  0.25676910  1
  Zr  Zr21  1  0.18828069  0.70875597  0.56583278  1
  Zr  Zr22  1  0.22174031  0.97283434  0.79804695  1
  Zr  Zr23  1  0.40690270  0.00036243  0.30345208  1
  Zr  Zr24  1  0.28934281  0.66208560  0.95518998  1
  Zr  Zr25  1  0.56188432  0.43522941  0.28630240  1
  Zr  Zr26  1  0.25298930  0.48839497  0.52722868  1
  Zr  Zr27  1  0.12115762  0.09360242  0.62982940  1
  Zr  Zr28  1  0.46631161  0.14599503  0.48636012  1
  Zr  Zr29  1  0.25206120  0.24971300  0.55154878  1
  Zr  Zr30  1  0.86306352  0.61905805  0.82089321  1
  Zr  Zr31  1  0.58238878  0.32859152  0.53273068  1
  Zr  Zr32  1  0.47702519  0.53595630  0.91768972  1
  Zr  Zr33  1  0.33100271  0.37990826  0.23096363  1
  Zr  Zr34  1  0.69633478  0.50667614  0.43878043  1
  Zr  Zr35  1  0.06417455  0.56336218  0.46428954  1
  Zr  Zr36  1  0.52775716  0.22216974  0.29573998  1
  Zr  Zr37  1  0.92621167  0.18206899  0.66952636  1
  Zr  Zr38  1  0.34921353  0.13086183  0.15704469  1
  Zr  Zr39  1  0.09806790  0.54902782  0.01063492  1
  Zr  Zr40  1  0.14876260  0.23048388  0.21780469  1
  Zr  Zr41  1  0.48070205  0.21602911  0.72971745  1
  Zr  Zr42  1  0.87629210  0.91361530  0.35623575  1
  Zr  Zr43  1  0.69852451  0.89396091  0.52998341  1
  Zr  Zr44  1  0.62609617  0.69876881  0.52742839  1
  Zr  Zr45  1  0.09046666  0.87775200  0.66973175  1
  Zr  Zr46  1  0.43563724  0.98317234  0.83475641  1
  Zr  Zr47  1  0.09887084  0.32857976  0.71112636  1
  Zr  Zr48  1  0.85343969  0.36696001  0.77150741  1
  Zr  Zr49  1  0.92139555  0.03361529  0.01846654  1
  Sc  Sc50  1  0.66808433  0.48888868  0.07091332  1
  Sc  Sc51  1  0.92112481  0.84973771  0.14581106  1
  Sc  Sc52  1  0.89946851  0.11037626  0.46766266  1
  Sc  Sc53  1  0.14225830  0.98131709  0.08761181  1
  Sc  Sc54  1  0.10563869  0.74902455  0.08642454  1
  Sc  Sc55  1  0.95549833  0.68124416  0.28003357  1
  Sc  Sc56  1  0.26025803  0.75781161  0.76616318  1
  Sc  Sc57  1  0.65756887  0.88684392  0.79049143  1
  Sc  Sc58  1  0.27601762  0.85521625  0.18111162  1
  Sc  Sc59  1  0.74505700  0.94826163  0.16055467  1
  Sc  Sc60  1  0.69801634  0.48902971  0.86127548  1
  Sc  Sc61  1  0.34846972  0.07948256  0.65829046  1
  Sc  Sc62  1  0.46383607  0.77571129  0.86593784  1
  Sc  Sc63  1  0.36157321  0.54635625  0.34862726  1
  Sc  Sc64  1  0.05254429  0.36421052  0.09168541  1
  Sc  Sc65  1  0.45495919  0.75402337  0.06960000  1
  Sc  Sc66  1  0.10525318  0.50098368  0.24161230  1
  Sc  Sc67  1  0.38549102  0.60367723  0.70283160  1
  Sc  Sc68  1  0.07249113  0.97414771  0.45834860  1
  Sc  Sc69  1  0.95984865  0.28315215  0.31430937  1
  Sc  Sc70  1  0.93913351  0.50057367  0.62717178  1
  Sc  Sc71  1  0.81632688  0.33190877  0.53989611  1
  Sc  Sc72  1  0.07708208  0.68477156  0.85007420  1
  Sc  Sc73  1  0.54199304  0.42884404  0.73383837  1
  Sc  Sc74  1  0.04766846  0.88337543  0.91658161  1
  Sc  Sc75  1  0.69030307  0.14611741  0.50336660  1
  Sc  Sc76  1  0.49798305  0.52109981  0.53538987  1
  Sc  Sc77  1  0.05755531  0.10403054  0.83792055  1
  Sc  Sc78  1  0.28008912  0.10357559  0.94654287  1
  Sc  Sc79  1  0.25159833  0.86026147  0.40602673  1
  Sc  Sc80  1  0.18380415  0.68410349  0.33672704  1
  Sc  Sc81  1  0.66324605  0.69607536  0.92218180  1
  Sc  Sc82  1  0.88345592  0.65391411  0.05291988  1
  Sc  Sc83  1  0.82919357  0.13600301  0.85391369  1
  Sc  Sc84  1  1.03721537  0.34165613  0.51639426  1
  Sc  Sc85  1  0.39073876  0.69868134  0.49972391  1
  Sc  Sc86  1  0.54954391  0.86707825  0.21745236  1
  Sc  Sc87  1  0.72866962  0.52421647  0.64445991  1
  Sc  Sc88  1  0.90017816  0.90255876  0.57116673  1
  Sc  Sc89  1  0.48225758  0.35286191  0.08195042  1
  Sc  Sc90  1  0.80612104  0.85700380  0.95481297  1
  Sc  Sc91  1  0.34194887  0.38127653  0.68035021  1
  Sc  Sc92  1  0.68237152  0.73232280  0.12741039  1
  Sc  Sc93  1  0.72784136  0.31766668  0.34520127  1
  Sc  Sc94  1  0.55628559  0.01967126  0.63787158  1
  Sc  Sc95  1  0.62300970  0.08723703  0.84180994  1
  Sc  Sc96  1  0.48289356  0.88442635  0.45655615  1
  Sc  Sc97  1  0.63508151  1.00286624  0.35718216  1
  Sc  Sc98  1  0.84073741  0.67957816  0.47517202  1
  Sc  Sc99  1  0.76957594  0.13347673  0.25848013  1
  Nb  Nb100  1  0.13983772  0.55077622  0.68041260  1
  Nb  Nb101  1  0.27465057  0.04888902  0.47366821  1
  Nb  Nb102  1  0.07811277  0.86621215  0.27672809  1
  Nb  Nb103  1  0.18625863  0.37087690  0.37801075  1
  Nb  Nb104  1  0.60060758  0.92747478  0.99702215  1
  Nb  Nb105  1  0.65943357  0.26845560  0.13275988  1
  Nb  Nb106  1  0.10821717  0.17012058  0.41780514  1
  Nb  Nb107  1  0.70770932  0.10869730  0.02823087  1
  Nb  Nb108  1  0.76709564  0.04303362  0.66693193  1
  Nb  Nb109  1  0.38572677  0.32354952  0.88730934  1
  Nb  Nb110  1  0.19345262  0.03350819  0.28672091  1
  Nb  Nb111  1  0.28102111  0.27230562  0.05567476  1
  Nb  Nb112  1  0.08948494  0.16673420  0.03711756  1
  Nb  Nb113  1  1.03192300  0.77828935  0.45744871  1
  Nb  Nb114  1  0.39734552  0.74824505  0.29073790  1
  Nb  Nb115  1  0.77287011  0.30464272  0.97065487  1
  Nb  Nb116  1  0.25407369  0.20501689  0.77314593  1
  Nb  Nb117  1  0.56727988  0.07363998  0.15960993  1
  Nb  Nb118  1  0.59277981  0.64418219  0.73892359  1
  Nb  Nb119  1  0.72680501  0.79074460  0.32957723  1
  Nb  Nb120  1  0.26627979  0.85651974  0.95804875  1
  Nb  Nb121  1  0.40457947  0.35783094  0.43709258  1
  Nb  Nb122  1  0.97003956  0.27890091  0.90675548  1
  Nb  Nb123  1  0.02649036  0.47806349  0.82838431  1
  Nb  Nb124  1  0.48959331  0.15432688  0.99537667  1
