# generated using pymatgen
data_Zr2Sc2Nb
_symmetry_space_group_name_H-M   'P 1'
_cell_length_a   14.06234273
_cell_length_b   14.08170867
_cell_length_c   14.47912365
_cell_angle_alpha   90.15243550
_cell_angle_beta   90.30533923
_cell_angle_gamma   89.98446405
_symmetry_Int_Tables_number   1
_chemical_formula_structural   Zr2Sc2Nb
_chemical_formula_sum   'Zr50 Sc50 Nb25'
_cell_volume   2867.13136658
_cell_formula_units_Z   25
loop_
 _symmetry_equiv_pos_site_id
 _symmetry_equiv_pos_as_xyz
  1  'x, y, z'
loop_
 _atom_site_type_symbol
 _atom_site_label
 _atom_site_symmetry_multiplicity
 _atom_site_fract_x
 _atom_site_fract_y
 _atom_site_fract_z
 _atom_site_occupancy
  Zr  Zr0  1  0.25956392  0.87025837  0.45947950  1
  Zr  Zr1  1  0.57386117  0.81822034  0.60788319  1
  Zr  Zr2  1  0.50364096  0.45751063  0.26145183  1
  Zr  Zr3  1  0.85863518  0.67996474  0.13772185  1
  Zr  Zr4  1  0.47782489  0.31004875  0.93714559  1
  Zr  Zr5  1  0.48178966  0.86376937  0.79690359  1
  Zr  Zr6  1  1.05075709  0.31721636  0.32856769  1
  Zr  Zr7  1  0.46420472  0.29890673  0.13404907  1
  Zr  Zr8  1  0.41842273  0.69183138  0.11269755  1
  Zr  Zr9  1  0.92294039  0.50587501  0.24466776  1
  Zr  Zr10  1  0.28467037  0.36368012  0.25236180  1
  Zr  Zr11  1  0.26333982  0.27616673  0.04361848  1
  Zr  Zr12  1  0.12717554  0.06891563  0.39673992  1
  Zr  Zr13  1  0.49349237  0.87816410  0.16083821  1
  Zr  Zr14  1  0.85993170  0.89467550  0.02332170  1
  Zr  Zr15  1  0.24833471  0.93296153  0.79159794  1
  Zr  Zr16  1  0.09625640  0.24745549  0.90812693  1
  Zr  Zr17  1  0.60283905  0.35955465  0.41823650  1
  Zr  Zr18  1  0.64993515  0.71459596  0.07573977  1
  Zr  Zr19  1  0.70677183  0.51463280  0.16502600  1
  Zr  Zr20  1  0.70158667  0.74990779  0.83259295  1
  Zr  Zr21  1  0.98492037  0.74914765  0.52649661  1
  Zr  Zr22  1  0.36732835  0.53416280  0.88615509  1
  Zr  Zr23  1  0.86837559  0.31950381  0.17707090  1
  Zr  Zr24  1  0.76416508  0.07780170  0.92073356  1
  Zr  Zr25  1  0.70081082  -0.01198446  0.54485902  1
  Zr  Zr26  1  0.03287990  0.20071789  0.10674586  1
  Zr  Zr27  1  0.43424908  0.22596365  0.32288089  1
  Zr  Zr28  1  0.29049549  0.34146583  0.83461486  1
  Zr  Zr29  1  0.24068316  0.70275430  -0.00784734  1
  Zr  Zr30  1  0.98721786  0.79400098  0.73504515  1
  Zr  Zr31  1  0.90656146  0.70219710  0.93728705  1
  Zr  Zr32  1  -0.01639083  0.92828324  0.41394456  1
  Zr  Zr33  1  -0.03158194  0.52084328  0.43743965  1
  Zr  Zr34  1  0.54270961  0.66125369  0.28494552  1
  Zr  Zr35  1  0.59210391  0.87670628  0.36012855  1
  Zr  Zr36  1  0.05189507  0.79099212  0.09630729  1
  Zr  Zr37  1  0.72321178  0.55782080  0.91971145  1
  Zr  Zr38  1  0.77843890  0.42960919  0.73963049  1
  Zr  Zr39  1  0.66714860  0.95576387  0.75162113  1
  Zr  Zr40  1  0.96174630  0.46519977  0.84520772  1
  Zr  Zr41  1  0.16651411  0.68253035  0.42410449  1
  Zr  Zr42  1  0.67974711  0.25673154  0.81017221  1
  Zr  Zr43  1  0.14574571  0.51079635  0.29787361  1
  Zr  Zr44  1  0.35804784  0.84438620  0.62830892  1
  Zr  Zr45  1  0.89023489  0.48520236  0.03379324  1
  Zr  Zr46  1  0.38248117  0.88390676  0.96294119  1
  Zr  Zr47  1  0.82377796  0.10703755  0.12588490  1
  Zr  Zr48  1  0.34864807  1.00924126  0.31661065  1
  Zr  Zr49  1  0.93452704  0.39328631  0.59376214  1
  Sc  Sc50  1  0.62321839  0.90353403  0.96458465  1
  Sc  Sc51  1  0.26357212  0.89640640  0.12529638  1
  Sc  Sc52  1  0.83408506  0.31351160  0.39591827  1
  Sc  Sc53  1  0.27576798  0.31070255  0.62020790  1
  Sc  Sc54  1  0.11767524  0.95114185  0.59831702  1
  Sc  Sc55  1  0.02600925  0.03575700  0.77116834  1
  Sc  Sc56  1  0.17357839  0.73764256  0.64831087  1
  Sc  Sc57  1  0.08088890  0.87355698  0.91422520  1
  Sc  Sc58  1  0.28405204  0.07956186  0.53986319  1
  Sc  Sc59  1  0.42010425  0.45577572  0.67505282  1
  Sc  Sc60  1  0.21275685  0.15336272  0.22060129  1
  Sc  Sc61  1  0.60771337  0.14153545  0.05873241  1
  Sc  Sc62  1  0.94291616  0.13373302  0.30127795  1
  Sc  Sc63  1  0.23117916  0.25326480  0.42329359  1
  Sc  Sc64  1  0.17463780  0.05761817  0.99428023  1
  Sc  Sc65  1  0.32439036  0.62025924  0.55125926  1
  Sc  Sc66  1  0.53514464  0.54834560  0.50098154  1
  Sc  Sc67  1  0.88948424  0.86947981  0.24053254  1
  Sc  Sc68  1  0.66805811  0.27016265  0.23222905  1
  Sc  Sc69  1  0.56080907  0.07166003  0.26021078  1
  Sc  Sc70  1  0.48069938  0.99537177  0.49033976  1
  Sc  Sc71  1  0.30490899  0.50235979  0.10557434  1
  Sc  Sc72  1  0.87676145  0.27236849  0.96393365  1
  Sc  Sc73  1  0.52580877  0.50590786  0.04117758  1
  Sc  Sc74  1  0.45753965  0.22560522  0.53029023  1
  Sc  Sc75  1  0.68300586  0.35263703  0.01251814  1
  Sc  Sc76  1  0.69729127  0.93097962  0.15824427  1
  Sc  Sc77  1  0.78325889  0.78956169  0.64570436  1
  Sc  Sc78  1  0.46029681  0.25470917  0.74256442  1
  Sc  Sc79  1  0.51045246  0.68685278  0.91535575  1
  Sc  Sc80  1  0.10627076  0.37429999  0.72287573  1
  Sc  Sc81  1  0.42487809  0.04415295  0.69508572  1
  Sc  Sc82  1  0.03447389  -0.00094624  0.15249249  1
  Sc  Sc83  1  0.81589040  0.09338162  0.71136039  1
  Sc  Sc84  1  0.09565232  0.64780938  0.84772260  1
  Sc  Sc85  1  0.04663327  0.18929221  0.56822811  1
  Sc  Sc86  1  0.16015089  0.46842425  0.93864832  1
  Sc  Sc87  1  0.65364566  0.16171518  0.43821260  1
  Sc  Sc88  1  0.14775509  0.87407026  0.28962623  1
  Sc  Sc89  1  0.93053607  0.24997554  0.76341378  1
  Sc  Sc90  1  0.39432026  0.08387948  0.10454821  1
  Sc  Sc91  1  0.16205335  0.46583556  0.51825687  1
  Sc  Sc92  1  0.20388733  0.15012657  0.73547691  1
  Sc  Sc93  1  0.46954388  0.65552028  0.70808664  1
  Sc  Sc94  1  0.08718551  0.39468986  0.12464403  1
  Sc  Sc95  1  0.34254539  0.12533051  0.89549161  1
  Sc  Sc96  1  0.54490243  0.08671629  0.86545112  1
  Sc  Sc97  1  0.21891375  0.68549102  0.20131800  1
  Sc  Sc98  1  0.37541591  0.41740325  0.44524303  1
  Sc  Sc99  1  0.67392508  0.69391677  0.47336005  1
  Nb  Nb100  1  0.86477694  0.68359208  0.37237367  1
  Nb  Nb101  1  0.85660210  0.90915561  0.82820345  1
  Nb  Nb102  1  0.76925910  0.25605166  0.59301845  1
  Nb  Nb103  1  0.90852838  0.94671556  0.61062179  1
  Nb  Nb104  1  0.02440970  0.69669384  0.27897985  1
  Nb  Nb105  1  0.79986155  0.85786929  0.44212747  1
  Nb  Nb106  1  0.76732556  0.02068877  0.33315586  1
  Nb  Nb107  1  0.03156715  0.57428304  0.65515510  1
  Nb  Nb108  1  0.61269615  0.14206710  0.64952481  1
  Nb  Nb109  1  0.60286279  0.36466863  0.63295752  1
  Nb  Nb110  1  0.84265688  0.60412836  0.57040339  1
  Nb  Nb111  1  0.86362194  0.62320134  0.76095268  1
  Nb  Nb112  1  0.72982874  0.53008866  0.35503444  1
  Nb  Nb113  1  0.30493860  0.73129763  0.81143359  1
  Nb  Nb114  1  0.36592386  0.79790867  0.29811309  1
  Nb  Nb115  1  0.74049047  0.45563893  0.52980245  1
  Nb  Nb116  1  0.96069355  0.07052456  0.95490618  1
  Nb  Nb117  1  0.86768550  0.09772901  0.49201743  1
  Nb  Nb118  1  0.66364617  0.58841346  0.68189723  1
  Nb  Nb119  1  0.06192575  0.59508708  0.08359215  1
  Nb  Nb120  1  0.71763348  0.74377484  0.26702476  1
  Nb  Nb121  1  0.23268723  0.54024372  0.72793007  1
  Nb  Nb122  1  0.35146481  0.59306289  0.33290188  1
  Nb  Nb123  1  0.57029875  0.46067448  0.82248816  1
  Nb  Nb124  1  0.45130372  0.75235633  0.45859902  1
