# generated using pymatgen
data_Zr2Sc2Nb
_symmetry_space_group_name_H-M   'P 1'
_cell_length_a   14.22038933
_cell_length_b   14.40222453
_cell_length_c   14.00023955
_cell_angle_alpha   90.25844145
_cell_angle_beta   90.40383803
_cell_angle_gamma   90.11512453
_symmetry_Int_Tables_number   1
_chemical_formula_structural   Zr2Sc2Nb
_chemical_formula_sum   'Zr50 Sc50 Nb25'
_cell_volume   2867.21605943
_cell_formula_units_Z   25
loop_
 _symmetry_equiv_pos_site_id
 _symmetry_equiv_pos_as_xyz
  1  'x, y, z'
loop_
 _atom_site_type_symbol
 _atom_site_label
 _atom_site_symmetry_multiplicity
 _atom_site_fract_x
 _atom_site_fract_y
 _atom_site_fract_z
 _atom_site_occupancy
  Zr  Zr0  1  0.06119307  0.40208407  0.27362220  1
  Zr  Zr1  1  0.63061490  0.07980045  0.20473010  1
  Zr  Zr2  1  0.49408219  0.71171667  0.80142236  1
  Zr  Zr3  1  0.31021922  0.61518872  0.66114617  1
  Zr  Zr4  1  0.53613289  0.74341008  0.02739411  1
  Zr  Zr5  1  0.14610620  0.96179996  0.71462255  1
  Zr  Zr6  1  0.82821337  0.09259056  0.16567906  1
  Zr  Zr7  1  0.89548744  0.94118325  0.94967688  1
  Zr  Zr8  1  0.82586159  0.44375482  0.13504031  1
  Zr  Zr9  1  0.74467154  0.12892874  0.40533164  1
  Zr  Zr10  1  0.00535799  0.53677606  0.45285951  1
  Zr  Zr11  1  0.52612712  0.88628450  0.69719138  1
  Zr  Zr12  1  0.05985922  0.27928441  0.66555506  1
  Zr  Zr13  1  0.14317577  0.02799490  0.34550230  1
  Zr  Zr14  1  0.75154666  0.27333599  0.03319406  1
  Zr  Zr15  1  0.28384110  0.69145637  0.89184137  1
  Zr  Zr16  1  0.33019292  0.81068071  0.12331762  1
  Zr  Zr17  1  0.62924778  0.46635373  0.06877298  1
  Zr  Zr18  1  0.23070864  0.91684991  0.95138258  1
  Zr  Zr19  1  0.08060277  0.88632963  0.11361151  1
  Zr  Zr20  1  0.90934346  0.40773293  0.57345599  1
  Zr  Zr21  1  0.72976541  0.81491978  0.73270643  1
  Zr  Zr22  1  0.14758947  0.33346472  0.06107197  1
  Zr  Zr23  1  0.35127460  0.90953246  0.32353981  1
  Zr  Zr24  1  0.89194048  0.56572563  0.28179408  1
  Zr  Zr25  1  0.87836252  0.36096391  0.36345468  1
  Zr  Zr26  1  0.34832717  0.66398477  0.29955867  1
  Zr  Zr27  1  0.72954563  0.60318116  0.67679946  1
  Zr  Zr28  1  0.38898245  0.23989353  0.72318845  1
  Zr  Zr29  1  0.32829380  0.24510245  0.14191708  1
  Zr  Zr30  1  0.32598531  0.82206747  0.68857031  1
  Zr  Zr31  1  0.92828795  0.37820917  0.94839218  1
  Zr  Zr32  1  0.67059964  0.87996781  0.12569340  1
  Zr  Zr33  1  0.52426239  0.80976545  0.25798728  1
  Zr  Zr34  1  0.76901632  1.01076798  0.78533424  1
  Zr  Zr35  1  0.15381769  0.20480504  0.24019219  1
  Zr  Zr36  1  0.89172293  0.71544217  0.82256784  1
  Zr  Zr37  1  0.05856862  0.07475591  0.53670642  1
  Zr  Zr38  1  0.40873585  0.41645357  0.07090748  1
  Zr  Zr39  1  0.60452221  0.91126596  0.89431384  1
  Zr  Zr40  1  0.50706165  0.84712344  0.47412576  1
  Zr  Zr41  1  0.14656142  0.69805881  0.50639806  1
  Zr  Zr42  1  0.41000823  0.87017714  0.89818354  1
  Zr  Zr43  1  0.90693247  0.50244462  0.76403723  1
  Zr  Zr44  1  0.69037790  0.06174885  -0.00319761  1
  Zr  Zr45  1  0.94795539  0.27183997  0.13976123  1
  Zr  Zr46  1  0.16099062  0.69704652  0.08002123  1
  Zr  Zr47  1  0.47851791  0.95240744  0.08847293  1
  Zr  Zr48  1  0.71570130  0.42660630  0.86473709  1
  Zr  Zr49  1  0.24209600  0.16267099  0.57748231  1
  Sc  Sc50  1  0.24969743  0.47250370  0.20301868  1
  Sc  Sc51  1  0.07099633  0.60042347  0.88769932  1
  Sc  Sc52  1  0.43947974  0.11979272  0.96178722  1
  Sc  Sc53  1  0.33447541  0.12362129  0.38892881  1
  Sc  Sc54  1  0.44007745  0.34358732  0.52269122  1
  Sc  Sc55  1  0.95902878  0.10056310  0.73153725  1
  Sc  Sc56  1  0.67448301  0.63392081  0.88635885  1
  Sc  Sc57  1  0.86090776  0.98162373  0.55775351  1
  Sc  Sc58  1  0.09223882  0.29210426  0.45335945  1
  Sc  Sc59  1  0.60381872  0.49398085  0.51837016  1
  Sc  Sc60  1  0.74033342  0.17551608  0.63550702  1
  Sc  Sc61  1  0.45679850  0.46542930  0.29643560  1
  Sc  Sc62  1  0.12031919  0.74342497  0.71459988  1
  Sc  Sc63  1  0.33474360  0.03601379  0.78741050  1
  Sc  Sc64  1  0.92602344  0.68645053  0.61398543  1
  Sc  Sc65  1  0.12766568  0.39685288  0.83172711  1
  Sc  Sc66  1  0.51264733  0.33186872  0.88966680  1
  Sc  Sc67  1  0.94262214  0.72594710  0.03039819  1
  Sc  Sc68  1  0.05062973  0.22177460  0.90758528  1
  Sc  Sc69  1  0.67944754  0.49491014  0.30277584  1
  Sc  Sc70  1  0.69771757  0.21936640  0.83807239  1
  Sc  Sc71  1  0.72007353  0.27968976  0.24525867  1
  Sc  Sc72  1  0.47465025  0.55550446  0.93787991  1
  Sc  Sc73  1  0.52797007  0.50214355  0.71972773  1
  Sc  Sc74  1  0.33633969  0.45722627  0.80760663  1
  Sc  Sc75  1  0.52723759  0.68546894  0.60043180  1
  Sc  Sc76  1  0.51516347  0.24899661  0.32851918  1
  Sc  Sc77  1  0.73782508  0.71852499  0.31037598  1
  Sc  Sc78  1  0.72415185  0.92741257  0.34806865  1
  Sc  Sc79  1  0.09816639  0.52953425  0.65559726  1
  Sc  Sc80  1  0.23608251  0.92198349  0.51219846  1
  Sc  Sc81  1  0.86407374  0.88644942  0.15630685  1
  Sc  Sc82  1  0.02935180  0.52736225  0.09635484  1
  Sc  Sc83  1  0.53123604  0.02903088  0.37892588  1
  Sc  Sc84  1  0.95884288  0.15493302  0.33510577  1
  Sc  Sc85  1  0.11970674  0.61690217  0.28753429  1
  Sc  Sc86  1  0.95123074  0.93250716  0.34963764  1
  Sc  Sc87  1  0.54839484  0.24983277  0.09925290  1
  Sc  Sc88  1  0.03647665  0.08567451  0.09647123  1
  Sc  Sc89  1  0.72339518  0.76838073  0.51869467  1
  Sc  Sc90  1  0.41152400  0.02407882  0.57777375  1
  Sc  Sc91  1  0.21966125  0.50809900  0.44144363  1
  Sc  Sc92  1  0.15108732  0.81678119  0.32490094  1
  Sc  Sc93  1  0.55141963  0.09516431  0.75070615  1
  Sc  Sc94  1  0.74690390  0.65862743  0.11293359  1
  Sc  Sc95  1  0.69624367  0.31917135  0.47399856  1
  Sc  Sc96  1  0.29311423  0.32648577  0.36083464  1
  Sc  Sc97  1  0.65304217  0.98938084  0.56684983  1
  Sc  Sc98  1  0.25213898  0.01616782  0.15633705  1
  Sc  Sc99  1  0.25230803  0.38029652  0.61779642  1
  Nb  Nb100  1  0.75752605  0.80421002  0.95546246  1
  Nb  Nb101  1  0.57865934  0.30618168  0.67940073  1
  Nb  Nb102  1  0.84976181  0.55907929  0.96027018  1
  Nb  Nb103  1  0.87923518  0.29019600  0.76600932  1
  Nb  Nb104  1  0.23857104  0.50448999  -0.01195616  1
  Nb  Nb105  1  0.54232385  0.61740322  0.18402746  1
  Nb  Nb106  1  0.87682780  0.14373611  0.94085893  1
  Nb  Nb107  1  0.29686260  0.28966136  0.92046264  1
  Nb  Nb108  1  0.54622378  0.65291981  0.39164486  1
  Nb  Nb109  1  0.42969843  0.09573231  0.20490614  1
  Nb  Nb110  1  0.79635279  0.56112942  0.47770979  1
  Nb  Nb111  1  0.03684260  0.86497396  0.54139953  1
  Nb  Nb112  1  0.36250275  0.61829538  0.09751528  1
  Nb  Nb113  1  0.34411819  0.73676852  0.48223220  1
  Nb  Nb114  1  0.07093563  0.81862605  0.89809026  1
  Nb  Nb115  1  0.97134006  0.73638558  0.22874520  1
  Nb  Nb116  1  0.95133942  0.88924813  0.73821709  1
  Nb  Nb117  1  0.90268097  0.21226796  0.53586560  1
  Nb  Nb118  1  0.93546296  0.73310651  0.41649194  1
  Nb  Nb119  1  0.18885415  0.17284905  0.77594131  1
  Nb  Nb120  1  0.40499330  0.54771677  0.49436035  1
  Nb  Nb121  1  0.06955461  0.01991859  0.89307384  1
  Nb  Nb122  1  0.54732305  0.17191530  0.53479936  1
  Nb  Nb123  1  0.73890345  0.39990577  0.66387625  1
  Nb  Nb124  1  0.22275321  0.12786711  0.98333673  1
