# generated using pymatgen
data_Zr2Sc2Nb
_symmetry_space_group_name_H-M   'P 1'
_cell_length_a   14.38423878
_cell_length_b   13.88494394
_cell_length_c   14.38341989
_cell_angle_alpha   89.49206318
_cell_angle_beta   90.55470767
_cell_angle_gamma   92.58690822
_symmetry_Int_Tables_number   1
_chemical_formula_structural   Zr2Sc2Nb
_chemical_formula_sum   'Zr50 Sc50 Nb25'
_cell_volume   2869.55498132
_cell_formula_units_Z   25
loop_
 _symmetry_equiv_pos_site_id
 _symmetry_equiv_pos_as_xyz
  1  'x, y, z'
loop_
 _atom_site_type_symbol
 _atom_site_label
 _atom_site_symmetry_multiplicity
 _atom_site_fract_x
 _atom_site_fract_y
 _atom_site_fract_z
 _atom_site_occupancy
  Zr  Zr0  1  0.89863846  0.63048402  0.91446526  1
  Zr  Zr1  1  0.13515162  0.92561535  0.74933330  1
  Zr  Zr2  1  0.02350531  0.86288310  0.93828603  1
  Zr  Zr3  1  0.52672603  0.09543763  0.88419626  1
  Zr  Zr4  1  0.59868864  0.22583826  0.47889476  1
  Zr  Zr5  1  0.96572163  0.90885382  0.16929214  1
  Zr  Zr6  1  0.93396169  0.04867038  0.31046351  1
  Zr  Zr7  1  0.69258275  0.06588869  1.00632172  1
  Zr  Zr8  1  0.55855114  0.51905805  0.03656951  1
  Zr  Zr9  1  0.72894210  0.08436173  0.79749694  1
  Zr  Zr10  1  0.28402732  0.15120714  0.37812529  1
  Zr  Zr11  1  0.55723057  0.97818037  0.69034603  1
  Zr  Zr12  1  0.52583373  0.18151701  0.69005093  1
  Zr  Zr13  1  0.40532308  0.31203824  0.03466331  1
  Zr  Zr14  1  0.46614719  0.21651368  0.30270406  1
  Zr  Zr15  1  0.29172860  0.18400694  0.72715098  1
  Zr  Zr16  1  0.51291176  0.69391830  0.90429651  1
  Zr  Zr17  1  0.24398684  0.33209102  0.86644624  1
  Zr  Zr18  1  0.20884112  0.54926597  0.31430538  1
  Zr  Zr19  1  0.52931651  0.80904819  0.30632580  1
  Zr  Zr20  1  0.30850969  0.64266500  0.62675241  1
  Zr  Zr21  1  0.94646640  0.80129520  0.62067891  1
  Zr  Zr22  1  0.59908598  0.43070487  0.39986025  1
  Zr  Zr23  1  0.23841330  0.90054148  0.92722922  1
  Zr  Zr24  1  0.18737307  0.23664240  0.05192640  1
  Zr  Zr25  1  0.87361412  0.98730149  0.51192932  1
  Zr  Zr26  1  0.08652753  0.11316843  0.65960395  1
  Zr  Zr27  1  0.91238830  0.20004198  0.78058768  1
  Zr  Zr28  1  0.18190203  0.32740847  0.36558252  1
  Zr  Zr29  1  0.67501148  0.69216857  0.72979872  1
  Zr  Zr30  1  0.92710845  -0.00559012  0.72660245  1
  Zr  Zr31  1  0.45934673  0.51965425  0.52836345  1
  Zr  Zr32  1  0.12327926  0.02787969  0.06894169  1
  Zr  Zr33  1  0.36025481  -0.02425062  0.75204117  1
  Zr  Zr34  1  0.76895147  0.12589601  0.18693412  1
  Zr  Zr35  1  0.50430293  0.11378685  0.10237124  1
  Zr  Zr36  1  0.38699948  0.28429227  0.52635807  1
  Zr  Zr37  1  0.37891931  0.91112334  0.10075109  1
  Zr  Zr38  1  0.50286013  0.59425772  0.27629942  1
  Zr  Zr39  1  0.42703128  0.86309340  0.52215576  1
  Zr  Zr40  1  0.87506578  0.61095513  0.70120494  1
  Zr  Zr41  1  0.81923728  0.23463726  0.97232144  1
  Zr  Zr42  1  0.72624531  0.53479526  0.56151724  1
  Zr  Zr43  1  0.05377507  0.49737410  0.83650470  1
  Zr  Zr44  1  0.59011054  0.90678572  0.10057086  1
  Zr  Zr45  1  0.47594681  0.78527267  0.71140010  1
  Zr  Zr46  1  0.78182979  0.77261219  0.49670523  1
  Zr  Zr47  1  0.82112880  0.46804670  0.35862432  1
  Zr  Zr48  1  0.32084273  0.73975307  0.23445156  1
  Zr  Zr49  1  0.36312837  0.67318598  0.42445694  1
  Sc  Sc50  1  0.11625349  0.50748028  0.64256705  1
  Sc  Sc51  1  0.38376781  0.42166731  0.35593093  1
  Sc  Sc52  1  0.08693875  0.38186471  0.18155203  1
  Sc  Sc53  1  0.86433982  0.41034664  0.82585360  1
  Sc  Sc54  1  0.63851767  0.94070708  0.47455666  1
  Sc  Sc55  1  0.03867991  0.45209122  0.43986318  1
  Sc  Sc56  1  0.46506861  0.07151714  0.50096363  1
  Sc  Sc57  1  0.66030153  0.49398672  0.81238878  1
  Sc  Sc58  1  0.12799157  0.68576020  0.50478692  1
  Sc  Sc59  1  0.11103665  0.11747172  0.86877837  1
  Sc  Sc60  1  0.90252578  0.02966565  0.94790868  1
  Sc  Sc61  1  0.64991553  0.87682128  0.87820195  1
  Sc  Sc62  1  0.57191439  0.38744798  0.63369368  1
  Sc  Sc63  1  0.85941019  0.36158417  0.15920958  1
  Sc  Sc64  1  0.09918610  0.70763894  0.73800885  1
  Sc  Sc65  1  0.84799199  0.80954560  0.82548181  1
  Sc  Sc66  1  0.17052116  0.82777339  0.11244101  1
  Sc  Sc67  1  0.80879304  0.83273376  0.04690528  1
  Sc  Sc68  1  0.91411862  0.19829267  0.56289241  1
  Sc  Sc69  1  0.07785202  0.12736721  0.44299323  1
  Sc  Sc70  1  0.30625880  0.10545968  0.16885966  1
  Sc  Sc71  1  0.92999664  0.26898019  0.34147173  1
  Sc  Sc72  1  0.32751277  0.10627838  0.94481611  1
  Sc  Sc73  1  0.75841139  0.90345624  0.29017397  1
  Sc  Sc74  1  0.75885013  0.45160133  0.99218249  1
  Sc  Sc75  1  0.98546001  0.55326526  0.25009358  1
  Sc  Sc76  1  0.38740234  0.96395278  0.31598596  1
  Sc  Sc77  1  0.57391642  0.70767638  0.52787434  1
  Sc  Sc78  1  0.31609715  0.41017210  0.68466584  1
  Sc  Sc79  1  0.69499200  0.64227791  0.35978091  1
  Sc  Sc80  1  0.19707278  0.46496804  0.01101319  1
  Sc  Sc81  1  0.14633465  0.96815424  0.29594388  1
  Sc  Sc82  1  0.46601180  0.33565716  0.83239228  1
  Sc  Sc83  1  0.91949814  0.41418582  0.61630944  1
  Sc  Sc84  1  0.68445203  0.48390806  0.20177824  1
  Sc  Sc85  1  0.92051256  0.62967218  0.46772117  1
  Sc  Sc86  1  0.73919219  0.89261574  0.66361702  1
  Sc  Sc87  1  0.35537785  0.52507534  0.14316488  1
  Sc  Sc88  1  0.09328382  0.74310956  0.29512079  1
  Sc  Sc89  1  0.26793801  0.03731810  0.56118243  1
  Sc  Sc90  1  0.12405887  0.67688650  0.94265928  1
  Sc  Sc91  1  0.46862936  0.56190784  0.74307634  1
  Sc  Sc92  1  0.59354876  1.05087511  0.29054122  1
  Sc  Sc93  1  0.02172489  0.31004094  0.95118510  1
  Sc  Sc94  1  0.96548605  0.16240345  0.11578214  1
  Sc  Sc95  1  0.09064791  0.92280727  0.52637036  1
  Sc  Sc96  1  0.16892599  0.29205336  0.56682733  1
  Sc  Sc97  1  0.66546649  0.71012565  0.15779769  1
  Sc  Sc98  1  0.63676324  0.28286956  0.07735129  1
  Sc  Sc99  1  0.74191749  0.29300044  0.68399697  1
  Nb  Nb100  1  0.08198735  0.31181747  0.74493449  1
  Nb  Nb101  1  0.86558550  0.72481146  0.26779747  1
  Nb  Nb102  1  0.12001503  0.17288032  0.24188810  1
  Nb  Nb103  1  0.71663441  0.10585011  0.59512727  1
  Nb  Nb104  1  0.25493479  0.48420548  0.49729334  1
  Nb  Nb105  1  0.25243199  0.84027915  0.42428153  1
  Nb  Nb106  1  0.31526839  0.69855514  0.00635483  1
  Nb  Nb107  1  0.98763494  0.71555936  0.09743024  1
  Nb  Nb108  1  0.38780924  0.51591356  0.93275466  1
  Nb  Nb109  1  0.15632884  0.61370425  0.13651027  1
  Nb  Nb110  1  0.82876708  0.60278011  0.11467772  1
  Nb  Nb111  1  0.68690879  0.28074733  0.29053665  1
  Nb  Nb112  1  0.30965982  0.75045481  0.81549419  1
  Nb  Nb113  1  0.25751934  0.82973791  0.62781286  1
  Nb  Nb114  1  0.44830603  0.88813603  0.92255551  1
  Nb  Nb115  1  0.25055001  0.55814945  0.81756661  1
  Nb  Nb116  1  0.76491436  0.12548406  0.40062255  1
  Nb  Nb117  1  0.95384910  0.84618524  0.39273525  1
  Nb  Nb118  1  0.29545607  0.31646001  0.20339078  1
  Nb  Nb119  1  0.47698446  0.71986852  0.09686340  1
  Nb  Nb120  1  0.65925003  0.27189904  0.86592825  1
  Nb  Nb121  1  -0.01438971  0.50561211  0.03857707  1
  Nb  Nb122  1  0.50561796  0.37926755  0.19905083  1
  Nb  Nb123  1  0.70517962  0.66530819  0.94946344  1
  Nb  Nb124  1  0.76845891  0.32343840  0.48338066  1
