# generated using pymatgen
data_Zr2Sc2Nb
_symmetry_space_group_name_H-M   'P 1'
_cell_length_a   14.05236066
_cell_length_b   13.93088057
_cell_length_c   14.62869839
_cell_angle_alpha   91.25311408
_cell_angle_beta   90.80086961
_cell_angle_gamma   90.06417309
_symmetry_Int_Tables_number   1
_chemical_formula_structural   Zr2Sc2Nb
_chemical_formula_sum   'Zr50 Sc50 Nb25'
_cell_volume   2862.77222426
_cell_formula_units_Z   25
loop_
 _symmetry_equiv_pos_site_id
 _symmetry_equiv_pos_as_xyz
  1  'x, y, z'
loop_
 _atom_site_type_symbol
 _atom_site_label
 _atom_site_symmetry_multiplicity
 _atom_site_fract_x
 _atom_site_fract_y
 _atom_site_fract_z
 _atom_site_occupancy
  Zr  Zr0  1  0.00062198  0.92250364  0.87157193  1
  Zr  Zr1  1  0.09284175  0.01205319  0.24290219  1
  Zr  Zr2  1  0.93954840  0.68847007  0.85874108  1
  Zr  Zr3  1  0.63678231  0.98819075  0.80859681  1
  Zr  Zr4  1  0.99512893  0.80503643  0.06315523  1
  Zr  Zr5  1  0.49524578  0.05955286  0.64857613  1
  Zr  Zr6  1  0.15174484  0.18856764  0.38510797  1
  Zr  Zr7  1  0.15445197  0.95070956  0.04575349  1
  Zr  Zr8  1  0.97381374  0.63501256  0.64355894  1
  Zr  Zr9  1  0.85245653  0.46479880  0.98193301  1
  Zr  Zr10  1  0.76795391  0.78959147  0.75064980  1
  Zr  Zr11  1  0.09891456  0.40292176  0.31283196  1
  Zr  Zr12  1  0.31968152  0.50045666  0.75606865  1
  Zr  Zr13  1  0.89534433  0.08511380  0.55082298  1
  Zr  Zr14  1  0.69667180  0.92014011  0.61037007  1
  Zr  Zr15  1  0.43915424  0.88377050  0.34821705  1
  Zr  Zr16  1  0.85677370  0.66458474  1.06524285  1
  Zr  Zr17  1  0.83348920  0.48370014  0.53735655  1
  Zr  Zr18  1  0.20166340  0.37021379  0.51530706  1
  Zr  Zr19  1  0.62542534  0.94104945  1.01061124  1
  Zr  Zr20  1  0.21606141  -0.05031671  0.85766461  1
  Zr  Zr21  1  0.64912542  0.20871162  0.85388333  1
  Zr  Zr22  1  0.69893259  0.05813054  0.46096023  1
  Zr  Zr23  1  0.82384457  0.28416111  0.24937101  1
  Zr  Zr24  1  0.20423955  0.86882067  0.34900122  1
  Zr  Zr25  1  0.02222750  0.41906802  0.60647545  1
  Zr  Zr26  1  0.30107993  0.75009797  0.48302635  1
  Zr  Zr27  1  0.05732461  1.00402979  0.45328705  1
  Zr  Zr28  1  0.45240412  0.10269082  0.21648801  1
  Zr  Zr29  1  0.79800471  0.71817502  0.54492258  1
  Zr  Zr30  1  0.76068313  0.57375479  0.70802474  1
  Zr  Zr31  1  0.48123456  0.87504087  0.13373549  1
  Zr  Zr32  1  0.31646785  0.29366743  0.70183774  1
  Zr  Zr33  1  0.40803996  0.43684120  0.57077524  1
  Zr  Zr34  1  0.66643779  0.39891632  0.32344588  1
  Zr  Zr35  1  0.10833250  0.15970429  0.02084144  1
  Zr  Zr36  1  0.34840247  0.70442320  0.27713157  1
  Zr  Zr37  1  0.11818330  0.56203447  0.81534249  1
  Zr  Zr38  1  0.87020441  0.07126546  0.32363594  1
  Zr  Zr39  1  0.67519195  0.42848230  0.87481831  1
  Zr  Zr40  1  0.55504551  0.55458944  0.73447738  1
  Zr  Zr41  1  0.10465878  0.19514747  0.59810106  1
  Zr  Zr42  1  0.11848772  0.77521613  0.73363788  1
  Zr  Zr43  1  0.49063051  0.32863375  0.96630005  1
  Zr  Zr44  1  0.05470202  0.56375592  0.01903408  1
  Zr  Zr45  1  0.08069922  0.78485174  0.51317332  1
  Zr  Zr46  1  0.27858085  0.98355797  0.51267820  1
  Zr  Zr47  1  0.78863101  0.72971773  0.28513816  1
  Zr  Zr48  1  0.91568642  0.45653890  0.78501853  1
  Zr  Zr49  1  0.48572688  0.86484501  0.54770359  1
  Sc  Sc50  1  0.45809008  0.53194869  0.91806525  1
  Sc  Sc51  1  0.19535411  0.58877477  0.60047432  1
  Sc  Sc52  1  0.74555358  0.27460384  0.48325560  1
  Sc  Sc53  1  0.90405652  0.24667924  0.03941287  1
  Sc  Sc54  1  0.37275222  0.44353666  0.11386284  1
  Sc  Sc55  1  0.48373775  0.30714471  0.39115008  1
  Sc  Sc56  1  0.49574054  0.07963548  0.43316412  1
  Sc  Sc57  1  0.20152902  0.53837195  0.19349007  1
  Sc  Sc58  1  0.01744098  0.15915595  0.81995292  1
  Sc  Sc59  1  0.17692574  0.74967684  0.15362259  1
  Sc  Sc60  1  0.58726061  0.51182220  0.08407022  1
  Sc  Sc61  1  0.61005135  0.46746898  0.53299504  1
  Sc  Sc62  1  0.48852681  0.51158949  0.28420561  1
  Sc  Sc63  1  0.54792714  0.13367772  0.03784523  1
  Sc  Sc64  1  0.27977964  0.08569256  0.69891796  1
  Sc  Sc65  1  0.23929233  0.18317070  0.88151410  1
  Sc  Sc66  1  0.30556796  0.30890221  0.27412237  1
  Sc  Sc67  1  0.73971064  0.10673970  0.14360337  1
  Sc  Sc68  1  0.02227340  0.21664266  0.21565861  1
  Sc  Sc69  1  0.65803378  0.73528942  0.09926812  1
  Sc  Sc70  1  0.12217532  0.34371263  0.76200095  1
  Sc  Sc71  1  0.33901550  0.20052754  0.51790489  1
  Sc  Sc72  1  0.84989822  0.03285235  0.75170782  1
  Sc  Sc73  1  0.98991960  0.83250353  0.29163301  1
  Sc  Sc74  1  0.88492669  0.47301179  0.34490233  1
  Sc  Sc75  1  0.70737365  0.64240860  0.90278161  1
  Sc  Sc76  1  0.51091606  0.34488560  0.75127413  1
  Sc  Sc77  1  0.80552039  0.85321519  0.94493906  1
  Sc  Sc78  1  0.44273324  0.14371454  0.84479622  1
  Sc  Sc79  1  0.43430206  0.93077586  0.87394546  1
  Sc  Sc80  1  0.70478993  0.15086544  0.66253841  1
  Sc  Sc81  1  0.26690145  0.60244270  -0.00674184  1
  Sc  Sc82  1  0.51310291  0.74122212  0.94770864  1
  Sc  Sc83  1  0.92791094  0.86569112  0.63290713  1
  Sc  Sc84  1  0.69975994  0.31401738  0.06530969  1
  Sc  Sc85  1  0.54712461  0.79400412  0.74701876  1
  Sc  Sc86  1  0.26228284  0.39076410  0.92900855  1
  Sc  Sc87  1  0.81323572  0.89053451  0.15636311  1
  Sc  Sc88  1  0.98940110  0.61758323  0.22576862  1
  Sc  Sc89  1  0.64326709  -0.04526534  0.26728740  1
  Sc  Sc90  1  0.08867925  0.99302200  0.67198742  1
  Sc  Sc91  1  0.76470903  0.52591391  0.18904629  1
  Sc  Sc92  1  0.79426837  0.08035641  0.94195568  1
  Sc  Sc93  1  0.29534843  0.52417028  0.40173370  1
  Sc  Sc94  1  0.64940116  0.82075083  0.42505183  1
  Sc  Sc95  1  0.32225381  0.71952934  0.82734285  1
  Sc  Sc96  1  0.96127837  0.27942963  0.44255542  1
  Sc  Sc97  1  0.31737826  0.86828413  0.67980957  1
  Sc  Sc98  1  0.94820405  0.02917714  0.08237529  1
  Sc  Sc99  1  0.40570431  0.65811507  0.63146176  1
  Nb  Nb100  1  0.96936644  0.42129208  0.14491490  1
  Nb  Nb101  1  0.30071506  0.93227508  0.19055912  1
  Nb  Nb102  1  0.83947733  0.27812894  0.84490943  1
  Nb  Nb103  1  0.64152363  0.18435673  0.30202213  1
  Nb  Nb104  1  0.34422039  0.23468563  0.06433448  1
  Nb  Nb105  1  0.04057661  0.36259454  0.94275195  1
  Nb  Nb106  1  0.14225283  0.66644506  0.35729521  1
  Nb  Nb107  1  0.05460921  0.53523256  0.45711615  1
  Nb  Nb108  1  0.85491649  0.89484772  0.43672238  1
  Nb  Nb109  1  0.15804472  0.34399741  0.10595124  1
  Nb  Nb110  1  0.22946149  0.13600859  0.17488427  1
  Nb  Nb111  1  0.29916261  0.06842265  0.34191220  1
  Nb  Nb112  1  0.34566755  1.03951518  0.02526669  1
  Nb  Nb113  1  0.43164620  0.65934418  0.11512096  1
  Nb  Nb114  1  0.54789649  0.25149909  0.57465417  1
  Nb  Nb115  1  0.49175292  0.65563317  0.44030677  1
  Nb  Nb116  1  0.69482894  0.59976078  0.39843367  1
  Nb  Nb117  1  0.13606524  0.75661702  0.92953997  1
  Nb  Nb118  1  0.92799799  0.67446781  0.42054450  1
  Nb  Nb119  1  0.61487281  0.68562756  0.58773326  1
  Nb  Nb120  1  0.56687763  0.70999883  0.26669408  1
  Nb  Nb121  1  0.52500463  0.30360308  0.18178599  1
  Nb  Nb122  1  0.89765947  0.26517257  0.66043895  1
  Nb  Nb123  1  0.71752918  0.36236686  0.68748318  1
  Nb  Nb124  1  0.31950833  0.81837621  1.01629355  1
