# generated using pymatgen
data_Zr2Sc2Nb
_symmetry_space_group_name_H-M   'P 1'
_cell_length_a   14.27850505
_cell_length_b   14.85241454
_cell_length_c   13.52829619
_cell_angle_alpha   88.32098533
_cell_angle_beta   87.91585481
_cell_angle_gamma   87.85888474
_symmetry_Int_Tables_number   1
_chemical_formula_structural   Zr2Sc2Nb
_chemical_formula_sum   'Zr50 Sc50 Nb25'
_cell_volume   2863.92835437
_cell_formula_units_Z   25
loop_
 _symmetry_equiv_pos_site_id
 _symmetry_equiv_pos_as_xyz
  1  'x, y, z'
loop_
 _atom_site_type_symbol
 _atom_site_label
 _atom_site_symmetry_multiplicity
 _atom_site_fract_x
 _atom_site_fract_y
 _atom_site_fract_z
 _atom_site_occupancy
  Zr  Zr0  1  0.69559732  0.22549614  0.32498582  1
  Zr  Zr1  1  0.34787791  0.97794471  0.27751173  1
  Zr  Zr2  1  0.68286715  0.11238679  0.96848655  1
  Zr  Zr3  1  0.92063104  0.64508674  0.89874540  1
  Zr  Zr4  1  0.36298764  0.30940127  0.65117677  1
  Zr  Zr5  1  0.11462515  0.14038346  0.90636533  1
  Zr  Zr6  1  0.50237861  0.13441630  0.30039736  1
  Zr  Zr7  1  0.47123607  0.47490289  0.63083345  1
  Zr  Zr8  1  0.84752545  0.02132828  0.67288757  1
  Zr  Zr9  1  0.69990362  0.86576085  0.37494814  1
  Zr  Zr10  1  0.78060522  0.82246097  0.16965164  1
  Zr  Zr11  1  0.19138512  0.49779907  0.31686839  1
  Zr  Zr12  1  0.21303263  0.30154593  0.45984568  1
  Zr  Zr13  1  0.04262761  0.98995545  0.06714683  1
  Zr  Zr14  1  0.65550314  0.32170401  -0.05886653  1
  Zr  Zr15  1  0.05651738  0.88940623  0.63409928  1
  Zr  Zr16  1  1.02873470  0.40347933  0.39027652  1
  Zr  Zr17  1  0.52590080  0.75693105  0.91573020  1
  Zr  Zr18  1  0.75742659  0.94926659  0.85970014  1
  Zr  Zr19  1  0.56409636  0.78186303  0.54004941  1
  Zr  Zr20  1  0.06825837  0.86499641  0.41669651  1
  Zr  Zr21  1  0.19043430  0.66207293  0.13378921  1
  Zr  Zr22  1  0.06707167  0.52251031  0.56317720  1
  Zr  Zr23  1  0.88178405  0.74471520  0.35169691  1
  Zr  Zr24  1  0.58115302  0.26509007  0.69985808  1
  Zr  Zr25  1  0.96618762  0.67774694  0.11323075  1
  Zr  Zr26  1  0.26572252  0.57549407  0.68478733  1
  Zr  Zr27  1  0.44903737  0.30165662  0.44981371  1
  Zr  Zr28  1  0.34104311  0.85855788  0.86809562  1
  Zr  Zr29  1  0.80905369  0.44905669  0.86264951  1
  Zr  Zr30  1  0.57822117  0.13963104  0.53008291  1
  Zr  Zr31  1  0.78448282  0.22571201  0.78597753  1
  Zr  Zr32  1  0.15721958  0.31605626  0.19987678  1
  Zr  Zr33  1  0.98448014  0.71453336  0.55696644  1
  Zr  Zr34  1  0.02419767  0.25418976  0.55907109  1
  Zr  Zr35  1  0.41828934  0.12705708  0.73840033  1
  Zr  Zr36  1  0.65179309  0.43947671  0.74019552  1
  Zr  Zr37  1  0.65047940  0.35577780  0.51163315  1
  Zr  Zr38  1  0.84716207  0.38127672  0.63118986  1
  Zr  Zr39  1  0.46728790  0.05451578  0.09328557  1
  Zr  Zr40  1  0.17037702  0.37875709  0.67233687  1
  Zr  Zr41  1  0.44375368  0.72538064  0.71218346  1
  Zr  Zr42  1  0.90474497  0.53807982  0.27295370  1
  Zr  Zr43  1  0.72667844  0.45013960  0.32697677  1
  Zr  Zr44  1  0.27150627  0.47072921  0.08806183  1
  Zr  Zr45  1  0.91678976  0.08710168  0.89609985  1
  Zr  Zr46  1  0.11796987  0.94571452  0.85342019  1
  Zr  Zr47  1  0.86269129  0.54535592  0.47886354  1
  Zr  Zr48  1  0.63379402  0.55272357  0.97736690  1
  Zr  Zr49  1  0.31638800  0.04491549  0.92228687  1
  Sc  Sc50  1  0.06701738  0.65740153  0.33619499  1
  Sc  Sc51  1  0.73673603  0.74478568  0.94643474  1
  Sc  Sc52  1  0.19650529  0.68984587  0.50633949  1
  Sc  Sc53  1  0.86561154  0.58651008  0.69398418  1
  Sc  Sc54  1  0.46875732  0.93480602  0.66810102  1
  Sc  Sc55  1  0.28237233  0.25078252  0.87694327  1
  Sc  Sc56  1  0.42147124  0.63233029  0.06601898  1
  Sc  Sc57  1  0.09223009  0.34922522  0.98286817  1
  Sc  Sc58  1  0.46616725  0.55818216  0.84048600  1
  Sc  Sc59  1  0.36515045  0.59624320  0.28240640  1
  Sc  Sc60  1  0.31848201  0.87283593  0.49789198  1
  Sc  Sc61  1  0.66128452  0.64329997  0.76268127  1
  Sc  Sc62  1  0.64913709  0.56611807  0.54929986  1
  Sc  Sc63  1  0.22946615  0.78762054  0.70349158  1
  Sc  Sc64  1  0.25643616  0.99582757  0.69228811  1
  Sc  Sc65  1  0.91379716  0.47543655  0.03752691  1
  Sc  Sc66  1  0.92072234  0.85324516  0.97334435  1
  Sc  Sc67  1  0.76311965  0.60544657  0.12983116  1
  Sc  Sc68  1  0.51143786  0.96670436  0.43867852  1
  Sc  Sc69  1  0.41124378  0.65246093  0.50826031  1
  Sc  Sc70  1  0.45755106  0.36024800  0.84826687  1
  Sc  Sc71  1  0.16483500  0.07168546  0.48786721  1
  Sc  Sc72  1  0.42540080  0.84756661  0.09414015  1
  Sc  Sc73  1  0.75226087  0.05172696  0.42209574  1
  Sc  Sc74  1  0.99727769  0.27435094  0.78016658  1
  Sc  Sc75  1  0.02156523  0.47518260  0.79792412  1
  Sc  Sc76  1  0.28152430  0.66065368  0.89419026  1
  Sc  Sc77  1  0.83947663  0.01574688  0.08751085  1
  Sc  Sc78  1  0.30792852  0.47448889  0.49043324  1
  Sc  Sc79  1  0.63469675  0.07472878  0.74337835  1
  Sc  Sc80  1  0.68040723  0.65820917  0.34314351  1
  Sc  Sc81  1  0.37011033  0.25655346  0.09478169  1
  Sc  Sc82  1  0.25761513  0.45540581  0.86084273  1
  Sc  Sc83  1  0.36164902  0.11875985  0.51911345  1
  Sc  Sc84  1  0.91930778  0.33541948  0.20337110  1
  Sc  Sc85  1  0.21782022  0.11276818  0.11152369  1
  Sc  Sc86  1  0.24647821  0.79497950  0.29296432  1
  Sc  Sc87  1  0.10845012  0.76672458  0.94714823  1
  Sc  Sc88  1  0.22545978  0.89144353  0.07968946  1
  Sc  Sc89  1  0.03996870  0.08299155  0.69457428  1
  Sc  Sc90  1  0.48815025  0.42122196  0.06273425  1
  Sc  Sc91  1  0.29117042  0.18228845  0.30659402  1
  Sc  Sc92  1  0.76268082  0.74110897  0.56879014  1
  Sc  Sc93  1  0.10424057  0.01785791  0.27437704  1
  Sc  Sc94  1  0.55567391  0.35286077  0.26068667  1
  Sc  Sc95  1  0.95543106  0.07236473  0.47088863  1
  Sc  Sc96  1  0.87867007  0.80818317  0.74112412  1
  Sc  Sc97  1  0.86210818  0.28900886  0.41854749  1
  Sc  Sc98  1  0.47932961  0.75919038  0.32089756  1
  Sc  Sc99  1  0.63543656  0.91335483  0.03663934  1
  Nb  Nb100  1  0.49712032  0.17502616  0.91914810  1
  Nb  Nb101  1  0.77139037  0.18671175  0.58076402  1
  Nb  Nb102  1  0.51395313  0.97110223  0.88225299  1
  Nb  Nb103  1  0.55963377  0.91927132  0.23481404  1
  Nb  Nb104  1  0.03984884  0.82684956  0.19518562  1
  Nb  Nb105  1  0.89773498  0.94160693  0.29025455  1
  Nb  Nb106  1  0.68421578  0.04867324  0.21472902  1
  Nb  Nb107  1  0.35970432  0.39017247  0.27380792  1
  Nb  Nb108  1  0.63738222  0.84134409  0.75354840  1
  Nb  Nb109  1  0.68383217  0.94310622  0.58961897  1
  Nb  Nb110  1  0.07155811  0.49531552  0.16027736  1
  Nb  Nb111  1  0.58124605  0.22014473  0.11601353  1
  Nb  Nb112  1  0.00470852  0.17833280  0.10102696  1
  Nb  Nb113  1  0.88016915  0.28287301  0.97095375  1
  Nb  Nb114  1  0.77787891  0.21346437  0.11914120  1
  Nb  Nb115  1  0.07722437  0.66463896  0.74812595  1
  Nb  Nb116  1  0.56662797  0.54805254  0.20674424  1
  Nb  Nb117  1  0.87623392  0.89245470  0.50851994  1
  Nb  Nb118  1  0.59721515  0.72917522  0.13390846  1
  Nb  Nb119  1  0.89237625  0.12709339  0.26335968  1
  Nb  Nb120  1  0.05992210  0.20611066  0.33281692  1
  Nb  Nb121  1  0.51357118  0.49604556  0.40340310  1
  Nb  Nb122  1  0.71906213  0.40079722  0.11487305  1
  Nb  Nb123  1  0.20454315  0.18922233  0.68277554  1
  Nb  Nb124  1  0.10351475  0.56569262  0.96459684  1
