# generated using pymatgen
data_Zr2Sc2Nb
_symmetry_space_group_name_H-M   'P 1'
_cell_length_a   14.46445521
_cell_length_b   14.26047415
_cell_length_c   13.91378765
_cell_angle_alpha   91.24125348
_cell_angle_beta   88.71202904
_cell_angle_gamma   90.24900710
_symmetry_Int_Tables_number   1
_chemical_formula_structural   Zr2Sc2Nb
_chemical_formula_sum   'Zr50 Sc50 Nb25'
_cell_volume   2868.57706046
_cell_formula_units_Z   25
loop_
 _symmetry_equiv_pos_site_id
 _symmetry_equiv_pos_as_xyz
  1  'x, y, z'
loop_
 _atom_site_type_symbol
 _atom_site_label
 _atom_site_symmetry_multiplicity
 _atom_site_fract_x
 _atom_site_fract_y
 _atom_site_fract_z
 _atom_site_occupancy
  Zr  Zr0  1  0.66148415  0.08693511  0.34637813  1
  Zr  Zr1  1  0.60704827  0.70100228  0.22601693  1
  Zr  Zr2  1  0.82791154  0.17748624  0.44706510  1
  Zr  Zr3  1  0.81394125  0.74287953  0.28782516  1
  Zr  Zr4  1  0.22852280  0.30671096  0.55354908  1
  Zr  Zr5  1  0.46012273  0.43787047  0.11237070  1
  Zr  Zr6  1  0.84048782  0.26543292  0.80547713  1
  Zr  Zr7  1  0.75885456  0.95457974  0.17028659  1
  Zr  Zr8  1  0.27336982  0.50388142  0.15630693  1
  Zr  Zr9  1  0.49080483  0.04222955  0.70600844  1
  Zr  Zr10  1  0.06752028  1.03279734  0.04544578  1
  Zr  Zr11  1  0.95338146  0.56442759  0.68589121  1
  Zr  Zr12  1  0.56961545  0.52388716  0.73350283  1
  Zr  Zr13  1  0.20496091  0.16646270  0.93554322  1
  Zr  Zr14  1  0.27610513  0.11511237  0.70906652  1
  Zr  Zr15  1  0.30572195  0.94404035  0.57448991  1
  Zr  Zr16  1  0.76246714  0.45697034  0.72216045  1
  Zr  Zr17  1  0.04118344  0.50362409  0.04276632  1
  Zr  Zr18  1  0.73517550  0.80523774  0.85603163  1
  Zr  Zr19  1  0.18043139  0.10340396  0.50729535  1
  Zr  Zr20  1  0.10025588  0.02062866  0.29179451  1
  Zr  Zr21  1  0.45459551  0.07011846  0.05995841  1
  Zr  Zr22  1  0.94984268  0.90193702  0.17199179  1
  Zr  Zr23  1  0.16778074  0.58698882  0.33739262  1
  Zr  Zr24  1  0.67536771  0.33157845  0.40610976  1
  Zr  Zr25  1  0.61894855  0.56201656  0.08897684  1
  Zr  Zr26  1  0.28195265  0.54308971  0.50922684  1
  Zr  Zr27  1  0.39992139  0.11257746  0.50675400  1
  Zr  Zr28  1  0.08545298  0.66208673  0.53969189  1
  Zr  Zr29  1  -0.00472433  0.03396421  0.47941609  1
  Zr  Zr30  1  0.76288532  0.75816627  0.07135027  1
  Zr  Zr31  1  0.86041966  0.96465130  0.35035156  1
  Zr  Zr32  1  0.27020551  0.98118981  0.97001279  1
  Zr  Zr33  1  0.68394631  -0.03591751  0.96984310  1
  Zr  Zr34  1  0.19401338  0.36706224  0.01367377  1
  Zr  Zr35  1  0.65187949  0.88047406  0.34387337  1
  Zr  Zr36  1  0.61927780  0.27538282  0.78106344  1
  Zr  Zr37  1  0.29716493  0.40319345  0.33843150  1
  Zr  Zr38  1  0.83722583  0.41847182  0.51889777  1
  Zr  Zr39  1  0.82051103  0.54850458  0.08137701  1
  Zr  Zr40  1  0.91501608  0.10965386  0.66550300  1
  Zr  Zr41  1  0.96689366  0.36000135  0.66749340  1
  Zr  Zr42  1  0.63983479  0.12152677  0.12441697  1
  Zr  Zr43  1  0.68122255  0.55473240  0.50913934  1
  Zr  Zr44  1  0.25783538  0.06665130  0.16067221  1
  Zr  Zr45  1  0.20780386  0.73290471  0.69118487  1
  Zr  Zr46  1  0.75661163  0.51500668  0.29308800  1
  Zr  Zr47  1  0.85061864  0.07258340  0.88661118  1
  Zr  Zr48  1  0.92351758  0.35899216  0.34373655  1
  Zr  Zr49  1  0.87799983  0.46110108  0.89741861  1
  Sc  Sc50  1  0.08578294  0.61777921  0.85958229  1
  Sc  Sc51  1  0.28008717  0.53203530  0.89453408  1
  Sc  Sc52  1  0.38763442  0.43458592  0.67250751  1
  Sc  Sc53  1  0.26169808  0.75276725  0.27634205  1
  Sc  Sc54  1  0.56256785  0.76018916  0.00522994  1
  Sc  Sc55  1  0.54927073  0.48033351  0.31494277  1
  Sc  Sc56  1  0.07151902  0.40141441  0.84464552  1
  Sc  Sc57  1  0.08502441  0.93662593  0.65401360  1
  Sc  Sc58  1  0.77285232  0.23409886  0.24265700  1
  Sc  Sc59  1  0.97692684  0.70881569  0.07799306  1
  Sc  Sc60  1  0.88620950  0.11001387  0.10475753  1
  Sc  Sc61  1  0.15558029  0.86606363  0.13510100  1
  Sc  Sc62  1  0.75776503  0.99388393  0.53963369  1
  Sc  Sc63  1  0.07518268  0.44416878  0.47577228  1
  Sc  Sc64  1  0.03003267  0.76573981  0.31450496  1
  Sc  Sc65  1  0.10876344  0.82342447  0.91092276  1
  Sc  Sc66  1  0.29841651  0.95925460  0.35510087  1
  Sc  Sc67  1  0.25453993  0.92708948  0.78155626  1
  Sc  Sc68  1  0.42067669  0.82871228  0.69593562  1
  Sc  Sc69  1  0.25661429  0.31735959  0.78873201  1
  Sc  Sc70  1  0.51724249  0.26026782  0.25309303  1
  Sc  Sc71  1  0.75253065  0.24876520  0.99632206  1
  Sc  Sc72  1  0.31335929  0.18838407  0.33054558  1
  Sc  Sc73  1  0.64203768  0.88375219  0.68564618  1
  Sc  Sc74  1  0.37374885  0.87122152  0.11574510  1
  Sc  Sc75  1  0.44458867  0.32871671  0.46825999  1
  Sc  Sc76  1  0.08695933  0.19653399  0.72975353  1
  Sc  Sc77  1  0.15072183  0.84981549  0.46388282  1
  Sc  Sc78  1  0.92833780  0.82542509  0.52535922  1
  Sc  Sc79  1  0.10389497  0.39944339  0.22807997  1
  Sc  Sc80  1  0.44485960  0.24266918  0.68262001  1
  Sc  Sc81  1  0.64753957  0.42091407  0.93253141  1
  Sc  Sc82  1  0.41152198  0.66101815  0.11759757  1
  Sc  Sc83  1  0.17248835  0.50594402  0.68284780  1
  Sc  Sc84  1  0.00206297  0.22962764  0.95158256  1
  Sc  Sc85  1  0.18818169  0.66365615  0.06854794  1
  Sc  Sc86  1  0.88738695  0.62077811  0.46052623  1
  Sc  Sc87  1  0.42904895  0.36897625  0.89392066  1
  Sc  Sc88  1  0.33752224  0.25874736  0.10972756  1
  Sc  Sc89  1  0.35921831  0.73846218  0.49475501  1
  Sc  Sc90  1  0.34182489  0.74708485  0.89894462  1
  Sc  Sc91  1  0.86713358  0.91520658  0.72706618  1
  Sc  Sc92  1  0.47309457  0.03740184  0.28377734  1
  Sc  Sc93  1  0.60557478  0.16009127  0.55012148  1
  Sc  Sc94  1  0.77134087  0.67981742  0.68163816  1
  Sc  Sc95  1  0.91281910  0.88408417  0.95249832  1
  Sc  Sc96  1  0.91314575  0.34680875  0.12346353  1
  Sc  Sc97  1  0.51623241  0.91042604  0.50275987  1
  Sc  Sc98  1  0.48295115  0.92628535  0.88975212  1
  Sc  Sc99  1  0.96551450  0.56384005  0.25201482  1
  Nb  Nb100  1  0.71231174  0.08391658  0.73557208  1
  Nb  Nb101  1  0.05886192  0.02128320  0.84299560  1
  Nb  Nb102  1  -0.00623471  0.75808539  0.73270912  1
  Nb  Nb103  1  0.38476510  0.62788911  0.70870836  1
  Nb  Nb104  1  0.56086470  0.69215722  0.41452502  1
  Nb  Nb105  1  0.40321888  0.15308190  0.87987307  1
  Nb  Nb106  1  0.88861744  0.67042492  0.88430641  1
  Nb  Nb107  1  0.59909187  0.11820930  0.89409447  1
  Nb  Nb108  1  0.66993363  0.37609691  0.15251841  1
  Nb  Nb109  1  1.00355363  0.24099657  0.51286341  1
  Nb  Nb110  1  0.60573892  0.37756102  0.59311289  1
  Nb  Nb111  1  0.77331672  0.25661127  0.61912778  1
  Nb  Nb112  1  0.53972528  0.26180027  0.02297413  1
  Nb  Nb113  1  0.55939141  0.70134246  0.60696250  1
  Nb  Nb114  1  0.55336143  0.71876727  0.80394882  1
  Nb  Nb115  1  0.72526298  0.77647478  0.49606146  1
  Nb  Nb116  1  0.57227444  0.90723520  0.14995285  1
  Nb  Nb117  1  0.12499471  0.24519012  0.36111555  1
  Nb  Nb118  1  0.45533462  0.81537942  0.30276307  1
  Nb  Nb119  1  0.48352211  0.57438051  0.92065073  1
  Nb  Nb120  1  0.10868896  0.20837342  0.14910288  1
  Nb  Nb121  1  0.47798719  0.53902161  0.51797680  1
  Nb  Nb122  1  0.96521781  0.16147658  0.29098800  1
  Nb  Nb123  1  0.70276672  0.60997659  0.89399882  1
  Nb  Nb124  1  0.39401634  0.60145730  0.32232349  1
