# generated using pymatgen
data_Zr2Sc2Nb
_symmetry_space_group_name_H-M   'P 1'
_cell_length_a   14.55866232
_cell_length_b   14.37010786
_cell_length_c   13.76461890
_cell_angle_alpha   89.54092040
_cell_angle_beta   90.72930157
_cell_angle_gamma   89.72311531
_symmetry_Int_Tables_number   1
_chemical_formula_structural   Zr2Sc2Nb
_chemical_formula_sum   'Zr50 Sc50 Nb25'
_cell_volume   2879.32892358
_cell_formula_units_Z   25
loop_
 _symmetry_equiv_pos_site_id
 _symmetry_equiv_pos_as_xyz
  1  'x, y, z'
loop_
 _atom_site_type_symbol
 _atom_site_label
 _atom_site_symmetry_multiplicity
 _atom_site_fract_x
 _atom_site_fract_y
 _atom_site_fract_z
 _atom_site_occupancy
  Zr  Zr0  1  0.18096727  0.32637161  0.13571566  1
  Zr  Zr1  1  0.85999916  0.83674933  0.68452809  1
  Zr  Zr2  1  0.50123826  0.82666560  0.34196210  1
  Zr  Zr3  1  0.39300332  0.84475668  0.92976069  1
  Zr  Zr4  1  0.61974812  0.75704900  0.92450335  1
  Zr  Zr5  1  0.66618061  0.87297214  0.73352419  1
  Zr  Zr6  1  0.28098411  0.11249256  0.21184732  1
  Zr  Zr7  1  0.09841994  0.17373796  0.64629161  1
  Zr  Zr8  1  0.65601995  0.95862114  0.30855964  1
  Zr  Zr9  1  0.70196927  0.85304104  0.11710806  1
  Zr  Zr10  1  0.88544741  0.06635212  0.67673137  1
  Zr  Zr11  1  0.43411051  0.14499638  0.54193439  1
  Zr  Zr12  1  0.50907860  0.36248423  0.04657419  1
  Zr  Zr13  1  0.07103051  0.97500825  0.69281747  1
  Zr  Zr14  1  0.28351676  0.41193861  0.97667906  1
  Zr  Zr15  1  0.05676485  0.14779646  0.08957839  1
  Zr  Zr16  1  0.29063898  0.87134163  0.29333938  1
  Zr  Zr17  1  0.26044704  0.27602160  0.34542748  1
  Zr  Zr18  1  0.44116422  0.64336746  0.30534844  1
  Zr  Zr19  1  0.68198089  0.34365823  0.89629748  1
  Zr  Zr20  1  0.30788486  0.76061161  0.09696683  1
  Zr  Zr21  1  0.60947241  0.29332984  0.54897030  1
  Zr  Zr22  1  0.45038883  0.14463595  0.08418902  1
  Zr  Zr23  1  0.97401047  0.87227849  0.52713034  1
  Zr  Zr24  1  0.94289444  0.28839186  0.69034819  1
  Zr  Zr25  1  0.27191958  0.06632159  0.64744986  1
  Zr  Zr26  1  0.79051389  0.98726908  0.48314505  1
  Zr  Zr27  1  0.76227140  0.65518150  0.07768483  1
  Zr  Zr28  1  0.78240400  0.42320556  0.06970905  1
  Zr  Zr29  1  0.99175847  0.36018483  0.07477056  1
  Zr  Zr30  1  0.76419915  0.11156221  0.88387626  1
  Zr  Zr31  1  0.70526873  0.78511529  0.52440634  1
  Zr  Zr32  1  0.06104749  0.94488799  0.04866212  1
  Zr  Zr33  1  0.95766382  0.55566804  0.14203156  1
  Zr  Zr34  1  0.69507242  0.73604859  0.30415799  1
  Zr  Zr35  1  0.78714956  0.61795302  0.66026475  1
  Zr  Zr36  1  0.02215327  0.06140551  0.47450463  1
  Zr  Zr37  1  0.95911962  0.08811952  0.89218368  1
  Zr  Zr38  1  0.08814005  0.68059140  0.54039079  1
  Zr  Zr39  1  0.25661935  0.29448913  0.55232462  1
  Zr  Zr40  1  0.29303202  0.47919997  0.32239156  1
  Zr  Zr41  1  0.43780553  0.31940765  0.42419528  1
  Zr  Zr42  1  0.28080943  0.69512990  0.45123047  1
  Zr  Zr43  1  0.81997855  0.19631474  0.49115960  1
  Zr  Zr44  1  0.63220155  0.45928333  0.67136301  1
  Zr  Zr45  1  0.29951352  0.46043966  0.77346502  1
  Zr  Zr46  1  0.47576395  -0.00294596  0.71380157  1
  Zr  Zr47  1  0.11208403  -0.00967261  0.25371365  1
  Zr  Zr48  1  0.74553627  0.25902606  0.71326939  1
  Zr  Zr49  1  0.08792240  0.20110615  0.30184399  1
  Sc  Sc50  1  0.67043160  0.07710451  0.65785854  1
  Sc  Sc51  1  0.37148636  0.89406160  0.53173116  1
  Sc  Sc52  1  0.29261327  0.70444513  0.67670517  1
  Sc  Sc53  1  0.66218997  0.05954998  0.09741923  1
  Sc  Sc54  1  0.25739592  0.18755259  0.00626164  1
  Sc  Sc55  1  0.88676900  0.54011514  0.93005720  1
  Sc  Sc56  1  0.87636063  0.31436580  0.26268141  1
  Sc  Sc57  1  0.97139412  0.87326858  0.86127782  1
  Sc  Sc58  1  0.57034561  0.93808781  0.52529100  1
  Sc  Sc59  1  0.27883982  0.89352069  0.74953026  1
  Sc  Sc60  1  0.09604413  0.26048335  0.87525967  1
  Sc  Sc61  1  0.69140510  0.56813914  0.46852519  1
  Sc  Sc62  1  0.58868709  0.55026449  0.07040925  1
  Sc  Sc63  1  0.16666448  0.04391570  0.87183994  1
  Sc  Sc64  1  0.66719481  0.26862425  0.13042260  1
  Sc  Sc65  1  0.68546477  0.55497789  0.87381350  1
  Sc  Sc66  1  0.90653522  0.49818141  0.38894414  1
  Sc  Sc67  1  0.23979191  0.63333975  0.91937541  1
  Sc  Sc68  1  0.90065557  0.79520581  0.06441784  1
  Sc  Sc69  1  0.88850682  0.68705785  0.47716609  1
  Sc  Sc70  1  0.57905748  0.17035865  0.92547614  1
  Sc  Sc71  1  0.07919353  0.46813609  0.89380535  1
  Sc  Sc72  1  0.28021196  0.24363621  0.76279213  1
  Sc  Sc73  1  0.87540712  0.89006495  0.30185708  1
  Sc  Sc74  1  0.45957298  0.93990545  0.14190949  1
  Sc  Sc75  1  0.52350690  0.74002738  0.12711133  1
  Sc  Sc76  1  0.07561549  0.41711952  0.28099787  1
  Sc  Sc77  1  0.68901917  0.33765576  0.36212777  1
  Sc  Sc78  1  0.92180111  0.09775180  0.28069206  1
  Sc  Sc79  1  0.86262628  1.00424840  0.09303162  1
  Sc  Sc80  1  0.52366253  0.44251501  0.25936317  1
  Sc  Sc81  1  0.03935096  0.68228706  0.93957378  1
  Sc  Sc82  1  0.08623500  0.80774634  0.35453612  1
  Sc  Sc83  1  0.09624694  0.75203573  0.14264117  1
  Sc  Sc84  1  0.52758499  0.20599963  0.27325739  1
  Sc  Sc85  1  0.57087005  0.95728740  0.92319152  1
  Sc  Sc86  1  0.50092283  0.44312110  0.84178081  1
  Sc  Sc87  1  0.44070494  0.03302452  0.35129144  1
  Sc  Sc88  1  0.49684308  0.71418952  0.53094120  1
  Sc  Sc89  1  0.51821588  0.21964138  0.73362649  1
  Sc  Sc90  1  0.73957034  0.52856304  0.25166529  1
  Sc  Sc91  1  0.13934998  0.57405297  0.71414328  1
  Sc  Sc92  1  0.00556793  0.30802766  0.47975066  1
  Sc  Sc93  1  0.37752809  0.06225060  0.88398373  1
  Sc  Sc94  1  0.13307775  0.47580213  0.48052889  1
  Sc  Sc95  1  0.37162155  0.54497248  0.11557343  1
  Sc  Sc96  1  0.88561863  0.30094737  0.90103369  1
  Sc  Sc97  1  0.49332554  0.50591402  0.48133628  1
  Sc  Sc98  1  0.44797041  0.63870280  0.89954964  1
  Sc  Sc99  1  0.23394825  0.06925627  0.43423102  1
  Nb  Nb100  1  0.07474700  0.61263185  0.32370268  1
  Nb  Nb101  1  0.84727728  0.19959891  0.08069747  1
  Nb  Nb102  1  0.95685685  0.65085864  0.74228361  1
  Nb  Nb103  1  0.62366046  0.12501972  0.44492946  1
  Nb  Nb104  1  0.80348387  0.40045489  0.55399294  1
  Nb  Nb105  1  0.73919763  0.13865018  0.28422854  1
  Nb  Nb106  1  0.09866341  0.78274211  0.72546233  1
  Nb  Nb107  1  0.40913925  0.27817506  0.90607951  1
  Nb  Nb108  1  0.24269675  0.66300843  0.25747410  1
  Nb  Nb109  1  0.83655873  0.44907643  0.75388741  1
  Nb  Nb110  1  0.47366871  0.79749093  0.73730236  1
  Nb  Nb111  1  0.89475042  0.69111731  0.26210306  1
  Nb  Nb112  1  0.96599299  0.49978885  0.60730076  1
  Nb  Nb113  1  0.45196674  0.57729590  0.68569214  1
  Nb  Nb114  1  0.25995886  0.96802646  0.06678891  1
  Nb  Nb115  1  0.77838341  0.91376707  0.91330785  1
  Nb  Nb116  1  0.17647169  0.88272877  0.53959746  1
  Nb  Nb117  1  0.12533630  0.37914827  0.67925019  1
  Nb  Nb118  1  0.42766153  0.37150825  0.64108918  1
  Nb  Nb119  1  0.15861516  0.54167797  0.11618200  1
  Nb  Nb120  1  0.36917346  0.31960414  0.17303039  1
  Nb  Nb121  1  0.80689569  0.72676827  0.85964227  1
  Nb  Nb122  1  0.30348616  0.51067116  0.56372781  1
  Nb  Nb123  1  0.17993052  0.83657652  0.92691986  1
  Nb  Nb124  1  0.61511438  0.67614928  0.71641215  1
