# generated using pymatgen
data_Zr2Sc2Nb
_symmetry_space_group_name_H-M   'P 1'
_cell_length_a   14.49657163
_cell_length_b   14.08924732
_cell_length_c   14.23352848
_cell_angle_alpha   90.27921671
_cell_angle_beta   90.46673082
_cell_angle_gamma   89.71160864
_symmetry_Int_Tables_number   1
_chemical_formula_structural   Zr2Sc2Nb
_chemical_formula_sum   'Zr50 Sc50 Nb25'
_cell_volume   2906.97094672
_cell_formula_units_Z   25
loop_
 _symmetry_equiv_pos_site_id
 _symmetry_equiv_pos_as_xyz
  1  'x, y, z'
loop_
 _atom_site_type_symbol
 _atom_site_label
 _atom_site_symmetry_multiplicity
 _atom_site_fract_x
 _atom_site_fract_y
 _atom_site_fract_z
 _atom_site_occupancy
  Zr  Zr0  1  0.00268365  0.14669112  0.25927679  1
  Zr  Zr1  1  0.46044238  0.25829957  0.98153131  1
  Zr  Zr2  1  0.36267788  0.35899163  0.42228371  1
  Zr  Zr3  1  0.31873565  0.33585505  0.61760246  1
  Zr  Zr4  1  0.34391856  0.39290384  0.84904064  1
  Zr  Zr5  1  0.51272663  0.42424780  0.55961643  1
  Zr  Zr6  1  0.66283191  0.27272478  0.85310156  1
  Zr  Zr7  1  0.95479484  0.44033220  0.44640906  1
  Zr  Zr8  1  0.75268277  0.52790027  0.34972410  1
  Zr  Zr9  1  0.96470445  0.79193241  0.10612680  1
  Zr  Zr10  1  0.06140624  0.04031398  0.43012427  1
  Zr  Zr11  1  0.99405599  0.39260547  0.05581700  1
  Zr  Zr12  1  0.92850284  0.32744337  0.85726743  1
  Zr  Zr13  1  0.81153109  0.68560915  0.97572822  1
  Zr  Zr14  1  0.47824731  0.84760944  0.18862472  1
  Zr  Zr15  1  0.92794988  0.74173417  0.68306722  1
  Zr  Zr16  1  0.93187244  0.54890239  0.85830317  1
  Zr  Zr17  1  0.47582321  0.27900369  0.74796185  1
  Zr  Zr18  1  0.82599477  0.11771937  0.91236437  1
  Zr  Zr19  1  0.48826498  0.55067377  0.97159215  1
  Zr  Zr20  1  0.42359391  0.79208571  0.54706890  1
  Zr  Zr21  1  0.67685413  0.02983448  0.80184325  1
  Zr  Zr22  1  0.48091360  0.04019780  0.09515991  1
  Zr  Zr23  1  0.79670594  0.17390387  0.71745408  1
  Zr  Zr24  1  0.26785369  0.34894411  0.03520383  1
  Zr  Zr25  1  0.13195341  0.04526207  0.65114995  1
  Zr  Zr26  1  0.74829711  0.84163613  0.37247477  1
  Zr  Zr27  1  0.42309963  0.74317427  0.82174542  1
  Zr  Zr28  1  0.52112098  0.22357318  0.44584420  1
  Zr  Zr29  1  0.13156609  0.99838165  0.86466871  1
  Zr  Zr30  1  0.41595137  0.07043632  0.30182698  1
  Zr  Zr31  1  0.32788843  0.96011047  0.95735264  1
  Zr  Zr32  1  0.31000513  0.92793025  0.74041625  1
  Zr  Zr33  1  0.36485504  0.75663310  0.02334537  1
  Zr  Zr34  1  0.08251110  0.62967693  0.58361954  1
  Zr  Zr35  1  0.44003332  0.41944930  0.14916474  1
  Zr  Zr36  1  0.26402202  0.72148047  0.66963116  1
  Zr  Zr37  1  -0.00632643  0.77860642  0.89168578  1
  Zr  Zr38  1  0.22829174  0.50360766  0.69873107  1
  Zr  Zr39  1  0.90584122  0.32931984  0.24364013  1
  Zr  Zr40  1  0.31186573  0.28302626  0.25406046  1
  Zr  Zr41  1  0.91369550  0.95762252  0.76148571  1
  Zr  Zr42  1  0.65742936  0.29972824  0.62926121  1
  Zr  Zr43  1  0.96023500  0.97049451  0.98118897  1
  Zr  Zr44  1  0.75651642  0.61812391  0.75491997  1
  Zr  Zr45  1  0.48487319  0.08409966  0.85710404  1
  Zr  Zr46  1  0.53273874  0.46899059  0.34300492  1
  Zr  Zr47  1  0.85931677  0.89793433  0.53883817  1
  Zr  Zr48  1  0.88268147  0.32087889  0.60267058  1
  Zr  Zr49  1  -0.02977916  0.17490359  1.04116307  1
  Sc  Sc50  1  0.31207243  0.53029888  0.30723527  1
  Sc  Sc51  1  0.12772356  0.46229046  0.21643028  1
  Sc  Sc52  1  0.69680364  0.32431018  0.22167521  1
  Sc  Sc53  1  0.43626248  0.01164988  0.51488447  1
  Sc  Sc54  1  0.05108490  0.83539937  0.50344776  1
  Sc  Sc55  1  0.51932756  0.89830567  0.72618862  1
  Sc  Sc56  1  0.62206463  0.73018531  0.07019585  1
  Sc  Sc57  1  0.36646406  0.57059896  0.52984194  1
  Sc  Sc58  1  0.51437605  0.23134016  0.20456389  1
  Sc  Sc59  1  0.33054089  0.13031286  0.67592392  1
  Sc  Sc60  1  0.56118005  0.11351658  0.64720429  1
  Sc  Sc61  1  0.81020009  0.48749841  0.10939366  1
  Sc  Sc62  1  1.01036000  0.15769303  0.78156759  1
  Sc  Sc63  1  0.82236125  0.68765539  0.21294578  1
  Sc  Sc64  1  0.80707485  0.12682614  0.16028266  1
  Sc  Sc65  1  0.29071421  0.60072289  0.87762570  1
  Sc  Sc66  1  0.55955324  0.67361302  0.66529094  1
  Sc  Sc67  1  0.64458252  0.13477927  0.02121837  1
  Sc  Sc68  1  0.13351077  0.25580127  0.15133020  1
  Sc  Sc69  1  0.28104894  0.55160874  0.08546210  1
  Sc  Sc70  1  0.62124000  0.69736779  0.28533617  1
  Sc  Sc71  1  0.29159045  0.16255750  0.88154279  1
  Sc  Sc72  1  0.13718883  0.88519826  0.28853772  1
  Sc  Sc73  1  0.56740201  0.47970476  0.77298302  1
  Sc  Sc74  1  0.71124730  0.49927690  0.92882340  1
  Sc  Sc75  1  0.62493226  0.52970498  0.15577117  1
  Sc  Sc76  1  0.91827306  0.66590818  0.42863389  1
  Sc  Sc77  1  0.85092374  0.03241828  0.35562440  1
  Sc  Sc78  1  0.17175034  0.45862253  0.49116432  1
  Sc  Sc79  1  0.74651086  0.70725661  0.54390334  1
  Sc  Sc80  1  0.77781175  0.90382216  0.16579450  1
  Sc  Sc81  1  0.73300269  0.32448863  0.42855850  1
  Sc  Sc82  1  0.12717605  0.46383771  0.90573218  1
  Sc  Sc83  1  0.54310589  0.89209258  0.94708482  1
  Sc  Sc84  1  0.09245470  0.25351982  0.57457218  1
  Sc  Sc85  1  0.24123535  0.91914336  0.53155009  1
  Sc  Sc86  1  0.07106718  0.67825324  0.25411687  1
  Sc  Sc87  1  0.20671781  0.08259090  0.27238062  1
  Sc  Sc88  1  0.54083426  0.87506055  0.38406749  1
  Sc  Sc89  1  0.63390058  0.05577371  0.28958030  1
  Sc  Sc90  1  0.11774778  0.29192571  0.36726778  1
  Sc  Sc91  1  0.71028754  0.49931651  0.56490832  1
  Sc  Sc92  1  0.27230714  0.15591691  0.46613800  1
  Sc  Sc93  1  0.76238164  0.89071942  0.94704542  1
  Sc  Sc94  1  0.22596180  0.71235012  0.43229433  1
  Sc  Sc95  1  0.73445870  0.82768565  0.74045720  1
  Sc  Sc96  1  0.72764079  0.11561393  0.50544624  1
  Sc  Sc97  1  0.64413069  0.91332098  0.56089449  1
  Sc  Sc98  1  0.26979813  0.73648738  0.20666205  1
  Sc  Sc99  1  0.93327632  0.08918570  0.58238659  1
  Nb  Nb100  1  0.92004803  0.22411343  0.42748533  1
  Nb  Nb101  1  0.61597207  0.70292472  0.86914346  1
  Nb  Nb102  1  0.03742805  0.43353106  0.69550236  1
  Nb  Nb103  1  0.30456512  0.94405952  0.15622320  1
  Nb  Nb104  1  -0.01549318  0.59198866  0.06821866  1
  Nb  Nb105  1  0.14746970  0.06232405  0.06383062  1
  Nb  Nb106  1  0.90239222  0.54627188  0.62744293  1
  Nb  Nb107  1  0.31926077  0.15109694  0.09636394  1
  Nb  Nb108  1  0.42380949  0.70002338  0.35523138  1
  Nb  Nb109  1  0.33733869  0.89000838  0.35205199  1
  Nb  Nb110  1  0.45300882  0.63008761  0.17366311  1
  Nb  Nb111  1  0.79692265  0.29896607  0.02394556  1
  Nb  Nb112  1  0.14850599  0.86720347  0.05930765  1
  Nb  Nb113  1  0.17641751  0.29577444  0.76192958  1
  Nb  Nb114  1  0.13759877  0.67513194  0.01036420  1
  Nb  Nb115  1  0.12131308  0.24275959  0.94146823  1
  Nb  Nb116  1  0.61086324  0.36162897  0.03726864  1
  Nb  Nb117  1  0.98952954  0.97821089  0.17740428  1
  Nb  Nb118  1  0.78829712  0.41398577  0.74958503  1
  Nb  Nb119  1  0.93840019  0.84960714  0.32132985  1
  Nb  Nb120  1  0.21275982  0.79746333  0.87055528  1
  Nb  Nb121  1  0.56625694  0.63164806  0.46549357  1
  Nb  Nb122  1  0.10308628  0.84385425  0.70825979  1
  Nb  Nb123  1  0.09640333  0.64000537  0.78547738  1
  Nb  Nb124  1  0.93973205  0.52226387  0.25920023  1
