# generated using pymatgen
data_Zr2Sc2Nb
_symmetry_space_group_name_H-M   'P 1'
_cell_length_a   14.23118711
_cell_length_b   14.27487812
_cell_length_c   14.23303211
_cell_angle_alpha   90.81624884
_cell_angle_beta   89.70791161
_cell_angle_gamma   90.18280340
_symmetry_Int_Tables_number   1
_chemical_formula_structural   Zr2Sc2Nb
_chemical_formula_sum   'Zr50 Sc50 Nb25'
_cell_volume   2891.07354250
_cell_formula_units_Z   25
loop_
 _symmetry_equiv_pos_site_id
 _symmetry_equiv_pos_as_xyz
  1  'x, y, z'
loop_
 _atom_site_type_symbol
 _atom_site_label
 _atom_site_symmetry_multiplicity
 _atom_site_fract_x
 _atom_site_fract_y
 _atom_site_fract_z
 _atom_site_occupancy
  Zr  Zr0  1  0.05050244  0.94794412  0.83564421  1
  Zr  Zr1  1  0.05110171  0.14510832  0.94151915  1
  Zr  Zr2  1  0.54924740  0.73225783  0.09739520  1
  Zr  Zr3  1  0.24241464  0.85974884  0.95230159  1
  Zr  Zr4  1  0.69053384  0.11524548  0.51819504  1
  Zr  Zr5  1  0.66177114  0.66865066  0.36852906  1
  Zr  Zr6  1  0.75735163  0.63474762  0.16655260  1
  Zr  Zr7  1  0.23395821  0.05157156  0.28690016  1
  Zr  Zr8  1  0.66760682  0.35203288  0.83651341  1
  Zr  Zr9  1  0.29004471  0.43278355  0.91134799  1
  Zr  Zr10  1  0.86993126  0.07097114  0.91081556  1
  Zr  Zr11  1  0.62523211  0.28398581  0.64718077  1
  Zr  Zr12  1  0.35273958  0.43525488  0.11697056  1
  Zr  Zr13  1  0.92162924  0.47976676  0.07970021  1
  Zr  Zr14  1  0.15298242  0.48660769  0.08155568  1
  Zr  Zr15  1  0.72649081  0.75926043  0.55538828  1
  Zr  Zr16  1  0.88040393  0.14043853  0.45769765  1
  Zr  Zr17  1  0.98326570  0.04883924  0.13254244  1
  Zr  Zr18  1  0.30949893  0.63855215  0.89664332  1
  Zr  Zr19  1  0.43127241  0.92470712  0.77610541  1
  Zr  Zr20  1  0.70676407  0.25205677  0.30522443  1
  Zr  Zr21  1  0.32640471  0.47419758  0.33968093  1
  Zr  Zr22  1  0.34043408  0.08842218  0.65034896  1
  Zr  Zr23  1  0.36289019  0.71834678  0.70850599  1
  Zr  Zr24  1  0.53709594  0.35147134  0.01278220  1
  Zr  Zr25  1  0.63956095  0.06426286  0.31206620  1
  Zr  Zr26  1  0.12620803  0.12008609  0.52768489  1
  Zr  Zr27  1  0.79707508  0.93488183  0.06908014  1
  Zr  Zr28  1  0.89427017  0.79164523  0.16171549  1
  Zr  Zr29  1  0.87954898  0.46242591  0.86260610  1
  Zr  Zr30  1  0.21818565  0.24778220  0.90108049  1
  Zr  Zr31  1  0.31280369  0.22941895  0.47004062  1
  Zr  Zr32  1  0.12819735  0.69132500  0.61455959  1
  Zr  Zr33  1  0.50557122  0.54564681  0.41449542  1
  Zr  Zr34  1  0.73624434  0.42501322  0.18560142  1
  Zr  Zr35  1  0.71233707  0.96812204  0.66466451  1
  Zr  Zr36  1  0.76885784  0.33784190  0.49625256  1
  Zr  Zr37  1  0.55382748  0.54560164  0.18264324  1
  Zr  Zr38  1  0.70496142  0.53126327  0.98301013  1
  Zr  Zr39  1  0.36262671  0.22138689  0.06082727  1
  Zr  Zr40  1  0.01137004  0.62920359  0.19584764  1
  Zr  Zr41  1  0.15722115  0.74186863  0.81627950  1
  Zr  Zr42  1  0.15115312  0.10196853  0.73822301  1
  Zr  Zr43  1  0.14014605  0.69531483  0.04640500  1
  Zr  Zr44  1  0.28980174  0.82946989  0.37071901  1
  Zr  Zr45  1  0.74876290  0.32260862  0.02333414  1
  Zr  Zr46  1  0.06426753  0.69743409  0.40008811  1
  Zr  Zr47  1  0.59185447  0.96650396  0.10350120  1
  Zr  Zr48  1  0.02467290  0.02463433  0.34744455  1
  Zr  Zr49  1  0.23636126  0.53401994  0.70806418  1
  Sc  Sc50  1  0.49230837  0.54231992  0.96496931  1
  Sc  Sc51  1  0.36135193  0.45226445  0.55145078  1
  Sc  Sc52  1  0.93999843  0.27182422  0.09817279  1
  Sc  Sc53  1  0.44347372  0.86685304  -0.01872912  1
  Sc  Sc54  1  0.82803849  0.98070252  0.28936752  1
  Sc  Sc55  1  0.23425728  0.31049962  0.69499265  1
  Sc  Sc56  1  0.67508949  0.53229832  0.75004903  1
  Sc  Sc57  1  0.79183350  0.18445744  0.71424055  1
  Sc  Sc58  1  0.34761461  0.64792254  0.09560308  1
  Sc  Sc59  1  0.43822178  0.25978986  0.83954897  1
  Sc  Sc60  1  0.67408404  0.83530208  0.24258491  1
  Sc  Sc61  1  0.44192813  0.70323612  0.28284053  1
  Sc  Sc62  1  0.90308434  0.36701184  0.32388311  1
  Sc  Sc63  1  0.47410135  0.93488397  0.31866063  1
  Sc  Sc64  1  0.32906770  0.65957735  0.49767988  1
  Sc  Sc65  1  0.14814155  0.26166467  0.11334916  1
  Sc  Sc66  1  0.71663983  0.75137077  0.99102506  1
  Sc  Sc67  1  0.43803858  0.14877672  0.29589340  1
  Sc  Sc68  1  0.73275271  0.73270417  0.76373260  1
  Sc  Sc69  1  0.10610050  0.45487733  0.29880993  1
  Sc  Sc70  1  0.22131257  0.64216328  0.26869416  1
  Sc  Sc71  1  0.13177341  0.90155977  0.46493712  1
  Sc  Sc72  1  0.51127914  0.35427620  0.23593766  1
  Sc  Sc73  1  0.19134498  0.03787723  0.07564220  1
  Sc  Sc74  1  0.08129767  0.23190908  0.34390590  1
  Sc  Sc75  1  0.15284282  0.35733182  0.50676357  1
  Sc  Sc76  1  0.63728455  0.92837564  0.87581761  1
  Sc  Sc77  1  0.06138537  0.88618589  0.64227060  1
  Sc  Sc78  1  0.67126623  0.15030518  0.91046493  1
  Sc  Sc79  1  0.53384866  0.70809665  0.84620356  1
  Sc  Sc80  1  0.29816768  0.05497909  0.89139473  1
  Sc  Sc81  1  0.31000897  0.85207402  0.16282253  1
  Sc  Sc82  1  0.09988205  0.84941317  0.23217774  1
  Sc  Sc83  1  0.01961933  0.26937326  0.75207545  1
  Sc  Sc84  1  0.08382820  0.55258766  0.87251132  1
  Sc  Sc85  1  0.45605388  0.47579930  0.75225545  1
  Sc  Sc86  1  0.77081440  0.12968415  0.11562695  1
  Sc  Sc87  1  0.94822947  0.06875148  0.66190018  1
  Sc  Sc88  1  0.54890350  0.10074136  0.72466200  1
  Sc  Sc89  1  0.02413490  0.86957817  0.01650343  1
  Sc  Sc90  1  0.86206537  0.57782000  0.34207345  1
  Sc  Sc91  1  0.96273336  0.49802464  0.50347949  1
  Sc  Sc92  1  0.57073681  0.17855394  0.12157883  1
  Sc  Sc93  1  0.28413696  0.28506530  0.26582844  1
  Sc  Sc94  1  0.50407469  0.78045908  0.47121567  1
  Sc  Sc95  1  0.85229627  0.86823288  0.87915576  1
  Sc  Sc96  1  0.85866815  0.78556053  0.36778164  1
  Sc  Sc97  1  0.52668134  0.31955173  0.43538890  1
  Sc  Sc98  1  0.88537920  0.59028848  0.69231602  1
  Sc  Sc99  1  0.91992818  0.66643123  0.97414506  1
  Nb  Nb100  1  0.32846641  0.86606368  0.57765614  1
  Nb  Nb101  1  0.55980265  0.82545147  0.67010671  1
  Nb  Nb102  1  0.39782731  0.03330829  0.12185253  1
  Nb  Nb103  1  0.67972204  0.46271751  0.36645303  1
  Nb  Nb104  1  0.49742695  0.13484047  0.49613800  1
  Nb  Nb105  1  0.51016604  0.96586709  0.55690750  1
  Nb  Nb106  1  0.16767496  0.54473320  0.48813132  1
  Nb  Nb107  1  0.05430900  0.36361991  0.94060720  1
  Nb  Nb108  1  0.93042851  0.72060640  0.55024212  1
  Nb  Nb109  1  0.43506072  0.28099357  0.62957162  1
  Nb  Nb110  1  0.54872460  0.63586287  0.61338331  1
  Nb  Nb111  1  0.58644334  0.45384782  0.57486498  1
  Nb  Nb112  1  0.05110422  0.45791662  0.67908556  1
  Nb  Nb113  1  0.97431898  0.73868926  0.77775702  1
  Nb  Nb114  1  0.89412447  0.17212564  0.26883097  1
  Nb  Nb115  1  0.88650317  0.93611939  0.50253507  1
  Nb  Nb116  1  0.87241622  0.26952591  0.88713493  1
  Nb  Nb117  1  0.83315965  0.38778574  0.67961541  1
  Nb  Nb118  1  0.68046812  0.91563530  0.44877063  1
  Nb  Nb119  1  0.23657364  0.90901230  0.73811201  1
  Nb  Nb120  1  0.32597707  0.02143168  0.45658279  1
  Nb  Nb121  1  0.87111515  0.86132241  0.67915051  1
  Nb  Nb122  1  0.48715022  0.07714104  0.94848287  1
  Nb  Nb123  1  0.75142122  0.55599464  0.53720910  1
  Nb  Nb124  1  0.96605590  0.28730116  0.55488831  1
