# generated using pymatgen
data_Zr2Sc2Nb
_symmetry_space_group_name_H-M   'P 1'
_cell_length_a   14.15088325
_cell_length_b   14.15742556
_cell_length_c   14.41108519
_cell_angle_alpha   88.97952766
_cell_angle_beta   90.55048879
_cell_angle_gamma   88.28901986
_symmetry_Int_Tables_number   1
_chemical_formula_structural   Zr2Sc2Nb
_chemical_formula_sum   'Zr50 Sc50 Nb25'
_cell_volume   2885.22449254
_cell_formula_units_Z   25
loop_
 _symmetry_equiv_pos_site_id
 _symmetry_equiv_pos_as_xyz
  1  'x, y, z'
loop_
 _atom_site_type_symbol
 _atom_site_label
 _atom_site_symmetry_multiplicity
 _atom_site_fract_x
 _atom_site_fract_y
 _atom_site_fract_z
 _atom_site_occupancy
  Zr  Zr0  1  0.08768608  0.77896244  0.66116818  1
  Zr  Zr1  1  0.41681876  0.89126929  0.12653058  1
  Zr  Zr2  1  0.30114920  0.95824675  0.32440688  1
  Zr  Zr3  1  0.91103424  0.73138061  0.00577274  1
  Zr  Zr4  1  0.05899616  0.51372428  0.29738221  1
  Zr  Zr5  1  0.58250271  0.66531308  0.86818551  1
  Zr  Zr6  1  0.79692751  0.23328940  0.28080498  1
  Zr  Zr7  1  0.82542821  0.43375019  0.83857554  1
  Zr  Zr8  1  0.10267412  0.45144249  0.51663342  1
  Zr  Zr9  1  0.48647875  0.07804058  0.24152486  1
  Zr  Zr10  1  0.79554063  0.35891246  0.64862370  1
  Zr  Zr11  1  0.73726699  0.34721583  0.10383178  1
  Zr  Zr12  1  0.04242916  0.87931740  0.95529613  1
  Zr  Zr13  1  0.63410439  0.91456126  0.13843646  1
  Zr  Zr14  1  0.75128151  0.72984532  0.13675286  1
  Zr  Zr15  1  0.07373374  0.03426975  0.07375130  1
  Zr  Zr16  1  0.99563844  0.41894759  0.71171398  1
  Zr  Zr17  1  0.49438390  0.47547345  0.44359261  1
  Zr  Zr18  1  0.18262319  0.34601195  0.26379839  1
  Zr  Zr19  1  0.96829863  0.33785924  0.17964654  1
  Zr  Zr20  1  0.46544718  0.49767581  0.85577867  1
  Zr  Zr21  1  0.87625751  0.84070244  0.63754941  1
  Zr  Zr22  1  0.74564236  0.24934631  0.92151219  1
  Zr  Zr23  1  0.71935588  0.12150370  0.51230970  1
  Zr  Zr24  1  0.50772752  0.88713086  0.33242299  1
  Zr  Zr25  1  0.84687220  0.89793397  0.83980192  1
  Zr  Zr26  1  0.68459324  0.13699448  0.12891815  1
  Zr  Zr27  1  0.94137980  0.12442711  0.44367919  1
  Zr  Zr28  1  0.03064784  0.94632600  0.53972074  1
  Zr  Zr29  1  0.69654913  0.03017207  0.31981590  1
  Zr  Zr30  1  0.30765776  0.34117564  0.07858288  1
  Zr  Zr31  1  0.89634248  0.17336528  0.07677112  1
  Zr  Zr32  1  0.36895567  0.65031306  0.51000235  1
  Zr  Zr33  1  0.28843098  0.51867486  0.73726272  1
  Zr  Zr34  1  0.04693001  0.95933804  0.76594826  1
  Zr  Zr35  1  0.48675105  0.50906093  0.64856717  1
  Zr  Zr36  1  0.63804191  0.89479849  0.53337860  1
  Zr  Zr37  1  0.94035065  0.23426778  0.77104289  1
  Zr  Zr38  1  0.49649682  0.08464222  0.04091275  1
  Zr  Zr39  1  0.83736366  0.92717547  0.44743410  1
  Zr  Zr40  1  0.12953054  0.24127195  0.06611777  1
  Zr  Zr41  1  0.29648510  0.73084085  0.68858794  1
  Zr  Zr42  1  0.30791641  0.43487957  0.54416213  1
  Zr  Zr43  1  0.42549401  0.26624577  0.46716050  1
  Zr  Zr44  1  0.52747957  0.10510229  0.63762104  1
  Zr  Zr45  1  0.63003297  0.41103384  0.29760712  1
  Zr  Zr46  1  0.90923927  0.08044421  0.89871996  1
  Zr  Zr47  1  0.26132617  0.53850867  0.96101713  1
  Zr  Zr48  1  0.83114047  0.46268270  0.28812376  1
  Zr  Zr49  1  0.51021889  0.13751939  0.83523325  1
  Sc  Sc50  1  0.14023952  0.38210737  0.88110786  1
  Sc  Sc51  1  0.37447244  0.71907642  0.89598825  1
  Sc  Sc52  1  0.18272600  0.25600936  0.47016855  1
  Sc  Sc53  1  0.10031759  0.14840416  0.26693340  1
  Sc  Sc54  1  0.11396934  0.14399637  0.86701216  1
  Sc  Sc55  1  0.60579427  0.30848455  0.56808525  1
  Sc  Sc56  1  0.65049243  0.94739347  0.74185613  1
  Sc  Sc57  1  0.51093681  0.27457567  0.17099410  1
  Sc  Sc58  1  0.05607432  0.91502344  0.32787789  1
  Sc  Sc59  1  0.22454880  0.94436860  0.64598235  1
  Sc  Sc60  1  0.55026829  0.69747334  0.44329099  1
  Sc  Sc61  1  0.98949483  0.72205543  0.47716905  1
  Sc  Sc62  1  0.88456512  0.06503051  0.65209512  1
  Sc  Sc63  1  0.42140085  0.29609950  0.68232162  1
  Sc  Sc64  1  0.32510384  0.09949627  0.54722470  1
  Sc  Sc65  1  0.72990456  0.74518232  0.73501873  1
  Sc  Sc66  1  0.18597571  0.30482024  0.68434904  1
  Sc  Sc67  1  0.88062251  0.52245223  0.07602718  1
  Sc  Sc68  1  0.42521236  0.92782718  0.73140458  1
  Sc  Sc69  1  0.69042380  0.50465577  0.50772076  1
  Sc  Sc70  1  0.90169145  0.67125321  0.28537495  1
  Sc  Sc71  1  0.68721242  0.03686623  0.93514349  1
  Sc  Sc72  1  0.84385708  0.94560308  0.05861233  1
  Sc  Sc73  1  0.25574116  0.92960074  0.90257365  1
  Sc  Sc74  1  0.34398003  0.32663454  0.86530107  1
  Sc  Sc75  1  0.90256452  0.50313977  0.49636603  1
  Sc  Sc76  1  0.38646248  0.37844513  0.29217514  1
  Sc  Sc77  1  0.50683951  0.89950106  0.92390806  1
  Sc  Sc78  1  0.50844206  0.06208969  0.44349727  1
  Sc  Sc79  1  0.28162622  0.08467767  0.15084777  1
  Sc  Sc80  1  0.14168444  0.70755033  0.29791750  1
  Sc  Sc81  1  0.09598137  0.58361432  0.71310797  1
  Sc  Sc82  1  0.65544204  0.55115133  0.12621132  1
  Sc  Sc83  1  0.26133587  0.53791915  0.18198460  1
  Sc  Sc84  1  0.53263156  0.30122360  0.97156041  1
  Sc  Sc85  1  0.52135032  0.73223202  0.66423974  1
  Sc  Sc86  1  0.15579608  0.71817769  0.86965826  1
  Sc  Sc87  1  0.71461427  0.16520013  0.73460262  1
  Sc  Sc88  1  0.40675906  0.87773505  0.52181177  1
  Sc  Sc89  1  0.20870081  0.82224141  0.46837317  1
  Sc  Sc90  1  0.20695598  0.85870524  0.13631066  1
  Sc  Sc91  1  0.45976852  0.50721344  0.06791769  1
  Sc  Sc92  1  0.77070296  0.70267365  0.51156141  1
  Sc  Sc93  1  0.30135053  0.11699968  0.75323222  1
  Sc  Sc94  1  0.67579027  0.53800897  0.72436296  1
  Sc  Sc95  1  0.11034988  0.66270759  0.07781203  1
  Sc  Sc96  1  0.31047905  0.14170029  0.96140399  1
  Sc  Sc97  1  0.91144146  0.04986331  0.24050413  1
  Sc  Sc98  1  -0.01142710  0.32302879  0.37919168  1
  Sc  Sc99  1  0.95528225  0.33867344  0.96538693  1
  Nb  Nb100  1  0.68913828  0.60960525  0.32254642  1
  Nb  Nb101  1  0.70465849  0.81267201  0.94665355  1
  Nb  Nb102  1  0.35539151  0.69710149  0.10983059  1
  Nb  Nb103  1  0.34975920  0.74037654  0.30568436  1
  Nb  Nb104  1  0.78741434  0.62318248  0.90079961  1
  Nb  Nb105  1  0.17772351  0.62714558  0.53068858  1
  Nb  Nb106  1  0.94993992  0.72715638  0.80690388  1
  Nb  Nb107  1  0.54703973  0.73035846  0.22306055  1
  Nb  Nb108  1  0.09763607  0.12381117  0.63114878  1
  Nb  Nb109  1  0.59952361  0.22808008  0.36048299  1
  Nb  Nb110  1  0.60588026  0.34690779  0.78051083  1
  Nb  Nb111  1  0.26795713  0.53881279  0.37696357  1
  Nb  Nb112  1  -0.00111397  0.83118267  0.15555672  1
  Nb  Nb113  1  0.54384075  0.72160392  0.04397569  1
  Nb  Nb114  1  0.46309954  0.57458573  0.27002285  1
  Nb  Nb115  1  0.65681327  0.46835287  0.93943256  1
  Nb  Nb116  1  0.69548467  0.80788085  0.34094317  1
  Nb  Nb117  1  0.16266873  0.05214075  0.44287708  1
  Nb  Nb118  1  0.84239456  0.86867296  0.25417768  1
  Nb  Nb119  1  0.32054010  0.17105372  0.33080313  1
  Nb  Nb120  1  0.97383499  0.27389512  0.57235618  1
  Nb  Nb121  1  0.10191398  0.45185289  0.07850866  1
  Nb  Nb122  1  0.87865270  0.59554724  0.68986820  1
  Nb  Nb123  1  0.00164865  0.55266777  0.89954281  1
  Nb  Nb124  1  0.78655651  0.31500371  0.45089225  1
