# generated using pymatgen
data_Zr2Sc2Nb
_symmetry_space_group_name_H-M   'P 1'
_cell_length_a   13.85062820
_cell_length_b   14.23509579
_cell_length_c   14.58583658
_cell_angle_alpha   88.46163750
_cell_angle_beta   90.13026735
_cell_angle_gamma   89.94308444
_symmetry_Int_Tables_number   1
_chemical_formula_structural   Zr2Sc2Nb
_chemical_formula_sum   'Zr50 Sc50 Nb25'
_cell_volume   2874.77120029
_cell_formula_units_Z   25
loop_
 _symmetry_equiv_pos_site_id
 _symmetry_equiv_pos_as_xyz
  1  'x, y, z'
loop_
 _atom_site_type_symbol
 _atom_site_label
 _atom_site_symmetry_multiplicity
 _atom_site_fract_x
 _atom_site_fract_y
 _atom_site_fract_z
 _atom_site_occupancy
  Zr  Zr0  1  0.47617775  0.57123014  0.25107619  1
  Zr  Zr1  1  0.72786092  0.27541974  0.41845373  1
  Zr  Zr2  1  0.77342299  0.81643747  0.69928049  1
  Zr  Zr3  1  0.90045573  0.28797542  0.55968371  1
  Zr  Zr4  1  0.03896707  0.11196613  0.83709225  1
  Zr  Zr5  1  0.26035151  0.54465168  0.73587988  1
  Zr  Zr6  1  0.69823108  0.22735064  0.63590221  1
  Zr  Zr7  1  0.54451140  0.85308956  0.56749025  1
  Zr  Zr8  1  0.19285964  0.94520347  0.52930159  1
  Zr  Zr9  1  0.26876615  0.47163307  0.35151520  1
  Zr  Zr10  1  0.99065496  0.05484988  0.04142323  1
  Zr  Zr11  1  0.63056606  0.89606970  0.35170108  1
  Zr  Zr12  1  0.42477881  0.90697863  0.37210637  1
  Zr  Zr13  1  0.67697499  0.57103024  0.63127775  1
  Zr  Zr14  1  0.03933339  0.58567054  0.76400967  1
  Zr  Zr15  1  0.91848027  0.06422230  0.23940178  1
  Zr  Zr16  1  0.35680496  0.75348789  0.71108815  1
  Zr  Zr17  1  0.55611896  0.66596366  1.07180364  1
  Zr  Zr18  1  0.13290020  0.89997235  0.12668755  1
  Zr  Zr19  1  0.03223958  0.29317301  0.71016394  1
  Zr  Zr20  1  0.72912836  0.30032911  0.21006743  1
  Zr  Zr21  1  0.95190156  0.25795950  0.95554031  1
  Zr  Zr22  1  0.28211290  0.08538798  0.36609622  1
  Zr  Zr23  1  0.06384204  0.88589336  0.92913838  1
  Zr  Zr24  1  0.46199257  0.40138725  0.64348978  1
  Zr  Zr25  1  0.28413099  0.53179472  0.53853939  1
  Zr  Zr26  1  0.59103875  0.71918950  0.72740750  1
  Zr  Zr27  1  0.03462994  0.94852191  0.34132979  1
  Zr  Zr28  1  0.00275934  0.78884228  0.46747866  1
  Zr  Zr29  1  0.92857058  0.24513419  0.14652780  1
  Zr  Zr30  1  0.50851742  0.70141843  0.40072259  1
  Zr  Zr31  1  0.37791733  0.21066027  0.89217796  1
  Zr  Zr32  1  0.36939540  0.12378217  0.09127642  1
  Zr  Zr33  1  0.14315700  0.92980607  0.73473427  1
  Zr  Zr34  1  0.29337279  0.68805799  0.28538410  1
  Zr  Zr35  1  0.85749157  0.45697778  0.70059595  1
  Zr  Zr36  1  0.96371734  0.64490016  0.94394330  1
  Zr  Zr37  1  0.39769280  0.54681656  0.96942912  1
  Zr  Zr38  1  0.21184138  0.05934094  -0.02909277  1
  Zr  Zr39  1  0.71391665  0.50042500  0.12256806  1
  Zr  Zr40  1  0.82466244  0.46713181  -0.05957681  1
  Zr  Zr41  1  0.72731473  0.28287975  0.00198622  1
  Zr  Zr42  1  0.96822354  0.93919751  0.58441245  1
  Zr  Zr43  1  0.42417403  0.03695764  0.52178484  1
  Zr  Zr44  1  0.18849409  0.50392241  0.94137122  1
  Zr  Zr45  1  0.68970022  0.86832730  0.10611955  1
  Zr  Zr46  1  0.05176366  0.75012194  0.26005583  1
  Zr  Zr47  1  0.51334951  0.42966652  0.12474600  1
  Zr  Zr48  1  0.21197179  0.86548053  0.34196085  1
  Zr  Zr49  1  0.64558916  0.78136272  0.90673156  1
  Sc  Sc50  1  0.64380159  0.05541557  0.50032359  1
  Sc  Sc51  1  0.71074589  0.70836754  0.47325110  1
  Sc  Sc52  1  0.70689628  0.09705924  0.29417887  1
  Sc  Sc53  1  0.12069285  0.68506811  0.07021394  1
  Sc  Sc54  1  0.89254129  0.66076494  0.60109273  1
  Sc  Sc55  1  0.98258135  0.77763734  0.76161907  1
  Sc  Sc56  1  0.90625102  0.63249876  0.36015124  1
  Sc  Sc57  1  1.00981739  0.42559942  0.86011917  1
  Sc  Sc58  1  0.91649489  0.84243788  0.11442242  1
  Sc  Sc59  1  0.25606399  0.32027410  0.67146094  1
  Sc  Sc60  1  0.09575206  0.55056079  0.23602425  1
  Sc  Sc61  1  0.12588392  0.30401912  0.50055275  1
  Sc  Sc62  1  0.84910315  0.47550222  0.48463285  1
  Sc  Sc63  1  0.47480502  0.55545596  0.77365469  1
  Sc  Sc64  1  0.62044823  0.18213294  0.82358645  1
  Sc  Sc65  1  0.52686158  0.23902977  0.50783911  1
  Sc  Sc66  1  0.44242783  0.17084588  0.69131218  1
  Sc  Sc67  1  0.33639354  0.94185177  0.17989979  1
  Sc  Sc68  1  0.81648755  0.09248819  0.89121257  1
  Sc  Sc69  1  0.48329896  0.48471674  0.45311000  1
  Sc  Sc70  1  0.07997697  0.12037595  0.42816699  1
  Sc  Sc71  1  0.49905571  0.79782603  0.20937211  1
  Sc  Sc72  1  0.14500736  0.72229949  0.62340143  1
  Sc  Sc73  1  0.53393244  0.35188670  0.94340754  1
  Sc  Sc74  1  0.65308019  0.40126147  0.76880043  1
  Sc  Sc75  1  0.53768285  0.34369977  0.31987775  1
  Sc  Sc76  1  0.75386773  0.08545649  0.09282671  1
  Sc  Sc77  1  0.34117459  0.27917425  0.23737562  1
  Sc  Sc78  1  0.62812017  0.55950555  0.91384526  1
  Sc  Sc79  1  0.14883761  0.09560804  0.20455656  1
  Sc  Sc80  1  0.02357378  0.43655971  0.07410736  1
  Sc  Sc81  1  0.86198670  0.08448115  0.46334807  1
  Sc  Sc82  1  0.28553197  0.51343868  0.14626585  1
  Sc  Sc83  1  0.71043053  0.69372129  0.23758919  1
  Sc  Sc84  1  0.29897031  0.88847280  0.88814545  1
  Sc  Sc85  1  0.33691571  0.29704234  0.45689594  1
  Sc  Sc86  1  0.84113338  0.85551228  0.91848167  1
  Sc  Sc87  1  0.12386150  0.31996199  0.25438934  1
  Sc  Sc88  1  0.83897359  0.85896633  0.31966115  1
  Sc  Sc89  1  0.32141462  0.76060711  0.50129530  1
  Sc  Sc90  1  0.32332445  0.34074301  0.03846897  1
  Sc  Sc91  1  0.17644356  0.28844569  0.87159127  1
  Sc  Sc92  1  0.06660378  0.49232098  0.59048302  1
  Sc  Sc93  1  0.68232657  0.00439452  0.70974349  1
  Sc  Sc94  1  0.19829839  0.70676630  0.86535957  1
  Sc  Sc95  1  0.88703327  0.44462533  0.25522170  1
  Sc  Sc96  1  0.33153081  0.74057019  0.07190536  1
  Sc  Sc97  1  0.68147310  0.50689178  0.34835047  1
  Sc  Sc98  1  0.49013392  0.12155951  0.32377178  1
  Sc  Sc99  1  0.93420133  0.26556843  0.35327819  1
  Nb  Nb100  1  0.55813131  0.12486077  0.00207464  1
  Nb  Nb101  1  0.54943298  0.22767470  0.14800090  1
  Nb  Nb102  1  0.80396568  0.63848490  0.80870719  1
  Nb  Nb103  1  0.13769857  0.63867452  0.42474563  1
  Nb  Nb104  1  0.77753060  0.89414655  0.51932528  1
  Nb  Nb105  1  0.66136108  0.40225130  0.54797359  1
  Nb  Nb106  1  0.83215831  0.28304621  0.79921945  1
  Nb  Nb107  1  0.44316778  0.72902586  0.89340881  1
  Nb  Nb108  1  0.48161888  0.89984390  1.01320698  1
  Nb  Nb109  1  0.77428522  0.67599309  0.02559980  1
  Nb  Nb110  1  0.51162276  0.89107578  0.78433842  1
  Nb  Nb111  1  0.34964920  0.96031647  0.68410670  1
  Nb  Nb112  1  0.25463500  0.13392872  0.57336652  1
  Nb  Nb113  1  0.55189982  1.00787139  0.16449465  1
  Nb  Nb114  1  0.92060050  0.96710786  0.76663485  1
  Nb  Nb115  1  0.24336797  0.10666755  0.76710263  1
  Nb  Nb116  1  0.06626036  0.11018117  0.63334461  1
  Nb  Nb117  1  0.04571774  0.45880466  0.39924102  1
  Nb  Nb118  1  0.47219729  0.63099023  0.58656117  1
  Nb  Nb119  1  0.64346956  0.97851826  0.92613634  1
  Nb  Nb120  1  0.91004463  0.62191547  0.14423007  1
  Nb  Nb121  1  0.43941481  0.03587490  0.86714149  1
  Nb  Nb122  1  0.86936859  0.12402783  0.67941030  1
  Nb  Nb123  1  0.35777038  0.39922575  0.83313111  1
  Nb  Nb124  1  0.13955941  0.23197394  0.05757192  1
