# generated using pymatgen
data_Zr2Sc2Nb
_symmetry_space_group_name_H-M   'P 1'
_cell_length_a   14.71317691
_cell_length_b   13.64152165
_cell_length_c   14.32220700
_cell_angle_alpha   89.65524199
_cell_angle_beta   90.16959514
_cell_angle_gamma   89.58810100
_symmetry_Int_Tables_number   1
_chemical_formula_structural   Zr2Sc2Nb
_chemical_formula_sum   'Zr50 Sc50 Nb25'
_cell_volume   2874.47261997
_cell_formula_units_Z   25
loop_
 _symmetry_equiv_pos_site_id
 _symmetry_equiv_pos_as_xyz
  1  'x, y, z'
loop_
 _atom_site_type_symbol
 _atom_site_label
 _atom_site_symmetry_multiplicity
 _atom_site_fract_x
 _atom_site_fract_y
 _atom_site_fract_z
 _atom_site_occupancy
  Zr  Zr0  1  0.73835847  0.93861632  0.72806616  1
  Zr  Zr1  1  0.69006979  0.75317092  0.86514233  1
  Zr  Zr2  1  0.39932813  0.31619057  0.39887505  1
  Zr  Zr3  1  0.71583883  0.40216816  0.10909287  1
  Zr  Zr4  1  0.15776932  0.41359136  0.91712441  1
  Zr  Zr5  1  0.47982122  0.65719271  0.52234993  1
  Zr  Zr6  1  0.37217066  0.87890956  0.36371927  1
  Zr  Zr7  1  0.82621682  0.20545982  0.87531051  1
  Zr  Zr8  1  0.53969616  0.28036245  0.19822343  1
  Zr  Zr9  1  0.89562419  0.52910013  0.12321731  1
  Zr  Zr10  1  0.47792871  0.15199025  0.82886042  1
  Zr  Zr11  1  0.42886289  0.90131471  1.01341159  1
  Zr  Zr12  1  0.49628306  0.44513945  0.56318230  1
  Zr  Zr13  1  0.86379210  0.85008360  0.90752857  1
  Zr  Zr14  1  0.75583780  0.01923649  0.94053795  1
  Zr  Zr15  1  0.25249847  0.29106579  0.06576576  1
  Zr  Zr16  1  0.80088985  0.74392782  0.69925581  1
  Zr  Zr17  1  0.64773623  0.06545759  0.22157099  1
  Zr  Zr18  1  0.98277257  0.28146335  0.57758870  1
  Zr  Zr19  1  0.96738140  0.88151824  0.70096726  1
  Zr  Zr20  1  0.50455734  0.91125833  0.20535756  1
  Zr  Zr21  1  0.78845974  0.46698741  0.30517439  1
  Zr  Zr22  1  0.76059361  0.19037784  0.08680082  1
  Zr  Zr23  1  0.57288822  0.94249349  0.86636893  1
  Zr  Zr24  1  0.40440843  0.08819920  0.49919763  1
  Zr  Zr25  1  0.67818042  0.60068714  0.42728891  1
  Zr  Zr26  1  0.83756542  0.92973049  0.53259522  1
  Zr  Zr27  1  0.16736659  0.87161789  0.77674974  1
  Zr  Zr28  1  0.29487420  0.53402454  0.52972612  1
  Zr  Zr29  1  0.62937848  0.28874989  0.93142493  1
  Zr  Zr30  1  1.03521855  0.95721051  0.10104112  1
  Zr  Zr31  1  0.32199270  0.72703510  0.68427564  1
  Zr  Zr32  1  0.65199356  0.59138858  0.63971808  1
  Zr  Zr33  1  -0.00648522  0.01261311  0.87041874  1
  Zr  Zr34  1  0.49205262  1.01921367  0.67866812  1
  Zr  Zr35  1  0.00043850  0.45799309  0.31646876  1
  Zr  Zr36  1  0.47436049  0.36763510  0.78647264  1
  Zr  Zr37  1  0.05612846  0.79121276  0.93307522  1
  Zr  Zr38  1  -0.00128478  0.45422506  0.80802667  1
  Zr  Zr39  1  0.77027377  0.18498154  0.55469340  1
  Zr  Zr40  1  0.43861683  0.28550424  0.00238757  1
  Zr  Zr41  1  0.29065937  0.90092849  0.16278919  1
  Zr  Zr42  1  0.38171167  0.43424708  0.18454913  1
  Zr  Zr43  1  0.23640086  0.56188302  0.07829366  1
  Zr  Zr44  1  0.53430893  0.73432349  0.33494673  1
  Zr  Zr45  1  0.09869323  0.41541531  0.14363350  1
  Zr  Zr46  1  0.08477418  0.04119949  0.29747551  1
  Zr  Zr47  1  0.37255561  0.89863409  0.81174638  1
  Zr  Zr48  1  0.08204797  0.52831050  0.63634133  1
  Zr  Zr49  1  0.52538599  0.47069384  0.03022390  1
  Sc  Sc50  1  0.65827937  0.85058849  0.06530107  1
  Sc  Sc51  1  0.59316505  0.39470931  0.38614229  1
  Sc  Sc52  1  0.62303041  0.53219796  0.85086431  1
  Sc  Sc53  1  0.79831871  0.42423114  0.90140800  1
  Sc  Sc54  1  0.14700604  0.39084266  0.48491024  1
  Sc  Sc55  1  0.05923197  0.90032676  0.49220078  1
  Sc  Sc56  1  0.13756338  0.73388926  0.61453683  1
  Sc  Sc57  1  0.66774507  0.36742032  0.72330053  1
  Sc  Sc58  1  0.95726392  0.09474213  0.47156526  1
  Sc  Sc59  1  0.66971371  0.79968420  0.51966537  1
  Sc  Sc60  1  0.84594721  0.53344801  0.69635891  1
  Sc  Sc61  1  0.39261802  0.11230142  0.14010247  1
  Sc  Sc62  1  0.07966615  0.07282611  0.66731595  1
  Sc  Sc63  1  0.29779305  0.27359770  0.84435655  1
  Sc  Sc64  1  0.56438605  0.08984583  0.02614111  1
  Sc  Sc65  1  0.45815230  0.58040125  0.72768663  1
  Sc  Sc66  1  0.05293286  0.25171081  0.34557754  1
  Sc  Sc67  1  0.45338683  0.86515086  0.54678805  1
  Sc  Sc68  1  0.25539604  0.93136601  0.56149666  1
  Sc  Sc69  1  0.24848428  0.24714114  0.27390504  1
  Sc  Sc70  1  0.15030092  0.82362464  0.31710310  1
  Sc  Sc71  1  0.55838258  0.78919431  0.70685098  1
  Sc  Sc72  1  0.22517821  0.49150954  0.31578697  1
  Sc  Sc73  1  0.68489211  0.61536714  0.03507777  1
  Sc  Sc74  1  0.28179037  0.08312373  0.73334409  1
  Sc  Sc75  1  0.92460063  0.48818899  0.49842454  1
  Sc  Sc76  1  0.91806559  0.75917778  0.11383789  1
  Sc  Sc77  1  0.46633425  0.68449046  0.12107097  1
  Sc  Sc78  1  0.27385925  0.47223817  0.72548251  1
  Sc  Sc79  1  0.59932013  0.17879518  0.41385425  1
  Sc  Sc80  1  0.92623736  0.89818483  0.31157939  1
  Sc  Sc81  1  0.73107005  0.67418026  0.21999334  1
  Sc  Sc82  1  0.07419993  0.63245502  0.21689510  1
  Sc  Sc83  1  0.74071221  0.40546580  0.53085795  1
  Sc  Sc84  1  0.28527685  0.73788198  0.94510041  1
  Sc  Sc85  1  0.13610871  0.15683146  0.93977802  1
  Sc  Sc86  1  0.90182149  0.66697997  0.34246093  1
  Sc  Sc87  1  0.49172780  0.70719408  0.90780720  1
  Sc  Sc88  1  0.96824740  0.34122352  -0.00510411  1
  Sc  Sc89  1  0.35679867  0.50813003  0.91808646  1
  Sc  Sc90  1  0.72341987  0.86415499  0.30674576  1
  Sc  Sc91  1  0.30464205  0.68567531  0.25166091  1
  Sc  Sc92  1  0.18913078  0.15632636  0.49576974  1
  Sc  Sc93  1  0.93984889  0.70899962  0.54926991  1
  Sc  Sc94  1  0.86688850  0.62857707  0.91705645  1
  Sc  Sc95  1  0.54471214  0.23185210  0.60415263  1
  Sc  Sc96  1  0.34013531  0.28509325  0.61080772  1
  Sc  Sc97  1  0.57801319  0.52639259  0.22879021  1
  Sc  Sc98  1  0.67390230  0.14133518  0.75050107  1
  Sc  Sc99  1  0.14559302  0.29984245  0.69935688  1
  Nb  Nb100  1  0.99879603  0.22866298  0.80888300  1
  Nb  Nb101  1  0.90257919  0.31304181  0.18911674  1
  Nb  Nb102  1  0.44651534  0.10304419  0.31516541  1
  Nb  Nb103  1  0.89645369  0.11740790  0.24572081  1
  Nb  Nb104  1  0.86328377  0.28365419  0.39754958  1
  Nb  Nb105  1  0.64434563  1.01878752  0.55790975  1
  Nb  Nb106  1  0.28492244  0.72023328  0.46059960  1
  Nb  Nb107  1  0.76998722  0.06147059  0.38074966  1
  Nb  Nb108  1  0.06466426  0.20224466  0.14481717  1
  Nb  Nb109  1  0.99511109  0.68326612  0.76969683  1
  Nb  Nb110  1  0.72885064  0.25929281  0.27850962  1
  Nb  Nb111  1  0.05503798  0.58831099  0.99153803  1
  Nb  Nb112  1  0.15319577  0.77029556  0.09865819  1
  Nb  Nb113  1  0.26652539  0.03996230  0.33304081  1
  Nb  Nb114  1  0.20604487  0.94208465  0.96678315  1
  Nb  Nb115  1  0.42441178  0.54435116  0.36663096  1
  Nb  Nb116  1  0.10554633  0.62500888  0.43406113  1
  Nb  Nb117  1  0.85527524  0.31513662  0.70626373  1
  Nb  Nb118  1  -0.06477069  0.12443116  0.03031376  1
  Nb  Nb119  1  0.88060721  0.09158482  0.69463134  1
  Nb  Nb120  1  0.82397368  -0.03030071  0.13155915  1
  Nb  Nb121  1  0.56708879  0.95933080  0.39820261  1
  Nb  Nb122  1  0.20184037  1.07804709  0.12698745  1
  Nb  Nb123  1  0.16525208  0.62432302  0.82303691  1
  Nb  Nb124  1  0.33617849  0.08268678  0.95183177  1
