# generated using pymatgen
data_Zr2Sc2Nb
_symmetry_space_group_name_H-M   'P 1'
_cell_length_a   14.07259783
_cell_length_b   14.15323358
_cell_length_c   14.46122768
_cell_angle_alpha   91.33651189
_cell_angle_beta   91.30276392
_cell_angle_gamma   90.40692288
_symmetry_Int_Tables_number   1
_chemical_formula_structural   Zr2Sc2Nb
_chemical_formula_sum   'Zr50 Sc50 Nb25'
_cell_volume   2878.67085668
_cell_formula_units_Z   25
loop_
 _symmetry_equiv_pos_site_id
 _symmetry_equiv_pos_as_xyz
  1  'x, y, z'
loop_
 _atom_site_type_symbol
 _atom_site_label
 _atom_site_symmetry_multiplicity
 _atom_site_fract_x
 _atom_site_fract_y
 _atom_site_fract_z
 _atom_site_occupancy
  Zr  Zr0  1  0.53723019  0.08525685  0.73616312  1
  Zr  Zr1  1  0.86166797  0.32842428  0.93555918  1
  Zr  Zr2  1  0.06037588  0.81790580  0.64617971  1
  Zr  Zr3  1  0.74907040  0.66351143  0.87737906  1
  Zr  Zr4  1  0.92058398  0.30982885  0.55645661  1
  Zr  Zr5  1  0.73485820  0.06504107  0.25808793  1
  Zr  Zr6  1  0.05574261  0.51640286  0.44046460  1
  Zr  Zr7  1  0.09053730  0.11031147  0.85433872  1
  Zr  Zr8  1  0.11073026  0.19594116  0.50859924  1
  Zr  Zr9  1  0.35877365  0.29961634  0.80336678  1
  Zr  Zr10  1  0.56289142  0.31378564  0.74993749  1
  Zr  Zr11  1  0.35546670  0.94495112  0.38871480  1
  Zr  Zr12  1  0.72069790  0.64268475  0.31530557  1
  Zr  Zr13  1  0.48025676  0.16706040  0.91787730  1
  Zr  Zr14  1  0.28657476  0.34121371  0.56084422  1
  Zr  Zr15  1  0.48404188  0.27398419  0.56094503  1
  Zr  Zr16  1  0.42757766  0.47976676  0.16128791  1
  Zr  Zr17  1  0.94050405  0.68989870  0.32301407  1
  Zr  Zr18  1  0.12043892  0.71255263  0.48233066  1
  Zr  Zr19  1  -0.01379838  0.91238381  0.48072169  1
  Zr  Zr20  1  0.07306049  0.59445016  0.68221455  1
  Zr  Zr21  1  0.51318694  0.29002944  0.20075513  1
  Zr  Zr22  1  0.13905250  0.85464077  0.34092935  1
  Zr  Zr23  1  0.39374845  0.62779221  -0.00005656  1
  Zr  Zr24  1  0.43443177  0.95629743  0.88242936  1
  Zr  Zr25  1  -0.04140743  0.31257951  0.34262130  1
  Zr  Zr26  1  0.81168259  0.14175979  0.05268515  1
  Zr  Zr27  1  0.32786591  0.73743295  0.43372373  1
  Zr  Zr28  1  0.51068178  0.36232502  0.98601123  1
  Zr  Zr29  1  0.16895355  0.23652287  0.71003705  1
  Zr  Zr30  1  0.22273280  0.50931744  0.11555171  1
  Zr  Zr31  1  0.85464255  0.49909010  0.66582647  1
  Zr  Zr32  1  0.54708571  0.79727265  0.45990920  1
  Zr  Zr33  1  0.88540246  0.10769188  0.61796651  1
  Zr  Zr34  1  0.30674776  0.60706185  0.78317176  1
  Zr  Zr35  1  0.64758212  0.00858746  0.94049881  1
  Zr  Zr36  1  0.96182615  0.11551778  0.19041086  1
  Zr  Zr37  1  0.76968582  0.80506804  0.45585509  1
  Zr  Zr38  1  0.21870606  -0.06558210  0.53234905  1
  Zr  Zr39  1  0.12986351  0.75925779  0.83044218  1
  Zr  Zr40  1  0.32633118  0.16215631  0.44124495  1
  Zr  Zr41  1  0.77098323  0.22461388  0.42507628  1
  Zr  Zr42  1  -0.01033875  0.93159101  0.80757853  1
  Zr  Zr43  1  0.27362121  0.92001791  0.19099976  1
  Zr  Zr44  1  0.20041722  0.92894747  0.96409887  1
  Zr  Zr45  1  0.46814105  0.48093901  0.50206285  1
  Zr  Zr46  1  0.34083671  0.69589962  0.21191237  1
  Zr  Zr47  1  0.41453608  0.83442556  0.05271278  1
  Zr  Zr48  1  1.00066490  0.62748549  0.10796809  1
  Zr  Zr49  1  0.14584874  0.66654455  0.26618359  1
  Sc  Sc50  1  0.78399973  0.27509626  0.72208918  1
  Sc  Sc51  1  0.60608598  0.14780633  0.09899150  1
  Sc  Sc52  1  0.70724440  0.44822044  0.86046213  1
  Sc  Sc53  1  0.05207213  0.87189178  0.14102719  1
  Sc  Sc54  1  0.25391964  0.55502229  0.56413713  1
  Sc  Sc55  1  0.56038915  0.70153695  0.15906298  1
  Sc  Sc56  1  0.48298946  0.05068770  0.52289356  1
  Sc  Sc57  1  0.42046474  0.88941478  0.64692465  1
  Sc  Sc58  1  0.12731049  0.29156249  0.16016112  1
  Sc  Sc59  1  0.23356017  0.94968998  0.76030855  1
  Sc  Sc60  1  0.80187943  0.92158631  0.08722947  1
  Sc  Sc61  1  0.18211282  0.33280064  0.37047615  1
  Sc  Sc62  1  0.90206638  0.91048805  0.29009329  1
  Sc  Sc63  1  0.94662634  0.10837282  0.40053543  1
  Sc  Sc64  1  0.60116534  0.87065951  0.77728963  1
  Sc  Sc65  1  0.68281500  0.21339502  0.89334099  1
  Sc  Sc66  1  0.82850996  0.48761245  0.22735839  1
  Sc  Sc67  1  0.61377372  0.56493286  0.01674342  1
  Sc  Sc68  1  0.80027303  0.87802640  0.86993828  1
  Sc  Sc69  1  0.95576025  0.76300185  0.96196359  1
  Sc  Sc70  1  0.78626254  0.70456841  0.11209384  1
  Sc  Sc71  1  0.04645004  0.47441120  0.23877606  1
  Sc  Sc72  1  0.16588834  0.09545255  0.08118551  1
  Sc  Sc73  1  0.47409752  0.06512879  0.25993920  1
  Sc  Sc74  1  0.93555279  0.54151966  0.85722497  1
  Sc  Sc75  1  0.38863594  0.05614272  0.06910409  1
  Sc  Sc76  1  0.07837130  0.04290174  0.64369153  1
  Sc  Sc77  1  0.99579897  0.32605323  0.77738684  1
  Sc  Sc78  1  0.68121280  0.37598546  0.55258779  1
  Sc  Sc79  1  0.30997569  0.19047960  0.24103494  1
  Sc  Sc80  1  0.14138247  0.57017384  0.91641050  1
  Sc  Sc81  1  0.45432264  0.67051417  0.62188750  1
  Sc  Sc82  1  0.84766475  0.89129532  0.64487921  1
  Sc  Sc83  1  0.28713003  0.52048523  0.34521881  1
  Sc  Sc84  1  0.61209515  0.52705266  0.69141832  1
  Sc  Sc85  1  0.20147604  0.73423031  0.05040647  1
  Sc  Sc86  1  0.14881166  0.06645414  0.32320023  1
  Sc  Sc87  1  0.69448892  0.84239833  0.26760399  1
  Sc  Sc88  1  0.90784954  0.66915932  0.54392664  1
  Sc  Sc89  1  0.71180592  0.72362466  0.66511418  1
  Sc  Sc90  1  0.62883151  0.41838248  0.34075507  1
  Sc  Sc91  1  0.66070268  0.59872608  0.49987616  1
  Sc  Sc92  1  0.32953653  0.11544954  0.66024838  1
  Sc  Sc93  1  0.83989962  0.47852951  0.43866708  1
  Sc  Sc94  1  0.32824350  0.28022012  1.05511286  1
  Sc  Sc95  1  0.52262627  0.68966024  0.83411343  1
  Sc  Sc96  1  0.49749893  0.60860126  0.33904298  1
  Sc  Sc97  1  0.66611202  0.14693040  0.57774220  1
  Sc  Sc98  1  0.03556068  0.42880314  0.01944528  1
  Sc  Sc99  1  0.69802544  0.36485595  0.08068891  1
  Nb  Nb100  1  0.47223070  0.84452359  0.27211652  1
  Nb  Nb101  1  0.60426937  0.98051630  0.38750139  1
  Nb  Nb102  1  0.58167291  0.93746576  0.12823082  1
  Nb  Nb103  1  0.25394512  0.75548932  0.65120006  1
  Nb  Nb104  1  0.83706361  0.51867427  0.02863447  1
  Nb  Nb105  1  0.19780291  0.43489885  0.75580568  1
  Nb  Nb106  1  0.75013176  0.26266628  0.24149437  1
  Nb  Nb107  1  0.48488367  0.49223528  0.85135284  1
  Nb  Nb108  1  0.33559640  0.78907410  0.85550724  1
  Nb  Nb109  1  0.64662822  0.93386079  0.58981790  1
  Nb  Nb110  1  0.41222440  0.34378607  0.36360606  1
  Nb  Nb111  1  0.91249831  0.71857627  0.75570997  1
  Nb  Nb112  1  0.90910346  0.32050469  0.13901148  1
  Nb  Nb113  1  0.28340420  0.12514445  0.89103778  1
  Nb  Nb114  1  0.16923805  0.30670453  0.92086295  1
  Nb  Nb115  1  0.73764859  0.04280044  0.74856607  1
  Nb  Nb116  1  0.57042104  0.20288296  0.38064559  1
  Nb  Nb117  1  0.31295924  0.45123637  0.93739035  1
  Nb  Nb118  1  0.08826919  0.40019236  0.58947274  1
  Nb  Nb119  1  1.00736500  0.20914020  0.00153865  1
  Nb  Nb120  1  0.62122405  0.80184674  0.98685082  1
  Nb  Nb121  1  0.88087362  0.11856816  0.85108731  1
  Nb  Nb122  1  0.97541515  1.00222521  -0.00428417  1
  Nb  Nb123  1  0.78232606  1.00254726  0.46024170  1
  Nb  Nb124  1  0.40268137  0.45418903  0.68604810  1
