# generated using pymatgen
data_Zr2Sc2Nb
_symmetry_space_group_name_H-M   'P 1'
_cell_length_a   14.39116132
_cell_length_b   13.97271218
_cell_length_c   14.34793432
_cell_angle_alpha   88.43522104
_cell_angle_beta   91.94296409
_cell_angle_gamma   90.74242514
_symmetry_Int_Tables_number   1
_chemical_formula_structural   Zr2Sc2Nb
_chemical_formula_sum   'Zr50 Sc50 Nb25'
_cell_volume   2882.19059289
_cell_formula_units_Z   25
loop_
 _symmetry_equiv_pos_site_id
 _symmetry_equiv_pos_as_xyz
  1  'x, y, z'
loop_
 _atom_site_type_symbol
 _atom_site_label
 _atom_site_symmetry_multiplicity
 _atom_site_fract_x
 _atom_site_fract_y
 _atom_site_fract_z
 _atom_site_occupancy
  Zr  Zr0  1  0.48522058  0.58709380  0.95762280  1
  Zr  Zr1  1  0.79136987  0.02816577  0.30281602  1
  Zr  Zr2  1  0.09077897  0.77095297  0.35212883  1
  Zr  Zr3  1  0.92727528  0.92055232  0.16451213  1
  Zr  Zr4  1  0.48343834  0.83685445  0.42319448  1
  Zr  Zr5  1  0.60580243  0.75174799  0.58663583  1
  Zr  Zr6  1  0.39252543  0.43762835  0.30128072  1
  Zr  Zr7  1  0.06763328  0.85032607  0.54395882  1
  Zr  Zr8  1  0.32815646  0.09712905  0.80636247  1
  Zr  Zr9  1  0.19519866  0.70326887  0.61221774  1
  Zr  Zr10  1  0.62631498  0.43988025  0.34648562  1
  Zr  Zr11  1  0.99030836  0.34764812  0.23786511  1
  Zr  Zr12  1  0.67641400  0.85177337  0.94022176  1
  Zr  Zr13  1  0.52093153  0.11785047  0.75542844  1
  Zr  Zr14  1  0.59221157  0.64486955  0.39630214  1
  Zr  Zr15  1  0.69477289  0.61751058  0.89130158  1
  Zr  Zr16  1  0.81037234  0.52093949  0.39743939  1
  Zr  Zr17  1  0.75385762  0.66207693  0.70536119  1
  Zr  Zr18  1  0.63803717  0.17594982  0.35497981  1
  Zr  Zr19  1  0.20482612  0.65382460  0.22337338  1
  Zr  Zr20  1  0.78592071  0.30645393  0.28689908  1
  Zr  Zr21  1  0.87252678  0.28727273  0.81150815  1
  Zr  Zr22  1  0.35523020  0.16649653  0.58847351  1
  Zr  Zr23  1  0.34029779  0.69296069  0.76757984  1
  Zr  Zr24  1  0.20809255  0.04626761  0.47711027  1
  Zr  Zr25  1  0.27637365  0.19276872  -0.01451617  1
  Zr  Zr26  1  0.72409834  0.87333648  0.16469578  1
  Zr  Zr27  1  0.68204821  0.08283843  0.91464642  1
  Zr  Zr28  1  0.22002553  0.78677134  1.01500590  1
  Zr  Zr29  1  0.35082488  0.84888729  0.22778491  1
  Zr  Zr30  1  0.24232419  0.58930210  0.43651809  1
  Zr  Zr31  1  0.12311839  0.18751365  0.28767192  1
  Zr  Zr32  1  0.96621947  0.38913623  0.43389920  1
  Zr  Zr33  1  0.82070905  0.72921556  0.06725585  1
  Zr  Zr34  1  0.03977015  0.55631752  0.31176325  1
  Zr  Zr35  1  0.14270096  0.54426559  0.76605262  1
  Zr  Zr36  1  0.79275688  0.10244656  0.49647719  1
  Zr  Zr37  1  0.94144010  0.18014946  0.39075901  1
  Zr  Zr38  1  0.43193978  0.38734650  0.03231556  1
  Zr  Zr39  1  0.64810326  0.93597793  0.73221694  1
  Zr  Zr40  1  0.37630426  0.48536956  0.81130817  1
  Zr  Zr41  1  0.26018798  0.59986351  0.94694583  1
  Zr  Zr42  1  0.63274897  0.28425109  0.98568425  1
  Zr  Zr43  1  0.65815563  0.26966023  0.77455231  1
  Zr  Zr44  1  0.58091817  0.98051907  0.29668644  1
  Zr  Zr45  1  0.43274242  0.05071402  0.42935930  1
  Zr  Zr46  1  0.65656917  0.94846632  0.50708590  1
  Zr  Zr47  1  0.32224411  0.88846689  0.83748229  1
  Zr  Zr48  1  0.22206212  0.92972093  0.66105726  1
  Zr  Zr49  1  0.91668096  0.12245685  0.97112998  1
  Sc  Sc50  1  0.80217616  0.70197949  0.50710631  1
  Sc  Sc51  1  0.88174809  0.73138597  0.29709434  1
  Sc  Sc52  1  0.21478726  0.38288227  0.91536077  1
  Sc  Sc53  1  0.29424355  0.26081567  0.17762837  1
  Sc  Sc54  1  0.44327322  0.92701429  0.64077736  1
  Sc  Sc55  1  0.00991568  0.41099967  0.93131398  1
  Sc  Sc56  1  0.25373141  0.46303269  0.12181388  1
  Sc  Sc57  1  0.43897023  0.79649489  -0.00930788  1
  Sc  Sc58  1  0.26780747  0.03681892  0.26839843  1
  Sc  Sc59  1  0.14727000  0.01156112  0.88596601  1
  Sc  Sc60  1  0.01695971  0.70447123  0.13523773  1
  Sc  Sc61  1  0.14359869  0.88180903  0.17644063  1
  Sc  Sc62  1  0.99940468  0.04542401  0.56803888  1
  Sc  Sc63  1  0.53695562  0.77207311  0.22241243  1
  Sc  Sc64  1  0.92832571  0.24924455  0.60390864  1
  Sc  Sc65  1  0.67638350  0.48363941  0.07856740  1
  Sc  Sc66  1  0.12488290  0.45982696  0.57007189  1
  Sc  Sc67  1  0.83871245  0.88766518  0.64745627  1
  Sc  Sc68  1  0.49813622  0.36671965  0.65315876  1
  Sc  Sc69  1  0.43338328  0.28309476  0.84926837  1
  Sc  Sc70  1  0.32866980  -0.01121611  0.04142766  1
  Sc  Sc71  1  0.49325800  0.29057159  0.44216559  1
  Sc  Sc72  1  0.72711217  0.32352495  0.52548869  1
  Sc  Sc73  1  1.01620815  0.87531927  -0.02439012  1
  Sc  Sc74  1  0.37696701  0.65148911  0.12536830  1
  Sc  Sc75  1  0.27523147  0.83487404  0.43996495  1
  Sc  Sc76  1  0.26057467  0.32657758  0.70636354  1
  Sc  Sc77  1  0.86261693  0.32476569  0.06197448  1
  Sc  Sc78  1  0.45308324  0.12637666  0.20527054  1
  Sc  Sc79  1  0.88375752  0.89680963  0.43757128  1
  Sc  Sc80  1  0.00699796  0.63125386  0.49577953  1
  Sc  Sc81  1  0.18344897  0.39829147  0.32173102  1
  Sc  Sc82  1  0.13501394  0.25036893  0.50319249  1
  Sc  Sc83  1  0.58966756  0.13986476  0.56959505  1
  Sc  Sc84  1  0.55784509  0.31624718  0.19082596  1
  Sc  Sc85  1  0.46686842  0.51471999  0.49297383  1
  Sc  Sc86  1  0.14836367  0.13901225  0.69545186  1
  Sc  Sc87  1  0.53636963  0.76218340  0.79718138  1
  Sc  Sc88  1  0.04409489  0.98952364  0.33819811  1
  Sc  Sc89  1  0.86121612  0.51622521  0.19638604  1
  Sc  Sc90  1  0.88018933  0.74366776  0.86183195  1
  Sc  Sc91  1  0.98582731  0.70013802  0.69291730  1
  Sc  Sc92  1  0.68796577  0.12841783  0.13552663  1
  Sc  Sc93  1  0.84659255  0.95515171  0.85681654  1
  Sc  Sc94  1  0.88908194  0.47652227  0.61115291  1
  Sc  Sc95  1  0.77292384  0.10786300  0.70503772  1
  Sc  Sc96  1  0.92269501  0.14500727  0.18059428  1
  Sc  Sc97  1  0.10782483  0.07933067  0.08863180  1
  Sc  Sc98  1  0.05318382  0.63766997  0.93782396  1
  Sc  Sc99  1  0.54486007  0.95785356  0.08401131  1
  Nb  Nb100  1  0.31066964  0.37476579  0.50027685  1
  Nb  Nb101  1  0.50212434  0.96849541  0.87941942  1
  Nb  Nb102  1  0.96993796  0.10697392  0.77235371  1
  Nb  Nb103  1  0.52462292  0.54714024  0.19411590  1
  Nb  Nb104  1  0.90544653  0.52835235  0.80194176  1
  Nb  Nb105  1  0.32146779  0.52996324  0.63005462  1
  Nb  Nb106  1  0.87708574  0.55368832  -0.00067902  1
  Nb  Nb107  1  0.14900392  0.77540546  0.81307613  1
  Nb  Nb108  1  0.08274876  0.21532581  0.89316587  1
  Nb  Nb109  1  0.02681807  0.91253130  0.74693850  1
  Nb  Nb110  1  0.53534029  0.57779427  0.70088531  1
  Nb  Nb111  1  0.05240255  0.34405999  0.73999502  1
  Nb  Nb112  1  0.31226127  0.21734064  0.37922564  1
  Nb  Nb113  1  0.05725741  0.49675900  0.11137028  1
  Nb  Nb114  1  0.76990351  0.42117866  0.90107823  1
  Nb  Nb115  1  0.09754138  0.28991424  0.08371217  1
  Nb  Nb116  1  0.69798272  0.81965663  0.36236729  1
  Nb  Nb117  1  0.71425545  0.45571860  0.71835865  1
  Nb  Nb118  1  0.48482264  0.14180205  0.99042439  1
  Nb  Nb119  1  0.66796952  0.53085606  0.55175520  1
  Nb  Nb120  1  0.57389128  0.44254814  0.85859402  1
  Nb  Nb121  1  0.70387104  0.64163622  0.23416009  1
  Nb  Nb122  1  0.40657353  0.70268221  0.56334129  1
  Nb  Nb123  1  0.61477522  0.69956425  0.06307515  1
  Nb  Nb124  1  0.39347042  0.65923315  0.33851909  1
