# generated using pymatgen
data_Zr2Sc2Nb
_symmetry_space_group_name_H-M   'P 1'
_cell_length_a   14.51377576
_cell_length_b   14.00908902
_cell_length_c   14.12391738
_cell_angle_alpha   90.79483697
_cell_angle_beta   89.07681354
_cell_angle_gamma   90.04920867
_symmetry_Int_Tables_number   1
_chemical_formula_structural   Zr2Sc2Nb
_chemical_formula_sum   'Zr50 Sc50 Nb25'
_cell_volume   2871.09270908
_cell_formula_units_Z   25
loop_
 _symmetry_equiv_pos_site_id
 _symmetry_equiv_pos_as_xyz
  1  'x, y, z'
loop_
 _atom_site_type_symbol
 _atom_site_label
 _atom_site_symmetry_multiplicity
 _atom_site_fract_x
 _atom_site_fract_y
 _atom_site_fract_z
 _atom_site_occupancy
  Zr  Zr0  1  0.55644117  0.30372580  0.09662687  1
  Zr  Zr1  1  0.45443733  0.63510285  0.09196656  1
  Zr  Zr2  1  0.43611786  0.30127457  0.28155675  1
  Zr  Zr3  1  0.08032040  0.54257404  0.06521469  1
  Zr  Zr4  1  0.73719299  0.33564155  0.95816161  1
  Zr  Zr5  1  0.75464118  0.85275333  0.59836630  1
  Zr  Zr6  1  0.64115814  0.70982072  0.35428373  1
  Zr  Zr7  1  0.24831642  0.63556185  0.15243707  1
  Zr  Zr8  1  0.99598874  0.55139758  0.27072336  1
  Zr  Zr9  1  0.69829018  0.49164350  0.43549792  1
  Zr  Zr10  1  0.86432255  0.88002260  0.41828036  1
  Zr  Zr11  1  0.95363323  0.22229904  0.94569934  1
  Zr  Zr12  1  0.39318755  0.48738923  0.77366168  1
  Zr  Zr13  1  0.49841462  0.22391997  0.90600223  1
  Zr  Zr14  1  0.68188222  0.94183102  0.04265951  1
  Zr  Zr15  1  0.68205463  0.35022157  0.23463970  1
  Zr  Zr16  1  0.88916478  0.96448900  0.69741197  1
  Zr  Zr17  1  0.63599764  0.74366650  0.15162294  1
  Zr  Zr18  1  0.29771769  0.89350169  0.36403701  1
  Zr  Zr19  1  0.84633274  0.32019515  0.77030186  1
  Zr  Zr20  1  0.97816800  0.46516501  0.72113640  1
  Zr  Zr21  1  0.33260337  0.76356089  0.95721818  1
  Zr  Zr22  1  0.35680591  0.43207189  0.13200554  1
  Zr  Zr23  1  0.90610011  0.28173853  0.52196659  1
  Zr  Zr24  1  0.10038230  0.97990853  0.64014890  1
  Zr  Zr25  1  0.68960791  0.87267254  0.82266498  1
  Zr  Zr26  1  0.31266860  0.30678312  0.85554203  1
  Zr  Zr27  1  0.45606852  0.86431963  0.83078709  1
  Zr  Zr28  1  0.36823842  0.02818225  0.94401573  1
  Zr  Zr29  1  0.21339127  0.70024865  0.35115559  1
  Zr  Zr30  1  0.35714279  0.22544623  0.06017895  1
  Zr  Zr31  1  0.94930623  0.96366514  0.23908626  1
  Zr  Zr32  1  0.29816713  0.54919180  0.95866478  1
  Zr  Zr33  1  0.48161973  0.30395990  0.68995782  1
  Zr  Zr34  1  0.86914459  0.38172696  0.30884863  1
  Zr  Zr35  1  -0.00992726  0.17244145  0.69848081  1
  Zr  Zr36  1  0.62969282  0.68581398  0.55676128  1
  Zr  Zr37  1  0.54076022  0.50534722  0.25556546  1
  Zr  Zr38  1  0.65264795  0.02679476  0.67392898  1
  Zr  Zr39  1  0.43943007  0.08492866  0.72644122  1
  Zr  Zr40  1  0.03428899  0.15047861  0.13940580  1
  Zr  Zr41  1  0.23701420  0.31003447  0.41378053  1
  Zr  Zr42  1  0.22091192  0.09903230  0.75227018  1
  Zr  Zr43  1  0.20637063  0.91848219  0.87098072  1
  Zr  Zr44  1  0.56111759  0.50100472  0.63126522  1
  Zr  Zr45  1  0.37574793  0.42970459  0.54260047  1
  Zr  Zr46  1  0.99572833  0.63944873  0.85767104  1
  Zr  Zr47  1  0.13085253  0.73480507  0.97609208  1
  Zr  Zr48  1  0.54397959  0.85982061  0.65712486  1
  Zr  Zr49  1  0.31045841  0.89088228  0.67257161  1
  Sc  Sc50  1  0.78005287  0.52854011  0.65406499  1
  Sc  Sc51  1  0.83052926  0.67264539  0.48612119  1
  Sc  Sc52  1  0.94069824  0.49407646  0.48736081  1
  Sc  Sc53  1  0.50601005  0.07385611  0.10549153  1
  Sc  Sc54  1  0.05311671  0.93763005  0.03925616  1
  Sc  Sc55  1  0.45212696  1.00332298  0.51630555  1
  Sc  Sc56  1  0.74916731  0.56623709  0.23698720  1
  Sc  Sc57  1  0.29539421  0.63226162  0.54484272  1
  Sc  Sc58  1  0.86569810  0.04791769  0.05039175  1
  Sc  Sc59  1  0.72701474  0.91790938  0.26279648  1
  Sc  Sc60  1  0.16875549  0.14105375  0.95690729  1
  Sc  Sc61  1  0.80441917  0.08461707  0.84708561  1
  Sc  Sc62  1  0.85190034  0.45941456  0.09585529  1
  Sc  Sc63  1  0.17305003  0.35576252  0.01631194  1
  Sc  Sc64  1  0.65506919  0.21808837  0.78166557  1
  Sc  Sc65  1  0.42665925  0.78430135  0.48858577  1
  Sc  Sc66  1  0.20830440  0.48051232  0.67613404  1
  Sc  Sc67  1  0.44233987  0.67848093  0.68857005  1
  Sc  Sc68  1  -0.04924447  0.05260969  0.50023942  1
  Sc  Sc69  1  0.31966571  0.84276290  0.15035959  1
  Sc  Sc70  1  0.06639605  0.77025900  0.19808888  1
  Sc  Sc71  1  0.08710576  0.90162142  0.39754731  1
  Sc  Sc72  1  0.72304889  0.72430024  0.96205071  1
  Sc  Sc73  1  0.50524100  0.90942605  0.25214846  1
  Sc  Sc74  1  0.06454398  0.63779008  0.62987305  1
  Sc  Sc75  1  0.71140008  0.12294957  0.21050221  1
  Sc  Sc76  1  0.55946096  0.12083722  0.35422545  1
  Sc  Sc77  1  0.61569833  0.90214171  0.44843010  1
  Sc  Sc78  1  0.14436896  0.51303023  0.44763461  1
  Sc  Sc79  1  0.63895783  0.52068353  0.04241485  1
  Sc  Sc80  1  0.25277168  1.04165050  0.51317918  1
  Sc  Sc81  1  0.85871800  0.72412837  0.72855824  1
  Sc  Sc82  1  0.86508675  0.73275921  0.27207134  1
  Sc  Sc83  1  0.23143564  0.03365603  0.13146471  1
  Sc  Sc84  1  0.51636082  0.64478868  0.89562748  1
  Sc  Sc85  1  0.10628037  0.30462966  0.80057860  1
  Sc  Sc86  1  0.91119518  0.65995104  0.05851852  1
  Sc  Sc87  1  0.12644817  0.10067868  0.33143854  1
  Sc  Sc88  1  0.35342500  0.09580659  0.29691902  1
  Sc  Sc89  1  0.72384030  0.25223944  0.41526540  1
  Sc  Sc90  1  0.40281468  0.20982432  0.49102003  1
  Sc  Sc91  1  0.34007553  0.50466428  0.34079917  1
  Sc  Sc92  1  0.90256225  0.16210418  0.31818107  1
  Sc  Sc93  1  0.90286319  0.85910716  0.90290721  1
  Sc  Sc94  1  0.42910360  0.70492736  0.28844615  1
  Sc  Sc95  1  0.69621977  0.34090303  0.60963356  1
  Sc  Sc96  1  0.21261266  0.25481839  0.20722494  1
  Sc  Sc97  1  0.26386934  0.26813621  0.64127113  1
  Sc  Sc98  1  0.79958313  0.53481832  0.87173087  1
  Sc  Sc99  1  0.23231727  0.69386831  0.76997697  1
  Nb  Nb100  1  0.84835331  0.84662638  0.10571816  1
  Nb  Nb101  1  0.74732813  0.05380626  0.46085908  1
  Nb  Nb102  1  0.58955886  0.16916634  0.56005823  1
  Nb  Nb103  1  0.57255536  0.02792166  0.88640853  1
  Nb  Nb104  1  0.07951958  0.35852314  0.57866361  1
  Nb  Nb105  1  1.01470867  0.35019361  0.15293376  1
  Nb  Nb106  1  0.50773751  0.85204843  0.02489239  1
  Nb  Nb107  1  0.65437731  0.67163166  0.75393322  1
  Nb  Nb108  1  0.05152648  0.32085908  0.35938963  1
  Nb  Nb109  1  0.02571727  0.70151513  0.42048634  1
  Nb  Nb110  1  0.68121096  0.15383014  0.00375812  1
  Nb  Nb111  1  0.14036624  0.50959292  0.86324243  1
  Nb  Nb112  1  0.16846702  0.45610951  0.23970547  1
  Nb  Nb113  1  0.18007042  0.80369065  0.54945209  1
  Nb  Nb114  1  0.10686589  0.18103143  0.52662523  1
  Nb  Nb115  1  1.02605308  0.03058212  0.84623103  1
  Nb  Nb116  1  0.79554742  0.15210700  0.62564313  1
  Nb  Nb117  1  0.61536271  0.44250700  0.81626457  1
  Nb  Nb118  1  0.06336426  0.82380101  0.76178758  1
  Nb  Nb119  1  0.47009065  0.42808044  0.95590641  1
  Nb  Nb120  1  -0.02299755  0.82248064  0.57394293  1
  Nb  Nb121  1  0.54552296  0.36038914  0.44472723  1
  Nb  Nb122  1  0.84409149  0.25227294  0.12049747  1
  Nb  Nb123  1  0.96973598  0.42172135  0.93535960  1
  Nb  Nb124  1  0.49623266  0.57632063  0.45298383  1
