# generated using pymatgen
data_Zr2Sc2Nb
_symmetry_space_group_name_H-M   'P 1'
_cell_length_a   14.17830723
_cell_length_b   14.02266272
_cell_length_c   14.43109798
_cell_angle_alpha   89.44199378
_cell_angle_beta   90.97209216
_cell_angle_gamma   89.61704109
_symmetry_Int_Tables_number   1
_chemical_formula_structural   Zr2Sc2Nb
_chemical_formula_sum   'Zr50 Sc50 Nb25'
_cell_volume   2868.54026342
_cell_formula_units_Z   25
loop_
 _symmetry_equiv_pos_site_id
 _symmetry_equiv_pos_as_xyz
  1  'x, y, z'
loop_
 _atom_site_type_symbol
 _atom_site_label
 _atom_site_symmetry_multiplicity
 _atom_site_fract_x
 _atom_site_fract_y
 _atom_site_fract_z
 _atom_site_occupancy
  Zr  Zr0  1  0.90516728  0.38997719  0.51101447  1
  Zr  Zr1  1  0.14492511  0.08521685  0.97158180  1
  Zr  Zr2  1  0.89690462  0.05642707  0.08587795  1
  Zr  Zr3  1  0.60920150  0.11014670  0.28458331  1
  Zr  Zr4  1  0.36106960  0.72061525  0.35271012  1
  Zr  Zr5  1  0.56069346  0.17766350  0.92563399  1
  Zr  Zr6  1  0.31614152  0.93117612  0.01891626  1
  Zr  Zr7  1  0.58094636  0.38981276  0.92782622  1
  Zr  Zr8  1  0.66164154  0.89630416  0.38909454  1
  Zr  Zr9  1  0.02525059  0.73740971  0.98453158  1
  Zr  Zr10  1  0.50190581  0.97110047  0.91209735  1
  Zr  Zr11  1  0.63584544  0.60503023  0.90894151  1
  Zr  Zr12  1  0.24726062  0.71758961  0.98948217  1
  Zr  Zr13  1  0.69160947  0.11529651  0.08264886  1
  Zr  Zr14  1  0.48502608  0.01786513  0.45723160  1
  Zr  Zr15  1  0.86915534  0.59691251  0.47647707  1
  Zr  Zr16  1  0.48306919  0.28137112  0.62511074  1
  Zr  Zr17  1  0.57192501  0.45106476  0.73160717  1
  Zr  Zr18  1  0.26238595  0.74759475  0.54597343  1
  Zr  Zr19  1  0.45373993  0.92563547  0.26858593  1
  Zr  Zr20  1  0.06120847  0.86017470  0.46864125  1
  Zr  Zr21  1  0.67885363  0.69434153  0.51296687  1
  Zr  Zr22  1  0.90730393  0.76111069  0.63161070  1
  Zr  Zr23  1  0.23242201  0.68018782  0.78374892  1
  Zr  Zr24  1  0.56113020  0.65578516  0.68974371  1
  Zr  Zr25  1  0.66433303  0.51239820  0.21575224  1
  Zr  Zr26  1  0.46610955  0.08403403  0.10884421  1
  Zr  Zr27  1  0.89482945  0.60889161  0.10414151  1
  Zr  Zr28  1  0.76973511  0.44345818  0.82888215  1
  Zr  Zr29  1  0.06313751  0.15207047  0.17013052  1
  Zr  Zr30  1  0.70494819  0.29704435  0.56592389  1
  Zr  Zr31  1  0.84049647  0.28187378  0.14709928  1
  Zr  Zr32  1  0.68421941  0.92622299  0.19182226  1
  Zr  Zr33  1  0.06102423  0.28296589  0.67594512  1
  Zr  Zr34  1  0.68873981  0.49909429  0.41566738  1
  Zr  Zr35  1  0.27332428  0.92353586  0.39564283  1
  Zr  Zr36  1  0.60899994  0.30328384  0.12264225  1
  Zr  Zr37  1  0.27136358  0.53969169  0.47847761  1
  Zr  Zr38  1  0.36887906  0.52949022  0.67359217  1
  Zr  Zr39  1  0.52355180  0.44422112  0.51924926  1
  Zr  Zr40  1  0.13665391  0.67276191  0.16294970  1
  Zr  Zr41  1  0.02611361  0.67926768  0.78833381  1
  Zr  Zr42  1  0.40417379  0.32266193  0.80680667  1
  Zr  Zr43  1  0.62539242  0.81516417  0.81121221  1
  Zr  Zr44  1  0.50712571  0.50223757  0.09042194  1
  Zr  Zr45  1  0.23310424  0.45826081  0.85217587  1
  Zr  Zr46  1  0.32354227  0.91623337  0.79619514  1
  Zr  Zr47  1  0.14296846  0.88028328  0.87177870  1
  Zr  Zr48  1  0.95627871  0.94848863  0.92722456  1
  Zr  Zr49  1  0.39073716  0.66259020  0.14771184  1
  Sc  Sc50  1  0.79917142  0.10451649  0.88071188  1
  Sc  Sc51  1  0.79027520  0.10913455  0.66567861  1
  Sc  Sc52  1  0.71000798  0.92782368  0.98047134  1
  Sc  Sc53  1  0.33710354  0.14836629  0.52779740  1
  Sc  Sc54  1  0.12820355  0.30179307  0.47605714  1
  Sc  Sc55  1  0.98646460  0.07773778  0.38038887  1
  Sc  Sc56  1  0.82992705  0.90696604  0.76895874  1
  Sc  Sc57  1  0.19301095  0.13420328  0.34654362  1
  Sc  Sc58  1  0.10501476  0.91079970  0.08118326  1
  Sc  Sc59  1  0.22023486  0.09945005  0.73368485  1
  Sc  Sc60  1  0.92533401  0.51723588  0.68248569  1
  Sc  Sc61  1  0.81786945  0.75548117  0.92581480  1
  Sc  Sc62  1  0.46134668  0.52866903  0.32094904  1
  Sc  Sc63  1  0.26994540  0.49897296  0.07163051  1
  Sc  Sc64  1  0.26920058  0.32849510  0.64447133  1
  Sc  Sc65  1  0.12081039  0.86597691  0.67045595  1
  Sc  Sc66  1  0.86870053  0.92255247  0.30687817  1
  Sc  Sc67  1  0.86381293  0.29229131  0.73337459  1
  Sc  Sc68  1  0.93232981  0.40463623  0.01183321  1
  Sc  Sc69  1  0.56400890  0.72233684  0.29336774  1
  Sc  Sc70  1  0.12312648  0.07311015  0.55006104  1
  Sc  Sc71  1  0.50642753  0.83984225  0.08787028  1
  Sc  Sc72  1  0.68162911  0.69975278  0.09257698  1
  Sc  Sc73  1  0.76880278  0.65740951  0.74240954  1
  Sc  Sc74  1  0.69880741  0.89950085  0.60034960  1
  Sc  Sc75  1  0.55455127  0.34380938  0.31302638  1
  Sc  Sc76  1  0.08979093  0.90602669  0.27490944  1
  Sc  Sc77  1  0.97785954  0.21139691  0.93151580  1
  Sc  Sc78  1  0.38292514  0.32381651  0.00566468  1
  Sc  Sc79  1  0.98173469  0.28612873  0.32267557  1
  Sc  Sc80  1  0.41941775  0.55037415  0.88815723  1
  Sc  Sc81  1  0.86642602  0.47684488  0.27790629  1
  Sc  Sc82  1  0.06497995  0.65604047  0.53814678  1
  Sc  Sc83  1  0.07294783  0.49922318  0.38146160  1
  Sc  Sc84  1  0.88436831  0.83310068  0.12075453  1
  Sc  Sc85  1  0.91726492  0.97667426  0.56628669  1
  Sc  Sc86  1  0.43769024  0.10831186  0.73758766  1
  Sc  Sc87  1  0.75095476  0.08556057  0.45294669  1
  Sc  Sc88  1  0.34049092  0.13012525  0.92453874  1
  Sc  Sc89  1  0.34671650  0.34532024  0.41464111  1
  Sc  Sc90  1  0.06165670  0.46935171  0.17122568  1
  Sc  Sc91  1  0.43927870  0.75806777  0.89456053  1
  Sc  Sc92  1  0.48554086  0.82093329  0.50402296  1
  Sc  Sc93  1  0.39494924  0.16327880  0.29806600  1
  Sc  Sc94  1  0.13942174  0.50077001  0.66600940  1
  Sc  Sc95  1  0.77013598  0.69963102  0.29438308  1
  Sc  Sc96  1  0.76000340  0.28812761  0.35813662  1
  Sc  Sc97  1  0.00390878  0.08050452  0.75162840  1
  Sc  Sc98  1  0.14392593  0.32905025  0.03046926  1
  Sc  Sc99  1  0.97606032  0.70194157  0.30749004  1
  Nb  Nb100  1  0.64868368  0.24762005  0.76430318  1
  Nb  Nb101  1  0.02673550  0.41308710  0.83533025  1
  Nb  Nb102  1  0.09069893  0.55180538  -0.03302878  1
  Nb  Nb103  1  0.25750290  0.53125306  0.27395049  1
  Nb  Nb104  1  0.18406968  0.26517069  0.84459279  1
  Nb  Nb105  1  0.85210940  0.80375443  0.45850939  1
  Nb  Nb106  1  0.39274812  0.75191789  0.68764724  1
  Nb  Nb107  1  0.74034325  0.47638017  0.04208382  1
  Nb  Nb108  1  0.27062251  0.19117710  0.12340970  1
  Nb  Nb109  1  0.72603597  0.49775258  0.61312184  1
  Nb  Nb110  1  0.81776711  0.11474040  0.25405124  1
  Nb  Nb111  1  0.37691742  0.36349243  0.20248352  1
  Nb  Nb112  1  0.26054780  0.01682233  0.19022277  1
  Nb  Nb113  1  0.46314303  0.62859464  0.51200145  1
  Nb  Nb114  1  0.92691825  0.19733313  0.53631757  1
  Nb  Nb115  1  0.17147188  0.70901231  0.35943113  1
  Nb  Nb116  1  0.31897257  0.94672086  0.59596710  1
  Nb  Nb117  1  0.54805555  0.21311511  0.45259033  1
  Nb  Nb118  1  0.19437339  0.32844221  0.25506048  1
  Nb  Nb119  1  0.89517596  0.57194337  0.90274604  1
  Nb  Nb120  1  0.59259655  0.09851306  0.60356999  1
  Nb  Nb121  1  0.63843658  0.02740515  0.78267487  1
  Nb  Nb122  1  0.50187047  0.91750504  0.68305590  1
  Nb  Nb123  1  0.75863609  0.28255433  0.95868379  1
  Nb  Nb124  1  0.27643670  0.82038666  0.19374783  1
