# generated using pymatgen
data_Zr2Sc2Nb
_symmetry_space_group_name_H-M   'P 1'
_cell_length_a   14.04094984
_cell_length_b   14.21986581
_cell_length_c   14.32131226
_cell_angle_alpha   90.26690289
_cell_angle_beta   87.03252234
_cell_angle_gamma   90.49242185
_symmetry_Int_Tables_number   1
_chemical_formula_structural   Zr2Sc2Nb
_chemical_formula_sum   'Zr50 Sc50 Nb25'
_cell_volume   2855.43415688
_cell_formula_units_Z   25
loop_
 _symmetry_equiv_pos_site_id
 _symmetry_equiv_pos_as_xyz
  1  'x, y, z'
loop_
 _atom_site_type_symbol
 _atom_site_label
 _atom_site_symmetry_multiplicity
 _atom_site_fract_x
 _atom_site_fract_y
 _atom_site_fract_z
 _atom_site_occupancy
  Zr  Zr0  1  0.25891546  0.42320657  0.29316033  1
  Zr  Zr1  1  0.66538493  0.76454735  0.56063225  1
  Zr  Zr2  1  0.80424440  0.09346462  0.12237483  1
  Zr  Zr3  1  0.71868146  0.54246230  0.15602293  1
  Zr  Zr4  1  0.25275457  0.02017814  0.92959556  1
  Zr  Zr5  1  0.44469218  0.28219627  0.52620448  1
  Zr  Zr6  1  0.45137366  0.31928708  0.90067746  1
  Zr  Zr7  1  0.48905220  0.03761886  0.41915327  1
  Zr  Zr8  1  0.31550986  0.11258582  0.57079506  1
  Zr  Zr9  1  0.54614848  0.87498459  0.19938621  1
  Zr  Zr10  1  0.31149298  0.66727549  0.91094838  1
  Zr  Zr11  1  0.41564192  0.73369475  0.10197162  1
  Zr  Zr12  1  0.10100261  0.08934752  0.50144197  1
  Zr  Zr13  1  0.31023672  0.36553618  0.07938419  1
  Zr  Zr14  1  0.45692384  0.08621416  0.22931882  1
  Zr  Zr15  1  0.52156409  0.28364965  0.11579068  1
  Zr  Zr16  1  0.29412149  0.56367520  0.66805042  1
  Zr  Zr17  1  0.14510997  0.02047729  0.71987635  1
  Zr  Zr18  1  0.08660445  0.17330417  0.30028700  1
  Zr  Zr19  1  0.53776087  0.65715762  0.26291546  1
  Zr  Zr20  1  0.57421458  0.87547409  0.75604889  1
  Zr  Zr21  1  0.94189760  0.14223727  0.71207923  1
  Zr  Zr22  1  0.06274357  0.94212815  0.32871313  1
  Zr  Zr23  1  0.69272172  0.43685563  0.73770586  1
  Zr  Zr24  1  0.08282015  0.80176591  0.67514605  1
  Zr  Zr25  1  1.07400684  0.54626694  0.20598054  1
  Zr  Zr26  1  0.25780589  0.58402062  0.11367284  1
  Zr  Zr27  1  0.45369819  0.53884027  0.01493467  1
  Zr  Zr28  1  0.62444298  0.44186310  0.98346295  1
  Zr  Zr29  1  0.90941133  0.47516809  1.07365896  1
  Zr  Zr30  1  0.47251308  0.65489173  0.48447236  1
  Zr  Zr31  1  0.47416526  0.46998800  0.19861681  1
  Zr  Zr32  1  0.86337546  0.44988997  0.53048392  1
  Zr  Zr33  1  0.25039888  0.69594236  0.51073042  1
  Zr  Zr34  1  0.67908489  0.58934924  0.39433435  1
  Zr  Zr35  1  0.38549565  0.85159008  0.89102004  1
  Zr  Zr36  1  0.13121322  0.84874238  0.88435042  1
  Zr  Zr37  1  0.66060572  0.96525190  0.51588900  1
  Zr  Zr38  1  0.76603396  0.93131284  0.68730715  1
  Zr  Zr39  1  0.05786315  0.77960880  0.45306137  1
  Zr  Zr40  1  0.66476367  0.18167647  0.27818564  1
  Zr  Zr41  1  0.34484152  0.96944671  0.72938497  1
  Zr  Zr42  1  0.87909966  0.90673162  0.21338058  1
  Zr  Zr43  1  0.23789867  0.26644243  0.43876476  1
  Zr  Zr44  1  0.09487580  0.34116992  0.17255665  1
  Zr  Zr45  1  -0.01970536  0.94793170  0.57757583  1
  Zr  Zr46  1  0.55303739  0.28019652  0.70409233  1
  Zr  Zr47  1  0.96531923  0.71431313  0.25842245  1
  Zr  Zr48  1  0.68503958  0.98228166  0.29778957  1
  Zr  Zr49  1  0.11562252  0.58542951  0.39912332  1
  Sc  Sc50  1  0.85710705  0.56489575  0.71713298  1
  Sc  Sc51  1  0.03227145  0.38139098  0.37103901  1
  Sc  Sc52  1  0.22829254  0.25981575  0.89035299  1
  Sc  Sc53  1  0.05175111  0.07809986  0.92476542  1
  Sc  Sc54  1  0.32963718  0.62385327  0.31485165  1
  Sc  Sc55  1  0.87015710  0.75805565  0.64607593  1
  Sc  Sc56  1  0.65395835  0.38691143  0.51127965  1
  Sc  Sc57  1  0.44313848  0.86632049  0.55431553  1
  Sc  Sc58  1  0.66848324  0.38613701  0.28935468  1
  Sc  Sc59  1  0.02519522  0.29173608  0.86037155  1
  Sc  Sc60  1  0.04711166  0.59656344  0.62186182  1
  Sc  Sc61  1  0.95691950  0.25242241  0.04814491  1
  Sc  Sc62  1  0.84556422  0.14882057  0.90021471  1
  Sc  Sc63  1  0.32857770  0.35578835  0.68679598  1
  Sc  Sc64  1  0.90193355  0.92615163  0.99083446  1
  Sc  Sc65  1  0.77273974  0.58570428  0.92650155  1
  Sc  Sc66  1  0.84123053  0.86452046  0.43051651  1
  Sc  Sc67  1  0.45024854  0.28207368  0.32409154  1
  Sc  Sc68  1  0.88087294  0.08735422  0.33725706  1
  Sc  Sc69  1  0.64376652  0.18016338  0.50059491  1
  Sc  Sc70  1  0.98467190  0.25605816  0.52792779  1
  Sc  Sc71  1  0.82344989  0.36684533  0.87968495  1
  Sc  Sc72  1  0.63602692  0.69625194  0.06274478  1
  Sc  Sc73  1  0.30158334  0.46745148  0.87352303  1
  Sc  Sc74  1  0.59899436  0.07503521  0.06962737  1
  Sc  Sc75  1  0.83502207  1.09534774  0.53999711  1
  Sc  Sc76  1  0.51846058  0.06950172  0.64420606  1
  Sc  Sc77  1  0.48197090  0.68850756  0.69156421  1
  Sc  Sc78  1  0.06251825  0.66437547  0.02333826  1
  Sc  Sc79  1  0.74353421  0.30600847  0.09232746  1
  Sc  Sc80  1  0.39546820  0.95176168  0.07918292  1
  Sc  Sc81  1  0.28343776  0.77541288  0.71360877  1
  Sc  Sc82  1  0.94108172  0.93108788  0.79228779  1
  Sc  Sc83  1  0.74101578  0.74832095  0.25592685  1
  Sc  Sc84  1  0.50149162  0.06027262  0.86645303  1
  Sc  Sc85  1  0.50947032  0.51278464  0.80271137  1
  Sc  Sc86  1  0.13154887  0.63832538  0.81267576  1
  Sc  Sc87  1  0.05495533  0.86384003  0.10746946  1
  Sc  Sc88  1  0.12141130  0.44666626  -0.01021118  1
  Sc  Sc89  1  0.22217970  0.91246417  0.52749155  1
  Sc  Sc90  1  0.35913780  0.84730498  0.32617633  1
  Sc  Sc91  1  0.14987844  0.23301645  0.67517922  1
  Sc  Sc92  1  0.64410528  0.23216143  0.89987507  1
  Sc  Sc93  1  0.87061344  0.48660020  0.29738440  1
  Sc  Sc94  1  0.71284178  -0.00216387  0.89227993  1
  Sc  Sc95  1  0.27636072  0.05939561  0.36458970  1
  Sc  Sc96  1  0.87892660  0.64560366  0.46034249  1
  Sc  Sc97  1  0.37462707  0.15860989  0.02760402  1
  Sc  Sc98  1  0.21245485  0.00185245  0.17137176  1
  Sc  Sc99  1  0.13702595  0.42161981  0.55495548  1
  Nb  Nb100  1  0.88866594  0.27218634  0.23833948  1
  Nb  Nb101  1  0.23972065  0.80615999  0.05469106  1
  Nb  Nb102  1  0.35921106  0.16696080  0.76326165  1
  Nb  Nb103  1  0.67228113  0.57505587  0.59265530  1
  Nb  Nb104  1  0.81714055  0.28390240  0.41372214  1
  Nb  Nb105  1  0.16200755  0.18094212  0.07282769  1
  Nb  Nb106  1  0.75121622  0.79815432  0.88973153  1
  Nb  Nb107  1  0.72245407  0.88998318  0.08845814  1
  Nb  Nb108  1  0.85789810  0.72383761  0.06557934  1
  Nb  Nb109  1  0.95642008  0.38229635  0.69702588  1
  Nb  Nb110  1  0.78857378  0.28034960  0.64338022  1
  Nb  Nb111  1  0.56450527  0.87400551  0.97739872  1
  Nb  Nb112  1  0.49136054  0.47923088  0.60457464  1
  Nb  Nb113  1  0.49883151  0.47508121  0.39803807  1
  Nb  Nb114  1  0.17247148  0.75223832  0.24610021  1
  Nb  Nb115  1  0.93379915  0.72308075  0.85230470  1
  Nb  Nb116  1  0.32552762  0.47436352  0.48000199  1
  Nb  Nb117  1  0.53655581  0.69839261  0.89547124  1
  Nb  Nb118  1  0.13359417  0.43840295  0.76149767  1
  Nb  Nb119  1  0.28416096  0.21809327  0.22018005  1
  Nb  Nb120  1  -0.02581280  0.51680772  0.86918255  1
  Nb  Nb121  1  0.68619928  0.68081580  0.75843609  1
  Nb  Nb122  1  0.70527064  0.12222403  0.72022678  1
  Nb  Nb123  1  1.00356000  0.07392816  0.14923962  1
  Nb  Nb124  1  0.57864455  0.81873716  0.39009442  1
