# generated using pymatgen
data_Zr2Sc2Nb
_symmetry_space_group_name_H-M   'P 1'
_cell_length_a   13.91810976
_cell_length_b   14.57629954
_cell_length_c   14.27089437
_cell_angle_alpha   91.63476879
_cell_angle_beta   88.25999996
_cell_angle_gamma   92.91526079
_symmetry_Int_Tables_number   1
_chemical_formula_structural   Zr2Sc2Nb
_chemical_formula_sum   'Zr50 Sc50 Nb25'
_cell_volume   2889.06492719
_cell_formula_units_Z   25
loop_
 _symmetry_equiv_pos_site_id
 _symmetry_equiv_pos_as_xyz
  1  'x, y, z'
loop_
 _atom_site_type_symbol
 _atom_site_label
 _atom_site_symmetry_multiplicity
 _atom_site_fract_x
 _atom_site_fract_y
 _atom_site_fract_z
 _atom_site_occupancy
  Zr  Zr0  1  0.25285728  0.29681968  0.99125233  1
  Zr  Zr1  1  0.51917370  0.61309189  0.37192548  1
  Zr  Zr2  1  0.46754850  0.27405377  0.67563532  1
  Zr  Zr3  1  0.47052335  0.42186093  0.51297609  1
  Zr  Zr4  1  0.74122249  0.30098978  0.30870250  1
  Zr  Zr5  1  0.26362868  0.81805956  0.53889857  1
  Zr  Zr6  1  0.91289782  0.48627231  0.58689681  1
  Zr  Zr7  1  0.64849876  0.81497230  0.12975314  1
  Zr  Zr8  1  0.14429726  0.67584960  0.66170132  1
  Zr  Zr9  1  0.65740894  0.97309867  0.73720560  1
  Zr  Zr10  1  0.17441925  0.49725695  0.91720897  1
  Zr  Zr11  1  0.85235135  0.97577147  0.82292715  1
  Zr  Zr12  1  0.58302311  0.78147133  0.68598474  1
  Zr  Zr13  1  0.52420551  0.10792139  0.79889298  1
  Zr  Zr14  1  0.32430294  0.71243147  0.35208755  1
  Zr  Zr15  1  0.36182985  0.05923076  0.11990869  1
  Zr  Zr16  1  0.29216772  0.24545311  0.18431655  1
  Zr  Zr17  1  -0.00773599  0.83895056  0.30831014  1
  Zr  Zr18  1  0.74691630  0.12361965  0.20281213  1
  Zr  Zr19  1  0.28148393  0.32457318  0.78351176  1
  Zr  Zr20  1  0.97491222  0.00985936  0.41608127  1
  Zr  Zr21  1  0.06114296  0.88279710  0.54526341  1
  Zr  Zr22  1  0.87144575  0.80002898  -0.08188509  1
  Zr  Zr23  1  0.04210223  0.32175189  0.50890057  1
  Zr  Zr24  1  0.76089623  0.46610196  0.78991145  1
  Zr  Zr25  1  0.91371671  0.32512456  0.70400896  1
  Zr  Zr26  1  0.57130240  0.06732184  0.37597794  1
  Zr  Zr27  1  0.52879259  0.20961127  0.23226608  1
  Zr  Zr28  1  0.50470516  0.68902394  1.00005706  1
  Zr  Zr29  1  0.32243657  0.52798742  0.72330094  1
  Zr  Zr30  1  0.52602501  0.45715190  0.75873544  1
  Zr  Zr31  1  0.06442786  0.80864354  0.07020012  1
  Zr  Zr32  1  0.09709236  0.71168692  0.42838763  1
  Zr  Zr33  1  0.95111807  0.43251652  0.33439830  1
  Zr  Zr34  1  0.31663637  0.59509321  0.52357277  1
  Zr  Zr35  1  0.88530848  0.62602803  0.41589952  1
  Zr  Zr36  1  0.73130435  0.11843235  0.89983300  1
  Zr  Zr37  1  0.57254624  -0.00826704  0.19685665  1
  Zr  Zr38  1  0.40101229  0.96149256  0.45664193  1
  Zr  Zr39  1  0.15100214  0.13560333  0.85465595  1
  Zr  Zr40  1  0.56236692  0.41717908  0.29742282  1
  Zr  Zr41  1  0.37214001  0.89226461  0.25049405  1
  Zr  Zr42  1  0.43904560  0.93962061  0.64915360  1
  Zr  Zr43  1  0.52519796  0.59834914  0.60667807  1
  Zr  Zr44  1  0.67729825  0.36878138  0.62031875  1
  Zr  Zr45  1  0.07263307  0.26516704  0.13906110  1
  Zr  Zr46  1  0.15817161  0.09946246  0.06146931  1
  Zr  Zr47  1  0.33668838  0.48126513  0.33180646  1
  Zr  Zr48  1  0.58617352  0.55933963  0.14364755  1
  Zr  Zr49  1  0.59372216  0.26722364  0.45170913  1
  Sc  Sc50  1  0.43468659  0.39132598  0.12834343  1
  Sc  Sc51  1  0.72950912  0.66077999  0.01246587  1
  Sc  Sc52  1  0.77301906  0.11276467  0.44647030  1
  Sc  Sc53  1  0.71306325  0.48433607  0.43760320  1
  Sc  Sc54  1  0.13408198  0.11687945  0.28957771  1
  Sc  Sc55  1  0.04193075  0.95542912  0.91085454  1
  Sc  Sc56  1  0.10847076  0.51981028  0.48173931  1
  Sc  Sc57  1  0.18330065  0.11391667  0.50399176  1
  Sc  Sc58  1  0.64750616  0.29676274  0.83602349  1
  Sc  Sc59  1  0.65315185  0.83825399  0.89837129  1
  Sc  Sc60  1  0.86309750  0.80100371  0.13710517  1
  Sc  Sc61  1  0.08054388  0.71335303  0.87217565  1
  Sc  Sc62  1  0.97090482  0.63831939  0.21818120  1
  Sc  Sc63  1  0.34448973  0.59097743  0.15331349  1
  Sc  Sc64  1  0.78710590  0.49513737  0.20521139  1
  Sc  Sc65  1  0.95391334  0.15315605  0.56971794  1
  Sc  Sc66  1  0.30639950  0.11051541  0.68808452  1
  Sc  Sc67  1  0.94153613  0.21414350  0.32734672  1
  Sc  Sc68  1  0.43331951  0.86785340  0.83737507  1
  Sc  Sc69  1  0.66101894  0.92404207  0.52360800  1
  Sc  Sc70  1  0.21554576  0.88380440  0.74883400  1
  Sc  Sc71  1  0.34298508  0.09402460  0.32249693  1
  Sc  Sc72  1  0.74628682  0.60217253  0.62197633  1
  Sc  Sc73  1  0.06062689  0.30647028  0.90626352  1
  Sc  Sc74  1  0.84387855  0.30119515  0.91470743  1
  Sc  Sc75  1  0.55881578  0.12795798  1.02581159  1
  Sc  Sc76  1  0.07043271  0.02878881  0.68961299  1
  Sc  Sc77  1  0.28749161  0.69191768  0.88408649  1
  Sc  Sc78  1  0.68229211  0.72515624  0.48285648  1
  Sc  Sc79  1  0.85912184  0.29960775  0.12900029  1
  Sc  Sc80  1  0.93806364  0.13030027  1.00266045  1
  Sc  Sc81  1  0.34861196  0.10244340  0.91306615  1
  Sc  Sc82  1  0.45863479  0.29731937  0.92083684  1
  Sc  Sc83  1  0.76985861  -0.02489988  0.04604423  1
  Sc  Sc84  1  0.26593550  0.34132950  0.54837237  1
  Sc  Sc85  1  0.48088592  0.90810943  0.03205655  1
  Sc  Sc86  1  0.56860184  0.10416042  0.58789467  1
  Sc  Sc87  1  0.37855513  0.49768398  0.94798181  1
  Sc  Sc88  1  0.72002545  0.69039345  0.27731335  1
  Sc  Sc89  1  0.11545325  0.44967686  0.69351647  1
  Sc  Sc90  1  0.76963203  0.92443336  0.31310286  1
  Sc  Sc91  1  1.00166642  0.45860256  0.09180035  1
  Sc  Sc92  1  0.89086819  0.64132709  0.78521932  1
  Sc  Sc93  1  0.64894276  0.33152429  0.07730565  1
  Sc  Sc94  1  -0.02976285  0.48361102  0.86627373  1
  Sc  Sc95  1  0.75470752  0.16787190  0.68140025  1
  Sc  Sc96  1  0.96621349  0.01084642  0.17783162  1
  Sc  Sc97  1  0.30622578  0.77461557  0.08256580  1
  Sc  Sc98  1  0.16015253  0.34603343  0.32867175  1
  Sc  Sc99  1  0.24464848  0.92176091  0.96843634  1
  Nb  Nb100  1  0.36234304  0.73127416  0.68288391  1
  Nb  Nb101  1  0.46816603  0.77215148  0.50781488  1
  Nb  Nb102  1  0.18946345  0.92013975  0.37473441  1
  Nb  Nb103  1  0.17879674  0.94119837  0.18370451  1
  Nb  Nb104  1  0.95333702  0.69127850  0.59150653  1
  Nb  Nb105  1  0.59277599  0.49386796  0.94401506  1
  Nb  Nb106  1  0.11502166  0.23906872  0.68741497  1
  Nb  Nb107  1  0.94150211  0.15080593  0.79065162  1
  Nb  Nb108  1  0.21062874  0.43437625  0.13178436  1
  Nb  Nb109  1  0.56106864  0.84167232  0.34703360  1
  Nb  Nb110  1  0.17069551  0.75096629  0.23725660  1
  Nb  Nb111  1  0.14290062  0.62251844  0.07078806  1
  Nb  Nb112  1  -0.01589224  0.83421612  0.72671253  1
  Nb  Nb113  1  0.83101781  0.31339974  0.49511140  1
  Nb  Nb114  1  0.78931009  0.47841629  -0.00566211  1
  Nb  Nb115  1  0.48126415  0.64608334  0.81387717  1
  Nb  Nb116  1  0.86128180  0.97800194  0.62135600  1
  Nb  Nb117  1  0.48676569  0.73495722  0.20656229  1
  Nb  Nb118  1  0.38732816  0.29920301  0.35830801  1
  Nb  Nb119  1  0.15029947  0.55784190  0.27440121  1
  Nb  Nb120  1  0.40408966  0.17933509  0.50191051  1
  Nb  Nb121  1  0.86805263  0.82771750  0.49403048  1
  Nb  Nb122  1  0.93933309  0.63118200  0.01132954  1
  Nb  Nb123  1  0.67219310  0.64279967  0.81647824  1
  Nb  Nb124  1  0.78942583  0.80213834  0.69470725  1
