# generated using pymatgen
data_Zr2Sc2Nb
_symmetry_space_group_name_H-M   'P 1'
_cell_length_a   14.05551686
_cell_length_b   13.96388529
_cell_length_c   14.67107925
_cell_angle_alpha   91.82650587
_cell_angle_beta   87.45657378
_cell_angle_gamma   87.86072076
_symmetry_Int_Tables_number   1
_chemical_formula_structural   Zr2Sc2Nb
_chemical_formula_sum   'Zr50 Sc50 Nb25'
_cell_volume   2873.02385363
_cell_formula_units_Z   25
loop_
 _symmetry_equiv_pos_site_id
 _symmetry_equiv_pos_as_xyz
  1  'x, y, z'
loop_
 _atom_site_type_symbol
 _atom_site_label
 _atom_site_symmetry_multiplicity
 _atom_site_fract_x
 _atom_site_fract_y
 _atom_site_fract_z
 _atom_site_occupancy
  Zr  Zr0  1  0.85267591  0.69437022  0.93094703  1
  Zr  Zr1  1  0.07926901  0.53153064  0.07884744  1
  Zr  Zr2  1  0.85501786  0.08885344  0.70136066  1
  Zr  Zr3  1  0.94303013  0.84078246  0.15616978  1
  Zr  Zr4  1  0.69889902  0.45922535  0.66833226  1
  Zr  Zr5  1  0.46395109  0.00785719  0.74415425  1
  Zr  Zr6  1  0.91180305  0.49135742  0.34693936  1
  Zr  Zr7  1  0.37203241  0.78596967  0.67389859  1
  Zr  Zr8  1  0.30932827  0.13726153  0.73894803  1
  Zr  Zr9  1  0.68997934  0.59162562  0.04775864  1
  Zr  Zr10  1  0.15189999  1.02826112  0.44777625  1
  Zr  Zr11  1  0.73799428  0.79285324  0.11531498  1
  Zr  Zr12  1  0.79276074  0.68885232  0.29710158  1
  Zr  Zr13  1  0.36212490  0.91994481  0.07815000  1
  Zr  Zr14  1  0.38024564  0.73292059  0.20596523  1
  Zr  Zr15  1  0.63689558  0.31939647  0.49413702  1
  Zr  Zr16  1  0.89158866  0.69772805  0.47410818  1
  Zr  Zr17  1  0.25389538  0.41943446  0.55788089  1
  Zr  Zr18  1  0.43222176  0.89880707  0.33671104  1
  Zr  Zr19  1  0.96029403  0.88776058  0.94243316  1
  Zr  Zr20  1  0.90630933  0.50447130  0.77188312  1
  Zr  Zr21  1  0.52339105  0.50046478  0.96510698  1
  Zr  Zr22  1  0.21775411  0.95907315  0.65775799  1
  Zr  Zr23  1  0.56505446  0.92599384  0.13846223  1
  Zr  Zr24  1  0.64975768  0.24150173  0.69857660  1
  Zr  Zr25  1  0.28247921  0.70922504  0.01886922  1
  Zr  Zr26  1  0.50669038  0.44908039  0.75225814  1
  Zr  Zr27  1  0.66007517  0.75885523  0.90697864  1
  Zr  Zr28  1  0.05501552  0.24697430  0.11405471  1
  Zr  Zr29  1  0.16446611  0.86106401  0.85448601  1
  Zr  Zr30  1  0.20484781  0.36908219  0.05796448  1
  Zr  Zr31  1  0.95367806  0.96745592  0.52533722  1
  Zr  Zr32  1  0.25365384  0.37128475  0.75871861  1
  Zr  Zr33  1  0.45132331  0.11096335  0.16476740  1
  Zr  Zr34  1  0.86994896  0.46702249  0.96357791  1
  Zr  Zr35  1  0.64105356  0.87449849  0.31952672  1
  Zr  Zr36  1  0.50264687  0.72329914  0.03903435  1
  Zr  Zr37  1  0.11957285  0.44405828  0.27226871  1
  Zr  Zr38  1  0.89941150  0.62737716  0.12431980  1
  Zr  Zr39  1  0.93711624  0.04962450  0.10596286  1
  Zr  Zr40  1  0.90412874  0.51480099  0.57408660  1
  Zr  Zr41  1  0.43092201  0.25915354  0.42332864  1
  Zr  Zr42  1  0.76283680  0.97450009  0.01644308  1
  Zr  Zr43  1  1.02028977  0.66819665  0.29576058  1
  Zr  Zr44  1  0.67069756  0.36007885  0.88061918  1
  Zr  Zr45  1  0.90640426  0.08542591  0.88641303  1
  Zr  Zr46  1  0.86057955  0.86849415  0.36311337  1
  Zr  Zr47  1  0.57842092  0.94655644  0.91947563  1
  Zr  Zr48  1  0.43484588  0.09381027  0.95530821  1
  Zr  Zr49  1  0.02127415  0.69134932  0.81118811  1
  Sc  Sc50  1  0.85174679  0.30130769  0.43251120  1
  Sc  Sc51  1  0.09764212  0.07102052  0.23680092  1
  Sc  Sc52  1  0.23556029  0.65535476  0.83297564  1
  Sc  Sc53  1  0.21387983  0.26455170  0.40969253  1
  Sc  Sc54  1  0.24192727  0.89972546  0.26824602  1
  Sc  Sc55  1  0.53897416  0.63744377  0.61732237  1
  Sc  Sc56  1  0.68008770  0.13223526  0.87730519  1
  Sc  Sc57  1  0.90535110  0.40442964  0.16038808  1
  Sc  Sc58  1  0.23626155  0.69845058  0.35110536  1
  Sc  Sc59  1  0.46387607  0.26567959  0.84123707  1
  Sc  Sc60  1  0.35629072  0.06622186  0.51787090  1
  Sc  Sc61  1  0.59635435  0.82365214  0.72310771  1
  Sc  Sc62  1  0.08680440  0.11764017  0.76154383  1
  Sc  Sc63  1  0.05234536  0.37702415  0.50727447  1
  Sc  Sc64  1  0.46520104  0.46608284  0.53624688  1
  Sc  Sc65  1  0.72750266  0.52207078  0.45691247  1
  Sc  Sc66  1  0.65831737  0.14807527  0.13224000  1
  Sc  Sc67  1  0.67255356  0.37335012  0.09273430  1
  Sc  Sc68  1  0.00727744  0.17086530  0.54182004  1
  Sc  Sc69  1  0.27835413  0.54593559  0.16208054  1
  Sc  Sc70  1  0.39360530  0.84693945  0.87804868  1
  Sc  Sc71  1  0.03045706  0.30316276  0.92013284  1
  Sc  Sc72  1  0.41978673  0.28158655  0.63083527  1
  Sc  Sc73  1  0.84995845  0.20520773  0.22227075  1
  Sc  Sc74  1  0.32903202  0.48845688  0.36570280  1
  Sc  Sc75  1  0.71244924  0.97819739  0.47326498  1
  Sc  Sc76  1  0.25293836  0.12935224  0.09149064  1
  Sc  Sc77  1  0.47763822  0.65206142  0.82888469  1
  Sc  Sc78  1  0.31499001  0.09705451  0.31387903  1
  Sc  Sc79  1  0.77323697  0.67318167  0.70480925  1
  Sc  Sc80  1  0.51133402  0.89714117  0.53805182  1
  Sc  Sc81  1  0.80462387  0.85867978  0.61717318  1
  Sc  Sc82  1  0.58044287  0.69352424  0.24284331  1
  Sc  Sc83  1  0.31115650  0.30843729  0.22645962  1
  Sc  Sc84  1  0.49420497  0.50787346  0.16714729  1
  Sc  Sc85  1  0.99994950  0.90179385  0.72343098  1
  Sc  Sc86  1  0.85173991  0.31183118  0.63187367  1
  Sc  Sc87  1  0.24243625  0.23088851  0.91312031  1
  Sc  Sc88  1  0.66523969  0.73817020  0.47653909  1
  Sc  Sc89  1  0.14298476  0.91513674  0.07099632  1
  Sc  Sc90  1  0.44472372  0.30807752  0.05090781  1
  Sc  Sc91  1  0.05040089  0.33535576  0.71337631  1
  Sc  Sc92  1  0.83604764  0.23902600  0.01574129  1
  Sc  Sc93  1  0.02708691  0.25771523  0.32383978  1
  Sc  Sc94  1  0.55919849  0.12114437  0.54494588  1
  Sc  Sc95  1  0.55261722  0.50606518  0.35816781  1
  Sc  Sc96  1  0.10149654  0.58169429  0.47554865  1
  Sc  Sc97  1  0.09626507  0.80562846  0.49367548  1
  Sc  Sc98  1  0.53661074  0.29533022  0.25634492  1
  Sc  Sc99  1  0.32080109  0.48018435  0.92170436  1
  Nb  Nb100  1  0.97979896  0.69797152  0.63431766  1
  Nb  Nb101  1  0.69208603  0.55441424  0.84840625  1
  Nb  Nb102  1  0.12056442  0.54116644  0.67821790  1
  Nb  Nb103  1  0.72520180  0.52620471  0.22510554  1
  Nb  Nb104  1  0.84711621  0.28802957  0.81754758  1
  Nb  Nb105  1  0.05027076  0.88632152  0.31854392  1
  Nb  Nb106  1  0.26482725  0.01794249  0.89388674  1
  Nb  Nb107  1  0.66595504  0.01848074  0.69251971  1
  Nb  Nb108  1  0.76553395  -0.00035620  0.23321301  1
  Nb  Nb109  1  0.33806935  0.55589152  0.69352602  1
  Nb  Nb110  1  0.54227338  0.06936509  0.33442554  1
  Nb  Nb111  1  0.45006003  0.70402939  0.42616766  1
  Nb  Nb112  1  0.06686734  0.71240896  0.99625949  1
  Nb  Nb113  1  0.29937606  0.84944934  0.49146985  1
  Nb  Nb114  1  0.69902178  0.15978166  0.35937938  1
  Nb  Nb115  1  0.78169481  0.14139219  0.53957126  1
  Nb  Nb116  1  0.08681841  0.08598886  0.96832074  1
  Nb  Nb117  1  0.17681798  0.74090668  0.66042280  1
  Nb  Nb118  1  0.09756786  0.50002476  0.88001759  1
  Nb  Nb119  1  0.14672733  0.73232685  0.16979615  1
  Nb  Nb120  1  0.91011519  0.07323695  0.36498002  1
  Nb  Nb121  1  0.20527236  0.21026411  0.59762968  1
  Nb  Nb122  1  0.30121612  0.63738579  0.53517307  1
  Nb  Nb123  1  0.72162211  0.35935110  0.29899559  1
  Nb  Nb124  1  0.78481196  0.90947775  0.81890186  1
