# generated using pymatgen
data_Zr2Sc2Nb
_symmetry_space_group_name_H-M   'P 1'
_cell_length_a   14.31215387
_cell_length_b   14.05875962
_cell_length_c   14.28162588
_cell_angle_alpha   88.92493683
_cell_angle_beta   91.93104100
_cell_angle_gamma   88.84772016
_symmetry_Int_Tables_number   1
_chemical_formula_structural   Zr2Sc2Nb
_chemical_formula_sum   'Zr50 Sc50 Nb25'
_cell_volume   2870.86595121
_cell_formula_units_Z   25
loop_
 _symmetry_equiv_pos_site_id
 _symmetry_equiv_pos_as_xyz
  1  'x, y, z'
loop_
 _atom_site_type_symbol
 _atom_site_label
 _atom_site_symmetry_multiplicity
 _atom_site_fract_x
 _atom_site_fract_y
 _atom_site_fract_z
 _atom_site_occupancy
  Zr  Zr0  1  0.21399385  0.42161190  0.85260161  1
  Zr  Zr1  1  0.49944160  0.23190579  0.50689563  1
  Zr  Zr2  1  0.40871970  0.64297304  0.52589503  1
  Zr  Zr3  1  0.99398776  0.05498645  0.69667775  1
  Zr  Zr4  1  0.88072805  0.98302596  0.12014691  1
  Zr  Zr5  1  0.64363959  0.27115619  0.67776287  1
  Zr  Zr6  1  0.62739122  0.76870375  -0.00625168  1
  Zr  Zr7  1  0.69763856  0.09386263  0.83445731  1
  Zr  Zr8  1  0.52253964  0.46612169  0.61310137  1
  Zr  Zr9  1  0.90378038  0.96845815  0.90310582  1
  Zr  Zr10  1  0.30677857  0.31374432  0.11808849  1
  Zr  Zr11  1  0.37296863  0.30108117  0.92361341  1
  Zr  Zr12  1  0.69855752  0.93564379  0.42831075  1
  Zr  Zr13  1  0.18063296  0.72236392  0.93707962  1
  Zr  Zr14  1  0.10661620  0.07722165  0.89371852  1
  Zr  Zr15  1  0.96612589  0.67358483  0.52656415  1
  Zr  Zr16  1  0.70149757  0.15077205  0.50147663  1
  Zr  Zr17  1  0.92027887  0.48084032  0.11493840  1
  Zr  Zr18  1  0.20592383  0.02657208  0.70762298  1
  Zr  Zr19  1  0.24457341  0.23037304  0.75723395  1
  Zr  Zr20  1  0.89210102  0.17264464  0.85381359  1
  Zr  Zr21  1  0.06998887  0.67986904  0.34945783  1
  Zr  Zr22  1  0.03109625  0.66360790  0.07359184  1
  Zr  Zr23  1  0.24957574  0.97085693  0.29846649  1
  Zr  Zr24  1  0.43365648  0.27793396  0.30212601  1
  Zr  Zr25  1  0.39979255  0.76535968  0.91668281  1
  Zr  Zr26  1  0.25715189  0.80569429  0.73246892  1
  Zr  Zr27  1  0.64096984  0.37345213  0.45553420  1
  Zr  Zr28  1  0.16255761  0.08523030  0.48323935  1
  Zr  Zr29  1  0.43317259  0.29034931  0.70312421  1
  Zr  Zr30  1  0.70484347  0.68508608  0.80547408  1
  Zr  Zr31  1  0.48653602  0.68715520  0.72822657  1
  Zr  Zr32  1  0.54961068  0.92065431  0.85847680  1
  Zr  Zr33  1  0.32591848  0.54999364  0.98438213  1
  Zr  Zr34  1  0.45520608  0.66769064  0.10802230  1
  Zr  Zr35  1  0.82258090  0.53248972  0.90911284  1
  Zr  Zr36  1  0.09591349  0.47335997  0.68390527  1
  Zr  Zr37  1  0.70335675  0.87339255  0.20590915  1
  Zr  Zr38  1  0.88200858  0.28687767  0.21748435  1
  Zr  Zr39  1  0.51754359  0.98913111  0.51603898  1
  Zr  Zr40  1  0.84264216  0.30618570  0.43082942  1
  Zr  Zr41  1  0.87913350  0.60643023  0.70318999  1
  Zr  Zr42  1  0.10458929  0.51616594  0.23490164  1
  Zr  Zr43  1  0.61953462  0.85846016  0.66567302  1
  Zr  Zr44  1  0.95952735  0.35086573  -0.02925852  1
  Zr  Zr45  1  0.57075774  0.27765010  0.87900969  1
  Zr  Zr46  1  0.05428902  0.27126402  0.79204423  1
  Zr  Zr47  1  0.52487410  0.24675783  0.11036746  1
  Zr  Zr48  1  0.94594674  0.47339692  0.34882181  1
  Zr  Zr49  1  0.91025159  0.83793043  0.71421702  1
  Sc  Sc50  1  0.74784615  0.48011754  0.27389354  1
  Sc  Sc51  1  0.56476508  0.77011218  0.46813194  1
  Sc  Sc52  1  0.07892744  0.68439167  0.73314549  1
  Sc  Sc53  1  0.90214351  0.86598220  0.29453579  1
  Sc  Sc54  1  0.83776478  0.78288726  0.04431799  1
  Sc  Sc55  1  0.74715887  0.44535011  0.65442734  1
  Sc  Sc56  1  0.50956614  0.44265884  0.02518582  1
  Sc  Sc57  1  0.21831299  0.17541408  0.28406791  1
  Sc  Sc58  1  0.19324987  0.67893967  0.54683403  1
  Sc  Sc59  1  0.11923190  0.47254879  0.47197209  1
  Sc  Sc60  1  0.87732318  0.65722398  0.22705726  1
  Sc  Sc61  1  0.80173106  0.08318812  0.30420575  1
  Sc  Sc62  1  0.28022803  0.77251310  0.35107291  1
  Sc  Sc63  1  0.97733333  0.15220949  0.05428330  1
  Sc  Sc64  1  0.75660216  0.16665754  0.03622460  1
  Sc  Sc65  1  0.54458078  0.46062068  0.23896089  1
  Sc  Sc66  1  0.30289649  0.46140276  0.60899164  1
  Sc  Sc67  1  0.08937044  0.84092107  0.20008686  1
  Sc  Sc68  1  0.41629067  0.91798107  0.70244793  1
  Sc  Sc69  1  0.30026265  0.90228857  0.51849655  1
  Sc  Sc70  1  0.35747145  0.10897251  0.60643028  1
  Sc  Sc71  1  0.77289610  0.00912070  0.65022527  1
  Sc  Sc72  1  0.29034959  0.60877449  0.76909978  1
  Sc  Sc73  1  0.85761829  0.24079977  0.64935981  1
  Sc  Sc74  1  0.08068589  0.30441190  0.16944090  1
  Sc  Sc75  1  0.23667894  0.66631615  0.16499585  1
  Sc  Sc76  1  0.69188131  0.58083780  0.06738831  1
  Sc  Sc77  1  0.94100565  0.11354578  0.48446303  1
  Sc  Sc78  1  0.76726448  0.73264792  0.39482359  1
  Sc  Sc79  1  0.23568304  0.37638505  0.31617726  1
  Sc  Sc80  1  0.53340824  0.08988251  0.98206511  1
  Sc  Sc81  1  0.28780515  0.86617226  0.10567630  1
  Sc  Sc82  1  0.79027198  0.54883114  0.48305443  1
  Sc  Sc83  1  0.72696469  0.37277040  0.04903434  1
  Sc  Sc84  1  0.50067166  0.90048637  0.08644947  1
  Sc  Sc85  1  0.31601618  0.11740232  1.00329086  1
  Sc  Sc86  1  0.40853228  0.07820421  0.19287801  1
  Sc  Sc87  1  0.09112316  0.87471298  0.60554753  1
  Sc  Sc88  1  0.47623486  0.88897165  0.30405925  1
  Sc  Sc89  1  0.03867770  0.54171349  0.89299139  1
  Sc  Sc90  1  0.09036434  0.89288751  0.40543723  1
  Sc  Sc91  1  0.56660270  0.09662166  0.34242185  1
  Sc  Sc92  1  0.62230324  0.68562657  0.24194451  1
  Sc  Sc93  1  0.28235071  0.93989192  0.89912062  1
  Sc  Sc94  1  0.02004690  0.08112608  0.28338245  1
  Sc  Sc95  1  0.15000461  0.04539448  0.11012899  1
  Sc  Sc96  1  0.07664634  0.26195607  0.58596803  1
  Sc  Sc97  1  0.89635833  0.89996005  0.50204269  1
  Sc  Sc98  1  0.27761593  0.27734117  0.49396440  1
  Sc  Sc99  1  0.67366425  0.26430300  0.26544370  1
  Nb  Nb100  1  0.75224635  0.87020519  0.83354735  1
  Nb  Nb101  1  0.15708931  0.46610220  0.05496199  1
  Nb  Nb102  1  0.41075263  0.10483566  0.81325798  1
  Nb  Nb103  1  0.04721484  0.28619741  0.38131562  1
  Nb  Nb104  1  0.63622795  0.05620066  0.16561125  1
  Nb  Nb105  1  0.64084405  0.62705252  0.61385827  1
  Nb  Nb106  1  0.62644707  0.48118882  0.81256034  1
  Nb  Nb107  1  0.91942682  0.40962249  0.76803734  1
  Nb  Nb108  1  0.42313606  0.44688114  0.41705977  1
  Nb  Nb109  1  0.77004091  0.76411414  0.59660766  1
  Nb  Nb110  1  0.43186280  0.46578613  0.80970833  1
  Nb  Nb111  1  0.15742418  0.26181839  0.97685568  1
  Nb  Nb112  1  0.52589209  0.61276359  0.91264260  1
  Nb  Nb113  1  0.34601623  0.49404952  0.19701813  1
  Nb  Nb114  1  0.76366594  0.32529218  0.84762615  1
  Nb  Nb115  1  0.55895195  0.08744142  0.68805363  1
  Nb  Nb116  1  0.70650560  0.95926694  0.00697972  1
  Nb  Nb117  1  0.26825407  0.56887856  0.37695172  1
  Nb  Nb118  1  0.93869375  0.73546907  0.88352932  1
  Nb  Nb119  1  0.08504902  0.88307336  0.81837374  1
  Nb  Nb120  1  0.36901308  0.08734026  0.40482449  1
  Nb  Nb121  1  0.05558998  0.87852602  1.00610242  1
  Nb  Nb122  1  0.43522102  0.64054201  0.31372862  1
  Nb  Nb123  1  0.94106661  0.42945637  0.56338346  1
  Nb  Nb124  1  0.58964359  0.56748055  0.42338672  1
