# generated using pymatgen
data_Zr2Sc2Nb
_symmetry_space_group_name_H-M   'P 1'
_cell_length_a   14.20465855
_cell_length_b   14.50424221
_cell_length_c   13.96800306
_cell_angle_alpha   94.03201271
_cell_angle_beta   92.39565145
_cell_angle_gamma   90.40482035
_symmetry_Int_Tables_number   1
_chemical_formula_structural   Zr2Sc2Nb
_chemical_formula_sum   'Zr50 Sc50 Nb25'
_cell_volume   2868.02081533
_cell_formula_units_Z   25
loop_
 _symmetry_equiv_pos_site_id
 _symmetry_equiv_pos_as_xyz
  1  'x, y, z'
loop_
 _atom_site_type_symbol
 _atom_site_label
 _atom_site_symmetry_multiplicity
 _atom_site_fract_x
 _atom_site_fract_y
 _atom_site_fract_z
 _atom_site_occupancy
  Zr  Zr0  1  0.71611210  0.88826826  0.01640187  1
  Zr  Zr1  1  0.66004214  0.69993707  0.90774760  1
  Zr  Zr2  1  0.33955342  0.85931260  0.94469023  1
  Zr  Zr3  1  0.85984483  0.43801974  0.51602126  1
  Zr  Zr4  1  0.34113099  0.51676410  0.84966917  1
  Zr  Zr5  1  0.68008289  0.10069844  0.94998393  1
  Zr  Zr6  1  0.78504173  0.76457795  0.45269009  1
  Zr  Zr7  1  0.34305458  0.78710275  0.15709932  1
  Zr  Zr8  1  0.30926083  0.48973680  0.26758808  1
  Zr  Zr9  1  0.59979371  0.71664014  0.33205350  1
  Zr  Zr10  1  0.07399178  0.44870067  0.10361230  1
  Zr  Zr11  1  0.08106723  0.47380090  0.51215045  1
  Zr  Zr12  1  0.24769223  0.32241562  0.50852558  1
  Zr  Zr13  1  0.31773125  0.10560737  0.41852332  1
  Zr  Zr14  1  0.71300638  0.58500495  0.53682051  1
  Zr  Zr15  1  0.94825776  0.93775172  0.55194700  1
  Zr  Zr16  1  0.64737781  0.44096502  0.14890406  1
  Zr  Zr17  1  0.94016459  0.46148321  0.29556332  1
  Zr  Zr18  1  0.57266733  0.56625742  0.75455434  1
  Zr  Zr19  1  0.34278088  0.95309237  0.52955375  1
  Zr  Zr20  1  0.76508802  0.33418987  0.29104567  1
  Zr  Zr21  1  0.66724470  0.19726647  0.15323343  1
  Zr  Zr22  1  0.51854917  0.64856326  0.54628580  1
  Zr  Zr23  1  0.93568833  0.40725828  0.90215643  1
  Zr  Zr24  1  0.15649745  -0.10710271  0.85768965  1
  Zr  Zr25  1  0.46244886  0.25567329  0.47517828  1
  Zr  Zr26  1  0.54462188  0.80734264  0.11235884  1
  Zr  Zr27  1  0.16655378  0.12889300  0.58788715  1
  Zr  Zr28  1  0.49181957  0.78325368  0.76485523  1
  Zr  Zr29  1  0.64707470  0.16418997  0.37423485  1
  Zr  Zr30  1  0.39342314  0.15798065  0.63512532  1
  Zr  Zr31  1  0.52645421  0.36118845  0.78013346  1
  Zr  Zr32  1  0.32846327  0.36576764  0.69490204  1
  Zr  Zr33  1  0.26132681  0.71360209  0.78625348  1
  Zr  Zr34  1  0.28981382  0.52382443  0.05053480  1
  Zr  Zr35  1  0.08085201  0.82506162  0.24684737  1
  Zr  Zr36  1  0.73294941  0.28828073  0.84049498  1
  Zr  Zr37  1  0.44016246  0.18453400  0.09271562  1
  Zr  Zr38  1  0.21688797  0.65630493  0.20015304  1
  Zr  Zr39  1  0.54186010  0.99231113  0.70227064  1
  Zr  Zr40  1  0.09926847  0.60186006  0.34417179  1
  Zr  Zr41  1  0.46816472  0.60684979  0.16433871  1
  Zr  Zr42  1  0.39733974  0.98228972  0.12529933  1
  Zr  Zr43  1  0.05805792  0.04739006  -0.00590357  1
  Zr  Zr44  1  0.62002335  0.00790924  0.17469488  1
  Zr  Zr45  1  0.56298291  0.84078406  0.54214466  1
  Zr  Zr46  1  0.82933519  0.31455515  0.06465558  1
  Zr  Zr47  1  0.00264461  0.81026340  0.96115616  1
  Zr  Zr48  1  0.95236447  0.13298342  0.65100725  1
  Zr  Zr49  1  0.52731261  0.49953565  0.97134167  1
  Sc  Sc50  1  0.12715622  0.67693673  0.58544110  1
  Sc  Sc51  1  0.97118502  0.91212148  0.75633904  1
  Sc  Sc52  1  0.52244570  0.50945373  0.35027430  1
  Sc  Sc53  1  0.52994444  0.04956086  0.49562227  1
  Sc  Sc54  1  0.65350315  0.37599188  0.46317803  1
  Sc  Sc55  1  0.02197244  0.28370913  0.51106853  1
  Sc  Sc56  1  0.12031150  0.97221271  0.42813100  1
  Sc  Sc57  1  0.12657042  0.26965847  0.92332436  1
  Sc  Sc58  1  0.63161051  0.21951833  0.62492569  1
  Sc  Sc59  1  0.88067088  0.33237628  0.69611509  1
  Sc  Sc60  1  0.34489973  0.76835700  0.59619573  1
  Sc  Sc61  1  0.86157153  0.11114641  0.09577642  1
  Sc  Sc62  1  0.74648793  0.56053591  0.31777972  1
  Sc  Sc63  1  0.24851650  0.31535544  0.11043050  1
  Sc  Sc64  1  0.67232472  0.93420642  0.37326518  1
  Sc  Sc65  1  0.36116073  0.32400931  0.92923529  1
  Sc  Sc66  1  0.90568493  0.68959707  0.26263345  1
  Sc  Sc67  1  0.53447237  0.30740857  0.27530724  1
  Sc  Sc68  1  0.72986295  0.49202374  0.91358958  1
  Sc  Sc69  1  0.43781923  0.68240054  0.95195547  1
  Sc  Sc70  1  0.58749908  0.29978943  -0.01186404  1
  Sc  Sc71  1  0.12070060  0.51876822  0.89583398  1
  Sc  Sc72  1  0.94295481  0.24289114  0.29215868  1
  Sc  Sc73  1  0.76293912  0.89454417  0.64148460  1
  Sc  Sc74  1  0.92410199  0.18641792  0.88250512  1
  Sc  Sc75  1  0.13341292  0.37987951  0.30567342  1
  Sc  Sc76  1  0.45785678  0.89537701  0.33372885  1
  Sc  Sc77  1  0.10495678  0.33009539  0.71696653  1
  Sc  Sc78  1  0.05266987  0.22828762  0.11943182  1
  Sc  Sc79  1  0.48725400  0.44274493  0.57350641  1
  Sc  Sc80  1  0.89996533  0.91378623  0.34233100  1
  Sc  Sc81  1  0.85337432  0.52064465  0.10051425  1
  Sc  Sc82  1  0.27084961  0.08575568  0.95863946  1
  Sc  Sc83  1  0.03274328  0.64934986  0.08975259  1
  Sc  Sc84  1  0.75586152  0.08684589  0.74711821  1
  Sc  Sc85  1  0.14074700  0.17705834  0.35390007  1
  Sc  Sc86  1  0.47964648  0.15635235  0.84266775  1
  Sc  Sc87  1  0.86086796  -0.02040738  0.91079926  1
  Sc  Sc88  1  0.28956347  0.54331523  0.48933449  1
  Sc  Sc89  1  0.76915035  0.05799361  0.52039733  1
  Sc  Sc90  1  0.51520417  0.96513567  0.93996193  1
  Sc  Sc91  1  0.90679714  0.72347402  0.63614213  1
  Sc  Sc92  1  0.39348757  0.68819677  0.36240341  1
  Sc  Sc93  1  0.22165149  0.78670968  0.40867338  1
  Sc  Sc94  1  0.15270592  0.89429611  0.63232741  1
  Sc  Sc95  1  0.91230478  0.91081492  0.12642616  1
  Sc  Sc96  1  0.17584482  0.90865580  0.08666066  1
  Sc  Sc97  1  0.32642842  0.98593673  0.75806435  1
  Sc  Sc98  1  0.74146073  0.81103196  0.21428007  1
  Sc  Sc99  1  0.33223326  0.27910747  0.29807908  1
  Nb  Nb100  1  0.01313978  0.77751946  0.44662526  1
  Nb  Nb101  1  0.96068651  0.09920873  0.43388443  1
  Nb  Nb102  1  0.81770295  0.24132408  0.48253296  1
  Nb  Nb103  1  0.92895765  0.60478087  0.46503743  1
  Nb  Nb104  1  0.10698709  0.08105352  0.78530525  1
  Nb  Nb105  1  0.44017905  0.40137219  0.12861221  1
  Nb  Nb106  1  0.68017002  0.72592410  0.68700318  1
  Nb  Nb107  1  0.98726419  0.52503062  0.69696487  1
  Nb  Nb108  1  0.83323425  0.77159749  0.83174653  1
  Nb  Nb109  1  0.82964465  0.71705331  0.03811676  1
  Nb  Nb110  1  0.46000329  0.10281606  0.28393849  1
  Nb  Nb111  1  0.69514890  0.41839993  0.67198820  1
  Nb  Nb112  1  0.67222730  0.89795912  0.81972058  1
  Nb  Nb113  1  0.04370482  1.04167005  0.22907304  1
  Nb  Nb114  1  0.24174566  0.11191257  0.17821247  1
  Nb  Nb115  1  0.26243943  0.19363784  0.77649315  1
  Nb  Nb116  1  0.38158997  0.58839749  0.68198785  1
  Nb  Nb117  1  0.18958096  0.52371596  0.69414083  1
  Nb  Nb118  1  0.05560615  0.69493858  0.79331590  1
  Nb  Nb119  1  0.92151736  0.60555830  0.90089178  1
  Nb  Nb120  1  0.66576511  0.63578865  0.11114433  1
  Nb  Nb121  1  0.80381327  0.57071198  0.73621640  1
  Nb  Nb122  1  0.80914200  0.08664860  0.29350806  1
  Nb  Nb123  1  0.26059432  -0.04269060  0.28301733  1
  Nb  Nb124  1  0.20182279  0.70730110  0.98067415  1
