# generated using pymatgen
data_Zr2Sc2Nb
_symmetry_space_group_name_H-M   'P 1'
_cell_length_a   13.88069979
_cell_length_b   14.40144047
_cell_length_c   14.49069787
_cell_angle_alpha   90.83781746
_cell_angle_beta   90.92445899
_cell_angle_gamma   90.56841738
_symmetry_Int_Tables_number   1
_chemical_formula_structural   Zr2Sc2Nb
_chemical_formula_sum   'Zr50 Sc50 Nb25'
_cell_volume   2895.88438605
_cell_formula_units_Z   25
loop_
 _symmetry_equiv_pos_site_id
 _symmetry_equiv_pos_as_xyz
  1  'x, y, z'
loop_
 _atom_site_type_symbol
 _atom_site_label
 _atom_site_symmetry_multiplicity
 _atom_site_fract_x
 _atom_site_fract_y
 _atom_site_fract_z
 _atom_site_occupancy
  Zr  Zr0  1  0.57828961  0.66908236  0.24431824  1
  Zr  Zr1  1  0.16310083  0.34439406  0.68634981  1
  Zr  Zr2  1  0.28657333  0.64899602  0.16926180  1
  Zr  Zr3  1  0.40383985  0.31929604  0.04870711  1
  Zr  Zr4  1  0.31442482  0.55041711  0.73563820  1
  Zr  Zr5  1  0.02439035  0.92709827  0.09954765  1
  Zr  Zr6  1  0.30204758  0.77786619  0.71333982  1
  Zr  Zr7  1  0.16927130  0.91022355  0.86862981  1
  Zr  Zr8  1  0.14138082  0.10388414  0.16629585  1
  Zr  Zr9  1  0.27615971  0.84259939  0.44987900  1
  Zr  Zr10  1  0.67498134  0.74544655  0.74169898  1
  Zr  Zr11  1  0.48784636  0.69148348  0.62576718  1
  Zr  Zr12  1  0.46765884  0.06579443  0.81184647  1
  Zr  Zr13  1  0.29991916  0.18717415  0.74177513  1
  Zr  Zr14  1  0.58444847  0.25890483  0.68755659  1
  Zr  Zr15  1  0.73382093  0.41020225  0.65061591  1
  Zr  Zr16  1  0.16845223  0.88629616  0.25561331  1
  Zr  Zr17  1  0.47812843  0.93971326  0.40160743  1
  Zr  Zr18  1  0.95105733  0.61320830  0.31531983  1
  Zr  Zr19  1  0.51635742  0.01569265  0.19701305  1
  Zr  Zr20  1  0.47165236  0.10472141  0.59803129  1
  Zr  Zr21  1  0.69479506  0.60358382  0.60833487  1
  Zr  Zr22  1  0.44948074  0.89450086  0.59155119  1
  Zr  Zr23  1  0.20013109  0.33086779  0.08441677  1
  Zr  Zr24  1  0.70646065  0.20844382  0.50757831  1
  Zr  Zr25  1  0.72386740  0.92368587  0.87911576  1
  Zr  Zr26  1  0.12740199  0.11648454  0.58419976  1
  Zr  Zr27  1  0.50424623  0.32392597  0.50002889  1
  Zr  Zr28  1  0.74183809  0.52308594  0.27177970  1
  Zr  Zr29  1  0.10025012  0.29187172  0.87850419  1
  Zr  Zr30  1  0.28886261  0.43656119  0.53394893  1
  Zr  Zr31  1  0.06982448  0.09165628  0.97620345  1
  Zr  Zr32  1  0.90944559  0.62404455  0.96654064  1
  Zr  Zr33  1  0.27947785  0.98224580  0.69275394  1
  Zr  Zr34  1  0.04149958  0.71528992  0.15860184  1
  Zr  Zr35  1  0.78935405  0.90402694  0.66799430  1
  Zr  Zr36  1  0.85631728  0.06745891  0.00687981  1
  Zr  Zr37  1  0.30902458  0.22483078  0.53350888  1
  Zr  Zr38  1  0.84052685  0.90263189  0.21673142  1
  Zr  Zr39  1  0.33151449  0.52169367  1.00724133  1
  Zr  Zr40  1  0.87804857  0.75725625  0.80636631  1
  Zr  Zr41  1  0.10232747  0.71637284  0.75131574  1
  Zr  Zr42  1  0.91315637  0.39611052  0.34883336  1
  Zr  Zr43  1  0.69528843  0.41599851  0.45068457  1
  Zr  Zr44  1  0.11887979  0.54323366  0.04785499  1
  Zr  Zr45  1  0.64521230  0.81054296  0.51938211  1
  Zr  Zr46  1  0.32442995  0.54874478  0.36367653  1
  Zr  Zr47  1  0.69767291  0.07953203  0.31438846  1
  Zr  Zr48  1  0.27652359  0.15029976  0.95474366  1
  Zr  Zr49  1  0.93038445  0.42620930  0.94376604  1
  Sc  Sc50  1  0.09990962  0.09008064  0.78445726  1
  Sc  Sc51  1  0.29568421  0.37697935  0.86471398  1
  Sc  Sc52  1  0.51508465  0.27388748  0.22607641  1
  Sc  Sc53  1  0.17235883  0.12772065  0.37212467  1
  Sc  Sc54  1  0.06226168  0.75608495  0.96081324  1
  Sc  Sc55  1  0.68120422  0.14823969  0.90431682  1
  Sc  Sc56  1  0.72003688  0.35344727  0.86094511  1
  Sc  Sc57  1  0.54331524  0.49429562  0.72112944  1
  Sc  Sc58  1  0.88177569  0.07579964  0.57957417  1
  Sc  Sc59  1  0.86044760  0.75426630  0.53889774  1
  Sc  Sc60  1  0.83328785  0.93915943  0.42712359  1
  Sc  Sc61  1  0.10990330  0.52390496  0.84463226  1
  Sc  Sc62  1  0.36908468  0.89028680  0.88191294  1
  Sc  Sc63  1  0.81745986  0.68251316  0.15266444  1
  Sc  Sc64  1  0.27324595  0.64609843  0.55027945  1
  Sc  Sc65  1  1.00064491  0.26529122  0.07165092  1
  Sc  Sc66  1  0.13565825  0.49095533  0.24479834  1
  Sc  Sc67  1  0.16402020  0.69344394  0.34139333  1
  Sc  Sc68  1  0.47569642  0.68970421  0.83759813  1
  Sc  Sc69  1  0.51794717  0.46636645  0.33099088  1
  Sc  Sc70  1  0.07497051  0.28224122  0.26831124  1
  Sc  Sc71  1  0.53806946  0.90430020  0.99174633  1
  Sc  Sc72  1  0.53058301  0.48755624  0.92261734  1
  Sc  Sc73  1  0.92750000  0.46599803  0.15058379  1
  Sc  Sc74  1  0.91668243  0.58931814  0.68999883  1
  Sc  Sc75  1  0.47067044  0.14308222  0.38252684  1
  Sc  Sc76  1  0.91215904  0.35863155  0.55564435  1
  Sc  Sc77  1  0.68191054  0.71082474  0.95797733  1
  Sc  Sc78  1  0.30684058  0.31285608  0.33728652  1
  Sc  Sc79  1  0.41459821  0.82745365  0.21992589  1
  Sc  Sc80  1  0.75330202  0.55277904  0.82371980  1
  Sc  Sc81  1  0.66111832  0.05746181  0.70387499  1
  Sc  Sc82  1  0.96079107  0.92598998  0.88019091  1
  Sc  Sc83  1  0.88065424  0.14091823  0.19766010  1
  Sc  Sc84  1  0.45509129  0.71892122  0.41242737  1
  Sc  Sc85  1  0.26388922  0.69838250  0.92255572  1
  Sc  Sc86  1  0.08101440  0.94293694  0.46820074  1
  Sc  Sc87  1  0.73537333  0.30567390  0.25903368  1
  Sc  Sc88  1  0.47001780  0.69797699  0.04909208  1
  Sc  Sc89  1  0.48889636  0.27646742  0.86281548  1
  Sc  Sc90  1  0.73292848  0.50057695  0.04259690  1
  Sc  Sc91  1  0.09253216  0.51421224  0.44676689  1
  Sc  Sc92  1  0.92145725  0.18139846  0.40761035  1
  Sc  Sc93  1  0.48735761  0.11979566  0.02379953  1
  Sc  Sc94  1  0.86164061  0.55364460  0.48360230  1
  Sc  Sc95  1  0.02806674  0.91102267  0.67594220  1
  Sc  Sc96  1  0.52996294  0.49489835  0.12948301  1
  Sc  Sc97  1  0.10340679  0.30737187  0.48551063  1
  Sc  Sc98  1  0.07178856  0.72401045  0.53465897  1
  Sc  Sc99  1  0.28826161  0.96707870  0.07536254  1
  Nb  Nb100  1  0.87091737  0.06582275  0.78407564  1
  Nb  Nb101  1  0.33831928  0.44467754  0.19143074  1
  Nb  Nb102  1  -0.02089082  0.80998016  0.33580804  1
  Nb  Nb103  1  0.90500256  0.22562076  0.87874115  1
  Nb  Nb104  1  0.33392386  0.16877365  0.17783685  1
  Nb  Nb105  1  0.93955717  0.39709751  0.75541907  1
  Nb  Nb106  1  0.61000862  0.31980306  0.04062511  1
  Nb  Nb107  1  0.99186821  0.22402679  0.68669644  1
  Nb  Nb108  1  0.48294585  0.52027076  0.52821234  1
  Nb  Nb109  1  0.64632775  0.01123478  0.50484135  1
  Nb  Nb110  1  0.64899897  0.81293984  0.14013731  1
  Nb  Nb111  1  0.64291645  0.61899441  0.42940481  1
  Nb  Nb112  1  0.31715036  1.01050828  0.28996344  1
  Nb  Nb113  1  0.10724121  0.52433066  0.64007288  1
  Nb  Nb114  1  0.70294046  0.98375764  0.09800016  1
  Nb  Nb115  1  0.64111606  0.87661700  0.31607898  1
  Nb  Nb116  1  0.67159900  0.16016801  0.12390873  1
  Nb  Nb117  1  0.77376114  0.73684071  0.34324590  1
  Nb  Nb118  1  0.84731324  0.83305636  0.02065933  1
  Nb  Nb119  1  0.53876314  0.88349654  0.75926053  1
  Nb  Nb120  1  0.30260570  0.02798679  0.49494012  1
  Nb  Nb121  1  0.39699766  0.35547574  0.67713362  1
  Nb  Nb122  1  0.80097891  0.28949769  0.04950681  1
  Nb  Nb123  1  0.00352900  0.01364705  0.29539531  1
  Nb  Nb124  1  0.79550299  0.22938444  0.70525128  1
