# generated using pymatgen
data_Zr2Sc2Nb
_symmetry_space_group_name_H-M   'P 1'
_cell_length_a   14.09680480
_cell_length_b   14.80418130
_cell_length_c   13.72792033
_cell_angle_alpha   90.53585304
_cell_angle_beta   88.31240842
_cell_angle_gamma   89.28548661
_symmetry_Int_Tables_number   1
_chemical_formula_structural   Zr2Sc2Nb
_chemical_formula_sum   'Zr50 Sc50 Nb25'
_cell_volume   2863.30171791
_cell_formula_units_Z   25
loop_
 _symmetry_equiv_pos_site_id
 _symmetry_equiv_pos_as_xyz
  1  'x, y, z'
loop_
 _atom_site_type_symbol
 _atom_site_label
 _atom_site_symmetry_multiplicity
 _atom_site_fract_x
 _atom_site_fract_y
 _atom_site_fract_z
 _atom_site_occupancy
  Zr  Zr0  1  0.80045419  0.46102187  0.18001288  1
  Zr  Zr1  1  0.25930642  0.43389057  0.76618204  1
  Zr  Zr2  1  0.91506787  0.14181038  0.87498805  1
  Zr  Zr3  1  0.30988852  0.62544083  0.69638014  1
  Zr  Zr4  1  0.00071411  0.07307655  0.05948673  1
  Zr  Zr5  1  0.91111455  0.17316630  0.46311753  1
  Zr  Zr6  1  0.42736413  0.13657460  0.32143862  1
  Zr  Zr7  1  -0.03061748  0.10839649  0.26763425  1
  Zr  Zr8  1  0.66409092  0.70856118  0.63667617  1
  Zr  Zr9  1  0.47126336  0.49740094  0.76648837  1
  Zr  Zr10  1  0.36954471  0.83158932  0.12489123  1
  Zr  Zr11  1  0.25834014  0.29786609  0.97697150  1
  Zr  Zr12  1  0.97234363  0.00987959  0.68132436  1
  Zr  Zr13  1  0.65681312  0.33460823  0.11219224  1
  Zr  Zr14  1  0.97242275  0.42585840  0.08113096  1
  Zr  Zr15  1  0.86336327  0.23982796  0.13106135  1
  Zr  Zr16  1  0.88806756  0.19728377  0.67009574  1
  Zr  Zr17  1  0.31190474  0.52674661  0.96098382  1
  Zr  Zr18  1  0.72427997  0.68807060  0.87972500  1
  Zr  Zr19  1  0.73466934  0.94715370  0.30275639  1
  Zr  Zr20  1  0.14055629  0.12775065  0.85638019  1
  Zr  Zr21  1  0.18923572  0.34905447  0.56888377  1
  Zr  Zr22  1  0.24179689  0.94827676  0.95180367  1
  Zr  Zr23  1  0.18427745  0.63948912  0.34465176  1
  Zr  Zr24  1  0.54962663  0.93623722  0.20835354  1
  Zr  Zr25  1  0.51882050  0.01373711  0.72494980  1
  Zr  Zr26  1  0.09961152  0.44101188  0.91118268  1
  Zr  Zr27  1  0.33169248  0.72143580  0.94418513  1
  Zr  Zr28  1  0.86659105  0.33622584  0.92151858  1
  Zr  Zr29  1  0.15962916  0.40760068  0.34572961  1
  Zr  Zr30  1  0.64691826  0.86454989  0.82446324  1
  Zr  Zr31  1  0.79303380  0.61504172  0.29788789  1
  Zr  Zr32  1  0.34141869  0.49131588  0.24775860  1
  Zr  Zr33  1  0.76783823  0.78750892  0.45384420  1
  Zr  Zr34  1  0.57843957  0.52091993  0.21345246  1
  Zr  Zr35  1  0.41256296  0.95730233  0.54590705  1
  Zr  Zr36  1  0.98779722  0.34590955  0.53834549  1
  Zr  Zr37  1  0.50536147  0.69315180  0.80247673  1
  Zr  Zr38  1  0.95292479  0.91446584  0.31431066  1
  Zr  Zr39  1  0.60429545  0.75181764  0.23937362  1
  Zr  Zr40  1  0.33377917  0.29755777  0.41064599  1
  Zr  Zr41  1  0.12110485  0.78527208  -0.00735519  1
  Zr  Zr42  1  0.71843814  0.17527814  0.97841002  1
  Zr  Zr43  1  0.90620515  0.77691341  0.89727194  1
  Zr  Zr44  1  0.10140751  0.15648066  0.61608896  1
  Zr  Zr45  1  0.44041938  0.40848040  0.07449351  1
  Zr  Zr46  1  0.36906056  0.11763182  0.90915546  1
  Zr  Zr47  1  0.93509744  0.56891832  0.87439764  1
  Zr  Zr48  1  0.82426220  0.85945682  0.71041899  1
  Zr  Zr49  1  0.94068942  0.88206428  0.08902934  1
  Sc  Sc50  1  0.15113609  0.84267171  0.37863782  1
  Sc  Sc51  1  0.67443390  0.14584019  0.58362628  1
  Sc  Sc52  1  0.97612550  0.84779155  0.53936112  1
  Sc  Sc53  1  0.31976463  0.76514887  0.51503521  1
  Sc  Sc54  1  0.60797144  0.13273057  0.18435546  1
  Sc  Sc55  1  0.76004637  0.32790829  0.55051711  1
  Sc  Sc56  1  0.82508577  0.99461473  0.50533516  1
  Sc  Sc57  1  0.29274421  0.23371262  0.72670525  1
  Sc  Sc58  1  0.05552142  0.30318041  0.76631540  1
  Sc  Sc59  1  0.58919582  0.01094613  -0.00704963  1
  Sc  Sc60  1  0.43674122  0.89853643  0.88940290  1
  Sc  Sc61  1  0.27295055  0.53326063  0.50288538  1
  Sc  Sc62  1  0.27971150  0.81902830  0.75002480  1
  Sc  Sc63  1  0.18535591  0.43765340  0.12662450  1
  Sc  Sc64  1  0.93056677  0.34798613  0.32282492  1
  Sc  Sc65  1  0.44658793  0.16745912  0.58312844  1
  Sc  Sc66  1  0.61939102  0.62195858  0.41815777  1
  Sc  Sc67  1  0.75500821  0.49383148  0.97606013  1
  Sc  Sc68  1  0.73979315  1.05460772  0.75953404  1
  Sc  Sc69  1  0.15556797  0.92079641  0.16353717  1
  Sc  Sc70  1  0.57854900  0.04085726  0.42473544  1
  Sc  Sc71  1  0.55807749  0.17538348  0.83666131  1
  Sc  Sc72  1  0.15059495  0.63791417  0.84016548  1
  Sc  Sc73  1  0.60276815  0.47626571  0.57115496  1
  Sc  Sc74  1  0.69389670  0.51082523  0.76241642  1
  Sc  Sc75  1  0.39074803  0.04516697  0.12106522  1
  Sc  Sc76  1  0.40776297  0.67577700  0.33155706  1
  Sc  Sc77  1  0.72386898  0.85092893  0.06068033  1
  Sc  Sc78  1  0.96531361  0.70647227  0.39624208  1
  Sc  Sc79  1  0.07977277  0.52238613  0.68302298  1
  Sc  Sc80  1  0.89669163  0.64949961  0.07881264  1
  Sc  Sc81  1  0.88129604  0.42674672  0.71377853  1
  Sc  Sc82  1  0.20357406  0.08826299  0.28766784  1
  Sc  Sc83  1  1.01305387  0.54858565  0.24838850  1
  Sc  Sc84  1  0.73536028  0.19562147  0.33376378  1
  Sc  Sc85  1  0.35763307  0.92529569  0.33315592  1
  Sc  Sc86  1  0.46744242  0.46547006  0.41116879  1
  Sc  Sc87  1  0.06010524  0.79280210  0.73635023  1
  Sc  Sc88  1  0.89840574  0.66398249  0.66495826  1
  Sc  Sc89  1  0.03393909  0.94931093  0.87904156  1
  Sc  Sc90  1  0.03340395  0.53308598  0.47776962  1
  Sc  Sc91  1  0.26595154  0.10328264  0.49375924  1
  Sc  Sc92  1  0.54286853  0.81611337  0.44454023  1
  Sc  Sc93  1  0.81125100  0.53818542  0.51169531  1
  Sc  Sc94  1  0.29493811  0.02490508  0.72896582  1
  Sc  Sc95  1  0.56463125  0.31463781  0.68545611  1
  Sc  Sc96  1  0.17505638  0.92291765  0.58676211  1
  Sc  Sc97  1  0.55015685  0.55874493  0.96111471  1
  Sc  Sc98  1  0.68888140  0.40807963  0.35902938  1
  Sc  Sc99  1  0.20530925  0.12574388  0.07377286  1
  Nb  Nb100  1  0.55312011  0.28014335  0.45453485  1
  Nb  Nb101  1  0.47795475  0.22428717  0.04705825  1
  Nb  Nb102  1  0.05056435  0.25823080  0.99633321  1
  Nb  Nb103  1  0.68891331  0.64771841  0.09962033  1
  Nb  Nb104  1  0.30479167  0.27139058  0.20014335  1
  Nb  Nb105  1  0.46882256  0.62806992  0.57351269  1
  Nb  Nb106  1  0.74095008  0.27500639  0.77994432  1
  Nb  Nb107  1  0.44423725  0.63764622  0.11889509  1
  Nb  Nb108  1  0.50370306  0.31370451  0.25679051  1
  Nb  Nb109  1  0.82709859  0.78307509  0.23053940  1
  Nb  Nb110  1  0.82327776  0.97441228  0.92828084  1
  Nb  Nb111  1  0.41943971  0.33320275  0.86223656  1
  Nb  Nb112  1  0.05060133  0.74408469  0.20031357  1
  Nb  Nb113  1  0.11037876  0.22817152  0.40126326  1
  Nb  Nb114  1  0.79750448  0.03800642  0.13058433  1
  Nb  Nb115  1  0.54563798  0.77029708  0.01368570  1
  Nb  Nb116  1  0.64706622  0.91900544  0.59570696  1
  Nb  Nb117  1  0.39765305  0.39295424  0.60468808  1
  Nb  Nb118  1  0.09647726  0.59981764  0.04267968  1
  Nb  Nb119  1  0.24232940  0.66793294  0.14588474  1
  Nb  Nb120  1  0.12982268  0.69698879  0.56223731  1
  Nb  Nb121  1  0.60597893  0.36159769  0.90860420  1
  Nb  Nb122  1  0.05459530  0.03179294  0.45615299  1
  Nb  Nb123  1  0.48026488  0.81861781  0.66366087  1
  Nb  Nb124  1  0.09052716  0.26185053  0.19242411  1
