# generated using pymatgen
data_Zr2Sc2Nb
_symmetry_space_group_name_H-M   'P 1'
_cell_length_a   14.08612721
_cell_length_b   14.57677236
_cell_length_c   14.01799319
_cell_angle_alpha   91.80556478
_cell_angle_beta   88.83952816
_cell_angle_gamma   90.18020306
_symmetry_Int_Tables_number   1
_chemical_formula_structural   Zr2Sc2Nb
_chemical_formula_sum   'Zr50 Sc50 Nb25'
_cell_volume   2876.29013331
_cell_formula_units_Z   25
loop_
 _symmetry_equiv_pos_site_id
 _symmetry_equiv_pos_as_xyz
  1  'x, y, z'
loop_
 _atom_site_type_symbol
 _atom_site_label
 _atom_site_symmetry_multiplicity
 _atom_site_fract_x
 _atom_site_fract_y
 _atom_site_fract_z
 _atom_site_occupancy
  Zr  Zr0  1  0.55612409  0.76373440  0.17632744  1
  Zr  Zr1  1  0.36299373  0.91840085  0.51663891  1
  Zr  Zr2  1  0.68191087  0.92079268  0.77369908  1
  Zr  Zr3  1  0.03652220  0.15286358  0.88304149  1
  Zr  Zr4  1  0.29525939  0.76748270  0.35519421  1
  Zr  Zr5  1  0.79739143  0.82419698  0.10237180  1
  Zr  Zr6  1  -0.02417832  0.50528811  1.01175723  1
  Zr  Zr7  1  0.13866391  0.21547139  0.41873124  1
  Zr  Zr8  1  0.15564954  0.54580879  0.87967399  1
  Zr  Zr9  1  0.12853142  0.27990431  0.20240444  1
  Zr  Zr10  1  0.97350223  0.07109320  0.43545311  1
  Zr  Zr11  1  0.00994032  0.93344120  0.58405805  1
  Zr  Zr12  1  0.83394042  0.45012338  0.19831701  1
  Zr  Zr13  1  0.79031108  0.40495824  0.72055355  1
  Zr  Zr14  1  0.35547455  0.32108113  0.70221645  1
  Zr  Zr15  1  0.63981834  0.79216870  0.94557678  1
  Zr  Zr16  1  0.08874921  0.71504666  0.29053336  1
  Zr  Zr17  1  0.53420363  0.38318522  -0.02869140  1
  Zr  Zr18  1  0.36180593  0.07831241  0.68357534  1
  Zr  Zr19  1  0.15514163  0.66830112  0.08876861  1
  Zr  Zr20  1  0.86259513  0.64289746  0.71514157  1
  Zr  Zr21  1  0.50619787  0.27329076  0.15478598  1
  Zr  Zr22  1  0.21179302  0.78917450  0.92491115  1
  Zr  Zr23  1  0.35985102  0.71566094  0.57838951  1
  Zr  Zr24  1  0.41311778  0.49305939  0.12396691  1
  Zr  Zr25  1  0.85721398  0.81450206  0.85665220  1
  Zr  Zr26  1  0.68903604  0.50991682  0.39960260  1
  Zr  Zr27  1  0.97895689  0.08324054  0.08553644  1
  Zr  Zr28  1  0.43508413  0.92740521  0.22812657  1
  Zr  Zr29  1  0.79876275  0.97438036  0.96835487  1
  Zr  Zr30  1  0.79858489  0.05959006  0.59199895  1
  Zr  Zr31  1  0.26744297  0.18758546  0.85178552  1
  Zr  Zr32  1  0.90654327  0.34596198  0.90445960  1
  Zr  Zr33  1  0.80554017  0.64351471  0.94336559  1
  Zr  Zr34  1  0.72855364  0.28698960  0.32224483  1
  Zr  Zr35  1  0.06269910  0.80181998  0.73234508  1
  Zr  Zr36  1  0.41104963  0.07309590  0.05704407  1
  Zr  Zr37  1  0.97286307  0.73830318  0.49324631  1
  Zr  Zr38  1  0.56889383  0.05970096  0.63297285  1
  Zr  Zr39  1  0.60204568  0.15003152  0.00417338  1
  Zr  Zr40  1  0.14491785  1.03802706  0.74125014  1
  Zr  Zr41  1  0.35128051  0.14450101  0.46408329  1
  Zr  Zr42  1  1.02085277  0.16438169  0.62458955  1
  Zr  Zr43  1  0.01713025  0.69662818  0.91478967  1
  Zr  Zr44  1  0.74515384  0.46241695  0.00449462  1
  Zr  Zr45  1  0.70092027  0.10559922  0.81305043  1
  Zr  Zr46  1  0.83504052  0.17139049  0.96225309  1
  Zr  Zr47  1  0.67646689  0.53761230  0.61707482  1
  Zr  Zr48  1  0.27489744  0.98332734  0.90644842  1
  Zr  Zr49  1  0.85431285  0.25739055  0.52033774  1
  Sc  Sc50  1  0.55237087  0.61321006  1.02379744  1
  Sc  Sc51  1  0.34204526  0.62446114  0.95770165  1
  Sc  Sc52  1  0.66199959  0.89137183  0.50709698  1
  Sc  Sc53  1  0.76740058  0.08754801  0.15878566  1
  Sc  Sc54  1  0.47778035  0.46005430  0.52500883  1
  Sc  Sc55  1  0.60031161  0.95837341  0.07897425  1
  Sc  Sc56  1  0.10611940  0.31560190  0.76539056  1
  Sc  Sc57  1  0.27571702  0.87132322  0.71442078  1
  Sc  Sc58  1  0.66093323  0.72191288  0.73109758  1
  Sc  Sc59  1  0.17947631  0.02287589  0.52268363  1
  Sc  Sc60  1  0.56136856  0.67771099  0.52818288  1
  Sc  Sc61  1  0.41645179  0.84242607  0.01473361  1
  Sc  Sc62  1  1.02133698  0.85013808  0.11715400  1
  Sc  Sc63  1  0.64045376  0.54207721  0.83696600  1
  Sc  Sc64  1  0.27271887  0.55763244  0.48750472  1
  Sc  Sc65  1  0.32962423  0.28169664  0.05059720  1
  Sc  Sc66  1  0.72259493  0.28773384  0.10590305  1
  Sc  Sc67  1  0.11727238  0.32129009  0.98132181  1
  Sc  Sc68  1  0.68198383  0.91834019  0.28056749  1
  Sc  Sc69  1  0.50558180  0.86267800  0.65154876  1
  Sc  Sc70  1  0.04690054  0.49718728  0.21782251  1
  Sc  Sc71  1  0.23270361  0.88583986  0.14839161  1
  Sc  Sc72  1  0.47227568  0.60961916  0.32692857  1
  Sc  Sc73  1  0.42689001  0.55677859  0.72606400  1
  Sc  Sc74  1  0.43934511  0.75424425  0.81529933  1
  Sc  Sc75  1  0.25249298  0.56772287  0.27444195  1
  Sc  Sc76  1  -0.05049928  0.37915445  0.36830339  1
  Sc  Sc77  1  0.73169767  0.63060457  0.15946435  1
  Sc  Sc78  1  0.22558208  0.47141269  0.67318070  1
  Sc  Sc79  1  0.88964274  0.49915166  0.54361291  1
  Sc  Sc80  1  0.11947709  0.06069403  0.25421252  1
  Sc  Sc81  1  0.49677040  0.20311102  0.81948513  1
  Sc  Sc82  1  0.90879588  1.01274156  0.77325643  1
  Sc  Sc83  1  0.33004732  0.41995066  0.88985534  1
  Sc  Sc84  1  0.34103107  0.14339920  0.24720324  1
  Sc  Sc85  1  0.83300702  0.84259345  0.64375779  1
  Sc  Sc86  1  0.60513404  0.45634606  0.20404907  1
  Sc  Sc87  1  0.49164722  -0.01293445  0.85911117  1
  Sc  Sc88  1  -0.01369548  0.48799074  0.76713289  1
  Sc  Sc89  1  0.55954582  0.38476977  0.72575983  1
  Sc  Sc90  1  0.18893064  0.11581871  0.05085063  1
  Sc  Sc91  1  0.51605276  0.02277802  0.40857268  1
  Sc  Sc92  1  0.32893995  0.36022318  0.27346313  1
  Sc  Sc93  1  0.92897609  0.19210774  0.27643012  1
  Sc  Sc94  1  0.88124270  0.59688269  0.34369450  1
  Sc  Sc95  1  0.68730782  0.72383564  0.34743918  1
  Sc  Sc96  1  0.50729652  0.29368172  0.37450505  1
  Sc  Sc97  1  0.04623946  0.93610683  0.92164784  1
  Sc  Sc98  1  0.21220419  0.46936921  0.08423693  1
  Sc  Sc99  1  0.08349291  0.61404448  0.62955015  1
  Nb  Nb100  1  0.24137283  0.67384311  0.74961733  1
  Nb  Nb101  1  0.91041583  -0.02743890  0.25325787  1
  Nb  Nb102  1  0.77869658  0.68959823  0.52080205  1
  Nb  Nb103  1  0.58281450  0.12095340  0.24424184  1
  Nb  Nb104  1  0.69579014  0.30395277  0.87335608  1
  Nb  Nb105  1  0.21715276  0.21369529  0.61862317  1
  Nb  Nb106  1  1.07516765  0.89163516  0.36655071  1
  Nb  Nb107  1  0.17195094  0.78436458  0.52471926  1
  Nb  Nb108  1  0.85611073  0.89649161  0.43486885  1
  Nb  Nb109  1  0.15675456  0.40777665  0.37934027  1
  Nb  Nb110  1  0.94342732  0.30491519  0.10719376  1
  Nb  Nb111  1  0.07643047  0.37963718  0.55806047  1
  Nb  Nb112  1  0.93654273  0.65812511  0.12942777  1
  Nb  Nb113  1  0.36077219  0.70556294  0.16040386  1
  Nb  Nb114  1  0.27829514  0.96540455  0.34963768  1
  Nb  Nb115  1  0.07215684  0.56665344  0.42986294  1
  Nb  Nb116  1  0.64331647  0.16972803  0.47132093  1
  Nb  Nb117  1  0.30061697  0.34273320  0.49685017  1
  Nb  Nb118  1  0.88733441  0.78475322  0.28554650  1
  Nb  Nb119  1  0.49068587  0.81415996  0.38949590  1
  Nb  Nb120  1  0.87128668  0.22046599  0.74699456  1
  Nb  Nb121  1  0.77091543  0.07690402  0.37486229  1
  Nb  Nb122  1  0.67052267  0.35781434  0.52463668  1
  Nb  Nb123  1  0.68286985  0.23095163  0.66633462  1
  Nb  Nb124  1  0.48603100  0.24058633  0.57915812  1
