# generated using pymatgen
data_Zr2Sc2Nb
_symmetry_space_group_name_H-M   'P 1'
_cell_length_a   14.60785523
_cell_length_b   13.94443869
_cell_length_c   14.08164343
_cell_angle_alpha   87.03596933
_cell_angle_beta   89.18278234
_cell_angle_gamma   91.23977502
_symmetry_Int_Tables_number   1
_chemical_formula_structural   Zr2Sc2Nb
_chemical_formula_sum   'Zr50 Sc50 Nb25'
_cell_volume   2863.55958562
_cell_formula_units_Z   25
loop_
 _symmetry_equiv_pos_site_id
 _symmetry_equiv_pos_as_xyz
  1  'x, y, z'
loop_
 _atom_site_type_symbol
 _atom_site_label
 _atom_site_symmetry_multiplicity
 _atom_site_fract_x
 _atom_site_fract_y
 _atom_site_fract_z
 _atom_site_occupancy
  Zr  Zr0  1  0.17042863  0.36522841  0.06632790  1
  Zr  Zr1  1  0.54267609  0.91768804  0.63398985  1
  Zr  Zr2  1  0.50673052  0.52202254  0.05468045  1
  Zr  Zr3  1  0.11861754  0.31809901  0.29715784  1
  Zr  Zr4  1  0.42626919  0.87821232  0.81048518  1
  Zr  Zr5  1  0.13623629  0.09520022  0.33394896  1
  Zr  Zr6  1  1.01364984  0.19126945  0.49984245  1
  Zr  Zr7  1  0.93882749  0.02594742  0.66753893  1
  Zr  Zr8  1  0.90062250  0.37273038  0.80687733  1
  Zr  Zr9  1  0.97489636  0.58391398  0.70016370  1
  Zr  Zr10  1  0.95225770  0.80273077  0.63391491  1
  Zr  Zr11  1  0.77857818  0.30012089  0.20458592  1
  Zr  Zr12  1  0.09099733  0.17708802  0.69258034  1
  Zr  Zr13  1  0.92198667  0.64943527  0.23909644  1
  Zr  Zr14  1  0.80951382  0.28659598  0.43365658  1
  Zr  Zr15  1  0.52584830  0.93469640  0.03749682  1
  Zr  Zr16  1  0.83112136  0.94952576  0.81980626  1
  Zr  Zr17  1  0.37327854  0.25791371  0.50932464  1
  Zr  Zr18  1  0.81758188  0.06583555  0.14695303  1
  Zr  Zr19  1  0.09588824  0.56460920  0.32066151  1
  Zr  Zr20  1  0.57988967  0.73229482  0.32097837  1
  Zr  Zr21  1  0.66323325  0.54984411  0.44669548  1
  Zr  Zr22  1  0.14834880  0.71521654  0.95661359  1
  Zr  Zr23  1  0.93775889  0.64253118  0.47095823  1
  Zr  Zr24  1  0.42813771  0.15428665  0.11142639  1
  Zr  Zr25  1  0.49215384  0.71652119  0.92176839  1
  Zr  Zr26  1  0.31231787  0.43346306  0.87539819  1
  Zr  Zr27  1  1.01866730  0.98875907  0.20906884  1
  Zr  Zr28  1  0.22019318  0.70810819  0.17056179  1
  Zr  Zr29  1  0.11018022  0.30616250  0.86036312  1
  Zr  Zr30  1  0.02202100  -0.03268107  0.47595091  1
  Zr  Zr31  1  0.51085225  -0.00297399  0.26685935  1
  Zr  Zr32  1  0.62682729  0.13149670  0.10561878  1
  Zr  Zr33  1  0.11860081  0.55276760  0.53664203  1
  Zr  Zr34  1  0.49984697  0.34247012  0.73127098  1
  Zr  Zr35  1  0.77623652  0.66035506  0.59876971  1
  Zr  Zr36  1  0.62906397  0.71645291  0.74534626  1
  Zr  Zr37  1  0.68259883  0.65058017  0.97493187  1
  Zr  Zr38  1  0.16253188  0.92062905  0.03870048  1
  Zr  Zr39  1  0.33816272  0.01396812  0.94117696  1
  Zr  Zr40  1  0.49132785  0.15638287  0.66782524  1
  Zr  Zr41  1  0.18134026  0.33577397  0.52020875  1
  Zr  Zr42  1  0.75991669  0.87846680  0.61016976  1
  Zr  Zr43  1  0.81303766  0.51281242  0.11386145  1
  Zr  Zr44  1  0.30865488  0.65934505  0.81245525  1
  Zr  Zr45  1  0.37028807  0.36218674  0.10496325  1
  Zr  Zr46  1  0.51352912  0.38586651  0.49830218  1
  Zr  Zr47  1  0.96505451  0.39850291  0.22283532  1
  Zr  Zr48  1  0.25176115  0.69600292  0.37563117  1
  Zr  Zr49  1  0.84681757  0.94675087  0.35706535  1
  Sc  Sc50  1  0.92760533  0.16531993  0.30893228  1
  Sc  Sc51  1  0.67552307  0.33368699  0.60505721  1
  Sc  Sc52  1  0.30775483  0.06121898  0.72660281  1
  Sc  Sc53  1  0.02128781  0.85064379  0.84866894  1
  Sc  Sc54  1  0.03174890  0.80172321  0.34621707  1
  Sc  Sc55  1  0.69501813  0.07988844  0.70274725  1
  Sc  Sc56  1  0.39335086  0.81822224  0.25149283  1
  Sc  Sc57  1  0.71937136  0.49859561  0.76280107  1
  Sc  Sc58  1  0.67764113  0.90565708  0.21624344  1
  Sc  Sc59  1  0.30253053  0.26243608  0.30171823  1
  Sc  Sc60  1  0.12598604  0.94128320  0.66655992  1
  Sc  Sc61  1  0.21276236  0.13481968  0.12766844  1
  Sc  Sc62  1  0.30602618  0.22457569  0.93019184  1
  Sc  Sc63  1  0.09011734  0.52084313  0.88128194  1
  Sc  Sc64  1  0.41990774  0.04022984  0.49567737  1
  Sc  Sc65  1  0.84683236  0.45635199  0.58385564  1
  Sc  Sc66  1  0.30625029  0.85571178  0.63650495  1
  Sc  Sc67  1  0.60919330  0.16234806  0.49220779  1
  Sc  Sc68  1  0.64102082  0.93668585  0.43319150  1
  Sc  Sc69  1  0.89897532  0.72691307  1.01617012  1
  Sc  Sc70  1  0.49985486  0.20217165  0.31394477  1
  Sc  Sc71  1  0.45245122  0.60329464  0.44857180  1
  Sc  Sc72  1  0.80947978  0.08041736  0.50591774  1
  Sc  Sc73  1  0.68809220  0.42835232  0.97441188  1
  Sc  Sc74  1  0.69190684  0.26032761  0.81869016  1
  Sc  Sc75  1  0.30740094  0.57576728  0.02883886  1
  Sc  Sc76  1  0.92574306  0.15382911  0.86189107  1
  Sc  Sc77  1  -0.00911601  0.40733096  0.44382422  1
  Sc  Sc78  1  0.50703095  0.52937551  0.82845744  1
  Sc  Sc79  1  0.42943703  0.82808690  0.45944056  1
  Sc  Sc80  1  0.82361526  0.73815735  0.80334054  1
  Sc  Sc81  1  0.96122841  0.38330437  0.01047655  1
  Sc  Sc82  1  0.21852658  0.10523035  0.52497220  1
  Sc  Sc83  1  0.12952622  0.06703482  0.87799721  1
  Sc  Sc84  1  0.28042218  0.28375521  0.71252168  1
  Sc  Sc85  1  0.62414966  0.53187224  0.22347439  1
  Sc  Sc86  1  0.81587639  0.49462475  0.33803589  1
  Sc  Sc87  1  0.79828361  0.24898268  0.00616056  1
  Sc  Sc88  1  0.45416359  0.42174147  0.29435248  1
  Sc  Sc89  1  0.87300773  0.55295202  0.90529487  1
  Sc  Sc90  1  0.37099039  0.47606429  0.63069359  1
  Sc  Sc91  1  0.73384381  0.86372911  0.01887541  1
  Sc  Sc92  1  0.86774803  0.23348190  0.65535333  1
  Sc  Sc93  1  0.51063538  0.31148407  0.95024073  1
  Sc  Sc94  1  0.28530554  0.65737151  0.58143447  1
  Sc  Sc95  1  0.00928680  0.19437450  0.10105046  1
  Sc  Sc96  1  0.06493090  0.55935219  0.10006504  1
  Sc  Sc97  1  0.93973335  0.97003024  1.00899673  1
  Sc  Sc98  1  0.62739565  0.90367865  0.83905566  1
  Sc  Sc99  1  0.52668312  0.10502271  0.87820782  1
  Nb  Nb100  1  0.19547809  0.90007532  0.25037539  1
  Nb  Nb101  1  0.64771623  0.34566585  0.35106896  1
  Nb  Nb102  1  0.13454348  0.70944993  0.72742107  1
  Nb  Nb103  1  0.40492976  0.61194257  0.22460546  1
  Nb  Nb104  1  0.22918380  0.90773648  0.44043633  1
  Nb  Nb105  1  0.57497278  0.54365000  0.62545577  1
  Nb  Nb106  1  0.32781655  0.04536374  0.31046872  1
  Nb  Nb107  1  0.04735034  0.78794541  0.13441872  1
  Nb  Nb108  1  0.54169588  0.73426678  0.11759992  1
  Nb  Nb109  1  0.29066591  0.47615844  0.41434831  1
  Nb  Nb110  1  0.70208665  0.12690684  0.30849235  1
  Nb  Nb111  1  0.73580064  0.69992977  0.17854173  1
  Nb  Nb112  1  0.34292982  0.96672679  0.13054182  1
  Nb  Nb113  1  0.58745270  0.32850849  0.15051816  1
  Nb  Nb114  1  0.77712648  0.74615445  0.38033864  1
  Nb  Nb115  1  0.11532611  0.76631920  0.53447734  1
  Nb  Nb116  1  0.23141826  0.86525459  0.84128425  1
  Nb  Nb117  1  0.60915889  0.73901554  0.53030732  1
  Nb  Nb118  1  0.34577883  0.79783695  1.02242314  1
  Nb  Nb119  1  0.24872388  0.48267216  0.22392821  1
  Nb  Nb120  1  0.45790407  0.70305951  0.66880389  1
  Nb  Nb121  1  0.87004152  0.84747884  0.19094510  1
  Nb  Nb122  1  0.18710200  0.48747445  0.71356312  1
  Nb  Nb123  1  0.72492052  0.06631411  0.93904184  1
  Nb  Nb124  1  0.03798227  0.37453515  0.66070906  1
