# generated using pymatgen
data_Zr2Sc2Nb
_symmetry_space_group_name_H-M   'P 1'
_cell_length_a   14.34395521
_cell_length_b   14.56822569
_cell_length_c   13.80541077
_cell_angle_alpha   89.18976061
_cell_angle_beta   90.31675143
_cell_angle_gamma   91.09013534
_symmetry_Int_Tables_number   1
_chemical_formula_structural   Zr2Sc2Nb
_chemical_formula_sum   'Zr50 Sc50 Nb25'
_cell_volume   2884.01068719
_cell_formula_units_Z   25
loop_
 _symmetry_equiv_pos_site_id
 _symmetry_equiv_pos_as_xyz
  1  'x, y, z'
loop_
 _atom_site_type_symbol
 _atom_site_label
 _atom_site_symmetry_multiplicity
 _atom_site_fract_x
 _atom_site_fract_y
 _atom_site_fract_z
 _atom_site_occupancy
  Zr  Zr0  1  0.59018042  0.65172810  0.91734749  1
  Zr  Zr1  1  0.63175383  0.78202801  0.51594346  1
  Zr  Zr2  1  0.99780727  0.36700377  0.46846365  1
  Zr  Zr3  1  0.94469198  0.71835188  0.82203758  1
  Zr  Zr4  1  0.09057948  0.76074706  0.95366451  1
  Zr  Zr5  1  0.90879984  0.11615116  0.01192069  1
  Zr  Zr6  1  0.17432956  0.26224306  0.83570075  1
  Zr  Zr7  1  0.96587951  0.94238726  0.87728130  1
  Zr  Zr8  1  0.71197579  0.59168485  0.46701042  1
  Zr  Zr9  1  0.34895596  0.14100994  0.64321213  1
  Zr  Zr10  1  0.78295594  0.58658987  0.88792240  1
  Zr  Zr11  1  0.25877722  0.00430219  0.48640999  1
  Zr  Zr12  1  0.43084368  0.34072319  0.51184747  1
  Zr  Zr13  1  0.41436580  0.47612592  0.32879832  1
  Zr  Zr14  1  0.45802274  0.82031175  0.75623474  1
  Zr  Zr15  1  0.50350569  0.26766453  0.33051667  1
  Zr  Zr16  1  0.87942837  0.01890624  0.40177526  1
  Zr  Zr17  1  0.28885939  0.88837148  0.30453003  1
  Zr  Zr18  1  0.25069828  0.61367490  0.96086316  1
  Zr  Zr19  1  0.43039774  0.94796526  0.14222544  1
  Zr  Zr20  1  0.26314894  0.47637471  0.77884670  1
  Zr  Zr21  1  0.92130017  0.53266453  0.71989665  1
  Zr  Zr22  1  0.73976490  0.24947817  0.81103417  1
  Zr  Zr23  1  0.13389424  0.21707191  0.09970009  1
  Zr  Zr24  1  0.09512162  0.25585196  0.61990458  1
  Zr  Zr25  1  1.02735580  0.93078250  0.53900539  1
  Zr  Zr26  1  0.17143023  0.80804029  0.48841499  1
  Zr  Zr27  1  0.02245043  0.48138389  0.29607390  1
  Zr  Zr28  1  0.46777697  0.67256287  0.57511936  1
  Zr  Zr29  1  0.32177296  0.52182789  0.52987775  1
  Zr  Zr30  1  0.90711671  0.54609165  0.49982948  1
  Zr  Zr31  1  0.27865105  0.32276228  0.24772360  1
  Zr  Zr32  1  0.30224713  0.93995722  0.70544195  1
  Zr  Zr33  1  0.99818896  0.10599769  0.22668841  1
  Zr  Zr34  1  -0.00055757  0.53955364  0.94807672  1
  Zr  Zr35  1  0.95328416  0.19756353  0.80947169  1
  Zr  Zr36  1  0.61816086  0.61974666  0.70740075  1
  Zr  Zr37  1  0.63785606  0.95138724  0.17311129  1
  Zr  Zr38  1  0.88658837  0.88355353  0.68506804  1
  Zr  Zr39  1  0.08135878  0.94099018  0.32703503  1
  Zr  Zr40  1  0.01449538  0.69995992  0.60418056  1
  Zr  Zr41  1  0.37973952  0.15613991  0.19288990  1
  Zr  Zr42  1  0.92368612  0.73421258  0.06437429  1
  Zr  Zr43  1  0.11814786  0.59385114  0.45604761  1
  Zr  Zr44  1  0.29568188  0.20173330  0.43134193  1
  Zr  Zr45  1  0.53942455  0.77201511  0.16850084  1
  Zr  Zr46  1  0.46077202  0.03914550  0.35169757  1
  Zr  Zr47  1  0.86920532  0.22495271  0.39385570  1
  Zr  Zr48  1  0.51851305  0.15654967  0.52319640  1
  Zr  Zr49  1  0.81410485  0.92877279  0.04190491  1
  Sc  Sc50  1  0.10640186  0.83772192  0.72674961  1
  Sc  Sc51  1  0.04388245  0.93983226  0.09121972  1
  Sc  Sc52  1  0.40864539  0.62717105  0.79382095  1
  Sc  Sc53  1  0.98775282  0.31923351  -0.01422130  1
  Sc  Sc54  1  0.56988940  0.29102572  0.68119088  1
  Sc  Sc55  1  0.27417988  0.33505014  0.64005869  1
  Sc  Sc56  1  0.24869378  0.03969643  0.07201812  1
  Sc  Sc57  1  0.42029097  0.74027711  0.99241829  1
  Sc  Sc58  1  0.51212173  0.57366430  0.12823342  1
  Sc  Sc59  1  0.51451330  0.96054202  0.57549940  1
  Sc  Sc60  1  0.63767938  0.49412856  0.28533872  1
  Sc  Sc61  1  0.79931355  0.69671927  0.64912707  1
  Sc  Sc62  1  0.67177254  0.34027561  0.45761844  1
  Sc  Sc63  1  0.72288404  0.69501376  0.08694433  1
  Sc  Sc64  1  0.67803454  0.08706666  -0.01639611  1
  Sc  Sc65  1  0.32034677  0.27665779  0.01218836  1
  Sc  Sc66  1  0.92351204  0.10015321  0.61464699  1
  Sc  Sc67  1  0.87162568  0.87620804  0.24197233  1
  Sc  Sc68  1  0.69904214  0.73477925  0.30216554  1
  Sc  Sc69  1  0.89217900  0.32922557  0.65114914  1
  Sc  Sc70  1  0.73423011  0.18346075  0.59518765  1
  Sc  Sc71  1  0.85666412  0.80212435  0.45903001  1
  Sc  Sc72  1  0.67273631  0.46345100  0.03747469  1
  Sc  Sc73  1  0.10827826  0.60897023  0.12300685  1
  Sc  Sc74  1  0.77380115  0.80070012  0.88715598  1
  Sc  Sc75  1  0.11524841  0.73615858  0.28420335  1
  Sc  Sc76  1  0.87504289  0.48850589  0.11882701  1
  Sc  Sc77  1  0.57175171  0.27042888  0.94664825  1
  Sc  Sc78  1  0.44028314  0.46625502  0.93434820  1
  Sc  Sc79  1  0.67009165  0.12339349  0.37553635  1
  Sc  Sc80  1  0.79046395  0.09724918  0.19958173  1
  Sc  Sc81  1  0.89341771  0.64602548  0.28647615  1
  Sc  Sc82  1  0.70847004  0.29934911  0.23570075  1
  Sc  Sc83  1  0.51986114  0.06619414  0.78638946  1
  Sc  Sc84  1  0.72456526  0.44726469  0.64701625  1
  Sc  Sc85  1  0.34125581  0.68243957  0.20702140  1
  Sc  Sc86  1  0.77717706  0.27775954  1.03523223  1
  Sc  Sc87  1  0.40520202  0.28825192  0.80954627  1
  Sc  Sc88  1  0.29994098  0.10486190  0.85915354  1
  Sc  Sc89  1  0.73662356  0.97816778  0.56009251  1
  Sc  Sc90  1  0.65527129  0.85277589  0.72536887  1
  Sc  Sc91  1  0.24342421  0.82677384  0.08229096  1
  Sc  Sc92  1  0.48732049  0.83655557  0.36382926  1
  Sc  Sc93  1  0.49609767  0.34678669  0.13300582  1
  Sc  Sc94  1  0.31191893  0.48231976  0.11481812  1
  Sc  Sc95  1  0.78000618  0.03643163  0.79626695  1
  Sc  Sc96  1  0.12224228  0.06082205  0.71293363  1
  Sc  Sc97  1  0.24956521  0.68328117  0.64523921  1
  Sc  Sc98  1  0.58376525  0.88796037  0.95971186  1
  Sc  Sc99  1  0.07619046  0.12596563  0.45098905  1
  Nb  Nb100  1  0.19974522  0.38522348  0.44166863  1
  Nb  Nb101  1  0.09422652  0.27507732  0.30880147  1
  Nb  Nb102  1  0.22093875  0.52747703  0.29920471  1
  Nb  Nb103  1  0.09089384  0.10335374  0.93501317  1
  Nb  Nb104  1  0.36536413  0.83584035  0.53510612  1
  Nb  Nb105  1  0.37988429  0.93164301  0.92478085  1
  Nb  Nb106  1  0.10876358  0.40853098  0.13821029  1
  Nb  Nb107  1  0.51411582  0.64204655  0.36498793  1
  Nb  Nb108  1  0.17348524  0.42915265  -0.04389763  1
  Nb  Nb109  1  0.26903718  0.77599178  0.84348270  1
  Nb  Nb110  1  0.83827119  0.40353127  0.86439461  1
  Nb  Nb111  1  0.68184819  0.92544765  0.36511720  1
  Nb  Nb112  1  0.46290338  0.09874154  1.00222599  1
  Nb  Nb113  1  0.20818292  0.09455893  0.27942289  1
  Nb  Nb114  1  0.17868305  0.93849966  0.89810991  1
  Nb  Nb115  1  0.31520381  0.68763602  0.40979398  1
  Nb  Nb116  1  0.54820704  0.49749891  0.51424876  1
  Nb  Nb117  1  0.11732972  0.60988710  0.79330605  1
  Nb  Nb118  1  0.57804453  0.14460099  0.16483953  1
  Nb  Nb119  1  0.46635246  0.46396455  0.69510338  1
  Nb  Nb120  1  0.62424482  0.44318580  0.83010896  1
  Nb  Nb121  1  0.10848061  0.48026279  0.62031124  1
  Nb  Nb122  1  0.92860908  0.29972514  0.20230910  1
  Nb  Nb123  1  0.04896781  0.39914160  0.78736121  1
  Nb  Nb124  1  0.83105843  0.43490931  0.34274827  1
