# generated using pymatgen
data_Zr2Sc2Nb
_symmetry_space_group_name_H-M   'P 1'
_cell_length_a   14.03740567
_cell_length_b   14.56940930
_cell_length_c   14.07588413
_cell_angle_alpha   90.63377547
_cell_angle_beta   92.21745311
_cell_angle_gamma   88.43968009
_symmetry_Int_Tables_number   1
_chemical_formula_structural   Zr2Sc2Nb
_chemical_formula_sum   'Zr50 Sc50 Nb25'
_cell_volume   2875.38688460
_cell_formula_units_Z   25
loop_
 _symmetry_equiv_pos_site_id
 _symmetry_equiv_pos_as_xyz
  1  'x, y, z'
loop_
 _atom_site_type_symbol
 _atom_site_label
 _atom_site_symmetry_multiplicity
 _atom_site_fract_x
 _atom_site_fract_y
 _atom_site_fract_z
 _atom_site_occupancy
  Zr  Zr0  1  0.65102347  0.69636475  0.91537723  1
  Zr  Zr1  1  0.61377922  0.79847302  0.11713664  1
  Zr  Zr2  1  0.12952120  0.67607932  0.33736539  1
  Zr  Zr3  1  0.61224414  0.79885106  0.64509909  1
  Zr  Zr4  1  0.34716229  0.03773503  0.68392766  1
  Zr  Zr5  1  0.23128088  0.92931618  0.06873144  1
  Zr  Zr6  1  0.07889244  0.01748704  0.34152786  1
  Zr  Zr7  1  0.90028895  0.46942703  0.05363560  1
  Zr  Zr8  1  0.05708855  0.77834795  1.00545223  1
  Zr  Zr9  1  0.13583645  0.33084454  0.46973209  1
  Zr  Zr10  1  0.66667242  0.32911204  0.28002365  1
  Zr  Zr11  1  0.89573190  0.36548943  0.47030699  1
  Zr  Zr12  1  0.99302752  0.16265215  0.46431170  1
  Zr  Zr13  1  0.64418295  0.54484213  0.28929981  1
  Zr  Zr14  1  0.85635592  0.57760071  0.52004536  1
  Zr  Zr15  1  0.06850276  0.68136005  0.59768215  1
  Zr  Zr16  1  0.77121451  0.71979766  0.26523516  1
  Zr  Zr17  1  0.61528350  0.12498959  0.52987872  1
  Zr  Zr18  1  0.74714542  0.49386456  0.88387916  1
  Zr  Zr19  1  0.92648470  0.10116838  0.23282580  1
  Zr  Zr20  1  0.81497176  0.42365922  0.67509139  1
  Zr  Zr21  1  0.08955892  0.63410838  0.82249746  1
  Zr  Zr22  1  0.31292534  0.92854568  0.49050396  1
  Zr  Zr23  1  0.55036485  0.10259765  0.74918231  1
  Zr  Zr24  1  0.27233357  0.25692537  0.14648209  1
  Zr  Zr25  1  1.00041368  0.81788879  0.77800793  1
  Zr  Zr26  1  0.54342893  0.91431075  0.81678693  1
  Zr  Zr27  1  0.27020601  0.71318256  0.52906853  1
  Zr  Zr28  1  0.48472603  0.26678482  0.64036800  1
  Zr  Zr29  1  0.65171730  0.29622322  0.04140314  1
  Zr  Zr30  1  0.16684206  0.44485043  0.79548297  1
  Zr  Zr31  1  0.73255426  0.23231154  0.70685057  1
  Zr  Zr32  1  0.23735188  0.33240812  0.94000350  1
  Zr  Zr33  1  0.52777353  0.10675978  0.98081013  1
  Zr  Zr34  1  0.35388001  0.74804982  0.09967336  1
  Zr  Zr35  1  0.67716032  0.93469947  0.98162468  1
  Zr  Zr36  1  0.18968159  0.64865735  0.12823691  1
  Zr  Zr37  1  0.92864988  0.72891132  0.41910631  1
  Zr  Zr38  1  0.45230278  0.46216133  0.57606757  1
  Zr  Zr39  1  0.22878759  0.78605545  0.89392165  1
  Zr  Zr40  1  0.26321866  0.17038866  0.35003718  1
  Zr  Zr41  1  0.47167335  0.64673412  0.48923728  1
  Zr  Zr42  1  0.11616962  0.46842017  0.23189800  1
  Zr  Zr43  1  0.01608830  0.95913363  0.10244300  1
  Zr  Zr44  1  0.11192477  0.85343743  0.45155254  1
  Zr  Zr45  1  0.85200919  0.80195621  0.59869657  1
  Zr  Zr46  1  0.69151683  0.72313699  0.46580761  1
  Zr  Zr47  1  0.96346844  0.84399306  0.26139534  1
  Zr  Zr48  1  0.45611917  0.90853512  0.01513081  1
  Zr  Zr49  1  0.86208773  -0.02532690  0.40872247  1
  Sc  Sc50  1  0.96626803  0.13859662  1.00458850  1
  Sc  Sc51  1  0.02237860  0.46839646  0.63623882  1
  Sc  Sc52  1  0.85662218  0.50015454  0.28583245  1
  Sc  Sc53  1  0.88722645  0.95229886  0.91442284  1
  Sc  Sc54  1  0.73064132  0.13426072  0.13157305  1
  Sc  Sc55  1  0.37214812  0.57880904  0.24353880  1
  Sc  Sc56  1  0.31511397  0.56216803  0.94676294  1
  Sc  Sc57  1  0.36380212  0.07513748  0.13717961  1
  Sc  Sc58  1  0.23571436  0.26904468  0.67147071  1
  Sc  Sc59  1  0.78128514  0.94687455  0.19378997  1
  Sc  Sc60  1  0.43382250  0.30495147  0.01196923  1
  Sc  Sc61  1  0.27771351  0.53048296  0.41316784  1
  Sc  Sc62  1  0.96881964  0.64606075  0.17209598  1
  Sc  Sc63  1  0.73873443  -0.00524523  0.70984944  1
  Sc  Sc64  1  0.06684465  0.31355594  0.06850894  1
  Sc  Sc65  1  0.84073551  0.80169434  0.05823212  1
  Sc  Sc66  1  0.73094937  0.12079524  0.90162130  1
  Sc  Sc67  1  0.71005586  0.61967651  0.69444559  1
  Sc  Sc68  1  0.92396163  0.11000406  0.77993251  1
  Sc  Sc69  1  0.77847682  0.80366334  0.80483111  1
  Sc  Sc70  1  0.84385741  0.30111763  0.90785793  1
  Sc  Sc71  1  0.31231670  0.97998392  0.87453023  1
  Sc  Sc72  1  0.49012402  0.24676844  0.38016132  1
  Sc  Sc73  1  0.23298501  0.48474300  0.60261174  1
  Sc  Sc74  1  0.98469349  0.98134641  0.60350812  1
  Sc  Sc75  1  0.89336404  0.64640822  0.92566830  1
  Sc  Sc76  1  0.39743602  0.81620283  0.67822779  1
  Sc  Sc77  1  0.54330704  0.48618526  0.92705175  1
  Sc  Sc78  1  0.28421771  0.63928429  0.73625293  1
  Sc  Sc79  1  0.65543103  0.51769659  0.50822238  1
  Sc  Sc80  1  0.39051939  0.41329647  0.78100696  1
  Sc  Sc81  1  0.14218260  0.10005519  0.75880834  1
  Sc  Sc82  1  0.81034994  0.20529445  0.37025840  1
  Sc  Sc83  1  0.63925833  0.88733856  0.32777887  1
  Sc  Sc84  1  0.53328340  0.61006359  0.09041095  1
  Sc  Sc85  1  0.50387789  0.61160586  0.72470524  1
  Sc  Sc86  1  0.42926205  0.88566563  0.23491097  1
  Sc  Sc87  1  -0.01787795  0.26597900  0.65753834  1
  Sc  Sc88  1  0.57718379  0.28865556  0.84477538  1
  Sc  Sc89  1  0.17922166  0.09350677  0.53638384  1
  Sc  Sc90  1  0.05870758  0.26775403  0.28364767  1
  Sc  Sc91  1  0.18033018  0.87507634  0.68389936  1
  Sc  Sc92  1  0.04437594  0.52161693  0.43042977  1
  Sc  Sc93  1  0.09981378  0.50858764  -0.00277004  1
  Sc  Sc94  1  0.44277806  0.73258991  0.89385406  1
  Sc  Sc95  1  0.49074590  0.41052205  0.17688178  1
  Sc  Sc96  1  0.67251700  0.32001417  0.51179449  1
  Sc  Sc97  1  0.85917269  0.30493425  0.17069045  1
  Sc  Sc98  1  0.52704886  0.70910739  0.29368546  1
  Sc  Sc99  1  0.35947281  0.18776606  0.83993482  1
  Nb  Nb100  1  0.70156237  0.45738611  0.11045071  1
  Nb  Nb101  1  0.33489201  0.32525846  0.49111412  1
  Nb  Nb102  1  0.09511741  0.96305400  0.89811986  1
  Nb  Nb103  1  0.16075321  0.83337993  0.21959738  1
  Nb  Nb104  1  0.96077227  0.45324977  0.83858539  1
  Nb  Nb105  1  0.52164404  0.19755456  0.18686799  1
  Nb  Nb106  1  0.82043250  0.12444647  0.56108606  1
  Nb  Nb107  1  0.18393260  0.12886304  0.97694988  1
  Nb  Nb108  1  0.66338548  0.08889947  0.33361084  1
  Nb  Nb109  1  0.57141926  0.01016775  0.16445797  1
  Nb  Nb110  1  0.13998497  0.10447767  0.16677444  1
  Nb  Nb111  1  0.27775216  0.44710941  0.11258138  1
  Nb  Nb112  1  0.47352947  0.03614672  0.36732538  1
  Nb  Nb113  1  0.61660319  0.42897920  0.70964894  1
  Nb  Nb114  1  0.90841457  0.62486788  0.71971691  1
  Nb  Nb115  1  0.31407695  0.76205312  0.33897564  1
  Nb  Nb116  1  0.26551023  0.97668015  0.30049117  1
  Nb  Nb117  1  0.51484888  0.97298338  0.59119458  1
  Nb  Nb118  1  0.06029795  0.27473774  0.85705486  1
  Nb  Nb119  1  0.30765107  0.36956495  0.30152668  1
  Nb  Nb120  1  0.75245638  0.62358291  0.08823346  1
  Nb  Nb121  1  0.48937451  0.84012608  0.45907208  1
  Nb  Nb122  1  0.48758276  0.44920569  0.38232248  1
  Nb  Nb123  1  0.69581305  0.94207628  0.51197760  1
  Nb  Nb124  1  0.38929650  0.13130022  0.52193077  1
