# generated using pymatgen
data_Zr2Sc2Nb
_symmetry_space_group_name_H-M   'P 1'
_cell_length_a   13.96459762
_cell_length_b   14.58032038
_cell_length_c   14.22549332
_cell_angle_alpha   90.09660242
_cell_angle_beta   88.56840986
_cell_angle_gamma   88.64952112
_symmetry_Int_Tables_number   1
_chemical_formula_structural   Zr2Sc2Nb
_chemical_formula_sum   'Zr50 Sc50 Nb25'
_cell_volume   2894.71276402
_cell_formula_units_Z   25
loop_
 _symmetry_equiv_pos_site_id
 _symmetry_equiv_pos_as_xyz
  1  'x, y, z'
loop_
 _atom_site_type_symbol
 _atom_site_label
 _atom_site_symmetry_multiplicity
 _atom_site_fract_x
 _atom_site_fract_y
 _atom_site_fract_z
 _atom_site_occupancy
  Zr  Zr0  1  0.09154556  0.76010246  0.30241440  1
  Zr  Zr1  1  0.10094287  0.36599450  0.80800111  1
  Zr  Zr2  1  0.06755401  0.61437723  0.17858510  1
  Zr  Zr3  1  0.35828391  0.84946445  0.88871085  1
  Zr  Zr4  1  0.57929805  0.90891165  0.24684089  1
  Zr  Zr5  1  0.85867813  0.66439526  0.68756389  1
  Zr  Zr6  1  0.39021809  0.14540321  0.52267411  1
  Zr  Zr7  1  0.07330178  0.71420904  0.65398507  1
  Zr  Zr8  1  0.68016187  0.62944261  0.56625009  1
  Zr  Zr9  1  0.05480327  0.08520342  0.52851878  1
  Zr  Zr10  1  0.92799733  0.26586018  0.53887744  1
  Zr  Zr11  1  0.29507155  0.65525011  0.68138491  1
  Zr  Zr12  1  0.10976318  0.09801053  0.03940500  1
  Zr  Zr13  1  0.49844988  0.70614238  0.18255214  1
  Zr  Zr14  1  0.82357479  0.07532311  0.89300672  1
  Zr  Zr15  1  0.26436395  0.44494821  0.93193578  1
  Zr  Zr16  1  0.87791459  0.70138473  0.26918893  1
  Zr  Zr17  1  0.31300843  0.42925552  0.73539974  1
  Zr  Zr18  1  0.66172902  0.58370652  0.78356708  1
  Zr  Zr19  1  0.23882716  0.21108749  0.86824967  1
  Zr  Zr20  1  0.68367592  -0.01057490  0.07375810  1
  Zr  Zr21  1  0.88193376  0.67129089  0.04958058  1
  Zr  Zr22  1  0.83074313  0.51527082  0.47379531  1
  Zr  Zr23  1  0.73354692  0.17875907  0.07695281  1
  Zr  Zr24  1  0.16237843  0.19879354  0.21142553  1
  Zr  Zr25  1  0.89544429  0.92222025  0.57404675  1
  Zr  Zr26  1  0.06107496  0.38890439  0.22768596  1
  Zr  Zr27  1  0.16305647  0.79702816  0.83528217  1
  Zr  Zr28  1  0.61517255  0.13499256  0.88771174  1
  Zr  Zr29  1  0.68268511  0.45267115  0.31658143  1
  Zr  Zr30  1  0.74900702  0.23353007  0.29212043  1
  Zr  Zr31  1  0.18348775  0.50467198  0.59486222  1
  Zr  Zr32  1  0.93940393  0.23767095  0.13518474  1
  Zr  Zr33  1  0.76927066  0.03854033  0.27152420  1
  Zr  Zr34  1  0.57268746  0.47765583  0.49928900  1
  Zr  Zr35  1  0.70468903  0.54237377  0.99236004  1
  Zr  Zr36  1  0.73383220  0.37725079  0.11415959  1
  Zr  Zr37  1  0.12671447  0.29579461  0.60764016  1
  Zr  Zr38  1  0.67428995  0.77236812  0.07500831  1
  Zr  Zr39  1  0.30900041  0.05050733  0.70230647  1
  Zr  Zr40  1  0.22027002  0.48936937  0.13555304  1
  Zr  Zr41  1  0.27902742  0.95377203  0.51918422  1
  Zr  Zr42  1  0.98080041  0.49423814  0.65157346  1
  Zr  Zr43  1  0.23716499  0.94070782  0.04987977  1
  Zr  Zr44  1  0.82277653  0.09676216  0.49195924  1
  Zr  Zr45  1  0.52422442  0.29285950  0.41953882  1
  Zr  Zr46  1  0.89628678  0.35385325  0.34162358  1
  Zr  Zr47  1  0.75781727  0.72253533  0.87328253  1
  Zr  Zr48  1  0.56058982  0.29803723  0.20852230  1
  Zr  Zr49  1  0.36580803  0.55192804  0.48835499  1
  Sc  Sc50  1  0.70583636  0.91777702  0.44337244  1
  Sc  Sc51  1  0.22251441  0.08727465  0.38010894  1
  Sc  Sc52  1  0.71106640  0.01330717  0.69219682  1
  Sc  Sc53  1  0.75772458  0.43758354  0.65960602  1
  Sc  Sc54  1  0.14681660  0.65603183  0.98973622  1
  Sc  Sc55  1  0.96770512  0.13945450  0.32689664  1
  Sc  Sc56  1  0.71988924  0.21058456  0.68990091  1
  Sc  Sc57  1  0.56773924  0.11124817  0.29627118  1
  Sc  Sc58  1  0.41308297  0.06070063  0.91095591  1
  Sc  Sc59  1  0.91504604  0.29115840  0.74458145  1
  Sc  Sc60  1  0.64739150  0.90403467  0.88775445  1
  Sc  Sc61  1  0.87386603  0.32532642  0.95345450  1
  Sc  Sc62  1  0.12540230  0.31007292  0.02824684  1
  Sc  Sc63  1  0.28869719  0.75081553  0.10431736  1
  Sc  Sc64  1  0.51328418  0.32646334  0.64677028  1
  Sc  Sc65  1  0.19960018  0.47177676  0.35498495  1
  Sc  Sc66  1  0.09901107  0.93835787  0.68635513  1
  Sc  Sc67  1  0.92646166  0.91571287  0.35187033  1
  Sc  Sc68  1  0.31120698  0.34191602  0.49055354  1
  Sc  Sc69  1  0.49436440  0.47511591  0.91114363  1
  Sc  Sc70  1  0.36554699  0.22086713  0.28943518  1
  Sc  Sc71  1  0.10728521  0.98503613  0.23048151  1
  Sc  Sc72  1  0.49555664  0.91152988  0.55537839  1
  Sc  Sc73  1  0.91209900  0.02473231  0.10375357  1
  Sc  Sc74  1  0.50130358  0.95263413  0.75095934  1
  Sc  Sc75  1  0.87790942  0.87377100  0.77168264  1
  Sc  Sc76  1  0.48665054  0.53815392  0.68833571  1
  Sc  Sc77  1  0.02496210  0.49131408  0.99365105  1
  Sc  Sc78  1  0.50140541  0.74151756  0.75135327  1
  Sc  Sc79  1  0.67308722  0.35821841  0.84523247  1
  Sc  Sc80  1  0.87575578  0.51606602  0.84348787  1
  Sc  Sc81  1  0.72102926  0.30816012  0.49276734  1
  Sc  Sc82  1  0.30161618  0.64449156  0.29097896  1
  Sc  Sc83  1  0.27850019  0.87296730  0.29820773  1
  Sc  Sc84  1  0.60233147  0.10827240  0.51853688  1
  Sc  Sc85  1  0.31760704  0.16930841  0.05737417  1
  Sc  Sc86  1  0.67728290  0.72608280  0.36810399  1
  Sc  Sc87  1  0.45741531  0.79472078  0.37796094  1
  Sc  Sc88  1  0.46873604  0.90327404  0.06466622  1
  Sc  Sc89  1  0.28072527  0.74859385  0.49643285  1
  Sc  Sc90  1  0.52709764  0.68612387  0.96246685  1
  Sc  Sc91  1  0.90736676  0.72243079  0.48373332  1
  Sc  Sc92  1  0.41056782  0.44355615  0.28749756  1
  Sc  Sc93  1  0.01510088  0.95807587  0.90163622  1
  Sc  Sc94  1  0.87854165  0.49690294  0.17326930  1
  Sc  Sc95  1  0.02485310  0.82608278  0.09614578  1
  Sc  Sc96  1  0.33309915  0.63645407  0.87922265  1
  Sc  Sc97  1  0.68680724  0.81167424  0.65543601  1
  Sc  Sc98  1  0.38536363  0.35425981  0.08522581  1
  Sc  Sc99  1  0.09200938  0.86211548  0.48218667  1
  Nb  Nb100  1  0.98575882  0.55737009  0.34748035  1
  Nb  Nb101  1  0.49832924  0.14600748  0.71786011  1
  Nb  Nb102  1  0.20598144  1.00928753  0.86298462  1
  Nb  Nb103  1  0.79486028  0.85307589  0.19676764  1
  Nb  Nb104  1  0.31073126  0.24596954  0.68895282  1
  Nb  Nb105  1  0.10710837  0.14311683  0.72909553  1
  Nb  Nb106  1  0.69905894  0.61488887  0.19117664  1
  Nb  Nb107  1  0.11489380  0.26896643  0.39970266  1
  Nb  Nb108  1  0.01061055  0.17233078  0.89405596  1
  Nb  Nb109  1  0.42848339  1.00460014  0.38115826  1
  Nb  Nb110  1  0.55334232  0.49448251  0.13308165  1
  Nb  Nb111  1  0.52701131  0.59568875  0.34489885  1
  Nb  Nb112  1  0.43609427  0.27868373  0.86341686  1
  Nb  Nb113  1  0.12327854  0.57134558  0.79930212  1
  Nb  Nb114  1  0.49259977  0.69585845  0.54828229  1
  Nb  Nb115  1  1.03743098  0.42890580  0.47110089  1
  Nb  Nb116  1  0.97568104  0.70874439  0.86634443  1
  Nb  Nb117  1  0.11597631  0.63461208  0.46169327  1
  Nb  Nb118  1  0.91878575  0.08712184  0.70155354  1
  Nb  Nb119  1  0.56979544  0.29805834  0.00945782  1
  Nb  Nb120  1  0.31390690  0.84787197  0.68871868  1
  Nb  Nb121  1  0.35718351  0.03386997  0.20150871  1
  Nb  Nb122  1  0.84390980  0.86498657  0.98585420  1
  Nb  Nb123  1  0.51774307  0.12089071  0.09568312  1
  Nb  Nb124  1  0.38477803  0.56890998  0.07733197  1
