# generated using pymatgen
data_Zr2Sc2Nb
_symmetry_space_group_name_H-M   'P 1'
_cell_length_a   14.40855827
_cell_length_b   14.53020695
_cell_length_c   13.73950159
_cell_angle_alpha   87.96673842
_cell_angle_beta   90.19024342
_cell_angle_gamma   89.06402907
_symmetry_Int_Tables_number   1
_chemical_formula_structural   Zr2Sc2Nb
_chemical_formula_sum   'Zr50 Sc50 Nb25'
_cell_volume   2874.27640253
_cell_formula_units_Z   25
loop_
 _symmetry_equiv_pos_site_id
 _symmetry_equiv_pos_as_xyz
  1  'x, y, z'
loop_
 _atom_site_type_symbol
 _atom_site_label
 _atom_site_symmetry_multiplicity
 _atom_site_fract_x
 _atom_site_fract_y
 _atom_site_fract_z
 _atom_site_occupancy
  Zr  Zr0  1  0.42431876  0.19769084  0.15322179  1
  Zr  Zr1  1  0.20374857  0.14622384  0.62091904  1
  Zr  Zr2  1  0.77099006  0.26818595  0.18257839  1
  Zr  Zr3  1  0.05838850  1.01448122  0.70947943  1
  Zr  Zr4  1  0.62192360  0.79630120  0.49306361  1
  Zr  Zr5  1  0.81486565  0.19322836  0.52308329  1
  Zr  Zr6  1  0.53606157  0.98723559  0.50731137  1
  Zr  Zr7  1  0.04653309  0.00493834  0.24853421  1
  Zr  Zr8  1  0.82103998  0.47610139  0.26058940  1
  Zr  Zr9  1  0.33411457  0.68909722  0.72519446  1
  Zr  Zr10  1  0.18129709  0.61155732  0.86416481  1
  Zr  Zr11  1  0.13030241  0.95760338  0.90931605  1
  Zr  Zr12  1  0.07622353  0.72686082  -0.00186114  1
  Zr  Zr13  1  0.63381442  0.23983583  0.84983760  1
  Zr  Zr14  1  0.13090096  0.66638208  0.66329555  1
  Zr  Zr15  1  0.75917343  0.72018388  0.23535539  1
  Zr  Zr16  1  0.45055319  0.53328602  0.66657060  1
  Zr  Zr17  1  0.93930485  0.65537204  0.32891988  1
  Zr  Zr18  1  0.39744210  0.17639305  0.54296355  1
  Zr  Zr19  1  0.56556553  0.72338178  0.08270647  1
  Zr  Zr20  1  0.76826315  0.42700083  0.47746392  1
  Zr  Zr21  1  0.62149545  0.12941912  0.28926064  1
  Zr  Zr22  1  0.59979457  0.18574599  0.51457886  1
  Zr  Zr23  1  0.24199438  0.09531706  0.19355613  1
  Zr  Zr24  1  0.11475795  0.48631973  0.56110236  1
  Zr  Zr25  1  0.97127972  0.79205546  0.17917504  1
  Zr  Zr26  1  0.29565569  0.48317469  0.35535457  1
  Zr  Zr27  1  0.83067075  0.35313846  0.79915393  1
  Zr  Zr28  1  0.71925599  0.58286835  0.08744981  1
  Zr  Zr29  1  0.16050403  0.67194166  0.20268377  1
  Zr  Zr30  1  0.31166769  0.99833723  0.02301797  1
  Zr  Zr31  1  0.12388467  0.96695655  0.50647158  1
  Zr  Zr32  1  0.33270789  0.70363224  0.34416188  1
  Zr  Zr33  1  0.21167255  0.12570597  0.40380200  1
  Zr  Zr34  1  0.94062472  0.36050237  0.12177586  1
  Zr  Zr35  1  0.41606522  0.07986090  0.34284157  1
  Zr  Zr36  1  0.19588354  0.37620298  0.89274512  1
  Zr  Zr37  1  0.03922842  0.46955295  0.77796210  1
  Zr  Zr38  1  0.26348306  0.29001752  0.29155922  1
  Zr  Zr39  1  0.50333832  0.61305566  0.46122928  1
  Zr  Zr40  1  0.94224745  0.94108512  0.04427609  1
  Zr  Zr41  1  0.27740883  0.80644028  0.91382598  1
  Zr  Zr42  1  0.86714017  0.53148298  0.65527399  1
  Zr  Zr43  1  0.53149143  0.51912141  0.02600231  1
  Zr  Zr44  1  0.65762688  0.80616944  0.86409652  1
  Zr  Zr45  1  0.80831432  0.20475236  0.96397527  1
  Zr  Zr46  1  0.46041735  0.29243371  0.35255187  1
  Zr  Zr47  1  0.94946280  0.66841315  0.78728205  1
  Zr  Zr48  1  0.01928349  0.16410165  0.51081218  1
  Zr  Zr49  1  0.91887980  0.31383100  0.35849626  1
  Sc  Sc50  1  0.29060389  0.20623335  0.98710024  1
  Sc  Sc51  1  0.69789112  0.32273915  0.64725976  1
  Sc  Sc52  1  0.24642392  0.90632742  0.32557969  1
  Sc  Sc53  1  0.22469305  0.87326826  0.69799369  1
  Sc  Sc54  1  0.69148481  0.02167883  0.91076007  1
  Sc  Sc55  1  0.48433010  0.89065325  0.95090942  1
  Sc  Sc56  1  0.89575187  0.50341778  0.93968334  1
  Sc  Sc57  1  0.71965460  0.61302247  0.84749227  1
  Sc  Sc58  1  0.31324898  0.36704123  0.54588035  1
  Sc  Sc59  1  0.61654918  0.17631571  0.06485191  1
  Sc  Sc60  1  0.75337900  0.63134504  0.44550303  1
  Sc  Sc61  1  0.41206094  0.77704579  0.54175592  1
  Sc  Sc62  1  0.67257494  0.93123629  0.67771137  1
  Sc  Sc63  1  0.33367837  -0.02770550  0.53168545  1
  Sc  Sc64  1  0.13301190  0.62376930  0.40506095  1
  Sc  Sc65  1  0.44210990  0.57052156  0.21779189  1
  Sc  Sc66  1  0.13882012  0.29023381  0.10479197  1
  Sc  Sc67  1  0.34035127  0.40585501  0.10496550  1
  Sc  Sc68  1  0.71105106  0.39026347  1.00140527  1
  Sc  Sc69  1  0.53756575  0.09687851  0.71457606  1
  Sc  Sc70  1  0.73566331  0.01398063  0.44819081  1
  Sc  Sc71  1  0.84006656  0.82367961  0.45043466  1
  Sc  Sc72  1  0.46034180  0.88380354  0.72774132  1
  Sc  Sc73  1  0.86504166  0.88768427  0.81900231  1
  Sc  Sc74  1  0.51066871  0.98939174  0.14895464  1
  Sc  Sc75  1  0.31459937  1.03975234  0.79284775  1
  Sc  Sc76  1  0.08488042  0.44854842  0.27254949  1
  Sc  Sc77  1  0.94293364  0.35215273  0.59333389  1
  Sc  Sc78  1  0.65957877  0.54821073  0.62826852  1
  Sc  Sc79  1  0.37759668  0.48449626  0.87926947  1
  Sc  Sc80  1  0.16448884  0.87831953  0.11926141  1
  Sc  Sc81  1  0.59629246  0.45250514  0.82314454  1
  Sc  Sc82  1  0.85686866  0.73075775  0.98267916  1
  Sc  Sc83  1  0.94864199  0.58554218  0.12929522  1
  Sc  Sc84  1  0.87121402  1.00237703  0.62709905  1
  Sc  Sc85  1  0.37951199  0.81291980  0.15376604  1
  Sc  Sc86  1  0.49263329  0.31807462  0.69586183  1
  Sc  Sc87  1  0.93987517  0.07642863  0.88585629  1
  Sc  Sc88  1  0.65378613  0.90656048  0.28921873  1
  Sc  Sc89  1  0.72140572  0.86615956  0.07580264  1
  Sc  Sc90  1  0.56464367  0.35939567  0.17134111  1
  Sc  Sc91  1  0.62575870  0.51458857  0.30349221  1
  Sc  Sc92  1  0.00418144  0.28679690  0.92056555  1
  Sc  Sc93  1  0.48430283  0.67808905  0.87871234  1
  Sc  Sc94  1  0.47238452  0.11114541  0.93033570  1
  Sc  Sc95  1  0.78499273  0.74400333  0.66099341  1
  Sc  Sc96  1  0.32246223  0.26045217  0.77093767  1
  Sc  Sc97  1  0.31903415  0.63291956  0.04382355  1
  Sc  Sc98  1  0.54136631  0.40651176  0.49710005  1
  Sc  Sc99  1  0.12479126  0.50439635  0.04897102  1
  Nb  Nb100  1  0.04494254  0.82236055  0.37969032  1
  Nb  Nb101  1  0.76938508  0.05402638  0.13579472  1
  Nb  Nb102  1  0.20132870  0.77838980  0.50759531  1
  Nb  Nb103  1  0.97044643  0.67048691  0.53959757  1
  Nb  Nb104  1  0.14079778  0.16287170  0.83665374  1
  Nb  Nb105  1  0.48080281  0.31835355  0.96096398  1
  Nb  Nb106  1  1.00285405  0.83661313  0.60824881  1
  Nb  Nb107  1  0.12633195  0.30929179  0.68672386  1
  Nb  Nb108  1  0.76645371  0.13697863  0.73978587  1
  Nb  Nb109  1  0.56896360  0.71583155  0.68456777  1
  Nb  Nb110  1  0.55802935  0.72326163  0.29375853  1
  Nb  Nb111  1  0.06530399  0.81027409  0.81157659  1
  Nb  Nb112  1  0.10463274  0.09821643  0.04160908  1
  Nb  Nb113  1  0.94196190  0.14924374  0.11779004  1
  Nb  Nb114  1  0.85829852  -0.07173434  0.26072546  1
  Nb  Nb115  1  -0.04524633  0.19574948  0.71901901  1
  Nb  Nb116  1  0.05813668  0.20260552  0.27836747  1
  Nb  Nb117  1  0.68796388  0.29876700  0.36376932  1
  Nb  Nb118  1  0.94809967  -0.00026253  0.43202723  1
  Nb  Nb119  1  0.30041395  0.59252048  0.53446841  1
  Nb  Nb120  1  0.25205153  0.47961727  0.71296804  1
  Nb  Nb121  1  0.45547578  0.87537308  0.35286360  1
  Nb  Nb122  1  0.95524598  0.49458670  0.44107083  1
  Nb  Nb123  1  0.12521179  0.32338539  0.45092034  1
  Nb  Nb124  1  0.85581002  0.13043057  0.31065377  1
