# generated using pymatgen
data_Zr2Sc2Nb
_symmetry_space_group_name_H-M   'P 1'
_cell_length_a   14.36633112
_cell_length_b   14.36513448
_cell_length_c   13.95059618
_cell_angle_alpha   89.10365307
_cell_angle_beta   89.95199286
_cell_angle_gamma   89.40711455
_symmetry_Int_Tables_number   1
_chemical_formula_structural   Zr2Sc2Nb
_chemical_formula_sum   'Zr50 Sc50 Nb25'
_cell_volume   2878.53713999
_cell_formula_units_Z   25
loop_
 _symmetry_equiv_pos_site_id
 _symmetry_equiv_pos_as_xyz
  1  'x, y, z'
loop_
 _atom_site_type_symbol
 _atom_site_label
 _atom_site_symmetry_multiplicity
 _atom_site_fract_x
 _atom_site_fract_y
 _atom_site_fract_z
 _atom_site_occupancy
  Zr  Zr0  1  0.46904066  0.53216087  0.74760322  1
  Zr  Zr1  1  0.73891344  0.79705010  0.03099968  1
  Zr  Zr2  1  0.36939535  0.34032753  0.57606612  1
  Zr  Zr3  1  0.55770100  0.05605501  0.31261593  1
  Zr  Zr4  1  0.26930233  0.90508050  0.58962603  1
  Zr  Zr5  1  0.26776380  0.50790739  0.66091696  1
  Zr  Zr6  1  0.62200838  0.57579549  0.53113354  1
  Zr  Zr7  1  0.56038201  0.14747062  0.52079095  1
  Zr  Zr8  1  0.96114131  0.15199736  0.46883574  1
  Zr  Zr9  1  0.88136031  0.16181359  0.85985975  1
  Zr  Zr10  1  0.54512246  0.75818231  0.12978126  1
  Zr  Zr11  1  0.28912160  0.61667579  0.85324730  1
  Zr  Zr12  1  0.90705058  0.86640854  0.13607344  1
  Zr  Zr13  1  0.26647641  0.46646223  0.20455848  1
  Zr  Zr14  1  0.41845238  0.47025985  0.97779839  1
  Zr  Zr15  1  0.16302897  0.97123397  0.14221182  1
  Zr  Zr16  1  0.45800994  0.16258427  0.72134317  1
  Zr  Zr17  1  0.38047250  0.84495683  0.03068210  1
  Zr  Zr18  1  0.76620410  0.84740940  0.77337652  1
  Zr  Zr19  1  0.18571449  0.79441038  0.94789555  1
  Zr  Zr20  1  0.29472296  0.30689127  1.04193147  1
  Zr  Zr21  1  0.61056072  0.97018011  0.03534226  1
  Zr  Zr22  1  0.09315472  0.68340483  0.76506860  1
  Zr  Zr23  1  0.74320230  0.11364492  0.18706217  1
  Zr  Zr24  1  0.33094081  0.11767836  0.54398615  1
  Zr  Zr25  1  0.62915814  0.25912785  0.31241237  1
  Zr  Zr26  1  0.28539066  0.03577798  0.74458753  1
  Zr  Zr27  1  0.25503644  0.55093968  0.42506164  1
  Zr  Zr28  1  0.44491946  0.73047917  0.69830209  1
  Zr  Zr29  1  -0.00520912  0.52284162  0.64178566  1
  Zr  Zr30  1  0.31164859  0.03790550  0.31689627  1
  Zr  Zr31  1  0.48214598  0.66760940  0.93798234  1
  Zr  Zr32  1  0.34314282  0.10941532  0.09827848  1
  Zr  Zr33  1  0.42339455  0.21372340  0.37100191  1
  Zr  Zr34  1  0.45496302  0.02899397  0.91450199  1
  Zr  Zr35  1  0.29151409  0.64620129  0.08151305  1
  Zr  Zr36  1  0.05303692  0.83475489  0.60490811  1
  Zr  Zr37  1  0.89337054  0.94332567  0.52418755  1
  Zr  Zr38  1  0.13015445  -0.01829003  0.43473800  1
  Zr  Zr39  1  0.24618204  0.71041208  0.63855364  1
  Zr  Zr40  1  0.23475855  0.24707735  0.70002428  1
  Zr  Zr41  1  0.09328044  0.35613306  0.30405860  1
  Zr  Zr42  1  0.90442464  0.02003655  0.30018842  1
  Zr  Zr43  1  0.77087944  0.69607536  0.26448714  1
  Zr  Zr44  1  0.85029915  0.11897438  0.64900599  1
  Zr  Zr45  1  0.49945735  0.26777841  0.93940746  1
  Zr  Zr46  1  0.84371661  0.28047748  0.06410945  1
  Zr  Zr47  1  0.95565632  0.35768066  0.47118851  1
  Zr  Zr48  1  0.84540906  0.47812051  0.00666705  1
  Zr  Zr49  1  0.15637653  0.74578083  0.43500895  1
  Sc  Sc50  1  0.75197306  0.09815815  0.42552079  1
  Sc  Sc51  1  0.81853119  0.52472806  0.52635099  1
  Sc  Sc52  1  0.50240880  0.54380000  0.15519972  1
  Sc  Sc53  1  0.68115738  -0.02667449  0.60840107  1
  Sc  Sc54  1  0.77196147  0.66433847  0.89347169  1
  Sc  Sc55  1  0.24544699  0.99189560  0.94462229  1
  Sc  Sc56  1  0.12379065  0.46055336  0.79580448  1
  Sc  Sc57  1  0.75522646  0.30684460  0.48325470  1
  Sc  Sc58  1  0.05691570  0.86238921  0.29594017  1
  Sc  Sc59  1  0.07784459  0.13314280  0.26182413  1
  Sc  Sc60  1  0.14669481  0.39118405  0.54197734  1
  Sc  Sc61  1  0.87573953  0.25653581  0.28535288  1
  Sc  Sc62  1  0.69463005  0.16109983  -0.02132791  1
  Sc  Sc63  1  0.73055523  0.33211982  0.86299785  1
  Sc  Sc64  1  0.57228777  0.83610340  0.87029480  1
  Sc  Sc65  1  0.56061809  0.36239991  0.52041637  1
  Sc  Sc66  1  0.69484612  0.59142238  0.09751356  1
  Sc  Sc67  1  0.66836117  0.22305201  0.68767813  1
  Sc  Sc68  1  0.36504315  0.76227637  0.45592995  1
  Sc  Sc69  1  0.54214455  0.16129036  0.12836375  1
  Sc  Sc70  1  0.76171789  0.75566615  0.54801552  1
  Sc  Sc71  1  0.69617073  0.90523651  0.21332075  1
  Sc  Sc72  1  0.82335117  0.97500836  0.95353711  1
  Sc  Sc73  1  0.46002105  0.46669279  0.36094591  1
  Sc  Sc74  1  0.09102402  0.05606970  0.62567459  1
  Sc  Sc75  1  0.08841811  0.10053572  0.83948122  1
  Sc  Sc76  1  0.95264937  0.36081890  0.87156222  1
  Sc  Sc77  1  0.94058944  0.95067498  0.76073235  1
  Sc  Sc78  1  0.48339521  0.94461268  0.69685525  1
  Sc  Sc79  1  0.46101324  0.96359870  0.48791901  1
  Sc  Sc80  1  0.42525270  0.58035297  0.53686641  1
  Sc  Sc81  1  0.65228098  0.66495179  0.72176101  1
  Sc  Sc82  1  0.67496372  0.47144917  0.32331745  1
  Sc  Sc83  1  0.05442819  0.32101886  0.09075137  1
  Sc  Sc84  1  0.16920241  0.19952463  0.44824529  1
  Sc  Sc85  1  0.65863097  0.04186922  0.81156134  1
  Sc  Sc86  1  0.62282890  0.50076551  0.89911393  1
  Sc  Sc87  1  0.94713907  0.09611014  0.08695432  1
  Sc  Sc88  1  0.57364925  0.66798427  0.34888858  1
  Sc  Sc89  1  0.04433078  0.53685990  0.39540935  1
  Sc  Sc90  1  0.87391094  0.47973038  0.24153612  1
  Sc  Sc91  1  0.95036706  0.70027232  0.48438316  1
  Sc  Sc92  1  0.05516240  0.52552085  0.14752382  1
  Sc  Sc93  1  0.02960092  0.25745966  0.68356035  1
  Sc  Sc94  1  0.28000767  0.83004963  0.24011288  1
  Sc  Sc95  1  0.67207576  0.89400100  0.41568699  1
  Sc  Sc96  1  0.48549305  0.84808546  0.31318985  1
  Sc  Sc97  1  0.44330236  0.33480782  0.19191672  1
  Sc  Sc98  1  0.64803894  0.36640240  0.09577236  1
  Sc  Sc99  1  0.84827253  0.34124470  0.66923262  1
  Nb  Nb100  1  0.14930764  0.14611137  0.04345070  1
  Nb  Nb101  1  0.81297475  0.51668252  0.76241756  1
  Nb  Nb102  1  0.28814052  0.35552463  0.38220362  1
  Nb  Nb103  1  0.90538676  0.66194163  0.07084895  1
  Nb  Nb104  1  0.14730237  0.28353781  0.89555509  1
  Nb  Nb105  1  0.45557929  0.96542985  0.15857495  1
  Nb  Nb106  1  0.97136760  0.68495130  0.26436498  1
  Nb  Nb107  1  0.55644287  0.78007225  0.54334472  1
  Nb  Nb108  1  0.24753468  0.23474675  0.23058606  1
  Nb  Nb109  1  0.19822222  0.46566846  -0.01050941  1
  Nb  Nb110  1  1.03953205  0.94520850  0.97300861  1
  Nb  Nb111  1  0.08225386  0.76507481  0.11111140  1
  Nb  Nb112  1  0.89414019  0.70408299  0.70778298  1
  Nb  Nb113  1  0.50586879  0.34584080  0.75199015  1
  Nb  Nb114  1  0.33857032  0.83807669  0.81778400  1
  Nb  Nb115  1  0.31662253  0.18268340  0.88431397  1
  Nb  Nb116  1  0.66146294  0.44360052  0.68173333  1
  Nb  Nb117  1  0.95676693  0.78433126  0.90748075  1
  Nb  Nb118  1  0.95660545  0.57674994  0.86658963  1
  Nb  Nb119  1  0.09786377  0.62227236  0.97420114  1
  Nb  Nb120  1  0.13902722  0.88981756  0.77697145  1
  Nb  Nb121  1  0.17099538  0.65411245  0.25605738  1
  Nb  Nb122  1  0.32459932  0.38127728  0.82663586  1
  Nb  Nb123  1  0.37602791  0.65062804  0.27753063  1
  Nb  Nb124  1  0.86158901  0.84014807  0.35489395  1
