# generated using pymatgen
data_Zr2Sc2Nb
_symmetry_space_group_name_H-M   'P 1'
_cell_length_a   14.06609315
_cell_length_b   14.28829188
_cell_length_c   14.35311466
_cell_angle_alpha   89.52885775
_cell_angle_beta   88.56711187
_cell_angle_gamma   89.38113529
_symmetry_Int_Tables_number   1
_chemical_formula_structural   Zr2Sc2Nb
_chemical_formula_sum   'Zr50 Sc50 Nb25'
_cell_volume   2883.53384543
_cell_formula_units_Z   25
loop_
 _symmetry_equiv_pos_site_id
 _symmetry_equiv_pos_as_xyz
  1  'x, y, z'
loop_
 _atom_site_type_symbol
 _atom_site_label
 _atom_site_symmetry_multiplicity
 _atom_site_fract_x
 _atom_site_fract_y
 _atom_site_fract_z
 _atom_site_occupancy
  Zr  Zr0  1  0.16151808  0.15302219  0.35052858  1
  Zr  Zr1  1  0.65929031  0.38829834  0.89773636  1
  Zr  Zr2  1  0.90899304  0.70867870  0.73274827  1
  Zr  Zr3  1  0.14402575  0.77670365  0.09130917  1
  Zr  Zr4  1  0.27367860  0.48194866  0.34583017  1
  Zr  Zr5  1  0.52102282  0.56801324  0.11032539  1
  Zr  Zr6  1  0.23925620  0.64486245  0.23410258  1
  Zr  Zr7  1  0.54884278  0.04790283  0.85548058  1
  Zr  Zr8  1  0.62522892  -0.00369978  0.32438755  1
  Zr  Zr9  1  0.75196866  0.52278422  0.74754869  1
  Zr  Zr10  1  0.54470275  0.78447453  0.19088155  1
  Zr  Zr11  1  0.90472095  0.90216298  0.62961378  1
  Zr  Zr12  1  0.57881496  0.61154724  0.64875059  1
  Zr  Zr13  1  0.03283323  0.24509144  0.65028808  1
  Zr  Zr14  1  0.66066930  0.69460239  0.02905600  1
  Zr  Zr15  1  0.98664846  0.50053219  0.57859077  1
  Zr  Zr16  1  0.35527432  0.35888363  0.64213241  1
  Zr  Zr17  1  0.32385305  0.16708268  0.51195449  1
  Zr  Zr18  1  0.18838692  0.58812663  0.03409649  1
  Zr  Zr19  1  0.36583350  0.56800418  0.92042602  1
  Zr  Zr20  1  0.00978186  0.71044292  0.93624762  1
  Zr  Zr21  1  0.29148787  0.77421426  0.70052359  1
  Zr  Zr22  1  0.49260285  0.46540624  0.76436845  1
  Zr  Zr23  1  0.56218157  0.41202640  0.52820384  1
  Zr  Zr24  1  0.30411329  0.93105731  0.05295994  1
  Zr  Zr25  1  0.05149193  0.77811957  0.28020655  1
  Zr  Zr26  1  0.34415202  0.47068430  0.14341005  1
  Zr  Zr27  1  0.03557955  0.04526311  0.71540144  1
  Zr  Zr28  1  0.57772325  0.20579533  0.99639738  1
  Zr  Zr29  1  0.76771525  0.46278527  0.55036447  1
  Zr  Zr30  1  0.30919278  0.07969925  0.20171423  1
  Zr  Zr31  1  0.49699344  0.44861063  0.31031261  1
  Zr  Zr32  1  0.51809085  0.17190466  0.19813180  1
  Zr  Zr33  1  0.56696775  0.22842088  0.39145385  1
  Zr  Zr34  1  0.47194349  0.40092446  0.98450131  1
  Zr  Zr35  1  0.38035044  0.72795784  0.06288416  1
  Zr  Zr36  1  0.09418857  0.58500713  0.40383693  1
  Zr  Zr37  1  0.65840528  0.86397347  0.57001267  1
  Zr  Zr38  1  0.75673568  0.04595874  0.94079171  1
  Zr  Zr39  1  0.43924660  0.65658967  0.31267602  1
  Zr  Zr40  1  0.94304287  0.06635888  0.05347652  1
  Zr  Zr41  1  0.08593222  0.81560098  0.77359207  1
  Zr  Zr42  1  0.98658911  0.27561404  0.04461337  1
  Zr  Zr43  1  0.05369630  0.94797863  0.39938469  1
  Zr  Zr44  1  0.86367713  0.71779849  0.31729650  1
  Zr  Zr45  1  0.74881630  0.48894208  0.05318691  1
  Zr  Zr46  1  0.39351370  0.09011622  0.70053045  1
  Zr  Zr47  1  0.71499052  0.20569873  0.82175925  1
  Zr  Zr48  1  0.15092816  0.08050619  0.55488671  1
  Zr  Zr49  1  0.16184051  0.16357929  0.09679825  1
  Sc  Sc50  1  0.10334685  0.14162421  0.89073635  1
  Sc  Sc51  1  0.66026556  0.02483537  0.11656929  1
  Sc  Sc52  1  0.87700105  0.98438207  0.25696304  1
  Sc  Sc53  1  0.61199764  0.35957593  0.15487435  1
  Sc  Sc54  1  0.84156169  0.88632563  0.43513293  1
  Sc  Sc55  1  0.68660132  0.73871318  0.78276592  1
  Sc  Sc56  1  0.65418297  0.78886504  0.37523519  1
  Sc  Sc57  1  0.15443386  0.42719917  0.69310033  1
  Sc  Sc58  1  0.10714979  0.97979692  0.19430177  1
  Sc  Sc59  1  0.94089075  0.10830958  0.47532434  1
  Sc  Sc60  1  0.88605012  0.52421239  0.37672596  1
  Sc  Sc61  1  0.83711918  0.12050570  0.66842692  1
  Sc  Sc62  1  0.93447789  0.95088710  0.86486307  1
  Sc  Sc63  1  0.75618828  0.18297839  0.28514976  1
  Sc  Sc64  1  0.45268419  0.86856774  0.39301756  1
  Sc  Sc65  1  0.28930577  0.36511130  0.86280427  1
  Sc  Sc66  1  0.98069487  0.17572055  0.24742646  1
  Sc  Sc67  1  0.12494792  0.94056728  0.95136723  1
  Sc  Sc68  1  0.32724432  0.28160197  0.26611662  1
  Sc  Sc69  1  0.03681571  0.56582908  0.20186126  1
  Sc  Sc70  1  0.73191209  0.94606791  0.75920837  1
  Sc  Sc71  1  0.72578803  0.05958034  0.48848222  1
  Sc  Sc72  1  0.10045813  0.36296163  0.26912072  1
  Sc  Sc73  1  0.46296775  0.72252756  0.81735454  1
  Sc  Sc74  1  0.75255202  0.83913037  0.17438661  1
  Sc  Sc75  1  0.80244584  0.82175030  0.95064198  1
  Sc  Sc76  1  0.33710977  0.93501043  0.56933439  1
  Sc  Sc77  1  0.31029714  0.12668038  0.90305721  1
  Sc  Sc78  1  0.16026630  0.32687025  0.48881870  1
  Sc  Sc79  1  0.71279968  0.39036682  0.35463313  1
  Sc  Sc80  1  0.98550916  0.49663615  0.00386431  1
  Sc  Sc81  1  0.29199290  0.84170794  0.25009742  1
  Sc  Sc82  1  0.78068871  0.23816884  0.05148152  1
  Sc  Sc83  1  0.26307200  0.72848921  0.46494325  1
  Sc  Sc84  1  0.16578029  0.59199475  0.82466825  1
  Sc  Sc85  1  0.86097809  0.34108353  0.69859344  1
  Sc  Sc86  1  0.78615396  0.68370782  0.55547018  1
  Sc  Sc87  1  0.92852951  0.32009703  0.44441941  1
  Sc  Sc88  1  0.87571685  0.66799224  0.10646979  1
  Sc  Sc89  1  0.62766980  0.59669180  0.43552130  1
  Sc  Sc90  1  0.50697883  0.90015014  0.70585107  1
  Sc  Sc91  1  0.47814487  0.25104626  0.80723882  1
  Sc  Sc92  1  0.06242682  0.34312580  0.85348117  1
  Sc  Sc93  1  -0.01204233  0.73450254  0.50123780  1
  Sc  Sc94  1  0.54840647  0.87403144  0.98270089  1
  Sc  Sc95  1  0.18076726  0.37309003  0.05681213  1
  Sc  Sc96  1  0.41853076  0.55990456  0.49953410  1
  Sc  Sc97  1  0.12843062  0.87072789  0.57908992  1
  Sc  Sc98  1  0.69291084  0.59970039  0.23550606  1
  Sc  Sc99  1  0.87787385  0.38127350  0.20295533  1
  Nb  Nb100  1  0.73131333  0.25566436  0.53049079  1
  Nb  Nb101  1  0.45089723  0.06016496  0.03252763  1
  Nb  Nb102  1  0.36698688  0.92107712  0.86373622  1
  Nb  Nb103  1  0.22774719  0.51780860  0.53768200  1
  Nb  Nb104  1  0.81950455  0.60581518  0.90637384  1
  Nb  Nb105  1  0.24897130  0.76594124  0.90454358  1
  Nb  Nb106  1  0.64385810  0.33348023  0.68759662  1
  Nb  Nb107  1  0.11852114  0.64806204  0.63749354  1
  Nb  Nb108  1  0.46729167  0.95846637  0.19889686  1
  Nb  Nb109  1  0.21748227  0.20633034  0.71712615  1
  Nb  Nb110  1  0.33794796  0.58220771  0.69015387  1
  Nb  Nb111  1  0.46868167  0.74987259  0.56234377  1
  Nb  Nb112  1  0.62138335  0.10420442  0.66864026  1
  Nb  Nb113  1  0.22081555  0.98224778  0.75495808  1
  Nb  Nb114  1  0.51834017  1.02488907  0.51973030  1
  Nb  Nb115  1  0.51138020  0.22231751  0.57720306  1
  Nb  Nb116  1  0.38215199  0.34809741  0.44947904  1
  Nb  Nb117  1  0.42286256  0.08793982  0.36441851  1
  Nb  Nb118  1  0.96980222  0.52519342  0.78513824  1
  Nb  Nb119  1  0.85587852  0.38079269  0.89818002  1
  Nb  Nb120  1  0.95536293  0.86474610  0.09112864  1
  Nb  Nb121  1  0.25656696  -0.02086166  0.39197692  1
  Nb  Nb122  1  0.91076571  0.18258825  0.85969147  1
  Nb  Nb123  1  0.36584155  0.24985183  0.06021937  1
  Nb  Nb124  1  0.59403544  0.57636885  0.89682371  1
