# generated using pymatgen
data_Zr2Sc2Nb
_symmetry_space_group_name_H-M   'P 1'
_cell_length_a   14.35908901
_cell_length_b   13.90528656
_cell_length_c   14.35187321
_cell_angle_alpha   91.40890743
_cell_angle_beta   90.19486008
_cell_angle_gamma   88.78307582
_symmetry_Int_Tables_number   1
_chemical_formula_structural   Zr2Sc2Nb
_chemical_formula_sum   'Zr50 Sc50 Nb25'
_cell_volume   2864.07468066
_cell_formula_units_Z   25
loop_
 _symmetry_equiv_pos_site_id
 _symmetry_equiv_pos_as_xyz
  1  'x, y, z'
loop_
 _atom_site_type_symbol
 _atom_site_label
 _atom_site_symmetry_multiplicity
 _atom_site_fract_x
 _atom_site_fract_y
 _atom_site_fract_z
 _atom_site_occupancy
  Zr  Zr0  1  0.79729165  0.04293533  0.93366676  1
  Zr  Zr1  1  0.80905455  0.55046098  0.43404129  1
  Zr  Zr2  1  0.16283189  0.68320664  0.59113427  1
  Zr  Zr3  1  0.90428820  0.91081150  0.45766345  1
  Zr  Zr4  1  0.10434040  0.89353348  0.56674209  1
  Zr  Zr5  1  0.28157696  0.58939988  0.08934947  1
  Zr  Zr6  1  0.85098051  0.73582064  0.37287741  1
  Zr  Zr7  1  0.10245971  0.12299929  0.22848538  1
  Zr  Zr8  1  0.14746035  0.29529632  0.66939037  1
  Zr  Zr9  1  0.86641464  0.90057766  0.08811866  1
  Zr  Zr10  1  0.49605634  0.78804762  0.41271133  1
  Zr  Zr11  1  0.88578351  0.05864509  0.26960818  1
  Zr  Zr12  1  0.76825921  0.74811430  0.60151148  1
  Zr  Zr13  1  0.68833640  0.38800968  0.96603916  1
  Zr  Zr14  1  0.47558971  0.44175922  0.52493332  1
  Zr  Zr15  1  0.44875482  0.42662027  -0.01894147  1
  Zr  Zr16  1  0.57486409  0.84831779  0.63190936  1
  Zr  Zr17  1  0.86656225  0.25398311  0.90948606  1
  Zr  Zr18  1  0.35276168  0.84753792  0.87247353  1
  Zr  Zr19  1  0.16901128  0.77008511  0.95425939  1
  Zr  Zr20  1  0.01804867  0.58401007  0.35034250  1
  Zr  Zr21  1  0.26796952  0.83522149  0.44082106  1
  Zr  Zr22  1  0.88868244  0.47024801  0.83949594  1
  Zr  Zr23  1  0.38946890  0.94321445  0.29021366  1
  Zr  Zr24  1  0.76757216  0.98622650  0.59896810  1
  Zr  Zr25  1  0.63112090  0.43915222  0.32718242  1
  Zr  Zr26  1  0.27219319  0.11207526  0.36055161  1
  Zr  Zr27  1  0.22752651  0.11222826  0.78299888  1
  Zr  Zr28  1  0.41323085  0.19254399  0.49331723  1
  Zr  Zr29  1  0.46765329  0.69088390  0.74545871  1
  Zr  Zr30  1  0.09524763  0.37328473  0.31716001  1
  Zr  Zr31  1  0.30182916  0.82524550  0.65167507  1
  Zr  Zr32  1  0.23357128  0.38457043  0.04883822  1
  Zr  Zr33  1  0.37704611  0.64212613  0.93602319  1
  Zr  Zr34  1  0.94240806  0.29201179  0.70132792  1
  Zr  Zr35  1  0.61254395  0.63009768  0.53505760  1
  Zr  Zr36  1  0.66020192  0.11935722  0.76741869  1
  Zr  Zr37  1  0.31035795  0.26825622  0.87832834  1
  Zr  Zr38  1  0.45763938  0.16251975  0.25208463  1
  Zr  Zr39  1  0.28201317  0.51562036  0.63349370  1
  Zr  Zr40  1  0.04579335  0.09088081  0.66038160  1
  Zr  Zr41  1  0.76621143  0.26368814  0.35077406  1
  Zr  Zr42  1  0.56019276  0.28274319  0.63438111  1
  Zr  Zr43  1  0.06078786  0.72595390  0.77302888  1
  Zr  Zr44  1  0.58564129  0.32140450  0.15637201  1
  Zr  Zr45  1  0.87182432  0.43640451  0.26311647  1
  Zr  Zr46  1  0.54215824  0.82401055  0.21288554  1
  Zr  Zr47  1  0.95158316  0.11490437  0.06633201  1
  Zr  Zr48  1  0.41587991  -0.03524118  0.72725528  1
  Zr  Zr49  1  0.41643917  0.96507563  0.51020495  1
  Sc  Sc50  1  0.48922645  0.00400750  0.10183818  1
  Sc  Sc51  1  0.52428495  0.26815757  0.85681714  1
  Sc  Sc52  1  0.39747894  0.66254218  0.54523620  1
  Sc  Sc53  1  0.58154748  0.06806121  0.56920341  1
  Sc  Sc54  1  0.42658735  0.34672657  0.33984405  1
  Sc  Sc55  1  0.27548679  0.47134055  0.84005467  1
  Sc  Sc56  1  0.48900781  0.46921495  0.75185411  1
  Sc  Sc57  1  0.97742586  0.86598850  0.25440290  1
  Sc  Sc58  1  0.34731557  0.32015848  0.66904731  1
  Sc  Sc59  1  0.32946446  0.71778339  0.26097579  1
  Sc  Sc60  1  0.10574715  0.55625352  0.94127980  1
  Sc  Sc61  1  0.26232931  0.36845013  0.45978283  1
  Sc  Sc62  1  0.58168321  0.94936861  0.87000833  1
  Sc  Sc63  1  0.54038663  0.78318873  0.98779096  1
  Sc  Sc64  1  0.69194171  0.41548193  0.53795424  1
  Sc  Sc65  1  0.10645136  0.21619033  0.46475001  1
  Sc  Sc66  1  0.45066465  0.56681253  0.34445757  1
  Sc  Sc67  1  0.03693043  0.30298490  0.11061665  1
  Sc  Sc68  1  0.58297177  0.57692645  0.92006502  1
  Sc  Sc69  1  0.95017720  0.70131597  -0.01401832  1
  Sc  Sc70  1  0.28863241  0.06193817  0.13148918  1
  Sc  Sc71  1  0.89329263  0.45617240  0.04095589  1
  Sc  Sc72  1  0.75835399  0.21153912  0.58386132  1
  Sc  Sc73  1  0.65930901  0.65810960  0.31182630  1
  Sc  Sc74  1  0.72739240  0.34807384  0.75979747  1
  Sc  Sc75  1  0.62175545  0.15420593  0.00562516  1
  Sc  Sc76  1  0.67172945  0.10593069  0.21303199  1
  Sc  Sc77  1  0.08041494  0.50507019  0.73408306  1
  Sc  Sc78  1  0.18942003  0.90845433  0.25776859  1
  Sc  Sc79  1  0.94189770  0.89248809  0.68539825  1
  Sc  Sc80  1  0.32847321  0.83829617  0.08513034  1
  Sc  Sc81  1  0.80031175  0.27173231  0.12957349  1
  Sc  Sc82  1  0.92128107  0.12660182  0.48809754  1
  Sc  Sc83  1  0.11790378  0.71585405  0.17342541  1
  Sc  Sc84  1  0.91728822  0.35360177  0.47759537  1
  Sc  Sc85  1  0.85894784  0.69128425  0.78058376  1
  Sc  Sc86  1  0.07899318  0.47348113  0.52794624  1
  Sc  Sc87  1  0.51423492  0.60037864  0.13295249  1
  Sc  Sc88  1  0.07484690  0.51115594  0.15209288  1
  Sc  Sc89  1  0.22819138  0.59934095  0.41458697  1
  Sc  Sc90  1  0.97056724  0.90641843  0.89166865  1
  Sc  Sc91  1  0.24408050  0.06735523  0.57777330  1
  Sc  Sc92  1  0.70761705  0.72070219  0.10760101  1
  Sc  Sc93  1  0.40313446  0.07729894  0.92008024  1
  Sc  Sc94  1  -0.03608421  0.69274745  0.55267718  1
  Sc  Sc95  1  0.08200094  0.94725336  0.07758973  1
  Sc  Sc96  1  0.88454199  0.64084428  0.17926126  1
  Sc  Sc97  1  0.07979041  0.31999445  0.88051745  1
  Sc  Sc98  1  0.87052435  0.51097644  0.63606834  1
  Sc  Sc99  1  0.73931641  0.89313553  0.26383357  1
  Nb  Nb100  1  0.86756599  0.10186620  0.75187094  1
  Nb  Nb101  1  0.08208029  0.00728179  0.40428838  1
  Nb  Nb102  1  0.08246765  0.77368626  0.39582051  1
  Nb  Nb103  1  0.75974158  0.90907001  0.77316718  1
  Nb  Nb104  1  0.76826871  0.59890331  0.94262202  1
  Nb  Nb105  1  0.41010636  0.42058776  0.16684707  1
  Nb  Nb106  1  0.67540594  0.85635273  0.45158064  1
  Nb  Nb107  1  0.25598290  0.48012683  0.25753118  1
  Nb  Nb108  1  0.55897243  1.00773622  0.36199185  1
  Nb  Nb109  1  0.17669380  0.17349457  1.01239899  1
  Nb  Nb110  1  1.03503173  0.10272005  0.87221097  1
  Nb  Nb111  1  0.25152218  0.67537913  0.78009600  1
  Nb  Nb112  1  0.68626624  0.56069955  0.72895641  1
  Nb  Nb113  1  0.65249061  0.73869746  0.79642236  1
  Nb  Nb114  1  0.70863786  0.50229419  0.13399684  1
  Nb  Nb115  1  0.15576960  0.91194984  0.76950618  1
  Nb  Nb116  1  0.67354191  0.93821601  0.06641931  1
  Nb  Nb117  1  0.25843186  0.27134792  0.21338685  1
  Nb  Nb118  1  0.43197662  0.14859006  0.70810441  1
  Nb  Nb119  1  0.95505510  0.23712126  0.29538791  1
  Nb  Nb120  1  0.21099218  0.98728274  0.93867299  1
  Nb  Nb121  1  0.73416033  0.06149075  0.41336006  1
  Nb  Nb122  1  0.76475293  0.81305455  0.93635995  1
  Nb  Nb123  1  0.59134499  0.23126453  0.41749805  1
  Nb  Nb124  1  0.40195710  0.23451629  0.06570082  1
