# generated using pymatgen
data_Zr2Sc2Nb
_symmetry_space_group_name_H-M   'P 1'
_cell_length_a   14.32724190
_cell_length_b   14.63812183
_cell_length_c   13.69198832
_cell_angle_alpha   92.02168624
_cell_angle_beta   91.28887621
_cell_angle_gamma   91.35145919
_symmetry_Int_Tables_number   1
_chemical_formula_structural   Zr2Sc2Nb
_chemical_formula_sum   'Zr50 Sc50 Nb25'
_cell_volume   2868.16971553
_cell_formula_units_Z   25
loop_
 _symmetry_equiv_pos_site_id
 _symmetry_equiv_pos_as_xyz
  1  'x, y, z'
loop_
 _atom_site_type_symbol
 _atom_site_label
 _atom_site_symmetry_multiplicity
 _atom_site_fract_x
 _atom_site_fract_y
 _atom_site_fract_z
 _atom_site_occupancy
  Zr  Zr0  1  0.85667507  0.15816178  0.17959522  1
  Zr  Zr1  1  0.53116791  0.14086668  0.35656421  1
  Zr  Zr2  1  0.84963919  0.33558265  1.02446086  1
  Zr  Zr3  1  0.01196728  0.82574571  0.28010529  1
  Zr  Zr4  1  0.79734302  0.91576661  0.69186776  1
  Zr  Zr5  1  0.66243935  1.00592107  0.54092067  1
  Zr  Zr6  1  0.03182911  0.87083907  0.66459346  1
  Zr  Zr7  1  0.49375899  0.30064698  0.55217924  1
  Zr  Zr8  1  0.80453849  0.63619911  0.85097203  1
  Zr  Zr9  1  0.30588675  0.37777400  0.60722452  1
  Zr  Zr10  1  0.07953771  0.05254215  0.55311686  1
  Zr  Zr11  1  0.23557093  0.29917705  0.04865332  1
  Zr  Zr12  1  0.79055476  0.15638573  0.71470457  1
  Zr  Zr13  1  0.53365160  0.49862842  0.50128394  1
  Zr  Zr14  1  0.10380180  0.13806919  0.92531537  1
  Zr  Zr15  1  0.73266313  0.06728612  0.33436490  1
  Zr  Zr16  1  0.87540972  0.38856140  0.22180274  1
  Zr  Zr17  1  0.22304184  0.09561255  0.10576420  1
  Zr  Zr18  1  0.11688551  0.85515280  0.46612947  1
  Zr  Zr19  1  0.44342085  0.53207349  0.07406646  1
  Zr  Zr20  1  0.24115702  0.88548549  0.68592292  1
  Zr  Zr21  1  0.35155325  0.03092943  0.27637916  1
  Zr  Zr22  1  0.19557902  0.24071601  0.26823004  1
  Zr  Zr23  1  0.87561617  0.08877933  0.53746517  1
  Zr  Zr24  1  0.51466884  0.11693806  0.89980569  1
  Zr  Zr25  1  0.78371592  0.27522026  0.35748664  1
  Zr  Zr26  1  0.25869273  0.47683626  0.17055815  1
  Zr  Zr27  1  0.55361716  0.99182518  0.20579198  1
  Zr  Zr28  1  0.94846806  0.03087388  0.34656757  1
  Zr  Zr29  1  0.99834092  0.65498435  0.99448484  1
  Zr  Zr30  1  0.70161916  0.82504729  0.90627706  1
  Zr  Zr31  1  0.01509480  0.03220898  0.11630427  1
  Zr  Zr32  1  0.29402777  -0.00692739  0.92605513  1
  Zr  Zr33  1  0.65718432  0.34530334  0.70399001  1
  Zr  Zr34  1  0.47812429  0.50117651  0.28018712  1
  Zr  Zr35  1  0.83469480  0.92497734  0.19951281  1
  Zr  Zr36  1  0.89052618  0.29756425  0.56765428  1
  Zr  Zr37  1  0.67815981  0.24599178  0.90796786  1
  Zr  Zr38  1  0.91789564  0.80453118  0.84883218  1
  Zr  Zr39  1  0.17864985  0.88370727  0.10559563  1
  Zr  Zr40  1  0.15488009  0.70067212  0.59916211  1
  Zr  Zr41  1  0.53210009  0.69456664  0.39652520  1
  Zr  Zr42  1  0.73381652  0.45079077  0.88385569  1
  Zr  Zr43  1  0.53623181  0.94319870  -0.02975136  1
  Zr  Zr44  1  0.58390303  0.13331031  0.70604682  1
  Zr  Zr45  1  0.61247204  0.64446062  0.19247982  1
  Zr  Zr46  1  0.06249118  0.32877192  0.91311393  1
  Zr  Zr47  1  0.78670092  0.73353317  0.31295859  1
  Zr  Zr48  1  0.44305962  0.28162376  0.76536841  1
  Zr  Zr49  1  0.86939672  0.87881635  0.46662310  1
  Sc  Sc50  1  0.17195524  0.64415598  0.37942945  1
  Sc  Sc51  1  0.33294285  0.20130420  0.42520502  1
  Sc  Sc52  1  0.29850348  0.41410341  0.38247049  1
  Sc  Sc53  1  0.64263322  0.42970325  0.10402039  1
  Sc  Sc54  1  0.72107934  0.50950496  0.31261811  1
  Sc  Sc55  1  0.53288117  0.46664902  0.87536915  1
  Sc  Sc56  1  0.72845278  0.61957317  0.51055061  1
  Sc  Sc57  1  0.53957258  0.68683562  0.81562637  1
  Sc  Sc58  1  0.03214038  0.62947011  0.76244440  1
  Sc  Sc59  1  0.63714891  0.22227721  0.16281428  1
  Sc  Sc60  1  0.66243139  0.81169412  0.53194987  1
  Sc  Sc61  1  0.08496926  0.43436784  0.29836933  1
  Sc  Sc62  1  0.45411657  0.87361498  0.61600704  1
  Sc  Sc63  1  0.03586516  0.25594388  0.12616572  1
  Sc  Sc64  1  0.97285856  0.68182302  0.44710904  1
  Sc  Sc65  1  0.04408501  0.40490942  0.70088556  1
  Sc  Sc66  1  0.94571369  0.48494866  0.89193982  1
  Sc  Sc67  1  0.31822609  0.40669274  0.88263031  1
  Sc  Sc68  1  0.12449554  0.65942253  0.17115539  1
  Sc  Sc69  1  0.17189266  0.53283470  0.96504271  1
  Sc  Sc70  1  0.30102433  0.70346870  0.08312417  1
  Sc  Sc71  1  0.47882908  0.92027445  0.41066841  1
  Sc  Sc72  1  0.18906086  0.74995983  0.86623788  1
  Sc  Sc73  1  0.93536045  0.60198488  0.23611033  1
  Sc  Sc74  1  0.49309118  0.74037277  0.02687147  1
  Sc  Sc75  1  0.12992292  0.26423044  0.53391946  1
  Sc  Sc76  1  0.88457968  0.71887282  0.63521688  1
  Sc  Sc77  1  0.47010014  0.31034070  1.00756041  1
  Sc  Sc78  1  0.58395796  0.34150429  0.34765645  1
  Sc  Sc79  1  0.11867263  0.48938910  0.52094387  1
  Sc  Sc80  1  0.14764717  0.02501243  0.31460479  1
  Sc  Sc81  1  0.30243422  0.16586989  0.63711377  1
  Sc  Sc82  1  0.70501538  0.05283326  0.06195325  1
  Sc  Sc83  1  0.84728681  0.49829753  0.67081518  1
  Sc  Sc84  1  0.94965488  1.02660924  0.77998676  1
  Sc  Sc85  1  0.36160987  0.61330655  0.88229677  1
  Sc  Sc86  1  0.39862557  0.29655659  0.21976971  1
  Sc  Sc87  1  0.28706974  0.98747760  0.50378085  1
  Sc  Sc88  1  0.33644993  0.57757164  0.51118269  1
  Sc  Sc89  1  0.65488539  0.83602284  0.12473515  1
  Sc  Sc90  1  0.22294048  0.53109778  0.72737614  1
  Sc  Sc91  1  0.42925661  0.11996817  0.09361773  1
  Sc  Sc92  1  0.67891279  0.20707781  0.52016762  1
  Sc  Sc93  1  0.88208932  0.15340558  0.93991787  1
  Sc  Sc94  1  0.08585591  -0.07214692  0.90681558  1
  Sc  Sc95  1  0.26333950  0.83106053  0.29270989  1
  Sc  Sc96  1  0.81816338  0.73256249  0.07630055  1
  Sc  Sc97  1  0.90370103  0.46931056  0.44080327  1
  Sc  Sc98  1  -0.00721876  0.23729339  0.35978924  1
  Sc  Sc99  1  0.39841337  0.83807617  0.84497543  1
  Nb  Nb100  1  0.35291324  0.63986132  0.28312909  1
  Nb  Nb101  1  0.65007255  0.61717371  -0.01328496  1
  Nb  Nb102  1  0.71690820  1.03159412  0.85223380  1
  Nb  Nb103  1  0.81992031  0.53466178  0.06948093  1
  Nb  Nb104  1  0.71111319  0.41081530  0.51800408  1
  Nb  Nb105  1  0.34133279  0.70250153  0.68813301  1
  Nb  Nb106  1  0.86759378  0.31746250  0.79321758  1
  Nb  Nb107  1  0.46606793  0.79861750  0.23546868  1
  Nb  Nb108  1  0.51589232  0.67901940  0.60461062  1
  Nb  Nb109  1  0.33487708  0.76956985  0.47927727  1
  Nb  Nb110  1  0.39655383  1.03100737  0.74614523  1
  Nb  Nb111  1  1.01534327  0.19908458  0.71411090  1
  Nb  Nb112  1  0.66371082  0.87404479  0.33630484  1
  Nb  Nb113  1  0.19591362  0.27810362  0.76488288  1
  Nb  Nb114  1  0.86367744  -0.05156744  -0.02098747  1
  Nb  Nb115  1  0.47087065  0.08472078  0.54793563  1
  Nb  Nb116  1  0.99310477  0.83098571  0.07370091  1
  Nb  Nb117  1  0.64332812  0.54498357  0.69747507  1
  Nb  Nb118  1  0.69954240  0.73819943  0.71304152  1
  Nb  Nb119  1  0.37738720  0.90809536  0.09778922  1
  Nb  Nb120  1  0.43968633  0.50823302  0.69475516  1
  Nb  Nb121  1  0.31033300  0.18119180  0.88800058  1
  Nb  Nb122  1  0.59038601  0.92313227  0.75083645  1
  Nb  Nb123  1  0.17107278  0.06136723  0.74784669  1
  Nb  Nb124  1  0.02748200  0.46274510  0.09393180  1
