# generated using pymatgen
data_Zr2Sc2Nb
_symmetry_space_group_name_H-M   'P 1'
_cell_length_a   14.27258539
_cell_length_b   14.27752932
_cell_length_c   14.15090538
_cell_angle_alpha   90.10826688
_cell_angle_beta   89.21953472
_cell_angle_gamma   89.13190859
_symmetry_Int_Tables_number   1
_chemical_formula_structural   Zr2Sc2Nb
_chemical_formula_sum   'Zr50 Sc50 Nb25'
_cell_volume   2883.02787536
_cell_formula_units_Z   25
loop_
 _symmetry_equiv_pos_site_id
 _symmetry_equiv_pos_as_xyz
  1  'x, y, z'
loop_
 _atom_site_type_symbol
 _atom_site_label
 _atom_site_symmetry_multiplicity
 _atom_site_fract_x
 _atom_site_fract_y
 _atom_site_fract_z
 _atom_site_occupancy
  Zr  Zr0  1  0.15054851  0.68046904  0.25815220  1
  Zr  Zr1  1  0.96522920  0.76277613  0.89677548  1
  Zr  Zr2  1  0.13734320  0.94250595  0.51689129  1
  Zr  Zr3  1  0.12077284  0.22903030  0.01764975  1
  Zr  Zr4  1  0.91833607  0.01518005  0.46063066  1
  Zr  Zr5  1  0.86676513  0.24575944  0.49868494  1
  Zr  Zr6  1  0.17374653  0.01428185  1.00462257  1
  Zr  Zr7  1  0.73284641  0.73735776  0.23986901  1
  Zr  Zr8  1  0.82580808  0.11909989  0.67437044  1
  Zr  Zr9  1  0.87121589  0.71574626  0.71934746  1
  Zr  Zr10  1  0.87484353  0.46702277  0.08813717  1
  Zr  Zr11  1  0.35205100  0.52216461  0.31455909  1
  Zr  Zr12  1  0.82492393  0.65979425  0.52798806  1
  Zr  Zr13  1  0.88795350  0.26248870  0.09742215  1
  Zr  Zr14  1  0.69541032  0.34615981  0.18583362  1
  Zr  Zr15  1  0.29597975  0.34428541  0.08659499  1
  Zr  Zr16  1  0.16410704  0.80973212  0.89999467  1
  Zr  Zr17  1  0.78096597  0.53441537  0.32211001  1
  Zr  Zr18  1  0.45782772  0.66001972  0.04046782  1
  Zr  Zr19  1  0.38268023  0.48454034  0.92409395  1
  Zr  Zr20  1  0.29834237  0.30606128  0.29409866  1
  Zr  Zr21  1  0.24564005  0.90790930  0.72156326  1
  Zr  Zr22  1  0.11280767  0.48871965  0.61662418  1
  Zr  Zr23  1  0.33665883  0.89049972  0.52101820  1
  Zr  Zr24  1  0.73199541  0.38086956  0.94255968  1
  Zr  Zr25  1  0.12409534  0.88004446  0.15894496  1
  Zr  Zr26  1  0.28059374  0.56573353  0.11753564  1
  Zr  Zr27  1  0.76278086  0.91273609  0.63631029  1
  Zr  Zr28  1  0.58097947  0.51739466  0.92450163  1
  Zr  Zr29  1  0.44262285  0.78381979  0.66192773  1
  Zr  Zr30  1  0.67073785  0.28948152  0.60300355  1
  Zr  Zr31  1  0.94241633  0.93311376  0.00079054  1
  Zr  Zr32  1  0.95116730  0.35346310  0.90727390  1
  Zr  Zr33  1  0.37742261  0.72103360  0.85057019  1
  Zr  Zr34  1  0.71031346  0.53203322  0.73116330  1
  Zr  Zr35  1  0.87566498  0.15227203  0.30102566  1
  Zr  Zr36  1  0.08737133  0.19658774  0.82029846  1
  Zr  Zr37  1  0.27997372  0.48660651  0.49911527  1
  Zr  Zr38  1  0.67441895  0.20329793  0.01895018  1
  Zr  Zr39  1  0.09161685  0.67699169  0.06153167  1
  Zr  Zr40  1  0.03029641  0.05173444  0.66214812  1
  Zr  Zr41  1  0.21455957  0.59157014  0.90615809  1
  Zr  Zr42  1  0.52974968  0.64697487  0.24682111  1
  Zr  Zr43  1  0.54165301  0.82868889  0.16702412  1
  Zr  Zr44  1  0.67570183  0.50589956  0.53009381  1
  Zr  Zr45  1  0.91315577  0.46630262  0.50167309  1
  Zr  Zr46  1  0.49220647  0.40826700  0.53943825  1
  Zr  Zr47  1  0.63880869  0.70913339  0.41733329  1
  Zr  Zr48  1  0.79200632  0.07580618  0.12166258  1
  Zr  Zr49  1  0.92084387  0.68268798  0.34485533  1
  Sc  Sc50  1  0.70660798  0.33105540  0.39548020  1
  Sc  Sc51  1  0.71892132  0.07760074  0.46792552  1
  Sc  Sc52  1  0.64518042  0.16189593  0.27007007  1
  Sc  Sc53  1  0.04200062  0.67584082  0.55470430  1
  Sc  Sc54  1  0.35835299  0.95353162  0.13648808  1
  Sc  Sc55  1  0.71732606  1.02050563  0.88760576  1
  Sc  Sc56  1  0.89696356  0.90897447  0.23801025  1
  Sc  Sc57  1  0.92568466  0.37559748  0.30169393  1
  Sc  Sc58  1  0.65078948  0.72071840  0.63664042  1
  Sc  Sc59  1  0.45205908  0.63171398  0.48587488  1
  Sc  Sc60  1  0.06520804  0.82844053  0.70572522  1
  Sc  Sc61  1  0.00584706  0.08170818  0.12737739  1
  Sc  Sc62  1  0.24759112  0.10151447  0.40391083  1
  Sc  Sc63  1  0.10863407  0.44025268  0.04242497  1
  Sc  Sc64  1  0.34193702  0.26717317  0.49491426  1
  Sc  Sc65  1  0.23928988  0.71344716  0.44644587  1
  Sc  Sc66  1  0.57862889  0.90779341  0.52715272  1
  Sc  Sc67  1  0.11965442  0.35202789  0.44266164  1
  Sc  Sc68  1  0.75327791  0.81001301  0.87169858  1
  Sc  Sc69  1  -0.00299107  0.30219143  0.65413179  1
  Sc  Sc70  1  0.46262603  0.89804893  0.35146497  1
  Sc  Sc71  1  0.73756565  0.88626749  0.07402169  1
  Sc  Sc72  1  0.42163795  0.00339748  0.70538938  1
  Sc  Sc73  1  0.43400117  0.11206960  0.30683419  1
  Sc  Sc74  1  0.48837062  0.30050968  0.93019923  1
  Sc  Sc75  1  0.67963790  0.54134990  0.12925191  1
  Sc  Sc76  1  0.78953339  0.59640578  0.91276477  1
  Sc  Sc77  1  0.31106809  0.46207162  0.72318090  1
  Sc  Sc78  1  0.49012472  0.56912700  0.70294315  1
  Sc  Sc79  1  0.80859163  0.32954247  0.74449893  1
  Sc  Sc80  1  0.23779102  0.11708476  0.18713954  1
  Sc  Sc81  1  0.88647057  0.14079368  0.89829392  1
  Sc  Sc82  1  0.67720274  0.94716186  0.29103094  1
  Sc  Sc83  1  0.60590913  0.09068292  0.65440537  1
  Sc  Sc84  1  0.50368835  0.09125651  0.88410850  1
  Sc  Sc85  1  0.08362155  0.24400371  0.25072766  1
  Sc  Sc86  1  0.56279669  0.03601567  0.09784079  1
  Sc  Sc87  1  0.47515231  0.23083569  0.13547051  1
  Sc  Sc88  1  0.34669101  0.74732756  0.24615189  1
  Sc  Sc89  1  0.06480835  0.16190673  0.48353571  1
  Sc  Sc90  1  0.48319858  0.44901542  0.14121301  1
  Sc  Sc91  1  0.92643348  0.50736917  0.72835933  1
  Sc  Sc92  1  0.20812529  0.28749298  0.66240823  1
  Sc  Sc93  1  0.52853133  0.86028748  0.96317014  1
  Sc  Sc94  1  0.25803705  0.67239442  0.66281051  1
  Sc  Sc95  1  0.87735349  0.69678316  0.09308896  1
  Sc  Sc96  1  0.58686148  0.89531896  0.76532289  1
  Sc  Sc97  1  0.43345334  0.23098181  0.69806918  1
  Sc  Sc98  1  0.04519882  0.83242690  0.37852650  1
  Sc  Sc99  1  0.34601000  0.93782277  0.90949091  1
  Nb  Nb100  1  0.26934439  0.31009539  0.87777710  1
  Nb  Nb101  1  0.33155393  0.15154278  0.99534522  1
  Nb  Nb102  1  0.89703950  0.93867209  0.78002549  1
  Nb  Nb103  1  0.24612271  0.09043150  0.61738637  1
  Nb  Nb104  1  0.28504751  0.77507005  0.05001519  1
  Nb  Nb105  1  0.99717433  0.55235696  0.20742662  1
  Nb  Nb106  1  0.07333127  0.02872655  0.31266444  1
  Nb  Nb107  1  0.24262306  0.91092245  0.32381609  1
  Nb  Nb108  1  0.57511913  0.38499665  0.75754227  1
  Nb  Nb109  1  0.08211024  0.63345754  0.77079154  1
  Nb  Nb110  1  0.26367847  0.11042695  0.81505471  1
  Nb  Nb111  1  0.54555080  0.20365386  0.47295510  1
  Nb  Nb112  1  0.11637008  0.42270758  0.81875389  1
  Nb  Nb113  1  0.66088346  0.21398369  0.81329690  1
  Nb  Nb114  1  0.49560729  0.32816035  0.32755260  1
  Nb  Nb115  1  0.79410764  0.84461809  0.43032546  1
  Nb  Nb116  1  0.65320710  0.70613522  0.03398091  1
  Nb  Nb117  1  1.07395728  0.99147450  0.84655770  1
  Nb  Nb118  1  0.15990555  0.44956570  0.24893750  1
  Nb  Nb119  1  0.58441160  0.69294456  0.83911700  1
  Nb  Nb120  1  0.93400189  0.85414996  0.56501428  1
  Nb  Nb121  1  0.42621409  0.06628962  0.51471263  1
  Nb  Nb122  1  0.98996123  0.56053715  0.93166165  1
  Nb  Nb123  1  0.08686700  0.54975624  0.39921977  1
  Nb  Nb124  1  0.57839880  0.49301202  0.34720919  1
