# generated using pymatgen
data_Zr2Sc2Nb
_symmetry_space_group_name_H-M   'P 1'
_cell_length_a   14.32891606
_cell_length_b   13.56557164
_cell_length_c   14.71873051
_cell_angle_alpha   89.35075670
_cell_angle_beta   90.29374680
_cell_angle_gamma   89.47276169
_symmetry_Int_Tables_number   1
_chemical_formula_structural   Zr2Sc2Nb
_chemical_formula_sum   'Zr50 Sc50 Nb25'
_cell_volume   2860.68196425
_cell_formula_units_Z   25
loop_
 _symmetry_equiv_pos_site_id
 _symmetry_equiv_pos_as_xyz
  1  'x, y, z'
loop_
 _atom_site_type_symbol
 _atom_site_label
 _atom_site_symmetry_multiplicity
 _atom_site_fract_x
 _atom_site_fract_y
 _atom_site_fract_z
 _atom_site_occupancy
  Zr  Zr0  1  0.31715308  0.25764563  0.11869756  1
  Zr  Zr1  1  0.27717491  0.84360050  0.03615329  1
  Zr  Zr2  1  0.02250348  1.03682412  0.80598043  1
  Zr  Zr3  1  0.34868914  0.96162524  0.34831272  1
  Zr  Zr4  1  0.56258540  0.52232105  0.68510073  1
  Zr  Zr5  1  0.66498916  0.63239208  0.18833305  1
  Zr  Zr6  1  0.49653407  0.68305184  0.07304611  1
  Zr  Zr7  1  0.14463795  0.89610448  0.39728682  1
  Zr  Zr8  1  0.84458543  0.10566570  0.41569712  1
  Zr  Zr9  1  0.03184365  0.07908087  0.04369522  1
  Zr  Zr10  1  0.63955870  0.87543809  0.14551487  1
  Zr  Zr11  1  0.43810542  0.95121199  0.70916220  1
  Zr  Zr12  1  0.91991002  0.26753337  0.05576878  1
  Zr  Zr13  1  0.92516817  0.91733157  0.95250566  1
  Zr  Zr14  1  -0.02553831  0.41657414  0.17967054  1
  Zr  Zr15  1  0.70550256  0.49578938  0.52188090  1
  Zr  Zr16  1  0.04154639  0.26304097  0.88287744  1
  Zr  Zr17  1  0.19949951  0.62857784  0.33336223  1
  Zr  Zr18  1  0.20855801  0.02830763  0.17838719  1
  Zr  Zr19  1  0.05074154  0.10904849  0.38572318  1
  Zr  Zr20  1  0.28025294  0.16995525  0.33697931  1
  Zr  Zr21  1  0.17129201  0.34321452  0.39097516  1
  Zr  Zr22  1  0.62675200  0.64549454  0.40524607  1
  Zr  Zr23  1  0.20816701  0.08974942  0.91482389  1
  Zr  Zr24  1  0.83763991  0.60513838  0.66806076  1
  Zr  Zr25  1  0.24404376  0.69279148  0.54274910  1
  Zr  Zr26  1  0.50902416  0.85587389  0.50729644  1
  Zr  Zr27  1  0.41677979  0.86686719  0.17959107  1
  Zr  Zr28  1  0.29302011  0.64896403  0.12771865  1
  Zr  Zr29  1  0.82334244  0.49499558  0.02964562  1
  Zr  Zr30  1  0.08877718  0.87435546  0.60356114  1
  Zr  Zr31  1  0.23020553  0.76866046  0.74371105  1
  Zr  Zr32  1  0.37694062  0.36627981  0.29358166  1
  Zr  Zr33  1  0.83845635  0.68492855  0.46415921  1
  Zr  Zr34  1  0.58901448  0.45629089  0.26751745  1
  Zr  Zr35  1  0.37758974  0.27915437  0.51388173  1
  Zr  Zr36  1  0.42634576  0.60330874  0.28574189  1
  Zr  Zr37  1  0.57104210  0.98978861  0.32341221  1
  Zr  Zr38  1  0.04155622  0.46438078  0.99088081  1
  Zr  Zr39  1  0.93711958  0.56559875  0.83860246  1
  Zr  Zr40  1  0.70417546  0.53137511  0.84403928  1
  Zr  Zr41  1  0.45712461  0.64206118  0.52250946  1
  Zr  Zr42  1  0.12450182  0.49834928  0.53049712  1
  Zr  Zr43  1  0.19752642  0.43668766  0.19270192  1
  Zr  Zr44  1  0.15208685  0.45508977  0.80228123  1
  Zr  Zr45  1  0.93221834  0.69623632  0.99027764  1
  Zr  Zr46  1  0.60555475  0.30153815  0.58986444  1
  Zr  Zr47  1  0.85112987  0.83271680  0.12927609  1
  Zr  Zr48  1  0.31416022  0.49429255  0.46141486  1
  Zr  Zr49  1  0.82063489  0.27922554  0.54325336  1
  Sc  Sc50  1  0.09283610  0.22223957  0.21711148  1
  Sc  Sc51  1  0.48262407  0.27508353  0.97357751  1
  Sc  Sc52  1  0.74020194  0.10255742  0.64711169  1
  Sc  Sc53  1  0.99615427  0.80276597  0.78388903  1
  Sc  Sc54  1  0.70716835  0.26169081  0.02724908  1
  Sc  Sc55  1  0.93112162  0.32298203  0.35904971  1
  Sc  Sc56  1  0.64301638  0.11592231  0.47082451  1
  Sc  Sc57  1  0.58750792  0.07905403  0.06020007  1
  Sc  Sc58  1  0.07180922  0.84486529  0.09559775  1
  Sc  Sc59  1  0.78937708  0.75569605  0.81226542  1
  Sc  Sc60  1  0.42958193  0.46465821  0.10857169  1
  Sc  Sc61  1  0.91306796  0.48056525  0.51141835  1
  Sc  Sc62  1  0.71517352  0.89388403  0.46863263  1
  Sc  Sc63  1  0.30263409  0.89696094  0.55857311  1
  Sc  Sc64  1  0.28308366  0.28748531  0.86624639  1
  Sc  Sc65  1  0.86367609  0.84192587  0.61530517  1
  Sc  Sc66  1  0.32814730  0.15219563  0.68909897  1
  Sc  Sc67  1  0.35898052  0.68271693  0.89788106  1
  Sc  Sc68  1  0.20264961  0.10639270  0.52945474  1
  Sc  Sc69  1  0.08256887  0.62770242  0.14228898  1
  Sc  Sc70  1  0.44388535  0.11217847  0.21329839  1
  Sc  Sc71  1  0.84787574  0.36288672  0.87079509  1
  Sc  Sc72  1  0.70695436  0.68790494  0.00025694  1
  Sc  Sc73  1  0.50458583  0.89046172  0.95545898  1
  Sc  Sc74  1  0.63428575  0.07971812  0.84660125  1
  Sc  Sc75  1  0.63166300  0.30477340  0.81205831  1
  Sc  Sc76  1  -0.01332464  -0.01823779  0.23654150  1
  Sc  Sc77  1  0.04127361  0.27423621  0.53758064  1
  Sc  Sc78  1  0.64076210  0.91054026  0.70389781  1
  Sc  Sc79  1  0.56751943  0.71853830  0.82859889  1
  Sc  Sc80  1  0.89807099  0.20916892  0.72614270  1
  Sc  Sc81  1  0.71995825  0.91052327  0.94807369  1
  Sc  Sc82  1  0.43769388  0.07267026  0.50509340  1
  Sc  Sc83  1  0.98679821  0.40997094  0.69322033  1
  Sc  Sc84  1  0.32410447  0.54516832  0.69273591  1
  Sc  Sc85  1  0.48617792  0.49551006  0.89197009  1
  Sc  Sc86  1  0.26139297  0.47128741  0.98704266  1
  Sc  Sc87  1  0.77329988  0.77248164  0.30171671  1
  Sc  Sc88  1  0.51581888  0.43685174  0.45535714  1
  Sc  Sc89  1  0.65280884  0.71086591  0.61564396  1
  Sc  Sc90  1  0.03832143  0.70998939  0.47939328  1
  Sc  Sc91  1  0.12837940  0.20303912  0.71589771  1
  Sc  Sc92  1  0.96895515  0.05298691  0.59043208  1
  Sc  Sc93  1  0.43497596  0.33767956  0.72649754  1
  Sc  Sc94  1  0.71007071  0.31221326  0.37404415  1
  Sc  Sc95  1  0.36884321  0.05024938  1.03361024  1
  Sc  Sc96  1  1.01039976  0.54419233  0.33832498  1
  Sc  Sc97  1  0.14083997  0.66596978  0.92616810  1
  Sc  Sc98  1  0.83918767  0.12761214  0.91071751  1
  Sc  Sc99  1  0.07142357  0.63084675  0.68009494  1
  Nb  Nb100  1  0.14558024  0.28012083  0.03595439  1
  Nb  Nb101  1  0.13600476  0.89056448  0.90376190  1
  Nb  Nb102  1  0.20561082  0.98552629  0.72771931  1
  Nb  Nb103  1  0.54232550  0.78661917  0.30638517  1
  Nb  Nb104  1  0.77778846  -0.01733612  0.27896010  1
  Nb  Nb105  1  0.80518003  0.04850348  0.09708093  1
  Nb  Nb106  1  0.67976056  0.15752205  0.23715204  1
  Nb  Nb107  1  0.51379239  0.23230085  0.36125052  1
  Nb  Nb108  1  0.93034611  0.89973605  0.42162525  1
  Nb  Nb109  1  0.42625028  0.74380923  0.68781015  1
  Nb  Nb110  1  0.53397256  0.13780145  0.67688221  1
  Nb  Nb111  1  0.42903573  0.10502248  0.85187559  1
  Nb  Nb112  1  0.62461183  0.46962296  0.04941883  1
  Nb  Nb113  1  0.32979117  0.90679136  0.85713398  1
  Nb  Nb114  1  0.87722135  0.17906512  0.22447263  1
  Nb  Nb115  1  0.87335009  0.61657691  0.18218787  1
  Nb  Nb116  1  0.23216462  0.35624633  0.62652429  1
  Nb  Nb117  1  0.35176787  0.76361088  0.38214862  1
  Nb  Nb118  1  0.83619311  0.97178596  0.77405761  1
  Nb  Nb119  1  0.55231157  0.29160960  0.16645718  1
  Nb  Nb120  1  0.76807680  0.40644847  0.68849547  1
  Nb  Nb121  1  0.76609967  0.37820224  0.18765834  1
  Nb  Nb122  1  0.21465741  0.81278989  0.23732945  1
  Nb  Nb123  1  0.99777022  0.76398105  0.28594448  1
  Nb  Nb124  1  0.79573171  0.51892931  0.32869421  1
