# generated using pymatgen
data_Zr2Sc2Nb
_symmetry_space_group_name_H-M   'P 1'
_cell_length_a   13.73816628
_cell_length_b   14.11888849
_cell_length_c   14.78613247
_cell_angle_alpha   90.73849273
_cell_angle_beta   90.52707143
_cell_angle_gamma   91.75571224
_symmetry_Int_Tables_number   1
_chemical_formula_structural   Zr2Sc2Nb
_chemical_formula_sum   'Zr50 Sc50 Nb25'
_cell_volume   2866.31458108
_cell_formula_units_Z   25
loop_
 _symmetry_equiv_pos_site_id
 _symmetry_equiv_pos_as_xyz
  1  'x, y, z'
loop_
 _atom_site_type_symbol
 _atom_site_label
 _atom_site_symmetry_multiplicity
 _atom_site_fract_x
 _atom_site_fract_y
 _atom_site_fract_z
 _atom_site_occupancy
  Zr  Zr0  1  0.05996455  0.05290105  0.05641957  1
  Zr  Zr1  1  0.92557789  0.47603882  0.54647923  1
  Zr  Zr2  1  0.74467445  0.92192399  0.43309719  1
  Zr  Zr3  1  0.55475395  0.56709115  0.50460787  1
  Zr  Zr4  1  0.63974622  0.49331674  0.27091151  1
  Zr  Zr5  1  0.38607258  0.96915296  0.14617214  1
  Zr  Zr6  1  0.33404671  0.01705690  0.56974366  1
  Zr  Zr7  1  0.25419819  0.42557702  0.45188219  1
  Zr  Zr8  1  0.13188601  0.37973568  0.87558849  1
  Zr  Zr9  1  0.35203359  0.29490109  0.27459203  1
  Zr  Zr10  1  0.84198238  0.75316266  0.02630336  1
  Zr  Zr11  1  0.91871402  0.93367923  0.30497132  1
  Zr  Zr12  1  0.66335381  0.68069371  0.90448777  1
  Zr  Zr13  1  0.87608774  0.74699268  0.42798193  1
  Zr  Zr14  1  0.25994980  0.14060082  0.16900584  1
  Zr  Zr15  1  0.25863518  0.12331048  0.97224787  1
  Zr  Zr16  1  0.78122548  0.02961177  0.61240357  1
  Zr  Zr17  1  0.72721380  0.16785041  0.47878680  1
  Zr  Zr18  1  0.50531423  0.13569252  0.25646824  1
  Zr  Zr19  1  0.96636724  0.91457067  0.53363446  1
  Zr  Zr20  1  0.82529641  -0.00258412  0.11321410  1
  Zr  Zr21  1  0.65935504  0.48076158  0.84523596  1
  Zr  Zr22  1  1.00463801  0.39124076  0.22802327  1
  Zr  Zr23  1  0.87974351  0.73482752  0.23148913  1
  Zr  Zr24  1  0.89077280  0.35159218  0.84512837  1
  Zr  Zr25  1  0.66806191  0.45466535  0.64345950  1
  Zr  Zr26  1  0.13137844  0.25316640  0.33305539  1
  Zr  Zr27  1  0.46217999  0.16061198  0.05450780  1
  Zr  Zr28  1  0.89525672  0.95548215  0.93387337  1
  Zr  Zr29  1  0.10296261  0.26605270  0.08308862  1
  Zr  Zr30  1  0.26565899  0.40183027  0.67712683  1
  Zr  Zr31  1  0.31515836  0.06204833  0.35357936  1
  Zr  Zr32  1  0.46259949  0.79670212  0.05166641  1
  Zr  Zr33  1  0.93096107  0.17278397  0.21751742  1
  Zr  Zr34  1  0.83825125  0.28941886  0.61635321  1
  Zr  Zr35  1  0.91045388  0.31402018  0.40096290  1
  Zr  Zr36  1  0.05829954  0.59995122  0.25205233  1
  Zr  Zr37  1  0.42062219  0.52643970  0.35286117  1
  Zr  Zr38  1  0.48742882  0.37086809  0.95817274  1
  Zr  Zr39  1  0.47568412  0.56963684  0.73239255  1
  Zr  Zr40  1  0.29539519  0.84923299  0.30751628  1
  Zr  Zr41  1  0.68668358  0.16825488  0.11620855  1
  Zr  Zr42  1  0.14909672  0.91020336  0.43993388  1
  Zr  Zr43  1  0.49507845  -0.02206937  0.92883932  1
  Zr  Zr44  1  0.43612496  0.74968543  0.44238146  1
  Zr  Zr45  1  0.69276329  0.07926112  0.92955692  1
  Zr  Zr46  1  0.30599672  0.33081871  0.05371544  1
  Zr  Zr47  1  0.59303856  0.09440394  0.68291492  1
  Zr  Zr48  1  0.86269771  0.51929457  0.73408795  1
  Zr  Zr49  1  0.66995448  0.68214728  0.34197990  1
  Sc  Sc50  1  0.31543448  0.49028493  0.86707584  1
  Sc  Sc51  1  0.19127637  0.19942283  0.67088065  1
  Sc  Sc52  1  0.30373189  0.06879498  0.78216495  1
  Sc  Sc53  1  0.67482583  0.87107759  0.98897159  1
  Sc  Sc54  1  0.26235375  0.68264490  0.16223607  1
  Sc  Sc55  1  0.84941845  0.12933613  0.79317277  1
  Sc  Sc56  1  0.11493431  0.98911426  0.84795098  1
  Sc  Sc57  1  0.08166697  0.69030382  0.47368341  1
  Sc  Sc58  1  0.68673518  0.26947356  0.76459652  1
  Sc  Sc59  1  0.68351045  0.66695900  0.70093059  1
  Sc  Sc60  1  0.80039326  0.35612598  0.14320279  1
  Sc  Sc61  1  0.32674013  0.59428666  0.55608262  1
  Sc  Sc62  1  0.47264278  0.75955624  0.65348098  1
  Sc  Sc63  1  0.93531469  0.92471425  0.73397734  1
  Sc  Sc64  1  0.19332933  0.87802222  0.10433852  1
  Sc  Sc65  1  -0.02465586  0.42905156  0.02224217  1
  Sc  Sc66  1  0.27031220  0.70443784  0.94413366  1
  Sc  Sc67  1  0.07310113  0.80685658  0.91956420  1
  Sc  Sc68  1  0.70793185  0.27897772  0.30485321  1
  Sc  Sc69  1  0.47763181  0.59542380  0.95439416  1
  Sc  Sc70  1  0.48492609  0.36462540  0.75421039  1
  Sc  Sc71  1  0.43194447  0.51506669  0.14004240  1
  Sc  Sc72  1  0.54505598  0.33408114  0.15990659  1
  Sc  Sc73  1  0.85993068  0.52674308  0.34644860  1
  Sc  Sc74  1  0.06442083  0.18872304  0.85699601  1
  Sc  Sc75  1  0.55859135  0.93466003  0.55362574  1
  Sc  Sc76  1  0.66451056  0.89217726  0.77328800  1
  Sc  Sc77  1  0.70401928  0.30715168  0.96149331  1
  Sc  Sc78  1  0.22513370  0.45774213  0.24201030  1
  Sc  Sc79  1  0.11326403  0.54611167  0.63295696  1
  Sc  Sc80  1  0.18643632  0.50866205  0.04463226  1
  Sc  Sc81  1  0.93788814  0.10734482  0.42684464  1
  Sc  Sc82  1  0.31761005  0.23570986  0.48545337  1
  Sc  Sc83  1  0.87159390  0.73387025  0.81776902  1
  Sc  Sc84  1  0.52420322  0.92344251  0.33273176  1
  Sc  Sc85  1  0.70102754  0.85215203  0.21725587  1
  Sc  Sc86  1  0.08962883  0.76875744  0.70096477  1
  Sc  Sc87  1  0.49602498  0.17254597  0.85174585  1
  Sc  Sc88  1  0.64203809  0.67075975  0.11970432  1
  Sc  Sc89  1  0.50830399  0.12056667  0.46571112  1
  Sc  Sc90  1  0.26875898  0.80184027  0.57180627  1
  Sc  Sc91  1  0.03357629  0.66152795  0.06126575  1
  Sc  Sc92  1  0.10955515  0.02274666  0.26506836  1
  Sc  Sc93  1  0.05561391  0.58135675  0.84373516  1
  Sc  Sc94  1  0.83871074  0.55811746  0.14072140  1
  Sc  Sc95  1  0.52188422  0.33674245  0.39688140  1
  Sc  Sc96  1  0.72256060  0.06368728  0.28934659  1
  Sc  Sc97  1  0.89192926  0.18850182  0.00551580  1
  Sc  Sc98  1  0.99000465  0.12936886  0.63239318  1
  Sc  Sc99  1  0.46753840  0.71413007  0.24793351  1
  Nb  Nb100  1  0.14289976  0.10434316  0.48432827  1
  Nb  Nb101  1  0.07444878  0.47977324  0.40795316  1
  Nb  Nb102  1  0.45943214  0.77846554  0.84976129  1
  Nb  Nb103  1  0.27484258  0.85276402  0.76998501  1
  Nb  Nb104  1  0.78803805  0.82289298  0.61219700  1
  Nb  Nb105  1  0.24745185  0.64664062  0.36288590  1
  Nb  Nb106  1  0.45007338  0.95105746  0.73626650  1
  Nb  Nb107  1  0.63984021  0.75792167  0.50954690  1
  Nb  Nb108  1  0.41305212  0.20123974  0.65852701  1
  Nb  Nb109  1  0.71960018  0.40563458  0.46545902  1
  Nb  Nb110  1  0.44077991  0.40859671  0.56602510  1
  Nb  Nb111  1  0.08784458  0.79409860  0.27877090  1
  Nb  Nb112  1  0.76448410  0.60319689  0.52284256  1
  Nb  Nb113  1  0.07986249  0.30926416  0.52814254  1
  Nb  Nb114  1  0.28208828  0.65680099  0.74650720  1
  Nb  Nb115  1  0.03074451  0.35520828  0.70217940  1
  Nb  Nb116  1  0.58637565  0.99298111  0.12180119  1
  Nb  Nb117  1  0.59271211  0.27754435  0.58082715  1
  Nb  Nb118  1  0.30650365  0.27484165  0.84295845  1
  Nb  Nb119  1  0.30646777  0.91782726  0.93972489  1
  Nb  Nb120  1  0.98585000  0.87108604  0.11869829  1
  Nb  Nb121  1  0.65118216  0.48949137  0.04537343  1
  Nb  Nb122  1  0.14613143  0.97471068  0.64570870  1
  Nb  Nb123  1  0.83299293  0.55132650  0.93919779  1
  Nb  Nb124  1  0.91959739  0.68390505  0.62126051  1
