# generated using pymatgen
data_Zr2Sc2Nb
_symmetry_space_group_name_H-M   'P 1'
_cell_length_a   13.68653649
_cell_length_b   14.81796997
_cell_length_c   14.16883940
_cell_angle_alpha   89.56268646
_cell_angle_beta   91.41749637
_cell_angle_gamma   86.54597252
_symmetry_Int_Tables_number   1
_chemical_formula_structural   Zr2Sc2Nb
_chemical_formula_sum   'Zr50 Sc50 Nb25'
_cell_volume   2867.31789300
_cell_formula_units_Z   25
loop_
 _symmetry_equiv_pos_site_id
 _symmetry_equiv_pos_as_xyz
  1  'x, y, z'
loop_
 _atom_site_type_symbol
 _atom_site_label
 _atom_site_symmetry_multiplicity
 _atom_site_fract_x
 _atom_site_fract_y
 _atom_site_fract_z
 _atom_site_occupancy
  Zr  Zr0  1  0.22453282  0.34603575  0.13928173  1
  Zr  Zr1  1  0.89603116  -0.02175893  0.53732287  1
  Zr  Zr2  1  0.20018494  0.20334447  0.29151669  1
  Zr  Zr3  1  0.41836755  0.39767343  0.68515252  1
  Zr  Zr4  1  0.89936758  0.81014470  0.38448862  1
  Zr  Zr5  1  0.75443290  0.35130544  0.15081581  1
  Zr  Zr6  1  0.70412433  0.21575124  0.90349918  1
  Zr  Zr7  1  0.33165741  0.74358142  0.52364139  1
  Zr  Zr8  1  0.32078847  0.23647889  0.68655316  1
  Zr  Zr9  1  0.71558140  0.57456811  0.58954128  1
  Zr  Zr10  1  0.34687087  0.54163378  0.49485020  1
  Zr  Zr11  1  0.30761897  0.94836971  0.43882516  1
  Zr  Zr12  1  0.25570567  0.39696436  0.35725009  1
  Zr  Zr13  1  0.32545809  0.15128254  0.45874803  1
  Zr  Zr14  1  0.65232650  0.87412172  0.94970340  1
  Zr  Zr15  1  0.63777754  0.77430071  0.74155120  1
  Zr  Zr16  1  0.36985825  0.16868643  0.09466278  1
  Zr  Zr17  1  0.77039659  0.14073430  0.23269145  1
  Zr  Zr18  1  0.36984406  0.75074250  0.07850182  1
  Zr  Zr19  1  0.70447618  0.92970302  0.41873540  1
  Zr  Zr20  1  0.75478782  0.32292038  0.56438574  1
  Zr  Zr21  1  0.18088577  0.65519058  0.08916428  1
  Zr  Zr22  1  0.28793627  0.58196038  0.70704110  1
  Zr  Zr23  1  0.76672625  0.13737831  0.67299623  1
  Zr  Zr24  1  0.70825111  0.89727165  0.23013302  1
  Zr  Zr25  1  0.05287016  0.83817187  0.16191529  1
  Zr  Zr26  1  0.50670177  0.61731289  0.66643606  1
  Zr  Zr27  1  0.83994389  0.67067176  0.71867393  1
  Zr  Zr28  1  0.93147421  0.21180760  0.49102680  1
  Zr  Zr29  1  0.25707207  0.94421558  0.80679313  1
  Zr  Zr30  1  0.73437866  0.77704341  0.54757604  1
  Zr  Zr31  1  0.53937845  0.65538728  0.46632059  1
  Zr  Zr32  1  0.91404400  -0.01955041  0.30427371  1
  Zr  Zr33  1  0.71208729  0.49551591  0.40218489  1
  Zr  Zr34  1  0.73296859  1.03727435  0.05010369  1
  Zr  Zr35  1  0.51990733  0.06265743  0.96610063  1
  Zr  Zr36  1  0.41454411  0.24739513  0.28283315  1
  Zr  Zr37  1  0.95030722  1.03281097  0.10365078  1
  Zr  Zr38  1  0.89729728  0.62868108  0.46235439  1
  Zr  Zr39  1  0.54260203  0.70110732  0.91011314  1
  Zr  Zr40  1  0.83377558  0.38667625  0.93237817  1
  Zr  Zr41  1  0.14861725  0.24635153  0.51673025  1
  Zr  Zr42  1  0.47443563  0.57670094  0.05820029  1
  Zr  Zr43  1  0.97753762  0.17676200  0.26770064  1
  Zr  Zr44  1  0.42741540  0.06157941  0.62794679  1
  Zr  Zr45  1  0.82192759  0.31764023  0.34365350  1
  Zr  Zr46  1  0.69600449  0.71030326  0.34447961  1
  Zr  Zr47  1  0.06592838  0.47579336  0.00311151  1
  Zr  Zr48  1  0.28670874  0.48357387  0.97576803  1
  Zr  Zr49  1  0.02593622  0.31869855  0.66953293  1
  Sc  Sc50  1  0.74136572  0.12667898  0.45101578  1
  Sc  Sc51  1  0.49888409  0.91087898  0.12477831  1
  Sc  Sc52  1  0.69785566  0.56088929  0.83545738  1
  Sc  Sc53  1  0.13953106  0.16373999  0.78490218  1
  Sc  Sc54  1  0.47241892  0.67599474  0.26280493  1
  Sc  Sc55  1  0.29326884  0.98759553  0.05070038  1
  Sc  Sc56  1  0.82188309  0.55303561  0.05564647  1
  Sc  Sc57  1  0.25514577  0.26952657  0.93408871  1
  Sc  Sc58  1  0.48363582  0.46140219  0.33146464  1
  Sc  Sc59  1  0.28942313  0.85071527  0.23983311  1
  Sc  Sc60  1  0.92834272  0.43161373  0.50560246  1
  Sc  Sc61  1  0.84091859  0.84012550  0.09596109  1
  Sc  Sc62  1  0.65287276  0.53603524  0.20071377  1
  Sc  Sc63  1  0.89090584  0.50312936  0.27857809  1
  Sc  Sc64  1  0.18261625  0.75900698  0.72431341  1
  Sc  Sc65  1  0.82235019  0.88694159  0.73939426  1
  Sc  Sc66  1  0.14471409  0.01174097  0.23234860  1
  Sc  Sc67  1  0.20275923  0.42624877  0.58089355  1
  Sc  Sc68  1  0.63986354  0.72679254  0.10857466  1
  Sc  Sc69  1  0.03590431  0.67887530  0.28745147  1
  Sc  Sc70  1  0.10595547  0.03513497  0.94445392  1
  Sc  Sc71  1  0.56112333  0.44063705  0.54182238  1
  Sc  Sc72  1  0.09961790  0.50389293  0.21286203  1
  Sc  Sc73  1  0.50111922  0.86778400  0.34768968  1
  Sc  Sc74  1  0.92032947  0.90623199  0.93265222  1
  Sc  Sc75  1  0.50896754  0.94393956  0.77813470  1
  Sc  Sc76  1  0.65028698  0.98926434  0.62006118  1
  Sc  Sc77  1  0.64391743  0.35652151  0.74940619  1
  Sc  Sc78  1  0.03959954  0.94474473  0.74956920  1
  Sc  Sc79  1  0.32221507  0.52747777  0.19440739  1
  Sc  Sc80  1  0.11865525  0.17725328  0.08793043  1
  Sc  Sc81  1  0.85565012  0.45669239  0.71445815  1
  Sc  Sc82  1  0.56611699  0.07394295  0.22940194  1
  Sc  Sc83  1  0.46726993  0.28981149  0.89689217  1
  Sc  Sc84  1  0.12919278  0.89436472  0.56402830  1
  Sc  Sc85  1  0.97687644  0.34601011  0.14036976  1
  Sc  Sc86  1  0.04621589  0.57386629  0.66642800  1
  Sc  Sc87  1  0.24944869  0.66512280  0.33050795  1
  Sc  Sc88  1  0.44828714  0.37393546  0.10974285  1
  Sc  Sc89  1  0.16270754  0.81962280  0.95821201  1
  Sc  Sc90  1  0.60587429  0.28342117  0.37966054  1
  Sc  Sc91  1  0.16502856  0.42218942  0.79921869  1
  Sc  Sc92  1  0.60145016  0.22281602  0.09105692  1
  Sc  Sc93  1  0.52229794  0.06791514  0.43430652  1
  Sc  Sc94  1  0.62484761  0.42576938  -0.01289719  1
  Sc  Sc95  1  0.08978285  0.05822586  0.43832708  1
  Sc  Sc96  1  0.96732951  0.78054111  0.60383948  1
  Sc  Sc97  1  0.46404212  0.51172946  0.84934762  1
  Sc  Sc98  1  0.90591292  0.10220152  0.86223589  1
  Sc  Sc99  1  0.02077409  0.28632860  0.91347555  1
  Nb  Nb100  1  0.55306381  0.22659031  0.58604660  1
  Nb  Nb101  1  0.36025978  0.04483335  0.26448401  1
  Nb  Nb102  1  -0.01944818  0.68649385  0.03149499  1
  Nb  Nb103  1  0.13047940  0.68593189  0.50534797  1
  Nb  Nb104  1  0.40632226  0.76384379  0.74895501  1
  Nb  Nb105  1  0.35365469  0.09732290  0.84733958  1
  Nb  Nb106  1  0.99444535  0.11597471  0.64744065  1
  Nb  Nb107  1  0.54881384  0.15363819  0.76475984  1
  Nb  Nb108  1  0.86303369  0.26803031  0.76070583  1
  Nb  Nb109  1  0.39565568  0.32504965  0.49231500  1
  Nb  Nb110  1  0.33477368  0.89894553  0.63484259  1
  Nb  Nb111  1  0.51814171  0.84369735  0.56413585  1
  Nb  Nb112  1  0.21098956  0.06530982  0.62579504  1
  Nb  Nb113  1  0.99091258  0.74549412  0.83092181  1
  Nb  Nb114  1  0.04756780  0.34843449  0.35081716  1
  Nb  Nb115  1  0.79790274  0.72518477  0.92048829  1
  Nb  Nb116  1  0.41375143  0.86757300  0.92681621  1
  Nb  Nb117  1  0.09929093  0.52662721  0.42466702  1
  Nb  Nb118  1  0.83991540  0.68981736  0.21144420  1
  Nb  Nb119  1  0.86219821  0.20537320  0.04899352  1
  Nb  Nb120  1  0.13507782  0.61654931  0.87738842  1
  Nb  Nb121  1  0.93814665  0.56142129  0.87125638  1
  Nb  Nb122  1  0.11546757  0.84716900  0.37073682  1
  Nb  Nb123  1  0.70245987  0.02651254  0.83844740  1
  Nb  Nb124  1  0.32371878  0.67285952  0.90132402  1
