# generated using pymatgen
data_Zr2Sc2Nb
_symmetry_space_group_name_H-M   'P 1'
_cell_length_a   14.47219740
_cell_length_b   14.41016347
_cell_length_c   13.74028429
_cell_angle_alpha   90.58766508
_cell_angle_beta   89.61271678
_cell_angle_gamma   89.81288213
_symmetry_Int_Tables_number   1
_chemical_formula_structural   Zr2Sc2Nb
_chemical_formula_sum   'Zr50 Sc50 Nb25'
_cell_volume   2865.25924367
_cell_formula_units_Z   25
loop_
 _symmetry_equiv_pos_site_id
 _symmetry_equiv_pos_as_xyz
  1  'x, y, z'
loop_
 _atom_site_type_symbol
 _atom_site_label
 _atom_site_symmetry_multiplicity
 _atom_site_fract_x
 _atom_site_fract_y
 _atom_site_fract_z
 _atom_site_occupancy
  Zr  Zr0  1  0.43854648  0.79365494  0.74530118  1
  Zr  Zr1  1  0.12649464  0.29887206  0.74376100  1
  Zr  Zr2  1  0.44076339  0.53549443  0.53109580  1
  Zr  Zr3  1  -0.00289001  0.45228844  0.34204643  1
  Zr  Zr4  1  0.65417318  0.51342783  0.50645774  1
  Zr  Zr5  1  0.84217841  0.69367465  0.06264266  1
  Zr  Zr6  1  0.81811965  0.56561001  0.41369187  1
  Zr  Zr7  1  0.22107291  0.87843258  0.32125926  1
  Zr  Zr8  1  0.27169913  0.42694819  0.47359402  1
  Zr  Zr9  1  0.07368184  0.55024592  0.11521167  1
  Zr  Zr10  1  0.01249454  0.35072334  0.13503532  1
  Zr  Zr11  1  0.23129759  0.77661098  0.08572264  1
  Zr  Zr12  1  0.31147201  0.47164831  0.90219769  1
  Zr  Zr13  1  0.54902213  0.92024318  0.50825359  1
  Zr  Zr14  1  0.08114155  0.05189544  0.33047901  1
  Zr  Zr15  1  0.19485979  0.47425925  0.28443090  1
  Zr  Zr16  1  0.12862647  0.95672297  0.12453765  1
  Zr  Zr17  1  0.71665811  0.96992574  0.15701244  1
  Zr  Zr18  1  0.51292864  0.62078559  0.12192142  1
  Zr  Zr19  1  0.90289046  0.85384163  0.68805526  1
  Zr  Zr20  1  0.36712761  0.91598544  0.16265457  1
  Zr  Zr21  1  0.40285522  0.58350642  0.74899545  1
  Zr  Zr22  1  0.59520282  0.48289268  0.28610620  1
  Zr  Zr23  1  0.97138257  0.73693570  0.87889207  1
  Zr  Zr24  1  0.85587468  0.36090580  0.47066119  1
  Zr  Zr25  1  0.70496615  0.64719043  0.23777133  1
  Zr  Zr26  1  0.65127361  0.34993839  0.12613175  1
  Zr  Zr27  1  0.60398640  0.11031291  0.84555752  1
  Zr  Zr28  1  0.93716179  0.64708835  0.25496415  1
  Zr  Zr29  1  0.17494556  0.06397562  0.89550211  1
  Zr  Zr30  1  0.50247166  0.20129848  0.65532293  1
  Zr  Zr31  1  0.32416109  0.28936528  0.25020754  1
  Zr  Zr32  1  0.05262034  0.69016653  0.67072020  1
  Zr  Zr33  1  0.75323398  0.57747418  0.86323497  1
  Zr  Zr34  1  0.15797681  0.63121766  0.92510602  1
  Zr  Zr35  1  0.53257401  0.50770264  0.90927500  1
  Zr  Zr36  1  0.13237233  0.27468218  0.33849085  1
  Zr  Zr37  1  0.80368135  0.81641685  0.28461597  1
  Zr  Zr38  1  0.77596789  0.79207115  0.86046697  1
  Zr  Zr39  1  0.69017374  0.16064643  0.23883941  1
  Zr  Zr40  1  0.16785000  0.51044358  0.71495289  1
  Zr  Zr41  1  0.14902975  0.68592495  0.26898295  1
  Zr  Zr42  1  0.12691174  0.86620801  0.91456449  1
  Zr  Zr43  1  0.53779609  -0.00251784  0.05170735  1
  Zr  Zr44  1  0.98424169  0.95751117  0.50001981  1
  Zr  Zr45  1  0.47844376  0.72492478  0.54958401  1
  Zr  Zr46  1  0.36516620  0.23892499  0.45942109  1
  Zr  Zr47  1  0.69844989  0.15582211  0.02564038  1
  Zr  Zr48  1  0.03817484  0.22045071  0.93946170  1
  Zr  Zr49  1  0.29057392  0.56950102  0.11314915  1
  Sc  Sc50  1  0.96011008  0.53687988  0.78844750  1
  Sc  Sc51  1  0.21834134  0.36820244  0.08750792  1
  Sc  Sc52  1  0.56696392  0.15122465  0.43909408  1
  Sc  Sc53  1  0.34672345  0.90263697  0.93270076  1
  Sc  Sc54  1  0.37916798  0.04216627  0.52577789  1
  Sc  Sc55  1  0.91553909  0.09989942  0.08519518  1
  Sc  Sc56  1  0.51394343  0.36324364  0.46940135  1
  Sc  Sc57  1  0.91354564  0.89105094  0.07941199  1
  Sc  Sc58  1  0.84444951  0.15160966  0.87017870  1
  Sc  Sc59  1  0.80525435  0.66044489  0.65522404  1
  Sc  Sc60  1  0.07953788  0.37705190  0.54197784  1
  Sc  Sc61  1  0.26328815  0.25851588  0.90960092  1
  Sc  Sc62  1  0.49188578  0.05769881  0.26578062  1
  Sc  Sc63  1  0.12177118  0.79598930  0.48999955  1
  Sc  Sc64  1  0.30775301  0.84462342  0.56564264  1
  Sc  Sc65  1  0.12311591  0.17132439  0.13952025  1
  Sc  Sc66  1  0.30626294  0.66498654  0.40756754  1
  Sc  Sc67  1  0.65662318  0.78104325  0.05160287  1
  Sc  Sc68  1  0.86503261  0.08740347  0.64795772  1
  Sc  Sc69  1  0.57431080  0.89648605  0.87503176  1
  Sc  Sc70  1  0.91964347  0.29161051  0.66580869  1
  Sc  Sc71  1  0.91993217  0.74147704  0.47463484  1
  Sc  Sc72  1  0.28227468  0.08335150  0.32296224  1
  Sc  Sc73  1  0.56532260  0.83147727  0.24221414  1
  Sc  Sc74  1  0.68798866  0.35886614  0.90992461  1
  Sc  Sc75  1  0.64703354  0.81827459  0.67902880  1
  Sc  Sc76  1  0.77024535  0.44521963  0.68374850  1
  Sc  Sc77  1  0.40253971  0.09050378  0.87698600  1
  Sc  Sc78  1  0.33576113  0.37056649  0.67858535  1
  Sc  Sc79  1  0.47633686  0.29894885  0.86849460  1
  Sc  Sc80  1  0.07618470  0.09832966  0.69682605  1
  Sc  Sc81  1  0.44410231  0.41365297  0.09545900  1
  Sc  Sc82  1  0.56035801  0.40873051  0.69688674  1
  Sc  Sc83  1  0.78293283  0.13720803  0.44919723  1
  Sc  Sc84  1  0.49325171  0.20325026  0.07518747  1
  Sc  Sc85  1  0.31060692  0.10307853  0.08439747  1
  Sc  Sc86  1  0.67907413  0.73948246  0.45611726  1
  Sc  Sc87  1  0.23766205  0.75080560  0.77302903  1
  Sc  Sc88  1  0.95383959  0.97495715  0.86271574  1
  Sc  Sc89  1  0.89000666  0.49843617  1.02229809  1
  Sc  Sc90  1  0.38706091  0.68955725  0.95459005  1
  Sc  Sc91  1  0.81625512  0.44693447  0.22345273  1
  Sc  Sc92  1  0.89013944  0.35490390  0.86423064  1
  Sc  Sc93  1  0.87910983  0.01156958  0.29752473  1
  Sc  Sc94  1  0.99537485  0.17633611  0.48646491  1
  Sc  Sc95  1  0.29446809  0.15693794  0.69977350  1
  Sc  Sc96  1  0.10854280  0.58363388  0.47371921  1
  Sc  Sc97  1  0.77701492  0.92053104  0.52432304  1
  Sc  Sc98  1  0.90070114  0.23621472  0.27716987  1
  Sc  Sc99  1  0.09387499  0.42752663  0.92235198  1
  Nb  Nb100  1  0.01548782  0.84690134  0.28537144  1
  Nb  Nb101  1  0.83982630  0.29030313  0.06295567  1
  Nb  Nb102  1  0.68189656  0.54421418  0.05470637  1
  Nb  Nb103  1  0.75491762  0.97220013  0.95939109  1
  Nb  Nb104  1  0.59983074  0.61333406  0.69251346  1
  Nb  Nb105  1  0.27381831  0.96170915  0.73571869  1
  Nb  Nb106  1  0.17805025  1.00731984  0.52478225  1
  Nb  Nb107  1  0.19118641  0.20142821  0.52655775  1
  Nb  Nb108  1  0.94091596  0.52190514  0.57387056  1
  Nb  Nb109  1  0.73962824  -0.01485652  0.76262727  1
  Nb  Nb110  1  0.66823854  0.97601661  0.36043484  1
  Nb  Nb111  1  0.71534809  0.23092264  0.73702477  1
  Nb  Nb112  1  0.26996081  0.63597274  0.60352671  1
  Nb  Nb113  1  0.68634455  0.28642034  0.56037380  1
  Nb  Nb114  1  0.51211062  0.28748132  0.27610771  1
  Nb  Nb115  1  0.58458567  0.68762688  0.87638784  1
  Nb  Nb116  1  0.64992548  0.07098487  0.61322867  1
  Nb  Nb117  1  0.39854723  0.49505877  0.29949306  1
  Nb  Nb118  1  0.09889592  0.89348462  0.69332431  1
  Nb  Nb119  1  0.51155012  0.65765391  0.35344566  1
  Nb  Nb120  1  0.37115605  0.72313562  0.22467219  1
  Nb  Nb121  1  0.48398075  -0.01021709  0.70424510  1
  Nb  Nb122  1  0.04332123  0.74573305  0.08840843  1
  Nb  Nb123  1  0.69585039  0.32463891  0.35804612  1
  Nb  Nb124  1  0.41148856  0.86350172  0.37335504  1
