# generated using pymatgen
data_Zr2Sc2Nb
_symmetry_space_group_name_H-M   'P 1'
_cell_length_a   14.92862355
_cell_length_b   13.78522920
_cell_length_c   13.95217023
_cell_angle_alpha   85.44821415
_cell_angle_beta   91.32240359
_cell_angle_gamma   89.38102294
_symmetry_Int_Tables_number   1
_chemical_formula_structural   Zr2Sc2Nb
_chemical_formula_sum   'Zr50 Sc50 Nb25'
_cell_volume   2861.23159153
_cell_formula_units_Z   25
loop_
 _symmetry_equiv_pos_site_id
 _symmetry_equiv_pos_as_xyz
  1  'x, y, z'
loop_
 _atom_site_type_symbol
 _atom_site_label
 _atom_site_symmetry_multiplicity
 _atom_site_fract_x
 _atom_site_fract_y
 _atom_site_fract_z
 _atom_site_occupancy
  Zr  Zr0  1  0.52275586  0.68464644  0.62839950  1
  Zr  Zr1  1  0.58967999  0.51485199  0.87846267  1
  Zr  Zr2  1  0.66301113  0.58358060  0.31334827  1
  Zr  Zr3  1  0.76125087  0.10262967  1.00409787  1
  Zr  Zr4  1  0.38909291  0.95286899  0.86445016  1
  Zr  Zr5  1  0.58049690  0.47105939  0.16385618  1
  Zr  Zr6  1  0.48187133  0.08550028  0.35035116  1
  Zr  Zr7  1  -0.01749533  0.40381429  0.53691556  1
  Zr  Zr8  1  0.83927298  0.81045203  0.49559235  1
  Zr  Zr9  1  0.87460498  0.08697379  0.81311530  1
  Zr  Zr10  1  0.78371508  0.91603360  0.68474238  1
  Zr  Zr11  1  0.87073318  0.90052224  0.29146325  1
  Zr  Zr12  1  0.15443083  0.51686111  0.49978585  1
  Zr  Zr13  1  0.87405162  0.26457941  0.95272621  1
  Zr  Zr14  1  0.65476819  0.38910175  0.41751286  1
  Zr  Zr15  1  0.46390935  0.87700090  0.46938029  1
  Zr  Zr16  1  0.07173421  0.10744831  0.73433888  1
  Zr  Zr17  1  0.35069005  0.17393289  0.18235400  1
  Zr  Zr18  1  0.53937073  0.32120186  0.81000638  1
  Zr  Zr19  1  0.51553915  0.69040587  0.39883406  1
  Zr  Zr20  1  0.14646677  0.69075473  0.61669125  1
  Zr  Zr21  1  0.97980900  0.50262978  0.91027794  1
  Zr  Zr22  1  0.22623278  0.82083920  0.93934476  1
  Zr  Zr23  1  0.28450563  0.95224445  0.14452157  1
  Zr  Zr24  1  0.81242587  0.75635315  0.11042398  1
  Zr  Zr25  1  0.48180495  0.09999112  0.74490192  1
  Zr  Zr26  1  0.09783370  0.94176737  0.07907653  1
  Zr  Zr27  1  0.16077099  0.14847919  0.29848843  1
  Zr  Zr28  1  0.97894686  1.05789225  0.37498964  1
  Zr  Zr29  1  0.24930733  0.46877235  0.69428008  1
  Zr  Zr30  1  0.13895769  0.92231180  0.30011603  1
  Zr  Zr31  1  0.70671358  0.62447187  0.51935626  1
  Zr  Zr32  1  0.74280774  0.53946780  0.05834461  1
  Zr  Zr33  1  0.68059445  0.33070171  0.00105228  1
  Zr  Zr34  1  0.03105085  0.84923313  0.46886099  1
  Zr  Zr35  1  0.95399038  0.98204553  0.61480622  1
  Zr  Zr36  1  0.07023435  0.31416623  0.98913771  1
  Zr  Zr37  1  0.92143165  0.38915647  0.10447597  1
  Zr  Zr38  1  0.87418911  0.54476077  0.67417100  1
  Zr  Zr39  1  0.18818590  0.48457766  0.90245137  1
  Zr  Zr40  1  0.40299576  0.04445563  0.55988817  1
  Zr  Zr41  1  0.61330547  0.26846586  0.61744931  1
  Zr  Zr42  1  0.10024980  0.67131387  0.83366934  1
  Zr  Zr43  1  0.33916836  0.63341421  0.51835377  1
  Zr  Zr44  1  0.38261317  0.45698886  0.90240866  1
  Zr  Zr45  1  0.90476624  0.95790975  0.06456128  1
  Zr  Zr46  1  0.13954568  0.34171613  0.18839084  1
  Zr  Zr47  1  0.57712553  0.14981561  0.93880504  1
  Zr  Zr48  1  0.26863364  0.09441188  0.70333869  1
  Zr  Zr49  1  0.78708153  0.89242665  0.90558295  1
  Sc  Sc50  1  0.95064188  0.75519002  0.69112329  1
  Sc  Sc51  1  -0.00052298  0.90839236  0.85614432  1
  Sc  Sc52  1  0.44656606  0.50216500  0.70287916  1
  Sc  Sc53  1  0.27805559  0.19787406  0.48704047  1
  Sc  Sc54  1  0.36342060  0.18690132  0.90784431  1
  Sc  Sc55  1  0.61383021  0.05163416  0.56377776  1
  Sc  Sc56  1  0.03314587  0.74536580  0.01259952  1
  Sc  Sc57  1  0.60255461  0.72327393  0.14589841  1
  Sc  Sc58  1  0.86510244  0.68277891  0.89564966  1
  Sc  Sc59  1  0.24929163  0.55204194  0.30017998  1
  Sc  Sc60  1  0.14536996  0.04108705  0.51939267  1
  Sc  Sc61  1  0.46417210  0.71555420  0.85349488  1
  Sc  Sc62  1  0.20518059  1.03840071  -0.09319969  1
  Sc  Sc63  1  0.65835830  0.71069727  0.93681056  1
  Sc  Sc64  1  0.15989531  0.89056147  0.71945721  1
  Sc  Sc65  1  0.98787900  0.14587347  0.14494431  1
  Sc  Sc66  1  0.41578811  0.80589478  0.04575578  1
  Sc  Sc67  1  0.31447743  0.32686313  0.30960970  1
  Sc  Sc68  1  0.58722222  0.91940873  0.94926122  1
  Sc  Sc69  1  0.71927753  0.69279963  0.72720430  1
  Sc  Sc70  1  0.82652850  0.46993275  0.25999292  1
  Sc  Sc71  1  0.02994947  0.51856656  0.30719856  1
  Sc  Sc72  1  0.48081725  0.31262360  0.04628360  1
  Sc  Sc73  1  0.12492615  0.54597218  0.09412952  1
  Sc  Sc74  1  0.65068115  0.83952782  0.53268960  1
  Sc  Sc75  1  0.97187995  0.29078487  0.30845646  1
  Sc  Sc76  1  0.37523335  0.28677292  0.66920903  1
  Sc  Sc77  1  0.25048486  0.85747727  0.50747438  1
  Sc  Sc78  1  0.60202295  0.13216416  0.17062992  1
  Sc  Sc79  1  0.67638804  0.06508423  0.78356616  1
  Sc  Sc80  1  0.97756409  0.63344186  0.50220136  1
  Sc  Sc81  1  0.69458374  0.93421841  0.14343321  1
  Sc  Sc82  1  0.80293428  0.10619619  0.24834475  1
  Sc  Sc83  1  0.02509166  0.75649746  0.22398342  1
  Sc  Sc84  1  0.45698511  0.48652444  0.34036899  1
  Sc  Sc85  1  0.82231643  0.26119302  0.43399715  1
  Sc  Sc86  1  0.49482856  0.88356014  0.24666177  1
  Sc  Sc87  1  0.78965775  0.46413531  0.85478598  1
  Sc  Sc88  1  0.86130122  0.67145611  0.31818689  1
  Sc  Sc89  1  0.95875142  0.30075716  0.75319301  1
  Sc  Sc90  1  0.99273832  0.19309148  0.53911056  1
  Sc  Sc91  1  0.57008250  0.87924196  0.73140157  1
  Sc  Sc92  1  0.72331448  0.30492145  0.21410788  1
  Sc  Sc93  1  0.29244897  0.65942571  0.77631004  1
  Sc  Sc94  1  0.36941976  0.85167205  0.68230842  1
  Sc  Sc95  1  0.47197140  0.27265250  0.46569637  1
  Sc  Sc96  1  0.45120145  0.03449369  0.06473785  1
  Sc  Sc97  1  0.32342189  0.78975260  0.32311203  1
  Sc  Sc98  1  0.18174014  0.27118067  0.82572264  1
  Sc  Sc99  1  0.35754760  0.46158000  0.13767623  1
  Nb  Nb100  1  0.06631387  0.49298722  0.71017286  1
  Nb  Nb101  1  0.92675718  0.59390304  0.10930373  1
  Nb  Nb102  1  0.29755347  0.63402555  1.00333838  1
  Nb  Nb103  1  0.31014052  0.01303746  0.35703607  1
  Nb  Nb104  1  0.53323935  0.49039058  0.52851534  1
  Nb  Nb105  1  0.02324852  0.11713074  0.93922856  1
  Nb  Nb106  1  0.51647772  0.29518021  0.26146169  1
  Nb  Nb107  1  0.13950678  0.33626620  0.41363232  1
  Nb  Nb108  1  0.15180547  0.70963724  0.38885059  1
  Nb  Nb109  1  0.26629460  0.32236198  1.03350693  1
  Nb  Nb110  1  0.65778024  0.47807505  0.68323576  1
  Nb  Nb111  1  0.69477490  0.79080262  0.32901822  1
  Nb  Nb112  1  0.80264401  0.02604834  0.47040948  1
  Nb  Nb113  1  0.73125428  0.26777304  0.79997649  1
  Nb  Nb114  1  0.18269431  0.14567202  0.07722037  1
  Nb  Nb115  1  0.65826650  -0.02413146  0.35451825  1
  Nb  Nb116  1  0.21778825  0.74310065  0.15165799  1
  Nb  Nb117  1  0.79065012  0.36315033  0.61942766  1
  Nb  Nb118  1  0.15629089  0.30316703  0.61577316  1
  Nb  Nb119  1  0.82629318  0.49160630  0.45924796  1
  Nb  Nb120  1  0.41465698  0.65441240  0.20023681  1
  Nb  Nb121  1  0.65137931  0.17782130  0.39014327  1
  Nb  Nb122  1  0.48913673  0.59053066  0.02802217  1
  Nb  Nb123  1  0.32399545  0.42205952  0.50081496  1
  Nb  Nb124  1  0.79930989  0.15233514  0.62646305  1
