# generated using pymatgen
data_Zr2Sc2Nb
_symmetry_space_group_name_H-M   'P 1'
_cell_length_a   14.33480893
_cell_length_b   14.01596559
_cell_length_c   14.36949349
_cell_angle_alpha   89.36814938
_cell_angle_beta   89.50854917
_cell_angle_gamma   90.19992898
_symmetry_Int_Tables_number   1
_chemical_formula_structural   Zr2Sc2Nb
_chemical_formula_sum   'Zr50 Sc50 Nb25'
_cell_volume   2886.76357266
_cell_formula_units_Z   25
loop_
 _symmetry_equiv_pos_site_id
 _symmetry_equiv_pos_as_xyz
  1  'x, y, z'
loop_
 _atom_site_type_symbol
 _atom_site_label
 _atom_site_symmetry_multiplicity
 _atom_site_fract_x
 _atom_site_fract_y
 _atom_site_fract_z
 _atom_site_occupancy
  Zr  Zr0  1  0.68167658  0.87342144  0.76048414  1
  Zr  Zr1  1  1.00237638  0.17165300  0.28905686  1
  Zr  Zr2  1  0.08177008  0.91095782  0.77578564  1
  Zr  Zr3  1  0.59702029  0.86104106  0.14403762  1
  Zr  Zr4  1  0.64182142  0.20087864  0.38126763  1
  Zr  Zr5  1  0.74840427  0.37249717  0.45258122  1
  Zr  Zr6  1  0.83045975  0.46755575  0.89121439  1
  Zr  Zr7  1  0.74033728  0.66560719  0.66820824  1
  Zr  Zr8  1  0.04012001  0.53655430  0.60581214  1
  Zr  Zr9  1  0.19707586  0.47099016  0.74648593  1
  Zr  Zr10  1  0.36207464  0.89788227  0.52023043  1
  Zr  Zr11  1  0.95162798  0.72534919  0.54497220  1
  Zr  Zr12  1  0.26259417  0.51451621  0.56235756  1
  Zr  Zr13  1  0.10091981  0.65097719  0.08146364  1
  Zr  Zr14  1  0.05043275  0.74817592  0.36567166  1
  Zr  Zr15  1  0.52915071  0.65246442  0.13382995  1
  Zr  Zr16  1  0.86191958  0.15612152  0.45950681  1
  Zr  Zr17  1  0.24627696  0.25691580  0.74552746  1
  Zr  Zr18  1  0.80649139  0.87049253  0.06113353  1
  Zr  Zr19  1  0.58070608  0.11431535  0.71310265  1
  Zr  Zr20  1  0.96832137  0.18627149  0.65375939  1
  Zr  Zr21  1  0.53251495  0.73222722  0.75051134  1
  Zr  Zr22  1  0.95318311  0.97591150  0.58217213  1
  Zr  Zr23  1  0.74381574  0.69048251  0.15372192  1
  Zr  Zr24  1  0.94016980  0.38421418  0.29242660  1
  Zr  Zr25  1  0.09114492  0.96056220  0.30914082  1
  Zr  Zr26  1  0.52947872  0.17797261  0.92573610  1
  Zr  Zr27  1  0.73195543  0.10119712  0.85406430  1
  Zr  Zr28  1  0.57713450  0.44145242  0.14370826  1
  Zr  Zr29  1  0.36739983  0.49303816  0.18526795  1
  Zr  Zr30  1  0.19420840  0.78580864  0.92372434  1
  Zr  Zr31  1  0.89322757  0.62151780  0.03518264  1
  Zr  Zr32  1  0.72212718  0.29719434  0.01105863  1
  Zr  Zr33  1  0.90286426  0.94218207  0.38711622  1
  Zr  Zr34  1  0.44878676  0.57563867  0.95779279  1
  Zr  Zr35  1  0.08974661  0.52103071  0.41068191  1
  Zr  Zr36  1  0.95104736  0.58454046  0.23971675  1
  Zr  Zr37  1  0.15772123  0.30476570  0.37524326  1
  Zr  Zr38  1  0.69448917  0.02296524  0.46789152  1
  Zr  Zr39  1  0.75719199  0.22648490  0.62052959  1
  Zr  Zr40  1  0.95480965  0.34501521  0.50080471  1
  Zr  Zr41  1  0.47636106  0.08787114  0.45579112  1
  Zr  Zr42  1  0.25885988  0.08082064  0.46468234  1
  Zr  Zr43  1  0.48417844  0.94642315  0.83912796  1
  Zr  Zr44  1  0.31028943  0.46422476  0.37333509  1
  Zr  Zr45  1  0.47250346  0.50121902  0.51615903  1
  Zr  Zr46  1  0.62145302  0.73358411  0.33060244  1
  Zr  Zr47  1  0.73514705  0.31273759  0.23508587  1
  Zr  Zr48  1  0.68923781  0.58511083  0.48206986  1
  Zr  Zr49  1  0.63414740  0.55513414  0.81846859  1
  Sc  Sc50  1  0.90502747  0.07533757  0.99386090  1
  Sc  Sc51  1  0.41371949  0.79117391  0.24992267  1
  Sc  Sc52  1  0.89094597  0.82177732  0.71489332  1
  Sc  Sc53  1  0.78944981  0.10691138  0.26852403  1
  Sc  Sc54  1  0.55355806  0.26920727  0.55063895  1
  Sc  Sc55  1  -0.03656926  0.79699843  0.17746632  1
  Sc  Sc56  1  0.62492686  0.45179168  0.63979697  1
  Sc  Sc57  1  0.83040946  0.46629727  0.64762985  1
  Sc  Sc58  1  0.54478078  0.72086009  0.54426975  1
  Sc  Sc59  1  0.71948536  0.52550243  0.28869374  1
  Sc  Sc60  1  0.28529878  0.20122558  0.97154102  1
  Sc  Sc61  1  0.42332622  0.53409216  0.73520133  1
  Sc  Sc62  1  0.31981946  0.70997972  0.66273600  1
  Sc  Sc63  1  0.77106571  0.71416303  0.88538730  1
  Sc  Sc64  1  0.28194213  0.97898655  0.95208318  1
  Sc  Sc65  1  0.30033242  0.92180456  0.73274387  1
  Sc  Sc66  1  0.54519188  0.93513896  0.61337642  1
  Sc  Sc67  1  0.11413984  0.32570251  0.91830803  1
  Sc  Sc68  1  0.13756158  0.89180194  0.54399254  1
  Sc  Sc69  1  0.37696913  0.24365570  0.30395275  1
  Sc  Sc70  1  0.34214920  0.38770894  0.88485126  1
  Sc  Sc71  1  0.10986533  0.10206545  0.09994704  1
  Sc  Sc72  1  0.54919875  0.39019381  0.93734695  1
  Sc  Sc73  1  0.00769051  0.43389648  0.07295297  1
  Sc  Sc74  1  0.23829283  0.90053696  0.15143732  1
  Sc  Sc75  1  -0.00184390  0.37998046  0.74639426  1
  Sc  Sc76  1  0.16350458  0.08227440  0.65961079  1
  Sc  Sc77  1  0.56922894  0.03825697  0.25936461  1
  Sc  Sc78  1  0.47525755  0.02699000  0.05616402  1
  Sc  Sc79  1  0.05021074  0.55052131  0.88423544  1
  Sc  Sc80  1  0.11635225  0.11042161  0.87036814  1
  Sc  Sc81  1  0.30589197  0.67924604  0.07776195  1
  Sc  Sc82  1  0.74427157  0.82965444  0.52533423  1
  Sc  Sc83  1  0.22944197  0.65765762  0.28357745  1
  Sc  Sc84  1  0.69350678  0.31767764  0.79568272  1
  Sc  Sc85  1  0.11289232  0.70158528  0.72091782  1
  Sc  Sc86  1  0.04383293  0.92310694  1.00390335  1
  Sc  Sc87  1  0.22565439  0.47452653  0.03002070  1
  Sc  Sc88  1  0.70917924  0.07681047  0.08193574  1
  Sc  Sc89  1  0.46551316  0.30490962  0.73486249  1
  Sc  Sc90  1  0.19733364  0.29422237  0.15886245  1
  Sc  Sc91  1  0.90529117  0.24350976  0.11407614  1
  Sc  Sc92  1  0.54824199  0.22056954  0.15267288  1
  Sc  Sc93  1  0.98119333  0.75705303  0.90309631  1
  Sc  Sc94  1  0.13846356  0.32066301  0.58313523  1
  Sc  Sc95  1  0.83371748  0.72488175  0.35723682  1
  Sc  Sc96  1  0.89789650  0.24653366  0.87200017  1
  Sc  Sc97  1  0.37110552  0.69066821  0.44163008  1
  Sc  Sc98  1  0.34322623  0.29387977  0.52573109  1
  Sc  Sc99  1  0.53645846  0.38192324  0.34890743  1
  Nb  Nb100  1  0.78024266  0.02227180  0.66387446  1
  Nb  Nb101  1  0.49871993  0.58118505  0.32528556  1
  Nb  Nb102  1  0.74241346  0.90080125  0.27569921  1
  Nb  Nb103  1  0.37900134  0.75932679  0.86403487  1
  Nb  Nb104  1  0.42812060  0.83147701  0.02792184  1
  Nb  Nb105  1  0.24643049  0.85539005  0.36913688  1
  Nb  Nb106  1  0.14113384  0.48090999  0.22591267  1
  Nb  Nb107  1  0.63924371  0.93360819  0.95092832  1
  Nb  Nb108  1  0.58394388  0.74435239  0.94829900  1
  Nb  Nb109  1  0.84019035  0.92214778  0.87794481  1
  Nb  Nb110  1  0.20274047  0.11608520  0.28584996  1
  Nb  Nb111  1  0.25857496  0.60552803  0.86922673  1
  Nb  Nb112  1  0.53445515  0.88977671  0.39961622  1
  Nb  Nb113  1  0.92759431  0.00094628  0.18146322  1
  Nb  Nb114  1  0.17353400  0.69044719  0.50645558  1
  Nb  Nb115  1  0.88831535  0.54261076  0.45006216  1
  Nb  Nb116  1  0.36845889  -0.00294842  0.30230641  1
  Nb  Nb117  1  0.06433081  0.12017673  0.47018535  1
  Nb  Nb118  1  0.93962717  1.04729919  0.78359150  1
  Nb  Nb119  1  0.39734003  0.32671559  0.08010689  1
  Nb  Nb120  1  0.38783370  0.10632308  0.63176320  1
  Nb  Nb121  1  0.80763285  0.45538370  0.11479231  1
  Nb  Nb122  1  0.67794020  0.55509001  0.00877818  1
  Nb  Nb123  1  0.36982604  0.11775190  0.81296168  1
  Nb  Nb124  1  0.33118348  0.11704496  0.14646310  1
