# generated using pymatgen
data_Zr2Sc2Nb
_symmetry_space_group_name_H-M   'P 1'
_cell_length_a   14.48158996
_cell_length_b   13.51063702
_cell_length_c   14.63574234
_cell_angle_alpha   90.59829115
_cell_angle_beta   89.75695282
_cell_angle_gamma   91.46231166
_symmetry_Int_Tables_number   1
_chemical_formula_structural   Zr2Sc2Nb
_chemical_formula_sum   'Zr50 Sc50 Nb25'
_cell_volume   2862.45227495
_cell_formula_units_Z   25
loop_
 _symmetry_equiv_pos_site_id
 _symmetry_equiv_pos_as_xyz
  1  'x, y, z'
loop_
 _atom_site_type_symbol
 _atom_site_label
 _atom_site_symmetry_multiplicity
 _atom_site_fract_x
 _atom_site_fract_y
 _atom_site_fract_z
 _atom_site_occupancy
  Zr  Zr0  1  0.05264276  0.15180599  0.46613444  1
  Zr  Zr1  1  0.50006733  0.72809791  0.44178755  1
  Zr  Zr2  1  0.23876999  0.47002740  0.84763194  1
  Zr  Zr3  1  0.50139185  0.32498260  0.15965869  1
  Zr  Zr4  1  0.84156452  0.48178030  0.03298616  1
  Zr  Zr5  1  0.57971074  0.72810735  0.01590382  1
  Zr  Zr6  1  0.27582157  0.45658388  0.05867699  1
  Zr  Zr7  1  0.94099119  0.32528561  0.94756636  1
  Zr  Zr8  1  0.34913658  0.03928773  0.05398607  1
  Zr  Zr9  1  0.50591762  0.71036239  0.21407407  1
  Zr  Zr10  1  0.52876685  0.30999375  0.35765226  1
  Zr  Zr11  1  0.31699422  0.07501501  0.53749513  1
  Zr  Zr12  1  0.16193693  0.12101712  0.04633254  1
  Zr  Zr13  1  0.03528438  0.94727030  0.35481502  1
  Zr  Zr14  1  0.75674498  0.65331262  0.70083005  1
  Zr  Zr15  1  0.11142000  0.71689927  0.76054769  1
  Zr  Zr16  1  0.71669812  0.28450856  0.05770201  1
  Zr  Zr17  1  0.86759662  0.19982633  0.54706749  1
  Zr  Zr18  1  0.78377483  0.05868610  0.12936875  1
  Zr  Zr19  1  0.69666043  0.83923349  0.14251424  1
  Zr  Zr20  1  0.33127795  0.44685675  0.65841911  1
  Zr  Zr21  1  0.97273259  0.09568455  0.03692228  1
  Zr  Zr22  1  0.36782330  0.46231947  0.25467449  1
  Zr  Zr23  1  0.11221634  0.72523701  0.51635713  1
  Zr  Zr24  1  0.41346923  0.49017405  0.46292856  1
  Zr  Zr25  1  0.20581125  0.50314853  0.45369204  1
  Zr  Zr26  1  0.30900087  0.24250933  0.76012636  1
  Zr  Zr27  1  0.85131713  0.71238708  0.51871740  1
  Zr  Zr28  1  0.64440540  0.51200406  0.95022427  1
  Zr  Zr29  1  0.76903125  0.68265766  0.94688132  1
  Zr  Zr30  1  0.47060277  0.92073413  0.55150810  1
  Zr  Zr31  1  0.51179217  0.11210939  0.44048982  1
  Zr  Zr32  1  0.54341915  0.32438694  0.95731920  1
  Zr  Zr33  1  0.68923708  0.05865299  0.52822373  1
  Zr  Zr34  1  0.50249066  0.32027876  0.75549576  1
  Zr  Zr35  1  0.71651598  0.84137694  0.82764072  1
  Zr  Zr36  1  0.18777155  0.65825680  0.95045232  1
  Zr  Zr37  1  0.44190930  0.10578018  0.87064395  1
  Zr  Zr38  1  0.32743671  0.65949347  0.35269361  1
  Zr  Zr39  1  0.31914155  0.67983029  0.55979167  1
  Zr  Zr40  1  0.77752291  0.07701321  0.71845927  1
  Zr  Zr41  1  0.79945030  0.91876711  0.29759999  1
  Zr  Zr42  1  0.35460997  0.87181525  0.25774886  1
  Zr  Zr43  1  0.59767550  0.42113394  0.53510166  1
  Zr  Zr44  1  0.91793132  0.95036023  0.82592186  1
  Zr  Zr45  1  0.38998126  0.67870982  0.96107572  1
  Zr  Zr46  1  0.17204910  0.95150503  0.17353179  1
  Zr  Zr47  1  0.08414498  0.90200600  0.96750311  1
  Zr  Zr48  1  0.31161560  0.65149202  0.76240575  1
  Zr  Zr49  1  0.01653536  0.37637511  0.54644195  1
  Sc  Sc50  1  0.68883027  0.26632628  0.65785471  1
  Sc  Sc51  1  0.44600616  0.49740922  0.86436563  1
  Sc  Sc52  1  0.80921874  0.44249739  0.58114685  1
  Sc  Sc53  1  0.64859232  0.47890372  0.74452047  1
  Sc  Sc54  1  0.46606442  0.88671476  0.90741393  1
  Sc  Sc55  1  0.97637536  0.68546656  0.95643062  1
  Sc  Sc56  1  0.85875939  0.12571591  0.34165043  1
  Sc  Sc57  1  0.15309493  0.52247299  0.23779948  1
  Sc  Sc58  1  0.23200507  0.05489353  0.35084178  1
  Sc  Sc59  1  0.71905495  0.35758120  0.25335383  1
  Sc  Sc60  1  0.65406469  0.96675902  -0.02634385  1
  Sc  Sc61  1  0.70976183  0.70807457  0.32013134  1
  Sc  Sc62  1  0.21165989  0.29782677  0.54494765  1
  Sc  Sc63  1  -0.00242339  0.54734283  0.42566692  1
  Sc  Sc64  1  0.42935409  0.10126581  0.24675091  1
  Sc  Sc65  1  0.69013656  0.84962287  0.47131944  1
  Sc  Sc66  1  0.03150923  0.14131649  0.83563689  1
  Sc  Sc67  1  0.15867769  0.77423316  0.31665656  1
  Sc  Sc68  1  0.93836677  0.74270557  0.33166871  1
  Sc  Sc69  1  0.51650710  0.12233661  0.65552849  1
  Sc  Sc70  1  0.56719196  0.52833723  0.32546450  1
  Sc  Sc71  1  0.56519428  0.91862389  0.31518560  1
  Sc  Sc72  1  0.93583364  0.48108177  0.22508714  1
  Sc  Sc73  1  0.65215172  0.13040410  0.27847738  1
  Sc  Sc74  1  0.05310508  0.13397876  0.23779051  1
  Sc  Sc75  1  0.16627373  0.11380490  0.66623005  1
  Sc  Sc76  1  0.78276909  0.51211824  0.39010495  1
  Sc  Sc77  1  0.81556824  0.12977540  0.92514394  1
  Sc  Sc78  1  0.10956742  0.33461593  0.72602704  1
  Sc  Sc79  1  0.34614758  0.26519920  0.97867643  1
  Sc  Sc80  1  0.26873751  0.85688194  0.85858103  1
  Sc  Sc81  1  0.89833675  0.30298583  0.73615852  1
  Sc  Sc82  1  0.55682706  0.12375879  0.07243973  1
  Sc  Sc83  1  0.49573620  0.59299185  0.64866943  1
  Sc  Sc84  1  0.68248588  0.56975828  0.15046577  1
  Sc  Sc85  1  0.61123243  0.78342843  0.63940516  1
  Sc  Sc86  1  0.06132423  0.50053709  0.03668025  1
  Sc  Sc87  1  0.96435962  0.58734299  0.64887110  1
  Sc  Sc88  1  0.42814354  0.28200113  0.55679949  1
  Sc  Sc89  1  0.30678659  0.65882553  0.15097636  1
  Sc  Sc90  1  0.88715663  -0.04121831  0.48973142  1
  Sc  Sc91  1  0.63201427  0.15650083  0.84649414  1
  Sc  Sc92  1  0.95987444  0.91351283  0.15842277  1
  Sc  Sc93  1  0.09599612  0.72892344  0.12741559  1
  Sc  Sc94  1  0.27286014  0.25266510  0.18069146  1
  Sc  Sc95  1  0.86693188  0.70114477  0.14101478  1
  Sc  Sc96  1  0.10216534  0.33230300  0.33785789  1
  Sc  Sc97  1  0.14620700  0.30087255  0.93133163  1
  Sc  Sc98  1  0.89566862  0.26664144  0.16620424  1
  Sc  Sc99  1  0.32394476  0.27346773  0.37579688  1
  Nb  Nb100  1  0.29359534  0.86480386  0.45321390  1
  Nb  Nb101  1  0.49107924  0.90343910  0.11426303  1
  Nb  Nb102  1  0.85072239  0.51695772  0.83107073  1
  Nb  Nb103  1  0.22966187  0.07396131  0.87037617  1
  Nb  Nb104  1  0.24227617  0.86011383  0.64239376  1
  Nb  Nb105  1  0.35038850  0.00369116  0.72647475  1
  Nb  Nb106  1  0.15719084  0.53625723  0.64498678  1
  Nb  Nb107  1  0.65982191  0.61875469  0.51481554  1
  Nb  Nb108  1  0.03878798  0.51219290  0.83083620  1
  Nb  Nb109  1  0.74307912  0.34033136  0.86905831  1
  Nb  Nb110  1  0.85098764  0.88112926  -0.00693993  1
  Nb  Nb111  1  0.08780997  0.31885648  0.12396263  1
  Nb  Nb112  1  0.28767214  0.84188918  0.05570912  1
  Nb  Nb113  1  0.79779573  0.88141925  0.65341580  1
  Nb  Nb114  1  0.42842573  0.80808287  0.71759376  1
  Nb  Nb115  1  0.89862195  0.33260661  0.38673182  1
  Nb  Nb116  1  0.91040571  0.74514555  0.79050239  1
  Nb  Nb117  1  0.12051909  0.95501705  0.52971033  1
  Nb  Nb118  1  0.58168824  0.95910853  0.74692564  1
  Nb  Nb119  1  0.99031497  0.83708458  0.63487337  1
  Nb  Nb120  1  0.48033506  0.52371217  0.08406158  1
  Nb  Nb121  1  0.96986638  0.05189745  0.64971044  1
  Nb  Nb122  1  0.71036940  0.26964639  0.44377427  1
  Nb  Nb123  1  0.56264129  0.69002659  0.82254302  1
  Nb  Nb124  1  0.10892551  0.93800535  0.75867736  1
