# generated using pymatgen
data_Zr2Sc2Nb
_symmetry_space_group_name_H-M   'P 1'
_cell_length_a   14.21271693
_cell_length_b   14.13564801
_cell_length_c   14.32125237
_cell_angle_alpha   89.98977421
_cell_angle_beta   89.44669144
_cell_angle_gamma   88.74683119
_symmetry_Int_Tables_number   1
_chemical_formula_structural   Zr2Sc2Nb
_chemical_formula_sum   'Zr50 Sc50 Nb25'
_cell_volume   2876.40269975
_cell_formula_units_Z   25
loop_
 _symmetry_equiv_pos_site_id
 _symmetry_equiv_pos_as_xyz
  1  'x, y, z'
loop_
 _atom_site_type_symbol
 _atom_site_label
 _atom_site_symmetry_multiplicity
 _atom_site_fract_x
 _atom_site_fract_y
 _atom_site_fract_z
 _atom_site_occupancy
  Zr  Zr0  1  0.13367138  0.02460757  0.59815588  1
  Zr  Zr1  1  0.08655555  0.45326401  1.02559653  1
  Zr  Zr2  1  0.96490525  0.91830613  0.70335696  1
  Zr  Zr3  1  0.34189586  0.16097842  0.56701916  1
  Zr  Zr4  1  0.32066157  0.72021130  0.14794818  1
  Zr  Zr5  1  0.76553420  0.27281285  0.79702458  1
  Zr  Zr6  1  0.53787421  0.21020866  0.05034208  1
  Zr  Zr7  1  0.72546348  0.28342075  0.00654235  1
  Zr  Zr8  1  0.57222562  0.82278769  0.70758977  1
  Zr  Zr9  1  0.77667287  0.85082371  0.76310030  1
  Zr  Zr10  1  0.07630542  0.78327451  0.28777223  1
  Zr  Zr11  1  0.83134561  0.32839146  0.56058764  1
  Zr  Zr12  1  0.26083163  0.72132964  0.35188934  1
  Zr  Zr13  1  0.29058973  0.35455580  0.70818299  1
  Zr  Zr14  1  0.06052403  0.02517512  0.01999246  1
  Zr  Zr15  1  0.12771706  0.23313990  0.63218707  1
  Zr  Zr16  1  0.66633351  0.88953786  0.96522450  1
  Zr  Zr17  1  0.36802759  0.15180448  0.13440409  1
  Zr  Zr18  1  0.13144472  0.30262532  0.85969817  1
  Zr  Zr19  1  0.62761415  0.32159421  0.21933991  1
  Zr  Zr20  1  0.62810994  0.09563760  0.86019764  1
  Zr  Zr21  1  0.75966634  0.46329027  0.34622370  1
  Zr  Zr22  1  0.50710649  0.80179763  0.13019952  1
  Zr  Zr23  1  0.66495421  0.70315637  0.29253098  1
  Zr  Zr24  1  0.65785380  0.48139057  0.53576992  1
  Zr  Zr25  1  0.89933119  0.60697306  0.26436044  1
  Zr  Zr26  1  0.58850771  0.70505289  0.48672235  1
  Zr  Zr27  1  0.37349727  0.29826972  0.89745542  1
  Zr  Zr28  1  0.07332250  0.06725347  0.79941455  1
  Zr  Zr29  1  0.84919159  0.34711844  0.14684714  1
  Zr  Zr30  1  0.52561924  0.10003996  0.26677928  1
  Zr  Zr31  1  0.50165371  0.41196868  0.03922898  1
  Zr  Zr32  1  0.52659385  0.61633745  0.67871084  1
  Zr  Zr33  1  0.70498466  0.71747604  0.08935459  1
  Zr  Zr34  1  0.10490837  0.44330234  0.60336819  1
  Zr  Zr35  1  0.48445327  0.32974952  0.44133831  1
  Zr  Zr36  1  0.03760945  0.85572564  0.90776445  1
  Zr  Zr37  1  0.47593200  0.20258385  0.72229880  1
  Zr  Zr38  1  0.45255581  0.65397450  0.97267305  1
  Zr  Zr39  1  0.98084478  0.14786190  0.49938847  1
  Zr  Zr40  1  0.21725086  0.13986767  0.97030243  1
  Zr  Zr41  1  0.50994331  0.58046441  0.16324894  1
  Zr  Zr42  1  0.87757528  0.12145292  0.69086583  1
  Zr  Zr43  1  0.95687868  0.32784838  0.72339077  1
  Zr  Zr44  1  0.48808177  0.88011455  0.33273437  1
  Zr  Zr45  1  0.07411550  0.32477333  0.43120720  1
  Zr  Zr46  1  0.06664487  0.25106145  0.08798574  1
  Zr  Zr47  1  0.31479257  0.51869852  0.09720161  1
  Zr  Zr48  1  0.37750388  0.76135792  0.53130349  1
  Zr  Zr49  1  0.05136536  0.50539343  0.80697898  1
  Sc  Sc50  1  0.26541845  0.32678202  0.07122314  1
  Sc  Sc51  1  0.89914877  0.53399983  0.63634728  1
  Sc  Sc52  1  0.73540138  0.84278610  0.55038285  1
  Sc  Sc53  1  0.94006211  0.19225350  0.91553555  1
  Sc  Sc54  1  0.32922240  0.98767557  0.43945540  1
  Sc  Sc55  1  0.64516018  0.26117990  0.62526700  1
  Sc  Sc56  1  0.93785184  0.47556087  0.43991195  1
  Sc  Sc57  1  0.53702678  0.11409306  0.48909941  1
  Sc  Sc58  1  0.68171418  0.48665745  0.94465205  1
  Sc  Sc59  1  0.66410249  0.02804424  0.66042319  1
  Sc  Sc60  1  0.47056074  0.86896968  0.90668729  1
  Sc  Sc61  1  0.14592486  0.82053280  0.52324449  1
  Sc  Sc62  1  0.85284087  1.00228768  0.89411766  1
  Sc  Sc63  1  0.89918743  0.13378385  0.13032885  1
  Sc  Sc64  1  0.43909793  0.54427746  0.50080206  1
  Sc  Sc65  1  0.42224769  0.08694991  0.91473477  1
  Sc  Sc66  1  0.10319771  0.98465765  0.38170963  1
  Sc  Sc67  1  0.27293323  0.13125446  0.75959190  1
  Sc  Sc68  1  0.88748323  0.56052200  0.05137822  1
  Sc  Sc69  1  0.28053912  0.36341994  0.48161302  1
  Sc  Sc70  1  0.73561095  0.65885172  0.66739653  1
  Sc  Sc71  1  0.70574921  0.07915804  0.05914110  1
  Sc  Sc72  1  1.01727030  0.40546539  0.23244177  1
  Sc  Sc73  1  0.95555302  0.75565394  0.11522296  1
  Sc  Sc74  1  0.25320148  0.94177311  0.85514984  1
  Sc  Sc75  1  0.23185338  0.58781177  0.50355462  1
  Sc  Sc76  1  0.34755869  0.50505139  0.31068174  1
  Sc  Sc77  1  0.84385460  0.75758195  0.93987482  1
  Sc  Sc78  1  0.70513282  0.51191671  0.15495470  1
  Sc  Sc79  1  0.25093220  0.49999508  0.89597212  1
  Sc  Sc80  1  0.64259123  0.68254223  0.86457902  1
  Sc  Sc81  1  0.31483966  0.94111471  0.05250394  1
  Sc  Sc82  1  0.84322895  0.92434326  0.11092418  1
  Sc  Sc83  1  0.47047484  0.49275167  0.83938593  1
  Sc  Sc84  1  0.67917331  0.95637772  0.39240916  1
  Sc  Sc85  1  0.18985390  0.09746508  0.19980931  1
  Sc  Sc86  1  0.36566842  0.76988624  0.74956504  1
  Sc  Sc87  1  0.77195830  0.11748357  0.49127065  1
  Sc  Sc88  1  0.85303875  0.81973967  0.31901970  1
  Sc  Sc89  1  0.92709951  0.93333963  0.49681375  1
  Sc  Sc90  1  0.90320508  0.39343029  0.92958739  1
  Sc  Sc91  1  0.72583964  0.13311420  0.26227806  1
  Sc  Sc92  1  0.10396080  0.65076488  0.66020279  1
  Sc  Sc93  1  0.01734893  0.66466159  0.44769202  1
  Sc  Sc94  1  0.86646039  0.26871155  0.34882394  1
  Sc  Sc95  1  0.12351869  0.62260420  0.14335250  1
  Sc  Sc96  1  0.24130203  0.72370311  0.92908728  1
  Sc  Sc97  1  0.27214675  0.90691480  0.25066121  1
  Sc  Sc98  1  0.14056065  0.52440132  0.33291926  1
  Sc  Sc99  1  0.31078095  0.56715198  0.69653579  1
  Nb  Nb100  1  0.65828427  0.91624116  0.19739881  1
  Nb  Nb101  1  0.89239444  0.03469788  0.32136922  1
  Nb  Nb102  1  0.79791138  0.64675387  0.45843666  1
  Nb  Nb103  1  0.91785796  0.75056122  0.59905253  1
  Nb  Nb104  1  0.56509341  0.49672219  0.33851837  1
  Nb  Nb105  1  0.51869761  -0.00158645  0.08112645  1
  Nb  Nb106  1  0.30692491  0.93750430  0.63892528  1
  Nb  Nb107  1  0.14284950  0.83057507  0.08576532  1
  Nb  Nb108  1  0.21815413  0.30949015  0.26932085  1
  Nb  Nb109  1  0.45567866  0.68612816  0.32708551  1
  Nb  Nb110  1  0.42871760  0.33883375  0.22221588  1
  Nb  Nb111  1  0.03396922  0.17691504  0.28550523  1
  Nb  Nb112  1  0.02823918  0.95792415  0.19914142  1
  Nb  Nb113  1  0.14512345  0.83031211  0.73336349  1
  Nb  Nb114  1  0.57756664  0.31356182  0.85095566  1
  Nb  Nb115  1  0.04474308  0.65030801  0.94405926  1
  Nb  Nb116  1  0.18998032  0.16279966  0.42580256  1
  Nb  Nb117  1  0.66904411  0.28945233  0.41540332  1
  Nb  Nb118  1  0.45827344  -0.00086505  0.72286835  1
  Nb  Nb119  1  0.35963117  0.19091965  0.34705438  1
  Nb  Nb120  1  0.84336985  0.56891472  0.83454325  1
  Nb  Nb121  1  0.48521529  0.40131453  0.65518232  1
  Nb  Nb122  1  0.95475920  0.71370813  0.77677324  1
  Nb  Nb123  1  0.68120084  0.45827078  0.73657378  1
  Nb  Nb124  1  0.51038986  0.91225216  0.54344186  1
