# generated using pymatgen
data_Zr2Sc2Nb
_symmetry_space_group_name_H-M   'P 1'
_cell_length_a   14.14912121
_cell_length_b   14.41421938
_cell_length_c   14.28142408
_cell_angle_alpha   88.68115085
_cell_angle_beta   90.12225447
_cell_angle_gamma   89.84495430
_symmetry_Int_Tables_number   1
_chemical_formula_structural   Zr2Sc2Nb
_chemical_formula_sum   'Zr50 Sc50 Nb25'
_cell_volume   2911.88627177
_cell_formula_units_Z   25
loop_
 _symmetry_equiv_pos_site_id
 _symmetry_equiv_pos_as_xyz
  1  'x, y, z'
loop_
 _atom_site_type_symbol
 _atom_site_label
 _atom_site_symmetry_multiplicity
 _atom_site_fract_x
 _atom_site_fract_y
 _atom_site_fract_z
 _atom_site_occupancy
  Zr  Zr0  1  0.88299153  0.17320917  0.04339020  1
  Zr  Zr1  1  0.86683362  0.36441457  0.11718863  1
  Zr  Zr2  1  0.12757544  0.87680489  0.92986215  1
  Zr  Zr3  1  0.15214508  0.82527932  0.12951869  1
  Zr  Zr4  1  0.55421400  0.02287906  0.68939881  1
  Zr  Zr5  1  0.93052524  0.95311720  0.99774685  1
  Zr  Zr6  1  0.74702052  0.33009025  0.29803296  1
  Zr  Zr7  1  0.55390786  0.11033841  0.15134579  1
  Zr  Zr8  1  0.05782703  0.08699519  0.89172798  1
  Zr  Zr9  1  0.81873999  0.66345949  0.08084777  1
  Zr  Zr10  1  0.47276054  0.15901729  0.93014682  1
  Zr  Zr11  1  0.96900180  0.45525704  0.53306315  1
  Zr  Zr12  1  0.91975317  0.02120339  0.20936787  1
  Zr  Zr13  1  0.26752171  0.05327910  0.49974380  1
  Zr  Zr14  1  0.07138326  0.32719038  0.66422625  1
  Zr  Zr15  1  0.31384116  0.48708943  0.03746197  1
  Zr  Zr16  1  0.11100830  0.74633708  0.29954542  1
  Zr  Zr17  1  0.79099637  0.51913168  0.61742542  1
  Zr  Zr18  1  0.37908192  0.89057697  0.64879187  1
  Zr  Zr19  1  0.71025768  0.93852283  0.22508921  1
  Zr  Zr20  1  0.20665226  0.60632279  0.16591990  1
  Zr  Zr21  1  0.04206185  0.67309043  0.05314710  1
  Zr  Zr22  1  0.44853002  0.45383956  0.71669706  1
  Zr  Zr23  1  0.07184543  0.56524490  0.67294693  1
  Zr  Zr24  1  0.30492066  0.56365898  0.82349703  1
  Zr  Zr25  1  0.17827437  0.15755416  0.28587411  1
  Zr  Zr26  1  0.67269135  0.18635440  0.77731417  1
  Zr  Zr27  1  0.22655032  0.84061993  0.48528404  1
  Zr  Zr28  1  0.63514835  1.00860500  0.88774968  1
  Zr  Zr29  1  0.10104951  0.18139079  0.47806972  1
  Zr  Zr30  1  0.91487515  0.26655831  0.47907639  1
  Zr  Zr31  1  0.14151231  0.12918732  0.69595913  1
  Zr  Zr32  1  0.84783786  0.29914972  0.68126751  1
  Zr  Zr33  1  0.90954124  0.66321696  0.31218566  1
  Zr  Zr34  1  0.69940530  0.70411170  0.88574543  1
  Zr  Zr35  1  0.26392501  0.29383564  0.77599109  1
  Zr  Zr36  1  0.26523993  0.69522151  0.66151562  1
  Zr  Zr37  1  0.01232708  0.82888402  0.44294974  1
  Zr  Zr38  1  0.39760804  0.70151111  0.13880287  1
  Zr  Zr39  1  0.79078493  0.33960259  0.89118256  1
  Zr  Zr40  1  0.88982664  0.88034931  0.60507036  1
  Zr  Zr41  1  0.19922880  0.92743134  0.73637727  1
  Zr  Zr42  1  0.29570492  0.25766553  0.57991087  1
  Zr  Zr43  1  0.10763625  0.97422395  0.33109575  1
  Zr  Zr44  1  0.55809806  0.22910254  0.32473139  1
  Zr  Zr45  1  0.92617782  0.82147523  0.17329574  1
  Zr  Zr46  1  0.05479706  0.34260543  0.29456861  1
  Zr  Zr47  1  0.72464525  0.84263696  0.02117049  1
  Zr  Zr48  1  0.88711462  0.45315890  0.34969949  1
  Zr  Zr49  1  0.92387948  0.20292056  0.28178892  1
  Sc  Sc50  1  0.43913827  0.30011095  0.10088579  1
  Sc  Sc51  1  0.12895401  0.45781517  0.85315817  1
  Sc  Sc52  1  0.50008511  0.56585300  0.92682231  1
  Sc  Sc53  1  0.84456691  0.09806932  0.85144153  1
  Sc  Sc54  1  0.43333905  0.91498596  0.43859531  1
  Sc  Sc55  1  0.92475630  0.03789652  0.43688094  1
  Sc  Sc56  1  0.00067572  0.28640136  0.87294874  1
  Sc  Sc57  1  0.70752115  0.72976582  0.24789786  1
  Sc  Sc58  1  0.71546428  0.36485379  0.49519812  1
  Sc  Sc59  1  0.53314117  0.93930863  0.05222986  1
  Sc  Sc60  1  0.49332473  0.34311701  0.53120266  1
  Sc  Sc61  1  0.92681149  0.10080938  0.64955812  1
  Sc  Sc62  1  0.89376501  0.68074216  0.75257115  1
  Sc  Sc63  1  0.32605048  0.90430191  0.02684481  1
  Sc  Sc64  1  0.69344303  0.95922516  0.53897558  1
  Sc  Sc65  1  0.32108815  0.11617170  0.10891011  1
  Sc  Sc66  1  0.73519516  0.14638400  0.42752615  1
  Sc  Sc67  1  0.10523039  0.53384740  0.32069837  1
  Sc  Sc68  1  0.92168427  0.66512060  0.53214170  1
  Sc  Sc69  1  0.26367291  0.07948753  0.89385050  1
  Sc  Sc70  1  0.22536925  0.27906768  0.97936582  1
  Sc  Sc71  1  0.81052823  0.85228207  0.39073336  1
  Sc  Sc72  1  0.24531442  0.34729215  0.19045668  1
  Sc  Sc73  1  0.26253236  0.69534200  0.98259568  1
  Sc  Sc74  1  0.64465465  0.36975698  0.69116219  1
  Sc  Sc75  1  0.78319577  0.88984667  0.79128844  1
  Sc  Sc76  1  0.56778739  0.57972780  0.55694333  1
  Sc  Sc77  1  0.50759021  0.84874075  0.24223718  1
  Sc  Sc78  1  0.39233774  0.09284703  0.31123414  1
  Sc  Sc79  1  0.47207926  0.23939872  0.73222465  1
  Sc  Sc80  1  0.06674137  0.22780878  0.10894806  1
  Sc  Sc81  1  0.08867829  0.44224057  0.06979442  1
  Sc  Sc82  1  0.12048062  0.02784231  0.10178788  1
  Sc  Sc83  1  0.16431205  0.63311019  0.49086637  1
  Sc  Sc84  1  0.72027455  0.73238341  0.62980801  1
  Sc  Sc85  1  0.34460692  0.30004112  0.37078434  1
  Sc  Sc86  1  0.29544678  0.90428274  0.26093153  1
  Sc  Sc87  1  0.70241740  0.50265807  0.00903975  1
  Sc  Sc88  1  0.47994801  0.67201128  0.73151762  1
  Sc  Sc89  1  0.72656903  0.59020724  0.41633714  1
  Sc  Sc90  1  0.51124101  0.50463570  0.13582693  1
  Sc  Sc91  1  0.10645774  0.69785313  0.83186525  1
  Sc  Sc92  1  0.36137154  0.51643074  0.47805295  1
  Sc  Sc93  1  0.91841593  0.53553172  0.94217002  1
  Sc  Sc94  1  0.55063368  0.43723780  0.34038085  1
  Sc  Sc95  1  0.48654569  0.12288545  0.51318201  1
  Sc  Sc96  1  0.16999070  0.39568303  0.47272093  1
  Sc  Sc97  1  0.51533530  0.63954864  0.32075994  1
  Sc  Sc98  1  0.68457466  0.52902705  0.79518674  1
  Sc  Sc99  1  0.64568582  0.32886766  0.12045466  1
  Nb  Nb100  1  0.07078713  0.78362193  0.64111115  1
  Nb  Nb101  1  0.30872712  0.69764774  0.33357600  1
  Nb  Nb102  1  0.60050536  0.68660990  0.08815620  1
  Nb  Nb103  1  0.61131035  0.79519945  0.42098536  1
  Nb  Nb104  1  0.94504928  0.53510775  0.17394798  1
  Nb  Nb105  1  0.91818004  0.45883840  0.75697402  1
  Nb  Nb106  1  0.39782394  0.37356583  0.89919394  1
  Nb  Nb107  1  0.58310898  0.35259257  0.89874589  1
  Nb  Nb108  1  0.40784244  0.71801116  0.50299733  1
  Nb  Nb109  1  0.67569977  0.19108147  0.98648437  1
  Nb  Nb110  1  0.42863552  0.96535467  0.84780087  1
  Nb  Nb111  1  0.34568985  0.50817485  0.26992919  1
  Nb  Nb112  1  0.33356890  0.79461216  0.82838596  1
  Nb  Nb113  1  0.99342774  0.92102039  0.77583078  1
  Nb  Nb114  1  0.49046656  0.77427056  0.94735801  1
  Nb  Nb115  1  0.72432434  0.52549831  0.21294723  1
  Nb  Nb116  1  0.91899096  0.77710590  0.92868941  1
  Nb  Nb117  1  0.73733481  0.14917881  0.20967242  1
  Nb  Nb118  1  0.54673476  0.82056985  0.59249413  1
  Nb  Nb119  1  0.59356631  0.01572290  0.35245531  1
  Nb  Nb120  1  0.34660055  0.08819420  0.69860111  1
  Nb  Nb121  1  0.57126871  0.84238960  0.78582547  1
  Nb  Nb122  1  0.74647627  0.03084639  0.05453714  1
  Nb  Nb123  1  0.08188646  -0.02265405  0.56967011  1
  Nb  Nb124  1  0.24769385  0.46486110  0.65382976  1
