# generated using pymatgen
data_Zr2Sc2Nb
_symmetry_space_group_name_H-M   'P 1'
_cell_length_a   14.39804480
_cell_length_b   14.29989462
_cell_length_c   13.96225674
_cell_angle_alpha   91.66082379
_cell_angle_beta   89.37737685
_cell_angle_gamma   87.14512118
_symmetry_Int_Tables_number   1
_chemical_formula_structural   Zr2Sc2Nb
_chemical_formula_sum   'Zr50 Sc50 Nb25'
_cell_volume   2869.70421707
_cell_formula_units_Z   25
loop_
 _symmetry_equiv_pos_site_id
 _symmetry_equiv_pos_as_xyz
  1  'x, y, z'
loop_
 _atom_site_type_symbol
 _atom_site_label
 _atom_site_symmetry_multiplicity
 _atom_site_fract_x
 _atom_site_fract_y
 _atom_site_fract_z
 _atom_site_occupancy
  Zr  Zr0  1  0.64262451  0.77115545  0.45645304  1
  Zr  Zr1  1  0.69652326  0.91371312  0.68054913  1
  Zr  Zr2  1  0.15655609  0.74340217  0.07899860  1
  Zr  Zr3  1  0.87907310  0.69184056  0.92658267  1
  Zr  Zr4  1  0.11273473  0.44389635  0.80929838  1
  Zr  Zr5  1  0.88275085  0.22743402  0.12594110  1
  Zr  Zr6  1  0.34720675  0.45141224  0.08929472  1
  Zr  Zr7  1  0.83083672  0.90252573  0.88552569  1
  Zr  Zr8  1  0.33558288  0.00555661  0.38062072  1
  Zr  Zr9  1  0.56844013  0.15493704  0.80254291  1
  Zr  Zr10  1  0.44898401  0.70588496  0.12553361  1
  Zr  Zr11  1  0.26962837  0.63040013  0.21483619  1
  Zr  Zr12  1  0.39411595  0.28355128  0.67587747  1
  Zr  Zr13  1  0.66295772  0.47032801  0.63349553  1
  Zr  Zr14  1  0.65340503  0.65818117  0.00701804  1
  Zr  Zr15  1  0.74420236  0.52493791  0.83403468  1
  Zr  Zr16  1  0.07331932  0.23509045  0.84281757  1
  Zr  Zr17  1  0.15449198  0.14080066  0.43682489  1
  Zr  Zr18  1  0.94163451  0.80038399  0.13052733  1
  Zr  Zr19  1  0.06750679  0.79007026  0.49511053  1
  Zr  Zr20  1  0.50533661  0.53872557  0.97963338  1
  Zr  Zr21  1  0.96121035  0.06823413  0.88524838  1
  Zr  Zr22  1  0.12593446  0.64527027  0.64623843  1
  Zr  Zr23  1  0.93192827  0.49019764  0.93850055  1
  Zr  Zr24  1  0.76090796  0.08982694  0.82870535  1
  Zr  Zr25  1  0.46373154  0.48240058  0.63620265  1
  Zr  Zr26  1  0.89998125  0.77779074  0.71497854  1
  Zr  Zr27  1  0.82224599  0.62378915  0.13279223  1
  Zr  Zr28  1  0.41059423  0.03811213  0.18199920  1
  Zr  Zr29  1  0.73542235  0.29652637  0.76782148  1
  Zr  Zr30  1  0.06012855  0.70992270  0.28588192  1
  Zr  Zr31  1  0.44070874  0.36047914  0.47506501  1
  Zr  Zr32  1  0.04573551  0.36489930  0.05262438  1
  Zr  Zr33  1  0.93393640  0.37180519  0.72249539  1
  Zr  Zr34  1  0.49723988  0.13560701  0.43672654  1
  Zr  Zr35  1  0.91903014  0.91709514  0.31638060  1
  Zr  Zr36  1  0.83186898  0.71462883  0.32966468  1
  Zr  Zr37  1  1.00129439  0.24793026  0.52633564  1
  Zr  Zr38  1  0.09508855  0.64798853  0.87271100  1
  Zr  Zr39  1  0.22760400  0.31235591  0.96450302  1
  Zr  Zr40  1  0.14916616  0.57041043  0.42484054  1
  Zr  Zr41  1  0.58893153  0.11565805  0.22230259  1
  Zr  Zr42  1  0.71778309  0.68159952  0.63217157  1
  Zr  Zr43  1  0.84925695  0.32316317  0.35429573  1
  Zr  Zr44  1  0.57380031  0.56504366  0.44087110  1
  Zr  Zr45  1  0.11065388  0.09033453  0.67037081  1
  Zr  Zr46  1  0.88276987  0.28112764  0.92048310  1
  Zr  Zr47  1  0.02326064  0.45214499  0.54001463  1
  Zr  Zr48  1  0.78895616  0.09566216  0.26684374  1
  Zr  Zr49  1  0.34281703  0.63647712  0.73566375  1
  Sc  Sc50  1  0.21092272  0.94096167  0.52044719  1
  Sc  Sc51  1  0.54060621  0.34590731  0.07388189  1
  Sc  Sc52  1  0.04770802  0.33654894  0.31914876  1
  Sc  Sc53  1  0.42416760  0.26118966  0.92129428  1
  Sc  Sc54  1  0.21414715  0.34839195  0.46443387  1
  Sc  Sc55  1  0.42593616  1.00024033  0.86482747  1
  Sc  Sc56  1  0.24636778  0.46679603  0.63393812  1
  Sc  Sc57  1  0.48824314  0.77130688  0.91704086  1
  Sc  Sc58  1  0.91917000  0.00080809  0.09753361  1
  Sc  Sc59  1  0.29337241  0.10982148  1.01421710  1
  Sc  Sc60  1  0.79374874  0.30893570  0.56106725  1
  Sc  Sc61  1  0.01352053  0.99830930  0.50121461  1
  Sc  Sc62  1  0.24996713  0.80325464  0.83237348  1
  Sc  Sc63  1  0.85024972  0.11047613  0.47409010  1
  Sc  Sc64  1  0.03258030  0.85150098  0.92816005  1
  Sc  Sc65  1  0.32261475  0.88878193  0.02270237  1
  Sc  Sc66  1  0.07787651  0.14935469  0.05335261  1
  Sc  Sc67  1  0.12711486  0.91935944  0.31686936  1
  Sc  Sc68  1  0.44215078  0.70993651  0.35467619  1
  Sc  Sc69  1  0.55637080  0.89475011  0.08680501  1
  Sc  Sc70  1  0.30953199  0.96157126  0.69308523  1
  Sc  Sc71  1  0.33346933  0.44869512  0.30855347  1
  Sc  Sc72  1  0.72998742  0.44440039  0.04095879  1
  Sc  Sc73  1  0.55584339  0.39072891  0.82156544  1
  Sc  Sc74  1  0.53061085  0.90384409  0.30632861  1
  Sc  Sc75  1  0.50578724  0.83628491  0.71741061  1
  Sc  Sc76  1  0.33375758  0.21648088  0.34046988  1
  Sc  Sc77  1  0.89579102  0.98579379  0.67874724  1
  Sc  Sc78  1  0.68810202  0.22831731  0.98673163  1
  Sc  Sc79  1  0.20999548  0.09094199  0.21759227  1
  Sc  Sc80  1  0.55851897  0.61872328  0.77706667  1
  Sc  Sc81  1  0.67365600  0.99031579  0.44293167  1
  Sc  Sc82  1  0.28071012  0.16362689  0.78818915  1
  Sc  Sc83  1  0.49962687  0.05831566  0.63232182  1
  Sc  Sc84  1  0.92485080  0.57669634  0.72414364  1
  Sc  Sc85  1  0.52963314  0.51407555  0.22255772  1
  Sc  Sc86  1  0.16774515  0.00628450  0.88435597  1
  Sc  Sc87  1  1.00117330  0.11893280  0.28303622  1
  Sc  Sc88  1  0.93645249  0.65147839  0.51651715  1
  Sc  Sc89  1  0.33441719  0.45175278  0.84556853  1
  Sc  Sc90  1  0.09344196  0.86871327  0.70278705  1
  Sc  Sc91  1  0.31646954  0.64561874  0.96632466  1
  Sc  Sc92  1  0.43666219  0.87673113  0.51024682  1
  Sc  Sc93  1  0.83669461  0.85263125  0.50733860  1
  Sc  Sc94  1  0.30480275  0.84911960  0.22601349  1
  Sc  Sc95  1  0.70250588  0.30757261  0.21274484  1
  Sc  Sc96  1  0.20940148  0.30695958  0.18275684  1
  Sc  Sc97  1  0.63732549  0.70866589  0.23357386  1
  Sc  Sc98  1  0.72172356  0.03135944  0.05501394  1
  Sc  Sc99  1  0.79733866  0.51778855  0.47689005  1
  Nb  Nb100  1  0.28452120  0.76148782  0.59882124  1
  Nb  Nb101  1  0.58517753  0.27428711  0.60332416  1
  Nb  Nb102  1  0.91236253  0.18061057  0.70033805  1
  Nb  Nb103  1  0.39665600  0.23723403  0.13950441  1
  Nb  Nb104  1  0.70763946  0.12202445  0.62569548  1
  Nb  Nb105  1  0.49011841  0.68249101  0.58097095  1
  Nb  Nb106  1  0.17146244  0.51573040  1.01449249  1
  Nb  Nb107  1  0.75031699  0.82052346  0.04933270  1
  Nb  Nb108  1  0.73775895  0.89405038  0.23855412  1
  Nb  Nb109  1  0.52362821  0.10485895  0.01687814  1
  Nb  Nb110  1  0.73737670  0.51034769  0.27706277  1
  Nb  Nb111  1  0.62429832  0.94043025  0.88605741  1
  Nb  Nb112  1  0.15190150  0.28498477  0.65561447  1
  Nb  Nb113  1  0.64264650  0.38685098  0.41898200  1
  Nb  Nb114  1  0.51198018  0.30426057  0.28871853  1
  Nb  Nb115  1  0.70195488  0.75680972  0.83129694  1
  Nb  Nb116  1  0.67207922  0.20428536  0.41347493  1
  Nb  Nb117  1  0.30533959  0.14432539  0.56006303  1
  Nb  Nb118  1  0.94890666  0.53683931  0.32091107  1
  Nb  Nb119  1  0.12402151  0.49834548  0.21612205  1
  Nb  Nb120  1  0.12163815  0.94341902  0.10327006  1
  Nb  Nb121  1  0.34343124  0.58391826  0.49311385  1
  Nb  Nb122  1  0.24839539  0.75315407  0.40631703  1
  Nb  Nb123  1  0.90042297  0.43028800  0.17012836  1
  Nb  Nb124  1  0.01320464  0.59868144  0.09681096  1
