# generated using pymatgen
data_Zr2Sc2Nb
_symmetry_space_group_name_H-M   'P 1'
_cell_length_a   14.64308965
_cell_length_b   13.85199104
_cell_length_c   14.15806389
_cell_angle_alpha   91.03620365
_cell_angle_beta   89.43873881
_cell_angle_gamma   90.87262995
_symmetry_Int_Tables_number   1
_chemical_formula_structural   Zr2Sc2Nb
_chemical_formula_sum   'Zr50 Sc50 Nb25'
_cell_volume   2870.83147768
_cell_formula_units_Z   25
loop_
 _symmetry_equiv_pos_site_id
 _symmetry_equiv_pos_as_xyz
  1  'x, y, z'
loop_
 _atom_site_type_symbol
 _atom_site_label
 _atom_site_symmetry_multiplicity
 _atom_site_fract_x
 _atom_site_fract_y
 _atom_site_fract_z
 _atom_site_occupancy
  Zr  Zr0  1  0.76231790  0.09230110  0.58602919  1
  Zr  Zr1  1  0.81265104  0.47314851  0.37744904  1
  Zr  Zr2  1  0.30410373  0.57371198  0.93621381  1
  Zr  Zr3  1  0.37095404  0.92993195  0.86765270  1
  Zr  Zr4  1  0.46307728  0.12404886  0.34281224  1
  Zr  Zr5  1  0.83976980  0.85477068  0.45672378  1
  Zr  Zr6  1  0.52841015  0.62590537  0.01797869  1
  Zr  Zr7  1  0.55195167  0.45843736  0.13781033  1
  Zr  Zr8  1  0.27013297  0.94753156  0.69689820  1
  Zr  Zr9  1  0.83687893  0.07447255  0.78680925  1
  Zr  Zr10  1  0.67445975  0.71885136  0.87254200  1
  Zr  Zr11  1  0.72695501  0.14443178  0.97656227  1
  Zr  Zr12  1  0.74415521  0.07409350  0.38060388  1
  Zr  Zr13  1  0.71614713  0.89960206  0.68164276  1
  Zr  Zr14  1  0.02123719  0.75508361  0.91680100  1
  Zr  Zr15  1  0.35450146  0.05225634  0.52291240  1
  Zr  Zr16  1  0.42467104  0.32645305  0.73865261  1
  Zr  Zr17  1  0.57099964  0.29983680  0.90669941  1
  Zr  Zr18  1  0.76266143  0.44965573  0.56952531  1
  Zr  Zr19  1  0.06552064  0.31212929  0.74856527  1
  Zr  Zr20  1  0.15861919  0.68310059  0.07808769  1
  Zr  Zr21  1  0.83574516  0.82926373  0.01581426  1
  Zr  Zr22  1  0.23229202  0.74312514  0.85012802  1
  Zr  Zr23  1  0.08523967  0.55433266  0.89208653  1
  Zr  Zr24  1  0.64986790  0.58358976  0.27479745  1
  Zr  Zr25  1  0.86447380  0.04886094  0.07845323  1
  Zr  Zr26  1  0.31204358  0.04728183  0.03727432  1
  Zr  Zr27  1  0.79767502  0.48969078  0.15291273  1
  Zr  Zr28  1  0.99186804  0.69513979  0.70761828  1
  Zr  Zr29  1  0.28733315  0.16010675  0.22580877  1
  Zr  Zr30  1  0.64469126  0.87976830  0.49511433  1
  Zr  Zr31  1  0.91007705  0.13698421  0.26411725  1
  Zr  Zr32  1  0.64027617  0.12971831  0.17991195  1
  Zr  Zr33  1  0.31644826  0.58078918  0.51053689  1
  Zr  Zr34  1  0.71119109  0.94308931  0.90647789  1
  Zr  Zr35  1  0.06992171  0.25272589  0.54095830  1
  Zr  Zr36  1  0.54218200  0.89272838  0.77840376  1
  Zr  Zr37  1  0.93961792  0.64418203  0.08609214  1
  Zr  Zr38  1  0.25103899  0.25512022  0.05093315  1
  Zr  Zr39  1  0.97491506  0.98714757  0.91367420  1
  Zr  Zr40  1  0.92240183  0.49155181  0.73501490  1
  Zr  Zr41  1  0.35148937  0.79561421  0.04072168  1
  Zr  Zr42  1  0.44831004  0.90106096  0.38499401  1
  Zr  Zr43  1  0.91395917  0.63609049  0.51064338  1
  Zr  Zr44  1  0.20781892  0.45905337  0.08418148  1
  Zr  Zr45  1  0.41060575  0.40222947  -0.01244262  1
  Zr  Zr46  1  0.02350559  0.10564667  0.70882270  1
  Zr  Zr47  1  0.98731716  0.32699869  0.33304785  1
  Zr  Zr48  1  0.15996270  0.12864668  0.87501252  1
  Zr  Zr49  1  0.51396683  0.76732833  0.20265180  1
  Sc  Sc50  1  0.13907672  0.03250557  0.54226673  1
  Sc  Sc51  1  0.31066735  0.74611561  0.30161103  1
  Sc  Sc52  1  0.37581795  0.18535955  0.88928346  1
  Sc  Sc53  1  0.63120347  0.10784679  0.76750379  1
  Sc  Sc54  1  0.12470061  0.50226715  0.66122183  1
  Sc  Sc55  1  0.87354545  0.27596618  0.66776593  1
  Sc  Sc56  1  0.44748882  0.55719409  0.31817059  1
  Sc  Sc57  1  0.21877522  0.89471816  0.17339249  1
  Sc  Sc58  1  0.25747664  0.21799420  0.44227743  1
  Sc  Sc59  1  0.43955359  0.09607626  0.70594829  1
  Sc  Sc60  1  0.49823853  0.70375966  0.46561982  1
  Sc  Sc61  1  0.44602665  0.71356330  0.85256784  1
  Sc  Sc62  1  0.57770452  0.68931333  0.66789607  1
  Sc  Sc63  1  0.79185029  0.68949151  0.67576923  1
  Sc  Sc64  1  0.02793057  0.95073917  0.31941256  1
  Sc  Sc65  1  0.77531134  0.30847433  0.85775195  1
  Sc  Sc66  1  0.48863374  0.47932532  0.58882982  1
  Sc  Sc67  1  0.36364073  0.59944731  0.13674714  1
  Sc  Sc68  1  0.12163466  0.62631016  0.47873684  1
  Sc  Sc69  1  0.62957402  0.30797932  0.67817921  1
  Sc  Sc70  1  0.01021250  0.86040991  0.11677951  1
  Sc  Sc71  1  0.94436916  0.07044888  0.48029566  1
  Sc  Sc72  1  0.32968084  0.54891468  0.72474676  1
  Sc  Sc73  1  0.85494444  0.69023428  0.29088838  1
  Sc  Sc74  1  0.08524037  0.73877330  0.28502410  1
  Sc  Sc75  1  0.04976352  0.82764384  0.51126297  1
  Sc  Sc76  1  0.74849453  0.29950991  0.27603170  1
  Sc  Sc77  1  0.52267485  0.50863712  0.82605139  1
  Sc  Sc78  1  1.01647663  0.45371648  0.14149259  1
  Sc  Sc79  1  0.71832229  0.50497256  0.77391229  1
  Sc  Sc80  1  0.89970585  0.44560800  0.95294388  1
  Sc  Sc81  1  0.53202288  0.05876594  0.97252092  1
  Sc  Sc82  1  0.53305951  0.31384123  0.28729681  1
  Sc  Sc83  1  0.45150558  0.98021559  0.16612594  1
  Sc  Sc84  1  0.70758516  0.69721003  0.10279239  1
  Sc  Sc85  1  0.70460582  0.64983127  0.47771984  1
  Sc  Sc86  1  0.45396339  0.25858203  0.53172462  1
  Sc  Sc87  1  0.16952458  0.91111278  0.95723476  1
  Sc  Sc88  1  0.86983196  0.27990894  0.09246950  1
  Sc  Sc89  1  0.24869708  0.36684418  0.83325437  1
  Sc  Sc90  1  0.07881372  0.89616996  0.74853886  1
  Sc  Sc91  1  0.82349540  0.91324950  0.24355568  1
  Sc  Sc92  1  0.27732298  0.82622418  0.50091883  1
  Sc  Sc93  1  0.24396073  0.98995138  0.35512557  1
  Sc  Sc94  1  0.09544928  0.06269992  0.10442088  1
  Sc  Sc95  1  0.18705020  0.71803453  0.65631447  1
  Sc  Sc96  1  0.08142848  0.33836350  0.95741558  1
  Sc  Sc97  1  0.65482277  0.26076428  0.46798830  1
  Sc  Sc98  1  0.22537948  0.54576525  0.29462074  1
  Sc  Sc99  1  0.00788750  0.53895828  0.32926830  1
  Nb  Nb100  1  0.47052177  0.90085955  0.59575760  1
  Nb  Nb101  1  0.06306488  0.24845584  0.14293134  1
  Nb  Nb102  1  0.54278013  0.84161864  0.99577652  1
  Nb  Nb103  1  0.24396888  0.18410087  0.68162164  1
  Nb  Nb104  1  0.09977974  0.15285116  0.33258992  1
  Nb  Nb105  1  0.59704506  0.45812664  0.42214979  1
  Nb  Nb106  1  0.36073438  0.39601485  0.40465579  1
  Nb  Nb107  1  0.46626072  0.22466073  0.09939178  1
  Nb  Nb108  1  0.67038901  0.78906440  0.31381668  1
  Nb  Nb109  1  0.15766332  0.41719748  0.45183391  1
  Nb  Nb110  1  0.18425789  0.33879935  0.26896629  1
  Nb  Nb111  1  0.86551703  0.83855898  0.81052756  1
  Nb  Nb112  1  0.85305622  0.63774820  0.89108507  1
  Nb  Nb113  1  0.66991063  0.31872268  0.07605702  1
  Nb  Nb114  1  0.66543452  0.92526842  0.11635276  1
  Nb  Nb115  1  0.85603121  0.26228954  0.46119260  1
  Nb  Nb116  1  0.69300772  0.50063298  0.97678197  1
  Nb  Nb117  1  0.38009177  0.75631922  0.67204658  1
  Nb  Nb118  1  0.95049969  0.19421673  0.91622804  1
  Nb  Nb119  1  0.91060262  -0.07884322  0.63808300  1
  Nb  Nb120  1  0.36150947  0.37900985  0.20006070  1
  Nb  Nb121  1  0.96945388  0.43649145  0.52966031  1
  Nb  Nb122  1  0.27456139  0.36621510  0.60282202  1
  Nb  Nb123  1  0.60556444  0.96772189  0.30616355  1
  Nb  Nb124  1  0.56674088  0.06647045  0.52102708  1
