# generated using pymatgen
data_Zr2Sc2Nb
_symmetry_space_group_name_H-M   'P 1'
_cell_length_a   14.07745758
_cell_length_b   14.35732239
_cell_length_c   14.22127757
_cell_angle_alpha   88.15433645
_cell_angle_beta   90.81075355
_cell_angle_gamma   91.51094439
_symmetry_Int_Tables_number   1
_chemical_formula_structural   Zr2Sc2Nb
_chemical_formula_sum   'Zr50 Sc50 Nb25'
_cell_volume   2871.58326679
_cell_formula_units_Z   25
loop_
 _symmetry_equiv_pos_site_id
 _symmetry_equiv_pos_as_xyz
  1  'x, y, z'
loop_
 _atom_site_type_symbol
 _atom_site_label
 _atom_site_symmetry_multiplicity
 _atom_site_fract_x
 _atom_site_fract_y
 _atom_site_fract_z
 _atom_site_occupancy
  Zr  Zr0  1  0.13593958  0.63232827  0.26425888  1
  Zr  Zr1  1  0.10191260  0.95271222  0.04992402  1
  Zr  Zr2  1  0.65894984  0.51856109  0.33485581  1
  Zr  Zr3  1  0.55858054  0.25725213  0.09921494  1
  Zr  Zr4  1  0.58097497  0.29132470  0.33979838  1
  Zr  Zr5  1  0.05275637  0.95631973  0.58759301  1
  Zr  Zr6  1  0.92918908  0.29826625  0.39538960  1
  Zr  Zr7  1  0.35503468  0.47843973  0.56586415  1
  Zr  Zr8  1  0.43742072  0.07862210  0.17315932  1
  Zr  Zr9  1  0.16121121  0.71847600  0.06151930  1
  Zr  Zr10  1  0.56396278  0.43605192  0.51943146  1
  Zr  Zr11  1  0.87359616  0.43723958  0.64081427  1
  Zr  Zr12  1  0.82191348  0.91938735  0.33788774  1
  Zr  Zr13  1  0.96117364  0.32272487  0.17182060  1
  Zr  Zr14  1  0.98767130  0.62191750  0.63774492  1
  Zr  Zr15  1  -0.09378001  0.22914591  0.59208058  1
  Zr  Zr16  1  0.58301021  0.71025078  0.05586620  1
  Zr  Zr17  1  0.32487780  0.67101567  0.78482875  1
  Zr  Zr18  1  0.80691828  0.22597935  0.03121739  1
  Zr  Zr19  1  0.99866261  0.30367255  0.95265474  1
  Zr  Zr20  1  0.79187014  0.76477867  0.03736892  1
  Zr  Zr21  1  0.49600703  0.63628365  0.46408077  1
  Zr  Zr22  1  0.46959324  0.32720927  0.90092901  1
  Zr  Zr23  1  0.01030439  0.48965131  0.82777813  1
  Zr  Zr24  1  0.71791038  0.11765253  0.65559416  1
  Zr  Zr25  1  0.60417446  0.48100268  0.76039402  1
  Zr  Zr26  1  0.29550807  0.56017226  0.38017882  1
  Zr  Zr27  1  0.45012095  0.92461151  0.84317612  1
  Zr  Zr28  1  0.78058799  0.70181897  0.27283589  1
  Zr  Zr29  1  0.49857993  0.90700540  0.05740239  1
  Zr  Zr30  1  0.21927528  0.35462038  0.43582066  1
  Zr  Zr31  1  0.34928404  0.40341696  0.04981284  1
  Zr  Zr32  1  0.89865326  0.64188916  0.90324032  1
  Zr  Zr33  1  0.07791247  0.94455177  0.82302905  1
  Zr  Zr34  1  0.54357335  0.73236186  0.83168013  1
  Zr  Zr35  1  0.95486581  0.09017557  0.92063431  1
  Zr  Zr36  1  0.69347798  0.59273356  0.91563554  1
  Zr  Zr37  1  1.09229412  0.13494991  0.72537698  1
  Zr  Zr38  1  0.47746108  0.54530924  0.93483658  1
  Zr  Zr39  1  0.29252061  0.95818250  0.32377593  1
  Zr  Zr40  1  0.17990217  0.52200653  0.69725148  1
  Zr  Zr41  1  0.27387908  -0.00626328  0.74095774  1
  Zr  Zr42  1  0.51428796  0.10059422  0.95247950  1
  Zr  Zr43  1  0.87210179  0.45863304  0.03595779  1
  Zr  Zr44  1  0.33118833  0.17670447  0.81542793  1
  Zr  Zr45  1  0.89087277  0.05435232  0.47940808  1
  Zr  Zr46  1  0.26453605  0.15615387  0.37080362  1
  Zr  Zr47  1  0.72417568  0.56641763  0.12627281  1
  Zr  Zr48  1  0.32834296  0.75020598  0.32106177  1
  Zr  Zr49  1  0.89119566  1.01616411  0.70095794  1
  Sc  Sc50  1  0.74291596  0.33615003  0.21338041  1
  Sc  Sc51  1  0.15682430  0.13842319  0.93875869  1
  Sc  Sc52  1  0.46105376  0.07918915  0.40561787  1
  Sc  Sc53  1  0.23493644  0.31419104  0.65578098  1
  Sc  Sc54  1  0.86206713  0.22521851  0.79433422  1
  Sc  Sc55  1  0.65025627  0.06261662  0.30784612  1
  Sc  Sc56  1  0.44683774  0.84994516  0.46884122  1
  Sc  Sc57  1  0.84805242  -0.00995740  0.07868009  1
  Sc  Sc58  1  0.09730265  0.48998885  0.09252399  1
  Sc  Sc59  1  0.10465876  0.68442872  0.84382837  1
  Sc  Sc60  1  0.52589055  0.12646494  0.74786820  1
  Sc  Sc61  1  0.96482214  0.72542465  0.38840266  1
  Sc  Sc62  1  0.21038382  0.34500358  0.87485659  1
  Sc  Sc63  1  0.86061388  0.13514880  0.26073976  1
  Sc  Sc64  1  0.67711797  0.97792046  0.50859475  1
  Sc  Sc65  1  0.21788582  0.09060365  0.16490159  1
  Sc  Sc66  1  0.27256998  0.96986206  0.53085033  1
  Sc  Sc67  1  0.69633029  0.32080136  0.64657602  1
  Sc  Sc68  1  0.53058168  0.46948549  0.14911093  1
  Sc  Sc69  1  0.33862410  0.59462032  0.15716832  1
  Sc  Sc70  1  0.06329316  0.44933244  0.33048746  1
  Sc  Sc71  1  0.61904550  0.76573223  0.62045073  1
  Sc  Sc72  1  0.94822575  0.79572447  0.73911347  1
  Sc  Sc73  1  0.34698023  0.15352295  0.58848743  1
  Sc  Sc74  1  0.83756749  0.80797241  0.55614001  1
  Sc  Sc75  1  0.50103631  0.89482990  0.26860755  1
  Sc  Sc76  1  0.17337266  0.79561017  0.67500709  1
  Sc  Sc77  1  0.85385887  0.91188234  0.88074283  1
  Sc  Sc78  1  0.05627715  0.02255943  0.32835523  1
  Sc  Sc79  1  0.37811334  0.73447300  0.98443341  1
  Sc  Sc80  1  0.80576445  0.42214200  0.84247477  1
  Sc  Sc81  1  0.13219286  0.83682844  0.24431433  1
  Sc  Sc82  1  0.30352994  0.87487394  0.12809383  1
  Sc  Sc83  1  0.95645956  0.64741660  0.13025275  1
  Sc  Sc84  1  0.65887112  0.06211174  0.09869980  1
  Sc  Sc85  1  0.38117205  0.27619322  0.23349890  1
  Sc  Sc86  1  0.16941576  0.28713925  0.09723257  1
  Sc  Sc87  1  0.09901284  0.17300526  0.51006358  1
  Sc  Sc88  1  0.93869970  0.84509975  0.18717388  1
  Sc  Sc89  1  0.16501326  0.80180485  0.45466144  1
  Sc  Sc90  1  0.65059880  0.93568588  0.74144292  1
  Sc  Sc91  1  0.53253440  0.67462173  0.25444712  1
  Sc  Sc92  1  0.72055437  0.59806789  0.52719478  1
  Sc  Sc93  1  0.23898224  0.54943551  0.93800066  1
  Sc  Sc94  1  0.65738661  0.25732918  0.86068034  1
  Sc  Sc95  1  0.40503625  0.82344006  0.66955231  1
  Sc  Sc96  1  0.87073810  0.50057823  0.27118330  1
  Sc  Sc97  1  0.12558562  0.58708060  0.48918791  1
  Sc  Sc98  1  0.46654429  0.32029013  0.67683304  1
  Sc  Sc99  1  0.65391458  0.79394601  0.40040991  1
  Nb  Nb100  1  0.24373235  0.41844108  0.24099245  1
  Nb  Nb101  1  0.03930014  0.32683297  0.73587316  1
  Nb  Nb102  1  0.44588882  0.45871477  0.33584582  1
  Nb  Nb103  1  0.68807740  0.86304719  0.17978461  1
  Nb  Nb104  1  0.91056646  0.52896526  0.46320222  1
  Nb  Nb105  1  0.05099604  0.39983647  0.55149223  1
  Nb  Nb106  1  0.01194529  0.13583718  0.11681170  1
  Nb  Nb107  1  0.65677194  0.89474369  0.95215688  1
  Nb  Nb108  1  0.76040776  0.38731360  0.45209146  1
  Nb  Nb109  1  0.10087268  0.23693125  0.28841249  1
  Nb  Nb110  1  0.79727025  0.61108383  0.71891415  1
  Nb  Nb111  1  0.23125262  0.84453525  0.89817484  1
  Nb  Nb112  1  0.36788574  0.46598087  0.78215286  1
  Nb  Nb113  1  0.40988423  0.30140099  0.45408808  1
  Nb  Nb114  1  0.35055730  0.20199199  0.02469227  1
  Nb  Nb115  1  0.48078487  0.60591412  0.66893033  1
  Nb  Nb116  1  0.31092840  0.67984896  0.55798164  1
  Nb  Nb117  1  0.65861179  0.40726696  -0.00118795  1
  Nb  Nb118  1  0.74273731  0.19283894  0.44574404  1
  Nb  Nb119  1  0.49083527  1.00077213  0.60770166  1
  Nb  Nb120  1  0.56666261  0.19736002  0.53360105  1
  Nb  Nb121  1  0.73038540  0.07144120  0.88570269  1
  Nb  Nb122  1  0.00050926  0.80822548  0.97534713  1
  Nb  Nb123  1  0.31471054  0.01084846  0.96929249  1
  Nb  Nb124  1  0.74448976  0.76253463  0.80623397  1
