# generated using pymatgen
data_Zr2Sc2Nb
_symmetry_space_group_name_H-M   'P 1'
_cell_length_a   14.73584164
_cell_length_b   14.29043309
_cell_length_c   13.62502717
_cell_angle_alpha   89.64775338
_cell_angle_beta   93.19883214
_cell_angle_gamma   90.69115922
_symmetry_Int_Tables_number   1
_chemical_formula_structural   Zr2Sc2Nb
_chemical_formula_sum   'Zr50 Sc50 Nb25'
_cell_volume   2864.45750375
_cell_formula_units_Z   25
loop_
 _symmetry_equiv_pos_site_id
 _symmetry_equiv_pos_as_xyz
  1  'x, y, z'
loop_
 _atom_site_type_symbol
 _atom_site_label
 _atom_site_symmetry_multiplicity
 _atom_site_fract_x
 _atom_site_fract_y
 _atom_site_fract_z
 _atom_site_occupancy
  Zr  Zr0  1  0.14393596  0.98102282  0.88282014  1
  Zr  Zr1  1  0.84774512  0.55287896  0.21690426  1
  Zr  Zr2  1  0.72467744  0.01339330  0.35140245  1
  Zr  Zr3  1  0.78287627  0.62811594  0.97204397  1
  Zr  Zr4  1  0.68709009  0.59899171  0.32953279  1
  Zr  Zr5  1  0.70932890  0.68615261  0.76940269  1
  Zr  Zr6  1  0.88681913  0.60201708  0.44993371  1
  Zr  Zr7  1  0.57158198  0.11007570  0.49515473  1
  Zr  Zr8  1  0.30511049  0.04984587  0.53934317  1
  Zr  Zr9  1  0.46859650  0.44775636  0.08820321  1
  Zr  Zr10  1  0.85420295  0.87380723  0.48323041  1
  Zr  Zr11  1  0.89252467  0.75118188  0.30885899  1
  Zr  Zr12  1  0.79135536  0.10957878  0.77581466  1
  Zr  Zr13  1  0.40562762  0.10992665  0.35567919  1
  Zr  Zr14  1  0.39859827  0.65334106  1.03698321  1
  Zr  Zr15  1  0.56547997  0.49236116  0.47008542  1
  Zr  Zr16  1  0.35116555  0.46103252  0.87959237  1
  Zr  Zr17  1  0.67068844  -0.04068687  0.11175547  1
  Zr  Zr18  1  0.35016890  0.92638979  0.20798657  1
  Zr  Zr19  1  0.43077838  0.24921320  0.57156821  1
  Zr  Zr20  1  0.71868430  0.22169907  0.35616179  1
  Zr  Zr21  1  0.97742686  0.34667366  0.86001859  1
  Zr  Zr22  1  0.57665367  0.63239731  0.14962548  1
  Zr  Zr23  1  0.41156388  0.72511953  0.83047685  1
  Zr  Zr24  1  -0.01050479  0.44576928  0.36601709  1
  Zr  Zr25  1  0.88220326  0.53351659  0.79638540  1
  Zr  Zr26  1  0.17822895  0.80536481  0.31612527  1
  Zr  Zr27  1  0.04525530  0.24915190  0.67357600  1
  Zr  Zr28  1  0.85980453  0.93623056  0.21593939  1
  Zr  Zr29  1  0.06050615  0.65441829  0.72276527  1
  Zr  Zr30  1  0.12065924  0.55714677  0.53112702  1
  Zr  Zr31  1  0.60973964  0.23734398  0.73842508  1
  Zr  Zr32  1  0.56504071  0.82899153  0.71749513  1
  Zr  Zr33  1  0.20578268  0.78835104  0.77061306  1
  Zr  Zr34  1  0.36747786  0.71849731  0.23982449  1
  Zr  Zr35  1  0.88041084  0.69513901  0.63359279  1
  Zr  Zr36  1  0.28940230  0.59856623  0.68773977  1
  Zr  Zr37  1  0.14525191  0.05011552  0.69229889  1
  Zr  Zr38  1  0.95292481  0.67934589  0.09400551  1
  Zr  Zr39  1  0.49919853  0.92884277  0.89067663  1
  Zr  Zr40  1  0.51002196  0.83318125  0.11909340  1
  Zr  Zr41  1  0.21130846  1.02276222  0.34404859  1
  Zr  Zr42  1  0.44305974  0.52497081  0.29505687  1
  Zr  Zr43  1  0.81970983  0.30387878  0.70412094  1
  Zr  Zr44  1  0.37186670  0.77413255  0.60915695  1
  Zr  Zr45  1  0.99949782  0.14457262  0.85540856  1
  Zr  Zr46  1  0.54052676  0.32129428  0.94114486  1
  Zr  Zr47  1  0.78733262  0.88772911  0.68546837  1
  Zr  Zr48  1  0.32888645  0.93292172  0.74357453  1
  Zr  Zr49  1  0.89030862  0.45062936  0.01593007  1
  Sc  Sc50  1  0.05391353  0.48712570  0.15236911  1
  Sc  Sc51  1  0.51838581  0.62328174  0.64779904  1
  Sc  Sc52  1  1.01739244  0.86114331  0.67180779  1
  Sc  Sc53  1  -0.04661976  0.45448884  0.60955489  1
  Sc  Sc54  1  0.36008611  0.43238594  0.47991958  1
  Sc  Sc55  1  0.14674313  0.38966214  0.98258458  1
  Sc  Sc56  1  0.51871729  0.92769659  0.33458323  1
  Sc  Sc57  1  0.77923285  0.42417145  0.41616065  1
  Sc  Sc58  1  0.65164762  0.31038778  0.54726302  1
  Sc  Sc59  1  0.84379181  0.34080862  0.21744055  1
  Sc  Sc60  1  0.54281669  0.56419479  0.90040728  1
  Sc  Sc61  1  0.04846159  0.08323770  0.23120003  1
  Sc  Sc62  1  0.98986036  1.00827401  0.04124270  1
  Sc  Sc63  1  0.69417289  0.44525845  0.82757712  1
  Sc  Sc64  1  0.17364027  0.69381714  0.12139426  1
  Sc  Sc65  1  0.44677376  0.09355378  0.72283945  1
  Sc  Sc66  1  0.12524944  0.34214050  0.50638565  1
  Sc  Sc67  1  0.29579572  0.14135181  0.17054989  1
  Sc  Sc68  1  0.77982269  0.27647478  0.92970214  1
  Sc  Sc69  1  0.94057228  0.05725341  0.61890288  1
  Sc  Sc70  1  0.15654797  0.29113904  0.20094989  1
  Sc  Sc71  1  0.17685796  0.95623885  0.10929910  1
  Sc  Sc72  1  0.68659337  0.45926252  0.06377091  1
  Sc  Sc73  1  0.02749780  0.93059449  0.39946023  1
  Sc  Sc74  1  0.06649806  0.79869578  0.95199668  1
  Sc  Sc75  1  0.50007318  0.71900164  0.42664355  1
  Sc  Sc76  1  0.67629649  0.22114337  0.11173237  1
  Sc  Sc77  1  0.64847263  0.90428021  0.52145776  1
  Sc  Sc78  1  0.12255480  0.46042236  0.76629360  1
  Sc  Sc79  1  0.33000268  0.28818757  0.01471602  1
  Sc  Sc80  1  0.19949021  0.46791096  0.33392494  1
  Sc  Sc81  1  0.97104133  0.24266977  0.07545037  1
  Sc  Sc82  1  0.89705054  0.26425687  0.50360766  1
  Sc  Sc83  1  0.73678335  0.50942947  0.61821065  1
  Sc  Sc84  1  0.47026075  0.05449207  0.07597649  1
  Sc  Sc85  1  0.31172699  0.85042179  0.98060114  1
  Sc  Sc86  1  0.61991138  0.76154190  0.95952624  1
  Sc  Sc87  1  0.31974232  0.09108865  0.90564260  1
  Sc  Sc88  1  0.92550823  0.94799103  0.84028422  1
  Sc  Sc89  1  0.80571224  0.07051013  -0.00007231  1
  Sc  Sc90  1  0.67697909  0.80560130  0.31575651  1
  Sc  Sc91  1  0.61696537  0.39990278  0.25598564  1
  Sc  Sc92  1  0.27842411  0.39038312  0.67006960  1
  Sc  Sc93  1  0.28144393  0.65239489  0.43976678  1
  Sc  Sc94  1  0.21969117  0.61929081  0.90992425  1
  Sc  Sc95  1  0.60529155  0.11160744  0.91281500  1
  Sc  Sc96  1  0.49664199  0.42371985  0.70580805  1
  Sc  Sc97  1  0.69292602  0.69941151  0.53224060  1
  Sc  Sc98  1  0.19021299  0.86883218  0.54861538  1
  Sc  Sc99  1  0.27686819  0.50064095  0.12814412  1
  Nb  Nb100  1  1.02500240  0.57728148  0.93290498  1
  Nb  Nb101  1  0.89567326  0.74223102  0.84274714  1
  Nb  Nb102  1  0.48484672  0.25162239  0.16503748  1
  Nb  Nb103  1  0.09730473  0.12999407  0.48220595  1
  Nb  Nb104  1  0.05876456  0.63816591  0.30976047  1
  Nb  Nb105  1  0.25050845  0.20287124  0.63782588  1
  Nb  Nb106  1  0.57708211  0.11098732  0.25793167  1
  Nb  Nb107  1  0.74934716  0.74295723  0.14357560  1
  Nb  Nb108  1  0.75582826  0.10826579  0.56014586  1
  Nb  Nb109  1  0.46457826  0.94579610  0.56178050  1
  Nb  Nb110  1  0.00913266  0.24832831  0.33242948  1
  Nb  Nb111  1  0.84659796  0.84587349  0.01440680  1
  Nb  Nb112  1  0.02590668  0.84373774  0.18404269  1
  Nb  Nb113  1  0.35316766  0.33900759  0.26155032  1
  Nb  Nb114  1  0.62645394  0.02256949  0.70246417  1
  Nb  Nb115  1  0.25942815  0.23634004  0.40911372  1
  Nb  Nb116  1  0.14651188  0.16139753  0.01020655  1
  Nb  Nb117  1  0.19220521  0.24692487  0.82816013  1
  Nb  Nb118  1  0.90127358  0.08819493  0.39834302  1
  Nb  Nb119  1  0.71411536  0.91728537  0.87127126  1
  Nb  Nb120  1  0.84404470  0.13301419  0.20966181  1
  Nb  Nb121  1  0.03936876  0.73490663  0.48840702  1
  Nb  Nb122  1  0.39361305  0.26854156  0.80258164  1
  Nb  Nb123  1  0.34591473  0.86915689  0.41344417  1
  Nb  Nb124  1  0.50222488  0.29162744  0.37953174  1
