# generated using pymatgen
data_Zr2Sc2Nb
_symmetry_space_group_name_H-M   'P 1'
_cell_length_a   13.84607525
_cell_length_b   14.15669396
_cell_length_c   14.65585579
_cell_angle_alpha   89.52524498
_cell_angle_beta   91.69927993
_cell_angle_gamma   92.01921547
_symmetry_Int_Tables_number   1
_chemical_formula_structural   Zr2Sc2Nb
_chemical_formula_sum   'Zr50 Sc50 Nb25'
_cell_volume   2869.64069010
_cell_formula_units_Z   25
loop_
 _symmetry_equiv_pos_site_id
 _symmetry_equiv_pos_as_xyz
  1  'x, y, z'
loop_
 _atom_site_type_symbol
 _atom_site_label
 _atom_site_symmetry_multiplicity
 _atom_site_fract_x
 _atom_site_fract_y
 _atom_site_fract_z
 _atom_site_occupancy
  Zr  Zr0  1  0.35437342  0.54187000  0.05377841  1
  Zr  Zr1  1  0.45245190  0.40897798  0.46574154  1
  Zr  Zr2  1  0.93477605  0.94000885  0.93298957  1
  Zr  Zr3  1  0.11208205  0.93211335  0.46920695  1
  Zr  Zr4  1  0.69250559  0.72664143  0.22391279  1
  Zr  Zr5  1  0.87083391  0.46946879  0.44313085  1
  Zr  Zr6  1  0.69581559  0.08428694  0.16214219  1
  Zr  Zr7  1  0.67221136  0.32553237  0.42162306  1
  Zr  Zr8  1  0.72199631  0.72892647  0.41845142  1
  Zr  Zr9  1  0.68448166  0.22652102  -0.00619774  1
  Zr  Zr10  1  0.30373291  0.08088647  0.13458007  1
  Zr  Zr11  1  0.14566057  0.87486644  0.67247324  1
  Zr  Zr12  1  0.13329227  0.78864129  0.29030241  1
  Zr  Zr13  1  0.50251649  0.74950309  0.70577815  1
  Zr  Zr14  1  0.96011751  0.43054643  0.64256533  1
  Zr  Zr15  1  0.67574940  0.12669438  0.36836659  1
  Zr  Zr16  1  0.10036120  0.14687768  0.40156685  1
  Zr  Zr17  1  0.75316693  0.85933145  0.76529955  1
  Zr  Zr18  1  0.23970652  0.23389727  0.75030054  1
  Zr  Zr19  1  0.68527246  0.12938536  0.57531752  1
  Zr  Zr20  1  0.35616797  0.92531727  0.98813390  1
  Zr  Zr21  1  0.03748662  0.65787743  0.68401298  1
  Zr  Zr22  1  0.06810102  0.53029029  0.34383479  1
  Zr  Zr23  1  0.43000995  0.69081254  0.92083793  1
  Zr  Zr24  1  0.53381153  0.95367532  0.10302329  1
  Zr  Zr25  1  0.57249025  0.95112887  0.68756487  1
  Zr  Zr26  1  0.49034348  0.26025089  0.87268868  1
  Zr  Zr27  1  0.26501758  0.60300922  0.41841009  1
  Zr  Zr28  1  0.96583477  0.50586251  0.82981522  1
  Zr  Zr29  1  0.24150542  0.73721681  0.03386436  1
  Zr  Zr30  1  0.51839852  0.83567651  0.30049273  1
  Zr  Zr31  1  0.06723727  0.06783545  0.78856558  1
  Zr  Zr32  1  0.89379637  0.15055820  0.91245674  1
  Zr  Zr33  1  0.78432630  0.55696881  0.91164478  1
  Zr  Zr34  1  0.21830707  0.38511266  0.40583341  1
  Zr  Zr35  1  0.01780074  0.32126729  0.46424823  1
  Zr  Zr36  1  0.66789663  0.38111094  0.83367789  1
  Zr  Zr37  1  0.57155857  0.52647915  0.70115684  1
  Zr  Zr38  1  0.57790189  0.84873463  0.90550456  1
  Zr  Zr39  1  0.49564271  0.04369546  0.87449639  1
  Zr  Zr40  1  0.53036524  0.49738806  0.91919966  1
  Zr  Zr41  1  0.08769920  0.14038884  0.19109741  1
  Zr  Zr42  1  0.47511390  0.24457608  0.25954618  1
  Zr  Zr43  1  0.49947117  0.15388096  0.06575649  1
  Zr  Zr44  1  0.14749923  0.09774295  0.59908933  1
  Zr  Zr45  1  0.89904206  0.02804928  0.10083958  1
  Zr  Zr46  1  0.23134806  0.99577746  0.30152333  1
  Zr  Zr47  1  0.25700261  0.69203756  0.61859134  1
  Zr  Zr48  1  0.31159224  0.25187738  0.53909668  1
  Zr  Zr49  1  0.35536148  0.84163930  0.80133672  1
  Sc  Sc50  1  0.32607560  0.81577359  0.40850702  1
  Sc  Sc51  1  0.09453952  0.12125598  0.99309223  1
  Sc  Sc52  1  0.18760332  0.70427925  0.82737085  1
  Sc  Sc53  1  0.54479542  0.55776697  0.15703821  1
  Sc  Sc54  1  0.69393135  0.70644602  0.61933711  1
  Sc  Sc55  1  0.36911478  0.57111497  0.76839608  1
  Sc  Sc56  1  0.46361326  0.04174217  0.28318837  1
  Sc  Sc57  1  0.12029875  0.91545820  0.10086817  1
  Sc  Sc58  1  0.05473750  0.65941525  0.14661725  1
  Sc  Sc59  1  0.29974161  1.03293675  0.75280562  1
  Sc  Sc60  1  0.32145696  0.05908375  0.47276248  1
  Sc  Sc61  1  0.64214626  0.67175296  0.02041375  1
  Sc  Sc62  1  0.15375494  0.52673150  0.96107795  1
  Sc  Sc63  1  0.85748830  0.04387034  0.71798464  1
  Sc  Sc64  1  0.35961463  0.44428267  0.26029474  1
  Sc  Sc65  1  0.26568663  0.29111105  0.12284910  1
  Sc  Sc66  1  0.41691431  0.36277457  0.70561511  1
  Sc  Sc67  1  0.91120644  0.07690677  0.50753528  1
  Sc  Sc68  1  0.51010278  0.62424880  0.35322667  1
  Sc  Sc69  1  0.66153982  0.52775294  0.49736712  1
  Sc  Sc70  1  0.62386604  0.32628520  0.62490222  1
  Sc  Sc71  1  0.16330284  0.48371298  0.16716818  1
  Sc  Sc72  1  0.47243998  0.75437683  0.10893800  1
  Sc  Sc73  1  0.72678192  0.92292682  0.52449316  1
  Sc  Sc74  1  0.74122585  0.51642606  0.27933684  1
  Sc  Sc75  1  0.36685554  0.89505994  0.59829703  1
  Sc  Sc76  1  0.99644826  0.69761457  0.94300563  1
  Sc  Sc77  1  0.45052731  0.61891862  0.54799243  1
  Sc  Sc78  1  0.85933789  0.28125803  0.32603891  1
  Sc  Sc79  1  0.31058345  0.38102932  0.91122570  1
  Sc  Sc80  1  0.66338334  0.15098264  0.78391837  1
  Sc  Sc81  1  0.53026610  -0.00508041  0.47236902  1
  Sc  Sc82  1  0.72011582  0.01053980  0.94241899  1
  Sc  Sc83  1  0.90639541  0.82814790  0.17353033  1
  Sc  Sc84  1  0.07481781  0.72245070  0.47975151  1
  Sc  Sc85  1  0.06274520  0.30358073  0.84363414  1
  Sc  Sc86  1  0.46822670  0.14199915  0.65432876  1
  Sc  Sc87  1  0.83159303  0.28320472  0.74468481  1
  Sc  Sc88  1  0.16988372  0.48221641  0.74866823  1
  Sc  Sc89  1  0.30361359  0.14947202  0.93613031  1
  Sc  Sc90  1  0.90038790  0.86451265  0.39245792  1
  Sc  Sc91  1  0.72409450  0.44011606  0.08109991  1
  Sc  Sc92  1  0.91835068  0.83976506  0.60078289  1
  Sc  Sc93  1  0.87570304  0.07252116  0.29957291  1
  Sc  Sc94  1  0.90785340  0.66076639  0.31807707  1
  Sc  Sc95  1  0.49436091  0.36238550  0.08056984  1
  Sc  Sc96  1  0.30827664  0.66535215  0.22667900  1
  Sc  Sc97  1  0.88038918  0.24537054  0.12564186  1
  Sc  Sc98  1  0.86487480  0.34969656  0.94255400  1
  Sc  Sc99  1  0.15978015  0.91188694  0.89406727  1
  Nb  Nb100  1  0.67384434  0.28378113  0.20650992  1
  Nb  Nb101  1  0.49366954  0.20710761  0.45036077  1
  Nb  Nb102  1  0.54198746  0.79737523  0.50020189  1
  Nb  Nb103  1  -0.00091122  0.21156372  0.65599051  1
  Nb  Nb104  1  0.56279764  0.41948060  0.29783159  1
  Nb  Nb105  1  0.64691831  0.66618833  0.82001915  1
  Nb  Nb106  1  0.07558816  0.31881801  0.26072025  1
  Nb  Nb107  1  0.32726794  0.87513094  0.18595043  1
  Nb  Nb108  1  0.85161874  0.67719788  0.75851714  1
  Nb  Nb109  1  0.92873134  0.45060399  0.20879778  1
  Nb  Nb110  1  0.09857683  0.52528876  0.53784310  1
  Nb  Nb111  1  0.83463326  0.63657891  0.10820040  1
  Nb  Nb112  1  0.29449295  0.47736237  0.58198152  1
  Nb  Nb113  1  0.95865242  0.50077060  0.03961051  1
  Nb  Nb114  1  0.28203383  0.21259775  0.32107272  1
  Nb  Nb115  1  0.88284450  0.63023236  0.54884627  1
  Nb  Nb116  1  0.71864284  0.86990401  0.09326815  1
  Nb  Nb117  1  0.15086203  0.33292363  0.61094610  1
  Nb  Nb118  1  0.03612724  0.96525430  0.27784064  1
  Nb  Nb119  1  0.82924907  0.27549293  0.54349464  1
  Nb  Nb120  1  0.70215335  0.92446608  0.30289966  1
  Nb  Nb121  1  0.80381197  0.77893240  0.94192005  1
  Nb  Nb122  1  0.77730580  0.50146340  0.68735450  1
  Nb  Nb123  1  0.05870450  0.33045186  0.05516351  1
  Nb  Nb124  1  0.98032015  0.83761838  0.78830657  1
