# generated using pymatgen
data_Zr2Sc2Nb
_symmetry_space_group_name_H-M   'P 1'
_cell_length_a   14.10154021
_cell_length_b   14.23671307
_cell_length_c   14.39964499
_cell_angle_alpha   89.93923128
_cell_angle_beta   88.84930358
_cell_angle_gamma   91.16374511
_symmetry_Int_Tables_number   1
_chemical_formula_structural   Zr2Sc2Nb
_chemical_formula_sum   'Zr50 Sc50 Nb25'
_cell_volume   2889.68443564
_cell_formula_units_Z   25
loop_
 _symmetry_equiv_pos_site_id
 _symmetry_equiv_pos_as_xyz
  1  'x, y, z'
loop_
 _atom_site_type_symbol
 _atom_site_label
 _atom_site_symmetry_multiplicity
 _atom_site_fract_x
 _atom_site_fract_y
 _atom_site_fract_z
 _atom_site_occupancy
  Zr  Zr0  1  0.32822641  0.72469769  0.96803106  1
  Zr  Zr1  1  0.40261777  0.73631133  0.47654142  1
  Zr  Zr2  1  0.05718689  0.28505321  0.37659619  1
  Zr  Zr3  1  0.60803569  0.11588476  0.35180643  1
  Zr  Zr4  1  0.76959389  0.07400716  0.23432169  1
  Zr  Zr5  1  0.55830997  0.72855807  0.70562186  1
  Zr  Zr6  1  0.75707308  0.56065795  0.92717657  1
  Zr  Zr7  1  0.89550137  0.61111734  0.09529251  1
  Zr  Zr8  1  0.11071776  0.18064980  0.80626196  1
  Zr  Zr9  1  0.28822792  0.08990059  0.72702374  1
  Zr  Zr10  1  0.92707778  0.39097463  0.24873041  1
  Zr  Zr11  1  0.17139658  0.74673116  0.83264586  1
  Zr  Zr12  1  0.10666092  0.65664626  0.02425334  1
  Zr  Zr13  1  0.85843252  0.78264207  0.21470192  1
  Zr  Zr14  1  0.06996827  0.95731274  0.82734619  1
  Zr  Zr15  1  0.28181475  0.93136513  0.87143544  1
  Zr  Zr16  1  0.16538347  0.02643752  0.12708273  1
  Zr  Zr17  1  0.46801860  0.85414289  0.84782992  1
  Zr  Zr18  1  0.19953412  0.51515239  0.90454625  1
  Zr  Zr19  1  0.70651233  0.93786465  0.10340866  1
  Zr  Zr20  1  0.00520615  0.80353717  0.69267681  1
  Zr  Zr21  1  0.88694199  0.93429048  0.35743261  1
  Zr  Zr22  1  0.93367038  -0.03573692  0.12949840  1
  Zr  Zr23  1  0.13505540  0.39711517  0.52678653  1
  Zr  Zr24  1  0.49068216  0.07068522  0.77918739  1
  Zr  Zr25  1  0.45731170  0.44904276  0.21124786  1
  Zr  Zr26  1  0.66007122  0.25174596  0.49379461  1
  Zr  Zr27  1  0.96422016  0.47484473  0.61087417  1
  Zr  Zr28  1  0.43766704  0.46092310  -0.01751469  1
  Zr  Zr29  1  0.73045359  0.28422702  0.25218230  1
  Zr  Zr30  1  0.69857913  0.12098038  0.82135271  1
  Zr  Zr31  1  0.24374124  0.49691625  0.68116268  1
  Zr  Zr32  1  0.42514565  0.92221361  0.63959898  1
  Zr  Zr33  1  0.58732117  0.44610914  0.81722001  1
  Zr  Zr34  1  0.85938111  0.44445628  0.79655746  1
  Zr  Zr35  1  0.21010622  0.88106180  0.66400206  1
  Zr  Zr36  1  0.65790197  0.91281385  0.91162036  1
  Zr  Zr37  1  0.14831030  0.68719252  0.56728589  1
  Zr  Zr38  1  0.77774237  0.75499389  0.42617252  1
  Zr  Zr39  1  0.05791296  0.46466934  0.10981573  1
  Zr  Zr40  1  0.39715946  0.12956617  0.36849254  1
  Zr  Zr41  1  0.90566665  0.25288444  0.87305752  1
  Zr  Zr42  1  0.04917462  0.09992965  0.98370609  1
  Zr  Zr43  1  0.23995733  0.77908380  0.16145171  1
  Zr  Zr44  1  0.07621647  0.64632318  0.23678157  1
  Zr  Zr45  1  0.47053306  0.52555222  0.40652530  1
  Zr  Zr46  1  0.33593981  0.73061527  0.70069505  1
  Zr  Zr47  1  0.35929751  0.37643950  0.51795314  1
  Zr  Zr48  1  0.42636838  0.36048802  0.71719855  1
  Zr  Zr49  1  0.85475709  0.58650325  0.31842323  1
  Sc  Sc50  1  0.51953788  0.23718292  0.16631213  1
  Sc  Sc51  1  0.13080005  0.25158567  0.16717017  1
  Sc  Sc52  1  0.98574545  0.24925727  0.61516039  1
  Sc  Sc53  1  0.50637607  0.25750875  0.91461027  1
  Sc  Sc54  1  0.25686424  0.56010324  0.46152524  1
  Sc  Sc55  1  0.16890206  0.45720979  0.28880162  1
  Sc  Sc56  1  0.51263398  0.83383470  0.06403855  1
  Sc  Sc57  1  0.06510467  0.59117933  0.74936196  1
  Sc  Sc58  1  0.50002809  0.05150119  0.99401500  1
  Sc  Sc59  1  0.47042421  0.63590438  0.11906504  1
  Sc  Sc60  1  0.08993431  0.86311018  0.01340465  1
  Sc  Sc61  1  0.87988097  0.93761542  0.57617590  1
  Sc  Sc62  1  0.28540202  0.32663881  0.86501052  1
  Sc  Sc63  1  0.67704895  0.46294681  0.36475086  1
  Sc  Sc64  1  0.84449784  0.39517711  0.03844427  1
  Sc  Sc65  1  0.69367127  0.17991437  0.04121003  1
  Sc  Sc66  1  0.33050055  0.62652507  0.28307582  1
  Sc  Sc67  1  0.84934066  0.88831690  0.79809838  1
  Sc  Sc68  1  0.50555654  0.00666117  0.20015658  1
  Sc  Sc69  1  0.62848604  0.41784855  0.06345012  1
  Sc  Sc70  1  0.66312712  0.93571698  0.69828220  1
  Sc  Sc71  1  0.76904914  0.34237444  0.65501445  1
  Sc  Sc72  1  0.31704445  0.32438516  0.08623168  1
  Sc  Sc73  1  0.30126773  0.30459273  0.31099879  1
  Sc  Sc74  1  0.90431971  0.21058892  0.10002683  1
  Sc  Sc75  1  0.27054139  0.54222628  0.10219671  1
  Sc  Sc76  1  0.08839572  0.90456033  0.28191936  1
  Sc  Sc77  1  0.42113511  0.18772195  0.58258242  1
  Sc  Sc78  1  0.95058654  0.71155269  0.89402580  1
  Sc  Sc79  1  0.84350280  0.16104626  0.41864797  1
  Sc  Sc80  1  0.21740001  0.19261696  0.49701460  1
  Sc  Sc81  1  0.09793083  1.05258603  0.63416902  1
  Sc  Sc82  1  0.84553855  0.03967726  0.95512549  1
  Sc  Sc83  1  0.55414357  0.65450093  0.91910462  1
  Sc  Sc84  1  0.91155916  0.08628333  0.74643111  1
  Sc  Sc85  1  0.03462597  0.06712711  0.44858528  1
  Sc  Sc86  1  0.39383608  0.56926068  0.81803706  1
  Sc  Sc87  1  0.93767319  0.68029057  0.54481571  1
  Sc  Sc88  1  0.59684058  0.83371049  0.52070648  1
  Sc  Sc89  1  0.08858242  0.31982829  0.97020651  1
  Sc  Sc90  1  0.86184035  0.36973397  0.44817586  1
  Sc  Sc91  1  0.98931540  0.11775102  0.25610798  1
  Sc  Sc92  1  0.26091015  0.97556403  0.48020463  1
  Sc  Sc93  1  0.65189530  0.87650484  0.29672860  1
  Sc  Sc94  1  0.46966456  0.94327690  0.41497273  1
  Sc  Sc95  1  0.68938624  0.70462154  0.08762672  1
  Sc  Sc96  1  0.28461920  0.12863940  0.95898721  1
  Sc  Sc97  1  0.59717649  0.66588435  0.29893946  1
  Sc  Sc98  1  0.51320503  0.31727517  0.37008149  1
  Sc  Sc99  1  0.44703661  0.56322884  0.61450531  1
  Nb  Nb100  1  0.30380971  -0.05128411  0.27373578  1
  Nb  Nb101  1  0.42807425  0.80669346  0.26000043  1
  Nb  Nb102  1  0.22079642  0.77680667  0.38156436  1
  Nb  Nb103  1  0.01896695  0.53061034  0.41685505  1
  Nb  Nb104  1  0.78663806  0.54486344  0.53287892  1
  Nb  Nb105  1  0.68272122  0.56513063  0.70117597  1
  Nb  Nb106  1  0.86195687  0.63375727  0.73214329  1
  Nb  Nb107  1  0.59378102  0.24303911  0.70274092  1
  Nb  Nb108  1  0.33686203  0.12762840  0.16659258  1
  Nb  Nb109  1  0.33604146  0.93169384  0.06965105  1
  Nb  Nb110  1  0.07621066  0.38213580  0.76923477  1
  Nb  Nb111  1  0.58920620  0.42516492  0.57125147  1
  Nb  Nb112  1  0.72476032  0.73610976  0.83982287  1
  Nb  Nb113  1  0.61931059  0.62969548  0.51117192  1
  Nb  Nb114  1  0.07154666  0.86847141  0.49931739  1
  Nb  Nb115  1  0.99827292  0.74364496  0.37802091  1
  Nb  Nb116  1  0.71376614  0.31867701  0.87888675  1
  Nb  Nb117  1  0.71699841  0.99191864  0.46251011  1
  Nb  Nb118  1  0.84279209  0.82343334  0.00585590  1
  Nb  Nb119  1  0.75976067  0.75462979  0.63097089  1
  Nb  Nb120  1  0.22404807  0.28277148  0.67207634  1
  Nb  Nb121  1  0.57174244  0.06468908  0.56796452  1
  Nb  Nb122  1  0.19367000  0.10984333  0.31233858  1
  Nb  Nb123  1  0.98617764  0.50649877  0.92555292  1
  Nb  Nb124  1  0.75642151  0.12465348  0.61750354  1
