# generated using pymatgen
data_Zr2Sc2Nb
_symmetry_space_group_name_H-M   'P 1'
_cell_length_a   13.94833721
_cell_length_b   13.92439303
_cell_length_c   14.77156746
_cell_angle_alpha   90.82138355
_cell_angle_beta   91.20170059
_cell_angle_gamma   90.76976966
_symmetry_Int_Tables_number   1
_chemical_formula_structural   Zr2Sc2Nb
_chemical_formula_sum   'Zr50 Sc50 Nb25'
_cell_volume   2867.76882506
_cell_formula_units_Z   25
loop_
 _symmetry_equiv_pos_site_id
 _symmetry_equiv_pos_as_xyz
  1  'x, y, z'
loop_
 _atom_site_type_symbol
 _atom_site_label
 _atom_site_symmetry_multiplicity
 _atom_site_fract_x
 _atom_site_fract_y
 _atom_site_fract_z
 _atom_site_occupancy
  Zr  Zr0  1  0.24494315  0.13341236  0.24391322  1
  Zr  Zr1  1  0.01610032  0.72264243  0.51842630  1
  Zr  Zr2  1  0.66921590  0.51772136  0.22047266  1
  Zr  Zr3  1  0.72054771  0.28722563  0.51838431  1
  Zr  Zr4  1  0.14016855  0.91860393  0.55002577  1
  Zr  Zr5  1  0.91790113  0.89814747  0.64049240  1
  Zr  Zr6  1  0.93562065  0.33283311  0.49139566  1
  Zr  Zr7  1  0.29626976  0.52715654  0.21129165  1
  Zr  Zr8  1  0.47340863  1.00428152  0.95561985  1
  Zr  Zr9  1  0.10468230  0.97368385  0.12648226  1
  Zr  Zr10  1  0.85670074  0.49489016  0.93717734  1
  Zr  Zr11  1  0.06792004  0.13597899  0.54089356  1
  Zr  Zr12  1  0.12933477  0.57965553  0.67396266  1
  Zr  Zr13  1  0.71085517  0.33435452  0.09343121  1
  Zr  Zr14  1  0.45009641  0.27743464  0.53216649  1
  Zr  Zr15  1  0.08911376  0.48894401  0.13306789  1
  Zr  Zr16  1  0.43297241  0.68200340  0.49505167  1
  Zr  Zr17  1  0.52536897  0.23430502  0.02431408  1
  Zr  Zr18  1  0.12254167  0.82355445  0.72489033  1
  Zr  Zr19  1  0.82655318  -0.02752311  0.97695226  1
  Zr  Zr20  1  0.28843180  0.68965449  0.33709456  1
  Zr  Zr21  1  0.56599134  0.66830774  0.09315122  1
  Zr  Zr22  1  0.93634788  0.94036571  0.45327875  1
  Zr  Zr23  1  0.92020543  0.26127804  0.85806659  1
  Zr  Zr24  1  0.09268357  0.80971525  0.35148040  1
  Zr  Zr25  1  0.61759444  0.70588761  0.64048541  1
  Zr  Zr26  1  0.43645177  0.57453578  0.93078795  1
  Zr  Zr27  1  0.75848686  0.87518224  0.15889686  1
  Zr  Zr28  1  0.98899797  0.37433120  0.29301582  1
  Zr  Zr29  1  0.42410118  0.08052740  0.14408177  1
  Zr  Zr30  1  0.63830657  0.06233135  0.09971121  1
  Zr  Zr31  1  0.13883284  0.21731320  0.85519138  1
  Zr  Zr32  1  0.34148955  0.85066502  0.62769866  1
  Zr  Zr33  1  0.07983843  0.41480607  0.93986235  1
  Zr  Zr34  1  0.31283871  0.91156309  0.81315832  1
  Zr  Zr35  1  0.22759252  0.68240554  0.53441662  1
  Zr  Zr36  1  0.52371954  0.85846726  0.76175923  1
  Zr  Zr37  1  0.59854892  0.51380891  0.76483707  1
  Zr  Zr38  1  0.91630518  0.70792100  0.22268838  1
  Zr  Zr39  1  0.84398686  0.05544154  0.78558086  1
  Zr  Zr40  1  0.35231406  0.27566023  0.73008833  1
  Zr  Zr41  1  0.65131451  0.85419942  0.97991303  1
  Zr  Zr42  1  0.95633438  0.84275738  0.06080457  1
  Zr  Zr43  1  0.68502659  0.91541239  0.34866581  1
  Zr  Zr44  1  0.46867830  0.06257489  0.68553081  1
  Zr  Zr45  1  0.42224809  0.64848882  0.71140530  1
  Zr  Zr46  1  0.14040002  0.74147017  0.16030057  1
  Zr  Zr47  1  0.11957504  0.32518923  0.67263413  1
  Zr  Zr48  1  0.37098359  0.25225414  0.35506774  1
  Zr  Zr49  1  0.04389754  0.05974899  0.72870793  1
  Sc  Sc50  1  0.49560828  0.44651533  0.10942675  1
  Sc  Sc51  1  0.75095402  0.16920290  0.95363203  1
  Sc  Sc52  1  0.05854164  0.61025067  0.86723766  1
  Sc  Sc53  1  0.51710153  0.89796500  0.51916636  1
  Sc  Sc54  1  0.71908874  0.50680363  0.55354313  1
  Sc  Sc55  1  0.92992934  0.95175192  0.25452026  1
  Sc  Sc56  1  0.80939314  0.08125704  0.54223578  1
  Sc  Sc57  1  0.91301707  0.22901407  0.66131644  1
  Sc  Sc58  1  0.32475667  0.28301576  0.94120171  1
  Sc  Sc59  1  0.13594741  0.99582962  0.89977507  1
  Sc  Sc60  1  0.86067430  0.72215584  0.90765238  1
  Sc  Sc61  1  0.84568754  0.55746244  0.37605198  1
  Sc  Sc62  1  0.31038057  0.46686834  0.62038160  1
  Sc  Sc63  1  0.26082170  0.46664776  0.82172875  1
  Sc  Sc64  1  0.31058225  0.07896638  0.47641710  1
  Sc  Sc65  1  0.24163940  0.11238733  0.03571529  1
  Sc  Sc66  1  0.12802440  0.45189213  0.47934936  1
  Sc  Sc67  1  0.51125172  0.50009656  0.56664285  1
  Sc  Sc68  1  0.96921445  0.45063416  0.76006506  1
  Sc  Sc69  1  0.70438010  0.12506825  0.33186387  1
  Sc  Sc70  1  0.52958686  0.88301833  0.15169622  1
  Sc  Sc71  1  0.63699406  0.68096308  0.87319010  1
  Sc  Sc72  1  0.56048216  0.25009861  0.23229355  1
  Sc  Sc73  1  0.08599499  0.58590155  0.31994151  1
  Sc  Sc74  1  0.43949021  0.78093738  0.93948742  1
  Sc  Sc75  1  0.24523063  0.08798270  0.67250091  1
  Sc  Sc76  1  0.12539294  1.01925178  0.36202059  1
  Sc  Sc77  1  0.53669362  0.18627818  0.83702915  1
  Sc  Sc78  1  0.28338748  0.45626235  0.02835192  1
  Sc  Sc79  1  0.26114692  0.69546073  0.82214738  1
  Sc  Sc80  1  0.48722012  0.79913837  0.32755263  1
  Sc  Sc81  1  0.76087097  0.82653762  0.75951784  1
  Sc  Sc82  1  0.34568573  0.46654355  0.41209861  1
  Sc  Sc83  1  0.28226796  0.88856304  0.02894506  1
  Sc  Sc84  1  0.64562302  0.66917357  0.43281733  1
  Sc  Sc85  1  0.04107178  0.17354062  0.20327039  1
  Sc  Sc86  1  0.57436558  0.40677055  0.38749422  1
  Sc  Sc87  1  0.58863812  0.11058434  0.51418515  1
  Sc  Sc88  1  0.93253518  0.31146489  0.06543694  1
  Sc  Sc89  1  0.36861780  0.71571237  0.13962579  1
  Sc  Sc90  1  0.77672300  0.33606833  0.30533409  1
  Sc  Sc91  1  0.83385478  0.12875793  0.15233335  1
  Sc  Sc92  1  0.86274907  0.49843693  0.15352922  1
  Sc  Sc93  1  0.92061265  0.15656852  0.37149289  1
  Sc  Sc94  1  0.93430494  0.52481293  0.57970170  1
  Sc  Sc95  1  0.57121903  0.32388945  0.68284783  1
  Sc  Sc96  1  0.47392865  0.03495051  0.33750391  1
  Sc  Sc97  1  0.29456070  0.90825158  0.24173404  1
  Sc  Sc98  1  0.70066328  0.34676495  0.86809284  1
  Sc  Sc99  1  0.35034250  0.29580096  0.15357555  1
  Nb  Nb100  1  0.81932184  0.70235624  0.57275778  1
  Nb  Nb101  1  0.48752602  0.39212674  0.88371932  1
  Nb  Nb102  1  0.64760106  0.01015196  0.84882033  1
  Nb  Nb103  1  0.10677987  0.79333193  0.94209192  1
  Nb  Nb104  1  0.68565787  0.71817565  0.25104649  1
  Nb  Nb105  1  0.33450050  0.10353366  0.85502107  1
  Nb  Nb106  1  0.70442998  0.17662824  0.71064197  1
  Nb  Nb107  1  0.84230052  0.77807568  0.38383831  1
  Nb  Nb108  1  -0.04479915  0.70158005  0.72183650  1
  Nb  Nb109  1  0.79286170  0.58688860  0.74636606  1
  Nb  Nb110  1  0.30479381  0.86748722  0.43586169  1
  Nb  Nb111  1  0.76936525  0.67086667  0.07223001  1
  Nb  Nb112  1  0.65311021  0.50815431  -0.01044718  1
  Nb  Nb113  1  0.96293991  0.89293430  0.84524863  1
  Nb  Nb114  1  0.78405901  0.38458984  0.69539520  1
  Nb  Nb115  1  0.13037124  0.23979567  0.39233171  1
  Nb  Nb116  1  0.73312946  0.86588418  0.52959151  1
  Nb  Nb117  1  0.21652556  0.63833745  1.01031245  1
  Nb  Nb118  1  0.99308847  0.63460367  0.04741876  1
  Nb  Nb119  1  0.14713771  0.28615429  0.07867040  1
  Nb  Nb120  1  0.48899865  0.59206576  0.28933620  1
  Nb  Nb121  1  0.19194755  0.36282876  0.27212285  1
  Nb  Nb122  1  -0.00781813  0.11073001  -0.01054567  1
  Nb  Nb123  1  0.25106076  0.27793916  0.53336179  1
  Nb  Nb124  1  0.66602276  -0.01906082  0.66252721  1
