# generated using pymatgen
data_Zr2Sc2Nb
_symmetry_space_group_name_H-M   'P 1'
_cell_length_a   13.92831752
_cell_length_b   14.22327811
_cell_length_c   14.59669955
_cell_angle_alpha   89.50006826
_cell_angle_beta   89.97625358
_cell_angle_gamma   91.57723357
_symmetry_Int_Tables_number   1
_chemical_formula_structural   Zr2Sc2Nb
_chemical_formula_sum   'Zr50 Sc50 Nb25'
_cell_volume   2890.49240135
_cell_formula_units_Z   25
loop_
 _symmetry_equiv_pos_site_id
 _symmetry_equiv_pos_as_xyz
  1  'x, y, z'
loop_
 _atom_site_type_symbol
 _atom_site_label
 _atom_site_symmetry_multiplicity
 _atom_site_fract_x
 _atom_site_fract_y
 _atom_site_fract_z
 _atom_site_occupancy
  Zr  Zr0  1  0.88944107  0.77968308  0.07117128  1
  Zr  Zr1  1  0.70989177  0.08066466  0.52340686  1
  Zr  Zr2  1  0.83095779  0.75576025  0.28456149  1
  Zr  Zr3  1  0.06517329  0.89068412  0.06392907  1
  Zr  Zr4  1  0.51785415  0.04794575  0.73486914  1
  Zr  Zr5  1  0.19147397  0.29821594  0.73779140  1
  Zr  Zr6  1  0.12882134  0.29341529  0.08678238  1
  Zr  Zr7  1  0.19751972  0.88119629  0.67247406  1
  Zr  Zr8  1  0.85664833  0.98215329  0.09369005  1
  Zr  Zr9  1  0.22365195  0.89164094  0.43984468  1
  Zr  Zr10  1  0.50237821  0.95645071  0.18733275  1
  Zr  Zr11  1  0.78408961  0.11102703  0.93657322  1
  Zr  Zr12  1  0.39841549  0.24673308  0.64715512  1
  Zr  Zr13  1  0.22572042  0.25992604  0.30182215  1
  Zr  Zr14  1  0.68027906  0.48024732  0.06097703  1
  Zr  Zr15  1  0.86321291  0.91350655  0.46213390  1
  Zr  Zr16  1  0.72393042  0.45938135  0.47200441  1
  Zr  Zr17  1  0.01775321  0.24458244  0.26208360  1
  Zr  Zr18  1  0.06421449  0.08231088  0.15078209  1
  Zr  Zr19  1  0.52960564  0.17807084  0.13445081  1
  Zr  Zr20  1  0.91705304  0.49186918  0.56107900  1
  Zr  Zr21  1  0.20134506  0.54626531  0.84537459  1
  Zr  Zr22  1  0.61543094  0.09632145  0.32691569  1
  Zr  Zr23  1  0.67363406  0.84218200  0.09138654  1
  Zr  Zr24  1  0.51998787  0.36519141  0.79906288  1
  Zr  Zr25  1  0.34021193  0.96120391  0.84294876  1
  Zr  Zr26  1  0.21657173  0.04820893  0.01201172  1
  Zr  Zr27  1  0.60964632  0.23435533  0.65824069  1
  Zr  Zr28  1  0.30226479  0.65725472  0.68874589  1
  Zr  Zr29  1  0.90703146  0.53507482  0.33358782  1
  Zr  Zr30  1  0.46295747  0.74446290  0.12478870  1
  Zr  Zr31  1  0.69445485  0.73721910  0.76573178  1
  Zr  Zr32  1  0.12184285  0.12156882  0.62471326  1
  Zr  Zr33  1  0.56980724  0.80432564  0.32304345  1
  Zr  Zr34  1  0.11980722  0.49514994  0.65724571  1
  Zr  Zr35  1  0.89198658  0.67628618  0.47221699  1
  Zr  Zr36  1  0.37065231  0.95863137  0.60004139  1
  Zr  Zr37  1  0.19321773  0.66370281  0.36927068  1
  Zr  Zr38  1  0.86989424  0.36733484  0.17787786  1
  Zr  Zr39  1  0.97213602  1.00959392  0.92562009  1
  Zr  Zr40  1  0.74640968  0.10062759  0.73740495  1
  Zr  Zr41  1  0.41843844  0.64288673  0.33147058  1
  Zr  Zr42  1  0.81626810  0.27010795  0.59099754  1
  Zr  Zr43  1  0.25497796  0.64467124  0.18026217  1
  Zr  Zr44  1  0.07192158  0.35641104  0.88951911  1
  Zr  Zr45  1  0.55751255  0.66958487  0.95274960  1
  Zr  Zr46  1  0.92654872  0.80299114  0.85560580  1
  Zr  Zr47  1  0.22326178  0.31830635  0.53306935  1
  Zr  Zr48  1  0.16209625  0.86311204  0.23786755  1
  Zr  Zr49  1  0.70504718  0.27598449  0.04326449  1
  Sc  Sc50  1  0.57551715  0.92373198  0.56884939  1
  Sc  Sc51  1  0.57346789  0.15880727  0.90694262  1
  Sc  Sc52  1  0.37094037  0.76391834  0.50512278  1
  Sc  Sc53  1  0.32365022  0.21666237  0.10268564  1
  Sc  Sc54  1  0.34256619  0.44827313  0.70041263  1
  Sc  Sc55  1  0.13981590  0.71421462  0.98880136  1
  Sc  Sc56  1  0.44146261  -0.03588417  0.39515264  1
  Sc  Sc57  1  0.87581492  0.61882687  0.73988745  1
  Sc  Sc58  1  0.28629886  0.37757671  0.93325453  1
  Sc  Sc59  1  1.00021382  0.96245680  0.72542450  1
  Sc  Sc60  1  0.09097541  0.46383749  0.23394296  1
  Sc  Sc61  1  0.09250708  0.71264481  0.76401370  1
  Sc  Sc62  1  0.94686830  0.19238698  0.77494491  1
  Sc  Sc63  1  0.68043505  0.63366318  0.37814717  1
  Sc  Sc64  1  0.71060824  0.43571727  0.67478310  1
  Sc  Sc65  1  0.53242615  0.63419749  0.52499769  1
  Sc  Sc66  1  0.11526373  0.70322251  0.55518281  1
  Sc  Sc67  1  0.78266003  0.91524658  0.67504971  1
  Sc  Sc68  1  0.13982025  0.12358079  0.84616751  1
  Sc  Sc69  1  0.87152454  0.32524293  0.39486492  1
  Sc  Sc70  1  0.29590272  0.03466158  0.22176776  1
  Sc  Sc71  1  0.11935093  0.50790911  0.04051850  1
  Sc  Sc72  1  0.33103566  0.74341266  0.87904950  1
  Sc  Sc73  1  0.03333944  0.69191158  0.21551541  1
  Sc  Sc74  1  0.53956748  0.58264551  0.71532823  1
  Sc  Sc75  1  0.36363904  0.18737511  0.87533673  1
  Sc  Sc76  1  0.74878540  0.90230345  0.90158212  1
  Sc  Sc77  1  0.96826897  0.59529360  0.91873575  1
  Sc  Sc78  1  0.94280607  0.21424179  0.02450190  1
  Sc  Sc79  1  0.48534010  0.53067994  0.16605430  1
  Sc  Sc80  1  0.67055513  0.66001841  0.16377391  1
  Sc  Sc81  1  0.52603392  0.46671546  0.37168064  1
  Sc  Sc82  1  0.32243169  0.52766720  0.50923870  1
  Sc  Sc83  1  0.88504939  0.09952982  0.37671249  1
  Sc  Sc84  1  0.61209935  0.27281898  0.44851506  1
  Sc  Sc85  1  0.70705275  0.78953291  0.50906730  1
  Sc  Sc86  1  0.48549866  0.37554281  1.01642828  1
  Sc  Sc87  1  0.74122124  0.29830288  0.83288918  1
  Sc  Sc88  1  0.30237416  0.85911281  0.05975398  1
  Sc  Sc89  1  0.87178097  0.41446296  0.96983235  1
  Sc  Sc90  1  0.47500655  0.80030891  0.72600004  1
  Sc  Sc91  1  0.09042333  0.44110299  0.43583232  1
  Sc  Sc92  1  0.27349583  0.11257763  0.46824844  1
  Sc  Sc93  1  0.79990808  0.15404176  0.19149984  1
  Sc  Sc94  1  0.73595695  0.94541181  0.27672595  1
  Sc  Sc95  1  0.92565887  0.41088565  0.75580560  1
  Sc  Sc96  1  0.53038388  0.89165005  0.93130366  1
  Sc  Sc97  1  0.87719035  0.57172913  0.12151622  1
  Sc  Sc98  1  0.68556067  0.51796542  0.85789676  1
  Sc  Sc99  1  0.64756870  0.30820088  0.24930077  1
  Nb  Nb100  1  0.09979566  0.03969691  0.34693161  1
  Nb  Nb101  1  0.29361410  0.46372082  0.32315139  1
  Nb  Nb102  1  0.73515633  0.62187699  0.60131185  1
  Nb  Nb103  1  0.39874264  0.31155207  0.44328930  1
  Nb  Nb104  1  0.03069627  0.81315643  0.39555533  1
  Nb  Nb105  1  0.72565944  0.48622489  0.25978071  1
  Nb  Nb106  1  0.28855044  0.42653057  0.13895031  1
  Nb  Nb107  1  0.43202820  0.33762562  0.23965103  1
  Nb  Nb108  1  0.92986003  0.78838895  0.62191382  1
  Nb  Nb109  1  0.51839187  0.41807722  0.57715676  1
  Nb  Nb110  1  0.01762298  0.30741669  0.60020717  1
  Nb  Nb111  1  0.05678633  0.19791099  0.45273328  1
  Nb  Nb112  1  0.65009407  0.03912255  0.07098726  1
  Nb  Nb113  1  0.14650798  0.89582495  0.87381788  1
  Nb  Nb114  1  0.35050761  0.81778545  0.28072042  1
  Nb  Nb115  1  0.48707395  0.12066957  0.52334867  1
  Nb  Nb116  1  0.05002924  0.96109651  0.52216862  1
  Nb  Nb117  1  0.29520855  0.09227648  0.70438556  1
  Nb  Nb118  1  0.42301556  0.53974308  0.86657755  1
  Nb  Nb119  1  0.76704156  0.67655732  0.95786279  1
  Nb  Nb120  1  0.43147315  0.16563928  0.31952912  1
  Nb  Nb121  1  0.33746708  0.58564028  1.01883614  1
  Nb  Nb122  1  0.42656434  0.04198009  0.02388013  1
  Nb  Nb123  1  0.91336608  0.09513799  0.58439227  1
  Nb  Nb124  1  0.95517472  0.92552975  0.25787102  1
