# generated using pymatgen
data_Zr2Sc2Nb
_symmetry_space_group_name_H-M   'P 1'
_cell_length_a   14.19615419
_cell_length_b   14.67831777
_cell_length_c   13.77684555
_cell_angle_alpha   88.59439637
_cell_angle_beta   87.82895164
_cell_angle_gamma   91.17039807
_symmetry_Int_Tables_number   1
_chemical_formula_structural   Zr2Sc2Nb
_chemical_formula_sum   'Zr50 Sc50 Nb25'
_cell_volume   2867.18010338
_cell_formula_units_Z   25
loop_
 _symmetry_equiv_pos_site_id
 _symmetry_equiv_pos_as_xyz
  1  'x, y, z'
loop_
 _atom_site_type_symbol
 _atom_site_label
 _atom_site_symmetry_multiplicity
 _atom_site_fract_x
 _atom_site_fract_y
 _atom_site_fract_z
 _atom_site_occupancy
  Zr  Zr0  1  0.22674456  0.17054522  0.92252362  1
  Zr  Zr1  1  0.73091398  0.80428663  0.06766449  1
  Zr  Zr2  1  0.40514057  0.15448150  0.27428843  1
  Zr  Zr3  1  0.88138345  0.65035888  0.46916920  1
  Zr  Zr4  1  0.92450264  0.51562295  0.15414916  1
  Zr  Zr5  1  0.53458547  0.38294045  0.66280309  1
  Zr  Zr6  1  0.32036438  0.84990313  0.08295723  1
  Zr  Zr7  1  0.30856327  0.64966465  0.09848014  1
  Zr  Zr8  1  0.70030101  0.91203957  0.86594494  1
  Zr  Zr9  1  0.49481499  0.90927836  0.93300629  1
  Zr  Zr10  1  0.01943160  0.45414623  0.94399829  1
  Zr  Zr11  1  0.91478889  0.69544893  0.04142537  1
  Zr  Zr12  1  0.04191594  0.64445458  0.87236437  1
  Zr  Zr13  1  0.11616025  0.75030561  0.09151511  1
  Zr  Zr14  1  0.46646574  0.26915988  0.44334133  1
  Zr  Zr15  1  0.88748771  0.30729361  0.08699462  1
  Zr  Zr16  1  0.95321534  0.87989073  0.13977942  1
  Zr  Zr17  1  0.83671128  0.75947271  0.84020182  1
  Zr  Zr18  1  0.55789725  0.88928913  0.36508152  1
  Zr  Zr19  1  0.51948281  0.59765169  0.69199930  1
  Zr  Zr20  1  0.33282664  0.46165719  0.71222408  1
  Zr  Zr21  1  0.29755330  0.09206643  0.70890718  1
  Zr  Zr22  1  0.55838082  0.49385631  0.31273997  1
  Zr  Zr23  1  0.73844638  0.09556963  0.64917433  1
  Zr  Zr24  1  0.27747982  0.59327099  0.54399809  1
  Zr  Zr25  1  0.43182082  0.68979301  0.89892266  1
  Zr  Zr26  1  0.02932943  0.84702181  0.90987323  1
  Zr  Zr27  1  0.16531259  0.90247109  0.74918099  1
  Zr  Zr28  1  0.92309059  0.43061484  0.73337850  1
  Zr  Zr29  1  0.17625934  0.27255852  0.71061830  1
  Zr  Zr30  1  0.84419618  0.08909255  0.15804311  1
  Zr  Zr31  1  0.20373433  0.26952420  0.34616694  1
  Zr  Zr32  1  0.09287718  0.35299316  0.11798390  1
  Zr  Zr33  1  0.73898304  0.40896007  0.20428823  1
  Zr  Zr34  1  0.61346052  0.70373491  0.26798473  1
  Zr  Zr35  1  0.23790492  0.39143658  0.50763650  1
  Zr  Zr36  1  0.64891206  0.54907522  0.52284059  1
  Zr  Zr37  1  0.83810187  0.70593350  0.24872282  1
  Zr  Zr38  1  0.46486935  0.48124125  0.88400082  1
  Zr  Zr39  1  0.57220116  0.80501837  0.58319506  1
  Zr  Zr40  1  0.53237248  0.17938090  0.67384683  1
  Zr  Zr41  1  0.39037691  0.83103800  0.49868587  1
  Zr  Zr42  1  0.09378538  0.06705333  0.65506434  1
  Zr  Zr43  1  0.70841370  0.59408931  0.11887213  1
  Zr  Zr44  1  0.06401254  0.05174512  0.87832049  1
  Zr  Zr45  1  0.14637497  0.70344677  0.67777957  1
  Zr  Zr46  1  0.83299229  0.06764407  0.38777603  1
  Zr  Zr47  1  0.43766189  0.45913084  0.49990356  1
  Zr  Zr48  1  0.48389382  0.53181141  0.11173152  1
  Zr  Zr49  1  0.66569037  0.12319923  0.86075895  1
  Sc  Sc50  1  0.48190730  0.65881506  0.44998528  1
  Sc  Sc51  1  0.83637992  0.54438630  0.91629825  1
  Sc  Sc52  1  0.64476058  0.64511722  0.91212122  1
  Sc  Sc53  1  0.33674060  0.05625520  0.09030268  1
  Sc  Sc54  1  0.64702307  0.42760097  1.00227367  1
  Sc  Sc55  1  1.03557941  0.26827727  0.88582091  1
  Sc  Sc56  1  0.50434555  0.94307581  0.15916418  1
  Sc  Sc57  1  0.56847252  0.28876401  0.23163639  1
  Sc  Sc58  1  0.69801153  0.48897616  0.75877534  1
  Sc  Sc59  1  0.52234016  0.74235859  0.07647093  1
  Sc  Sc60  1  0.02952889  0.34770946  0.54846780  1
  Sc  Sc61  1  0.86180793  0.13931281  0.94095560  1
  Sc  Sc62  1  0.06396580  0.54704615  0.51248340  1
  Sc  Sc63  1  0.91206282  0.41857813  0.35621003  1
  Sc  Sc64  1  0.34037777  0.96376838  0.33731922  1
  Sc  Sc65  1  0.12519782  0.48631210  0.72670350  1
  Sc  Sc66  1  0.74560055  0.68064670  0.65608003  1
  Sc  Sc67  1  0.16213008  0.87332402  0.25707908  1
  Sc  Sc68  1  0.22001830  0.74038336  0.40887433  1
  Sc  Sc69  1  0.45147528  0.10135690  0.87086657  1
  Sc  Sc70  1  0.62784913  0.08567098  0.26255548  1
  Sc  Sc71  1  0.04526931  0.15451776  0.46057816  1
  Sc  Sc72  1  0.98400788  0.23022349  0.27650535  1
  Sc  Sc73  1  0.44370616  0.32605007  0.03828640  1
  Sc  Sc74  1  0.39810225  0.76860556  0.27013525  1
  Sc  Sc75  1  0.18172158  0.08657945  0.25806544  1
  Sc  Sc76  1  0.46131804  0.03687303  0.52494420  1
  Sc  Sc77  1  0.32830540  0.56663822  0.31179891  1
  Sc  Sc78  1  0.07529142  0.95167005  0.45949905  1
  Sc  Sc79  1  0.39531343  0.90773410  0.72241402  1
  Sc  Sc80  1  0.26232576  0.11520610  0.48805465  1
  Sc  Sc81  1  0.84726426  0.25081595  0.49163656  1
  Sc  Sc82  1  0.38234740  0.28676342  0.81895201  1
  Sc  Sc83  1  0.05313831  0.64624805  0.29072507  1
  Sc  Sc84  1  0.35618568  0.71647316  0.69286563  1
  Sc  Sc85  1  0.79823247  0.32512309  0.88172120  1
  Sc  Sc86  1  0.97411316  0.84383638  0.67214436  1
  Sc  Sc87  1  0.26586722  0.24640368  0.12391401  1
  Sc  Sc88  1  0.13849619  0.45850793  0.29736219  1
  Sc  Sc89  1  0.37408457  0.37458962  0.27425147  1
  Sc  Sc90  1  0.68235692  0.01352264  0.05320071  1
  Sc  Sc91  1  0.24884576  0.56371177  0.89879015  1
  Sc  Sc92  1  0.93173437  0.20447148  0.70305969  1
  Sc  Sc93  1  0.72939086  0.30693094  0.66510339  1
  Sc  Sc94  1  0.64373391  0.16866279  0.46430905  1
  Sc  Sc95  1  0.04668310  0.14023117  0.08223770  1
  Sc  Sc96  1  0.76625680  0.90336350  0.27378337  1
  Sc  Sc97  1  0.23575270  0.76650152  0.89886605  1
  Sc  Sc98  1  0.27770587  0.97143808  0.90572233  1
  Sc  Sc99  1  0.88769522  0.99810949  0.77746739  1
  Nb  Nb100  1  0.35730633  0.26810733  0.60849583  1
  Nb  Nb101  1  0.57705090  0.78415653  0.77891217  1
  Nb  Nb102  1  0.13286350  0.96395383  0.06433805  1
  Nb  Nb103  1  0.22789449  0.89600060  0.56533403  1
  Nb  Nb104  1  0.75411501  0.88080572  0.66118036  1
  Nb  Nb105  1  0.70954232  0.75298857  0.43769956  1
  Nb  Nb106  1  0.04961649  0.75238988  0.50933779  1
  Nb  Nb107  1  0.58381198  0.29108826  0.86705392  1
  Nb  Nb108  1  0.22313898  0.37250335  0.92558494  1
  Nb  Nb109  1  0.94454330  0.62429246  0.68305143  1
  Nb  Nb110  1  0.68056455  0.37197629  0.43220317  1
  Nb  Nb111  1  0.90374494  0.02941919  0.56830889  1
  Nb  Nb112  1  0.85996543  0.86363269  0.48624639  1
  Nb  Nb113  1  0.97104396  0.82189907  0.33644851  1
  Nb  Nb114  1  -0.00680943  0.01422094  0.27557146  1
  Nb  Nb115  1  0.58121924  0.98137961  0.70883581  1
  Nb  Nb116  1  0.28067790  0.45489168  0.10116797  1
  Nb  Nb117  1  0.69692004  0.23008870  0.06541212  1
  Nb  Nb118  1  0.11655036  0.55894843  0.08194860  1
  Nb  Nb119  1  0.77187243  0.24006626  0.28511368  1
  Nb  Nb120  1  0.68222023  -0.03466285  0.49688167  1
  Nb  Nb121  1  0.87310219  0.94229493  0.98108377  1
  Nb  Nb122  1  0.83379474  0.47132041  0.55525735  1
  Nb  Nb123  1  0.52763382  0.14720065  0.06263782  1
  Nb  Nb124  1  0.75460951  0.55283634  0.34475005  1
