# generated using pymatgen
data_Zr2Sc2Nb
_symmetry_space_group_name_H-M   'P 1'
_cell_length_a   14.13885497
_cell_length_b   14.76222776
_cell_length_c   13.91527762
_cell_angle_alpha   89.88906508
_cell_angle_beta   90.50983498
_cell_angle_gamma   89.70993292
_symmetry_Int_Tables_number   1
_chemical_formula_structural   Zr2Sc2Nb
_chemical_formula_sum   'Zr50 Sc50 Nb25'
_cell_volume   2904.25272027
_cell_formula_units_Z   25
loop_
 _symmetry_equiv_pos_site_id
 _symmetry_equiv_pos_as_xyz
  1  'x, y, z'
loop_
 _atom_site_type_symbol
 _atom_site_label
 _atom_site_symmetry_multiplicity
 _atom_site_fract_x
 _atom_site_fract_y
 _atom_site_fract_z
 _atom_site_occupancy
  Zr  Zr0  1  0.37838821  0.96845688  0.31661690  1
  Zr  Zr1  1  0.27720941  0.24953406  0.40183414  1
  Zr  Zr2  1  0.21393237  0.10280257  0.27569827  1
  Zr  Zr3  1  0.05643787  0.54884097  0.43331853  1
  Zr  Zr4  1  0.75827718  0.82695433  0.27160877  1
  Zr  Zr5  1  0.52570818  0.38896598  0.94305732  1
  Zr  Zr6  1  0.82239666  0.04931487  0.34900658  1
  Zr  Zr7  1  0.70741571  0.31913557  0.82859418  1
  Zr  Zr8  1  0.66212374  0.74409550  0.89464341  1
  Zr  Zr9  1  0.67885405  0.66780467  0.52762326  1
  Zr  Zr10  1  0.80920411  0.25224305  0.63384375  1
  Zr  Zr11  1  0.91474554  0.77801934  0.67373588  1
  Zr  Zr12  1  0.62425076  -0.00639845  0.33863304  1
  Zr  Zr13  1  0.23847282  0.44082373  0.32848243  1
  Zr  Zr14  1  0.45785940  0.52962779  0.31110029  1
  Zr  Zr15  1  0.45639717  0.65594342  0.48201729  1
  Zr  Zr16  1  0.45742919  0.25675675  0.53289996  1
  Zr  Zr17  1  0.90478563  0.21220709  0.44864241  1
  Zr  Zr18  1  0.95965844  0.56438091  0.72984088  1
  Zr  Zr19  1  0.86104210  0.81784281  0.88012308  1
  Zr  Zr20  1  0.13207022  0.47830318  0.63454433  1
  Zr  Zr21  1  0.30665777  0.94741476  0.75132136  1
  Zr  Zr22  1  0.73750827  0.05656878  0.15153880  1
  Zr  Zr23  1  0.97764299  0.96376133  0.52047470  1
  Zr  Zr24  1  0.07197796  0.17883076  0.85890774  1
  Zr  Zr25  1  0.03551119  0.76801809  0.48955248  1
  Zr  Zr26  1  0.21691571  0.46801750  0.09098291  1
  Zr  Zr27  1  0.27206129  0.61200645  0.25600084  1
  Zr  Zr28  1  0.93401573  0.38063123  0.81912456  1
  Zr  Zr29  1  0.89432967  0.62532940  0.92318472  1
  Zr  Zr30  1  0.65493095  0.20060282  0.28699320  1
  Zr  Zr31  1  0.06364277  0.52110492  0.21727501  1
  Zr  Zr32  1  0.26717401  0.29683937  0.18954819  1
  Zr  Zr33  1  0.08874694  0.34397292  0.45027172  1
  Zr  Zr34  1  0.26566903  0.65762684  0.85085264  1
  Zr  Zr35  1  0.36534322  0.62503876  0.05517641  1
  Zr  Zr36  1  0.65501857  0.63551864  0.30361912  1
  Zr  Zr37  1  0.83269200  0.25171245  0.21682517  1
  Zr  Zr38  1  0.55988201  0.66272130  0.70202290  1
  Zr  Zr39  1  0.36077724  0.55415651  0.69642357  1
  Zr  Zr40  1  0.31508928  0.08245633  0.54496371  1
  Zr  Zr41  1  0.51845432  0.94390366  0.74156764  1
  Zr  Zr42  1  0.64354464  0.87312460  0.11072663  1
  Zr  Zr43  1  0.34800419  0.75301043  0.65350826  1
  Zr  Zr44  1  0.94969597  0.88038624  0.31045358  1
  Zr  Zr45  1  0.55325636  0.26063347  0.11404881  1
  Zr  Zr46  1  0.15126859  0.07543550  0.69136868  1
  Zr  Zr47  1  0.09193160  0.52579600  0.90189848  1
  Zr  Zr48  1  0.15232945  0.65766009  0.05916722  1
  Zr  Zr49  1  0.89143619  0.62324015  0.54217530  1
  Sc  Sc50  1  0.78493057  0.84466897  0.48719861  1
  Sc  Sc51  1  0.66498567  0.42358516  0.25768589  1
  Sc  Sc52  1  0.70453986  0.96538501  0.90568191  1
  Sc  Sc53  1  0.90452023  0.42008056  0.32806541  1
  Sc  Sc54  1  0.23499454  0.64443053  0.49316594  1
  Sc  Sc55  1  0.45905106  0.14021558  0.34853259  1
  Sc  Sc56  1  0.72446379  0.33775748  0.45074614  1
  Sc  Sc57  1  0.17162917  0.35281304  0.80654671  1
  Sc  Sc58  1  0.44763375  0.77880114  0.83686833  1
  Sc  Sc59  1  0.75704379  0.46586125  0.65199856  1
  Sc  Sc60  1  0.25776383  0.80560921  0.18030789  1
  Sc  Sc61  1  0.48747839  0.95282514  0.96921231  1
  Sc  Sc62  1  0.88614926  0.65218061  0.31483140  1
  Sc  Sc63  1  0.10132041  0.72402107  0.29460441  1
  Sc  Sc64  1  0.32012614  0.06823765  0.93097391  1
  Sc  Sc65  1  0.86557100  0.90156647  0.08906282  1
  Sc  Sc66  1  0.50578253  0.17291420  0.90505137  1
  Sc  Sc67  1  0.12890917  0.69608524  0.68057349  1
  Sc  Sc68  1  0.55191128  0.81346117  0.36717580  1
  Sc  Sc69  1  0.46728182  0.33419723  0.31724801  1
  Sc  Sc70  1  0.15555995  0.14823581  0.06788443  1
  Sc  Sc71  1  0.72716441  0.37239069  0.05171388  1
  Sc  Sc72  1  0.05295767  0.28337523  0.22719082  1
  Sc  Sc73  1  0.06751693  0.75363003  0.89010910  1
  Sc  Sc74  1  0.33969965  0.44475614  0.51489267  1
  Sc  Sc75  1  0.32289221  0.46992810  0.90423118  1
  Sc  Sc76  1  0.56612489  0.46780973  0.73951800  1
  Sc  Sc77  1  0.31736057  0.28042020  0.97330798  1
  Sc  Sc78  1  0.71671582  0.16740752  0.97963645  1
  Sc  Sc79  1  0.08959053  0.93845748  0.15686875  1
  Sc  Sc80  1  0.96323327  0.72400491  0.11478486  1
  Sc  Sc81  1  0.40934372  0.33665098  0.74326451  1
  Sc  Sc82  1  0.67002622  0.10687665  0.73304014  1
  Sc  Sc83  1  0.92200023  0.02841354  0.91744486  1
  Sc  Sc84  1  0.10954961  0.13208695  0.48855561  1
  Sc  Sc85  1  0.16664361  0.92219869  0.37909044  1
  Sc  Sc86  1  0.91319606  0.26040591  0.00041211  1
  Sc  Sc87  1  0.57691123  0.54848715  0.09640111  1
  Sc  Sc88  1  0.04823907  0.91238043  0.74452851  1
  Sc  Sc89  1  0.70538746  0.52999528  0.90217469  1
  Sc  Sc90  1  0.54162181  0.02259536  0.53957873  1
  Sc  Sc91  1  0.37641259  0.89686682  0.52094289  1
  Sc  Sc92  1  0.23773052  0.27697323  0.61044436  1
  Sc  Sc93  1  0.93012697  0.46696864  0.06429362  1
  Sc  Sc94  1  0.70499022  0.84395283  0.69902144  1
  Sc  Sc95  1  0.56452018  0.46895674  0.51029846  1
  Sc  Sc96  1  0.74788841  0.68321161  0.09306723  1
  Sc  Sc97  1  0.13427914  0.97256559  0.93644995  1
  Sc  Sc98  1  0.94882146  0.09887589  0.12543257  1
  Sc  Sc99  1  0.29647660  0.83023146  0.97533382  1
  Nb  Nb100  1  0.53172926  0.05112606  0.15408147  1
  Nb  Nb101  1  0.29986349  0.99031240  0.11607026  1
  Nb  Nb102  1  0.45254434  0.13063850  0.69929193  1
  Nb  Nb103  1  0.33599829  0.77433654  0.36566257  1
  Nb  Nb104  1  0.01539019  0.08015144  0.31493795  1
  Nb  Nb105  1  0.18264719  0.88277915  0.58468080  1
  Nb  Nb106  1  0.09981107  0.34182345  0.00958039  1
  Nb  Nb107  1  0.92893307  0.41741714  0.55398686  1
  Nb  Nb108  1  0.51963462  0.74213260  0.03307993  1
  Nb  Nb109  1  0.02890239  0.27620481  0.65806689  1
  Nb  Nb110  1  0.86170074  0.18180829  0.80888084  1
  Nb  Nb111  1  0.41587521  0.42316906  0.12579235  1
  Nb  Nb112  1  0.54803272  0.81618159  0.57742609  1
  Nb  Nb113  1  0.38235128  0.15457832  0.13426098  1
  Nb  Nb114  1  0.44970357  0.86940323  0.16805508  1
  Nb  Nb115  1  0.28868840  0.17765242  0.77840441  1
  Nb  Nb116  1  0.76709684  0.52127170  0.43366774  1
  Nb  Nb117  1  0.77632197  0.04040304  0.55528409  1
  Nb  Nb118  1  0.84774634  0.97550450  0.72729153  1
  Nb  Nb119  1  0.46656240  0.69602372  0.22392793  1
  Nb  Nb120  1  0.77033192  0.65166996  0.73921938  1
  Nb  Nb121  1  0.49042555  0.59047996  0.89166227  1
  Nb  Nb122  1  0.65697765  0.16561800  0.49044522  1
  Nb  Nb123  1  0.60710333  0.28715169  0.64976841  1
  Nb  Nb124  1  0.95439424  0.10718173  0.65519091  1
