# generated using pymatgen
data_Zr2Sc2Nb
_symmetry_space_group_name_H-M   'P 1'
_cell_length_a   13.47056561
_cell_length_b   14.74366542
_cell_length_c   14.38323226
_cell_angle_alpha   91.69081069
_cell_angle_beta   90.27929072
_cell_angle_gamma   88.26615183
_symmetry_Int_Tables_number   1
_chemical_formula_structural   Zr2Sc2Nb
_chemical_formula_sum   'Zr50 Sc50 Nb25'
_cell_volume   2854.01551330
_cell_formula_units_Z   25
loop_
 _symmetry_equiv_pos_site_id
 _symmetry_equiv_pos_as_xyz
  1  'x, y, z'
loop_
 _atom_site_type_symbol
 _atom_site_label
 _atom_site_symmetry_multiplicity
 _atom_site_fract_x
 _atom_site_fract_y
 _atom_site_fract_z
 _atom_site_occupancy
  Zr  Zr0  1  0.89863902  -0.03472195  0.12778384  1
  Zr  Zr1  1  0.76718764  0.93639528  0.76165314  1
  Zr  Zr2  1  0.11306135  0.34957553  0.42941695  1
  Zr  Zr3  1  0.49826429  0.06965229  0.42716380  1
  Zr  Zr4  1  0.40828280  0.55672907  0.29623699  1
  Zr  Zr5  1  0.79134417  0.58407786  0.10622777  1
  Zr  Zr6  1  0.32863194  0.15676967  0.30307571  1
  Zr  Zr7  1  0.73808536  0.47453034  0.92931323  1
  Zr  Zr8  1  0.85194057  0.26943195  0.59139359  1
  Zr  Zr9  1  0.29721252  0.84297131  0.74195405  1
  Zr  Zr10  1  0.68626494  1.02219513  0.10843243  1
  Zr  Zr11  1  0.71164039  0.78032782  0.40512684  1
  Zr  Zr12  1  0.08887896  0.74539414  0.22786092  1
  Zr  Zr13  1  0.94876855  0.47840530  0.37430927  1
  Zr  Zr14  1  0.50949057  0.05763524  0.22313064  1
  Zr  Zr15  1  0.28503074  0.35688855  0.28737683  1
  Zr  Zr16  1  0.71527010  0.80699745  0.18571407  1
  Zr  Zr17  1  0.65600450  0.61573640  0.60735030  1
  Zr  Zr18  1  0.12306862  0.15217094  0.35519821  1
  Zr  Zr19  1  0.26023055  0.74974982  0.94599116  1
  Zr  Zr20  1  1.00295152  0.54980498  0.17723660  1
  Zr  Zr21  1  0.25987619  0.84157265  0.53366485  1
  Zr  Zr22  1  0.52507221  0.83036315  0.29355372  1
  Zr  Zr23  1  0.36723527  0.44541009  0.12158907  1
  Zr  Zr24  1  0.58345316  0.42343743  0.25839299  1
  Zr  Zr25  1  0.44100372  0.22148432  0.81836594  1
  Zr  Zr26  1  0.44374654  0.32503833  0.62339564  1
  Zr  Zr27  1  0.19149754  0.55023206  0.87828237  1
  Zr  Zr28  1  0.87282153  0.07011999  0.56822738  1
  Zr  Zr29  1  0.26399449  0.03890297  0.48390845  1
  Zr  Zr30  1  0.24674229  0.25046308  0.72107958  1
  Zr  Zr31  1  0.24807902  0.23972426  0.11575316  1
  Zr  Zr32  1  0.89843311  0.76196712  0.72136041  1
  Zr  Zr33  1  0.72222263  0.35920935  0.42803851  1
  Zr  Zr34  1  0.28670401  0.82163985  0.14424447  1
  Zr  Zr35  1  0.10856597  0.89650888  0.05179294  1
  Zr  Zr36  1  0.90790749  0.76796701  0.10845445  1
  Zr  Zr37  1  0.28657991  0.23565194  0.50496207  1
  Zr  Zr38  1  0.51341417  0.37125591  0.96860714  1
  Zr  Zr39  1  0.94341299  0.87698783  0.90424840  1
  Zr  Zr40  1  0.84786751  0.68811050  0.91769330  1
  Zr  Zr41  1  0.07572369  0.67544705  0.02132980  1
  Zr  Zr42  1  0.70592465  0.35055314  0.08745167  1
  Zr  Zr43  1  0.23241753  0.47666441  0.67766342  1
  Zr  Zr44  1  0.40434925  0.43421663  0.80143063  1
  Zr  Zr45  1  0.62886797  0.21393444  0.60914595  1
  Zr  Zr46  1  0.39696158  0.57914860  0.96353035  1
  Zr  Zr47  1  0.81502009  0.15393098  0.75748391  1
  Zr  Zr48  1  0.87132957  0.46790300  0.57006127  1
  Zr  Zr49  1  0.66336307  0.41901711  0.63695869  1
  Sc  Sc50  1  0.79694922  0.57276077  0.75270571  1
  Sc  Sc51  1  0.72726557  0.55968230  0.41471010  1
  Sc  Sc52  1  0.47117524  0.78119390  0.88188593  1
  Sc  Sc53  1  0.30192221  0.73737653  0.33604521  1
  Sc  Sc54  1  0.17652063  0.55548501  0.32472719  1
  Sc  Sc55  1  0.87990940  0.87612570  0.52961411  1
  Sc  Sc56  1  0.88920459  0.66530142  0.53454490  1
  Sc  Sc57  1  0.63987803  0.18227292  -0.02181456  1
  Sc  Sc58  1  0.71532916  0.15353245  0.43372593  1
  Sc  Sc59  1  0.51062595  0.88597405  0.08529145  1
  Sc  Sc60  1  0.15662397  0.68673942  0.65168620  1
  Sc  Sc61  1  0.60622385  0.09263893  0.77949678  1
  Sc  Sc62  1  0.57754499  0.52745014  0.08481965  1
  Sc  Sc63  1  0.47754632  0.88266318  0.51054656  1
  Sc  Sc64  1  0.56910137  0.58518097  0.81951253  1
  Sc  Sc65  1  0.30952437  0.44382103  0.47760128  1
  Sc  Sc66  1  0.96198308  0.51326337  0.92863603  1
  Sc  Sc67  1  0.44911104  0.53877828  0.63316140  1
  Sc  Sc68  1  0.65774825  1.00349210  0.57461414  1
  Sc  Sc69  1  0.86535035  0.18093108  0.10871783  1
  Sc  Sc70  1  0.28346043  0.02831580  0.13487606  1
  Sc  Sc71  1  0.47807719  0.26138799  0.15808672  1
  Sc  Sc72  1  0.34443149  0.94142623  0.32347169  1
  Sc  Sc73  1  0.51272332  0.68145251  0.44786430  1
  Sc  Sc74  1  0.07402520  0.75967433  0.44468880  1
  Sc  Sc75  1  0.21709657  0.12828340  0.90849888  1
  Sc  Sc76  1  0.07424276  0.11039531  0.14987864  1
  Sc  Sc77  1  0.11787735  0.94295188  0.28847278  1
  Sc  Sc78  1  0.68387259  0.80341036  0.60825504  1
  Sc  Sc79  1  0.52997049  0.47129033  0.45892306  1
  Sc  Sc80  1  0.45752704  0.69244468  0.13754332  1
  Sc  Sc81  1  0.14605510  0.44303132  0.06401000  1
  Sc  Sc82  1  0.50114821  0.27077209  0.39520197  1
  Sc  Sc83  1  0.08803189  0.37237093  0.83827425  1
  Sc  Sc84  1  0.65155747  0.31519031  0.80678645  1
  Sc  Sc85  1  0.68812897  0.21215571  0.24227683  1
  Sc  Sc86  1  0.90949324  0.26339304  0.37466294  1
  Sc  Sc87  1  0.91788094  0.05513799  0.34414536  1
  Sc  Sc88  1  0.28621538  0.33078794  0.93736851  1
  Sc  Sc89  1  0.43679056  0.10891371  0.00545718  1
  Sc  Sc90  1  0.70396769  0.97430735  0.32791170  1
  Sc  Sc91  1  0.00199485  0.07792584  0.94102957  1
  Sc  Sc92  1  0.87017619  0.66648563  0.30175556  1
  Sc  Sc93  1  0.85639051  0.26802003  0.92168562  1
  Sc  Sc94  1  0.09278863  0.54633591  0.52249028  1
  Sc  Sc95  1  0.42876967  0.09726402  0.62903593  1
  Sc  Sc96  1  0.06920341  0.16461079  0.56389011  1
  Sc  Sc97  1  0.04978492  0.32492603  0.21945068  1
  Sc  Sc98  1  0.05776868  0.36012388  0.63161320  1
  Sc  Sc99  1  0.19586185  0.04110294  0.68742796  1
  Nb  Nb100  1  0.58105704  -0.04328856  0.91218835  1
  Nb  Nb101  1  0.52813004  0.90719527  0.72270333  1
  Nb  Nb102  1  0.79341661  0.04213354  0.93055711  1
  Nb  Nb103  1  0.30952207  0.64150588  0.51991814  1
  Nb  Nb104  1  0.38503348  0.01992443  0.81211487  1
  Nb  Nb105  1  0.33018798  0.64524817  0.76790025  1
  Nb  Nb106  1  0.07226446  0.86609535  0.66037739  1
  Nb  Nb107  1  0.80348253  0.43857871  0.24573080  1
  Nb  Nb108  1  0.33294000  0.92997916  0.95755358  1
  Nb  Nb109  1  0.63173331  0.63245780  0.25446544  1
  Nb  Nb110  1  0.24781621  0.61857070  0.13395408  1
  Nb  Nb111  1  0.06404388  0.97034479  0.49487312  1
  Nb  Nb112  1  0.01180699  0.55524612  0.72821542  1
  Nb  Nb113  1  0.91020709  0.85938418  0.31615937  1
  Nb  Nb114  1  0.08418139  0.73386965  0.82971105  1
  Nb  Nb115  1  0.87465095  0.38046346  0.76068465  1
  Nb  Nb116  1  1.02401719  0.19782844  0.77156642  1
  Nb  Nb117  1  0.06058063  0.26327997  0.00322868  1
  Nb  Nb118  1  0.74060890  0.86150568  0.98404295  1
  Nb  Nb119  1  0.67202374  0.76506046  0.80702986  1
  Nb  Nb120  1  0.47046337  0.73528610  0.65975972  1
  Nb  Nb121  1  0.91168250  0.39311652  0.07604034  1
  Nb  Nb122  1  0.97586309  1.00841387  0.73581135  1
  Nb  Nb123  1  0.14991945  0.93020787  0.85293242  1
  Nb  Nb124  1  0.63668067  0.70146148  0.00460281  1
