# generated using pymatgen
data_Zr2Sc2Nb
_symmetry_space_group_name_H-M   'P 1'
_cell_length_a   14.27339135
_cell_length_b   14.44836055
_cell_length_c   13.99660269
_cell_angle_alpha   90.28305623
_cell_angle_beta   87.93981512
_cell_angle_gamma   89.19333441
_symmetry_Int_Tables_number   1
_chemical_formula_structural   Zr2Sc2Nb
_chemical_formula_sum   'Zr50 Sc50 Nb25'
_cell_volume   2884.28434344
_cell_formula_units_Z   25
loop_
 _symmetry_equiv_pos_site_id
 _symmetry_equiv_pos_as_xyz
  1  'x, y, z'
loop_
 _atom_site_type_symbol
 _atom_site_label
 _atom_site_symmetry_multiplicity
 _atom_site_fract_x
 _atom_site_fract_y
 _atom_site_fract_z
 _atom_site_occupancy
  Zr  Zr0  1  0.11368326  0.18305336  0.59175097  1
  Zr  Zr1  1  0.27934519  0.58636987  0.93123929  1
  Zr  Zr2  1  0.32945624  0.06810406  0.09619577  1
  Zr  Zr3  1  0.72792940  0.04726336  0.08737213  1
  Zr  Zr4  1  0.95142093  0.00005341  0.34530112  1
  Zr  Zr5  1  0.53614344  0.22664944  0.54864517  1
  Zr  Zr6  1  0.70460488  0.45524927  0.70801389  1
  Zr  Zr7  1  0.70758726  0.22855814  0.69599730  1
  Zr  Zr8  1  0.35140833  0.50259545  0.71213381  1
  Zr  Zr9  1  0.38934132  0.47562863  0.50245768  1
  Zr  Zr10  1  0.07096537  1.01925580  0.76140431  1
  Zr  Zr11  1  0.16473565  0.47066149  0.79906501  1
  Zr  Zr12  1  0.93629004  0.04739423  0.13268948  1
  Zr  Zr13  1  0.06568009  0.52664457  0.98121625  1
  Zr  Zr14  1  0.25188454  0.75352377  0.47275076  1
  Zr  Zr15  1  0.94359936  0.45916571  0.80290465  1
  Zr  Zr16  1  0.24860913  0.97261030  0.52864077  1
  Zr  Zr17  1  0.13130762  0.21515520  0.12114739  1
  Zr  Zr18  1  0.37791847  0.35999496  0.85900735  1
  Zr  Zr19  1  0.51876335  0.51176681  0.85955926  1
  Zr  Zr20  1  0.47871796  0.48363534  0.26901990  1
  Zr  Zr21  1  0.74826961  0.28052251  0.47389952  1
  Zr  Zr22  1  0.48882743  0.22281278  0.99147461  1
  Zr  Zr23  1  0.32570439  0.15022111  0.48517055  1
  Zr  Zr24  1  0.04936442  0.64013823  0.72273739  1
  Zr  Zr25  1  -0.03214654  0.35886202  0.44335745  1
  Zr  Zr26  1  0.49793410  0.01799393  0.95627972  1
  Zr  Zr27  1  0.53372248  0.08764982  0.16227864  1
  Zr  Zr28  1  0.41704143  0.31152245  0.38557650  1
  Zr  Zr29  1  0.23895929  0.87791681  0.14021517  1
  Zr  Zr30  1  0.61902836  0.34646057  0.88338164  1
  Zr  Zr31  1  0.88254405  0.09774543  0.91664528  1
  Zr  Zr32  1  0.84687320  0.90123541  0.49412256  1
  Zr  Zr33  1  0.91721433  0.15758807  0.51013458  1
  Zr  Zr34  1  0.16381431  0.26866023  0.79159239  1
  Zr  Zr35  1  0.07383058  0.94635602  0.00882104  1
  Zr  Zr36  1  0.87156682  0.85333747  0.05287491  1
  Zr  Zr37  1  0.78430688  0.49751912  0.50700558  1
  Zr  Zr38  1  0.32668956  0.29804134  0.64230922  1
  Zr  Zr39  1  0.21329668  0.34572129  0.46996303  1
  Zr  Zr40  1  0.87609311  0.34258014  0.64172311  1
  Zr  Zr41  1  0.07893604  0.13598084  0.94025263  1
  Zr  Zr42  1  0.03040333  0.97712469  0.55131026  1
  Zr  Zr43  1  0.73211153  0.72088245  0.34804603  1
  Zr  Zr44  1  0.63858266  0.86112989  0.07441624  1
  Zr  Zr45  1  0.35084815  0.86834874  0.70449198  1
  Zr  Zr46  1  0.46558753  0.02131462  0.58819284  1
  Zr  Zr47  1  0.74574624  0.53006657  0.90483766  1
  Zr  Zr48  1  0.70603945  0.08191057  0.52540678  1
  Zr  Zr49  1  0.44199143  0.29662918  0.16359462  1
  Sc  Sc50  1  0.11119785  0.50891724  0.36307461  1
  Sc  Sc51  1  0.33333668  0.79525594  0.94408838  1
  Sc  Sc52  1  0.67340019  0.14556243  0.89298811  1
  Sc  Sc53  1  0.83752952  0.63034865  0.71307092  1
  Sc  Sc54  1  0.25894866  0.97766396  0.89756192  1
  Sc  Sc55  1  0.85744268  0.45170741  0.05559750  1
  Sc  Sc56  1  0.48139167  0.17612465  0.76934236  1
  Sc  Sc57  1  0.61450171  0.29168148  0.29501985  1
  Sc  Sc58  1  0.97250600  0.64070840  0.15783756  1
  Sc  Sc59  1  0.61880149  0.46982973  0.08372529  1
  Sc  Sc60  1  0.28087124  0.08988581  0.70844308  1
  Sc  Sc61  1  0.90473090  0.24205997  0.08463764  1
  Sc  Sc62  1  0.83152291  0.35406912  0.27257811  1
  Sc  Sc63  1  0.19107752  0.55519965  0.56805781  1
  Sc  Sc64  1  0.33879029  0.98893743  0.30861006  1
  Sc  Sc65  1  0.54775990  0.68912642  0.20460067  1
  Sc  Sc66  1  0.04773449  0.72082205  0.49886443  1
  Sc  Sc67  1  0.75878894  0.66236532  0.11712993  1
  Sc  Sc68  1  0.15052890  0.70853394  0.27008292  1
  Sc  Sc69  1  0.40423220  0.48079213  0.06248562  1
  Sc  Sc70  1  0.72951072  0.94914790  0.89136525  1
  Sc  Sc71  1  0.43230928  0.68465331  0.79013991  1
  Sc  Sc72  1  0.13716756  0.72276638  0.04646947  1
  Sc  Sc73  1  0.64413715  0.88069127  0.48155081  1
  Sc  Sc74  1  0.63689659  0.66394655  0.76788321  1
  Sc  Sc75  1  0.76086654  0.12363657  0.30130688  1
  Sc  Sc76  1  0.15001758  0.83540484  0.65211089  1
  Sc  Sc77  1  0.59148592  0.43275544  0.47159336  1
  Sc  Sc78  1  0.85278261  0.03487693  0.69694673  1
  Sc  Sc79  1  0.68842626  0.26246556  0.08449116  1
  Sc  Sc80  1  0.31352166  0.58837354  0.33738210  1
  Sc  Sc81  1  0.94126739  0.68113357  0.91901919  1
  Sc  Sc82  1  0.43066090  0.86132735  0.46535252  1
  Sc  Sc83  1  0.61790784  0.00763830  0.71558511  1
  Sc  Sc84  1  0.69156666  0.52203244  0.29175913  1
  Sc  Sc85  1  0.54061665  0.84956471  0.85052647  1
  Sc  Sc86  1  0.74852185  0.75042252  0.90931417  1
  Sc  Sc87  1  0.55969869  0.89573161  0.27810491  1
  Sc  Sc88  1  0.53356295  0.68149739  -0.00520141  1
  Sc  Sc89  1  0.29548296  0.17907868  0.92588402  1
  Sc  Sc90  1  0.90485820  0.56709571  0.35052656  1
  Sc  Sc91  1  0.03533164  0.40930062  0.17243553  1
  Sc  Sc92  1  0.29088785  0.18734801  0.27092334  1
  Sc  Sc93  1  0.22367023  0.37279862  0.01751412  1
  Sc  Sc94  1  0.13774750  0.89339319  0.36152272  1
  Sc  Sc95  1  0.52925405  0.09402921  0.38153486  1
  Sc  Sc96  1  0.74337794  0.83378211  0.68590656  1
  Sc  Sc97  1  0.11804265  0.80536825  0.85443028  1
  Sc  Sc98  1  0.51394872  0.66048649  0.41784452  1
  Sc  Sc99  1  0.78491769  0.90363733  0.25056556  1
  Nb  Nb100  1  0.67271830  0.66663034  0.55169829  1
  Nb  Nb101  1  0.52179645  0.37044223  0.68456638  1
  Nb  Nb102  1  0.24351856  0.67817231  0.74194665  1
  Nb  Nb103  1  0.53391093  0.56322099  0.62998804  1
  Nb  Nb104  1  0.07910450  0.37997748  0.63736090  1
  Nb  Nb105  1  0.34426465  0.67815722  0.12716351  1
  Nb  Nb106  1  1.02228373  0.86004911  0.18623699  1
  Nb  Nb107  1  0.12932815  0.04615539  0.21227719  1
  Nb  Nb108  1  0.53374777  0.79412505  0.63432480  1
  Nb  Nb109  1  0.93554738  0.77746756  0.33255239  1
  Nb  Nb110  1  0.96678177  0.21941742  0.76143516  1
  Nb  Nb111  1  0.36371748  0.78435295  0.28330867  1
  Nb  Nb112  1  -0.03426512  0.19027212  0.28787041  1
  Nb  Nb113  1  0.82275991  0.31087572  0.88073347  1
  Nb  Nb114  1  0.19934207  0.54522703  0.14591421  1
  Nb  Nb115  1  0.94806341  0.82149256  0.67876998  1
  Nb  Nb116  1  0.85205496  0.70489337  0.51805278  1
  Nb  Nb117  1  0.44093351  0.87657846  0.10732072  1
  Nb  Nb118  1  0.11478668  0.28699206  0.31765127  1
  Nb  Nb119  1  1.02468837  0.33213439  0.94095839  1
  Nb  Nb120  1  0.12876288  0.11017748  0.40182457  1
  Nb  Nb121  1  0.97331611  0.52950200  0.56638923  1
  Nb  Nb122  1  0.37974031  0.67776770  0.58532064  1
  Nb  Nb123  1  0.27016073  0.39727194  0.24365377  1
  Nb  Nb124  1  0.92682593  0.89506555  0.85347260  1
