# generated using pymatgen
data_Zr2Sc2Nb
_symmetry_space_group_name_H-M   'P 1'
_cell_length_a   14.07209545
_cell_length_b   14.12348861
_cell_length_c   14.47564434
_cell_angle_alpha   90.70243726
_cell_angle_beta   89.55730015
_cell_angle_gamma   88.62043411
_symmetry_Int_Tables_number   1
_chemical_formula_structural   Zr2Sc2Nb
_chemical_formula_sum   'Zr50 Sc50 Nb25'
_cell_volume   2875.84936974
_cell_formula_units_Z   25
loop_
 _symmetry_equiv_pos_site_id
 _symmetry_equiv_pos_as_xyz
  1  'x, y, z'
loop_
 _atom_site_type_symbol
 _atom_site_label
 _atom_site_symmetry_multiplicity
 _atom_site_fract_x
 _atom_site_fract_y
 _atom_site_fract_z
 _atom_site_occupancy
  Zr  Zr0  1  0.88846950  0.48372188  0.06026295  1
  Zr  Zr1  1  0.61584303  0.61602924  0.03472019  1
  Zr  Zr2  1  0.85138606  0.67311367  0.96992357  1
  Zr  Zr3  1  -0.00832474  0.83269441  0.67513100  1
  Zr  Zr4  1  0.49834323  0.87603060  0.84878514  1
  Zr  Zr5  1  0.83022031  0.89581827  0.26538540  1
  Zr  Zr6  1  0.78332395  0.46961829  0.67246920  1
  Zr  Zr7  1  0.54751467  0.83937081  0.06333284  1
  Zr  Zr8  1  0.63769392  0.71154234  0.68949456  1
  Zr  Zr9  1  0.43861026  0.74567523  0.42425116  1
  Zr  Zr10  1  1.00541768  0.39590683  0.66836591  1
  Zr  Zr11  1  0.13967363  0.98411304  0.04438717  1
  Zr  Zr12  1  0.28149675  0.29208302  0.46614543  1
  Zr  Zr13  1  0.32626699  0.48741074  0.91024635  1
  Zr  Zr14  1  0.18254207  0.27164946  0.24580391  1
  Zr  Zr15  1  0.75922688  0.93272680  0.99284066  1
  Zr  Zr16  1  0.38492398  0.06652708  0.90419157  1
  Zr  Zr17  1  0.25345488  -0.01883202  0.23164060  1
  Zr  Zr18  1  0.86819892  0.30203066  0.93073166  1
  Zr  Zr19  1  0.77899710  0.86678536  0.63344567  1
  Zr  Zr20  1  0.42759967  0.76055157  0.66680337  1
  Zr  Zr21  1  0.10136701  0.16546664  0.65335749  1
  Zr  Zr22  1  0.34869025  0.54712270  0.69677691  1
  Zr  Zr23  1  0.05555764  0.27960199  0.83440261  1
  Zr  Zr24  1  0.83439865  0.33812219  0.51845162  1
  Zr  Zr25  1  0.10196036  0.79150987  0.51813909  1
  Zr  Zr26  1  0.06397621  0.11618691  0.18586724  1
  Zr  Zr27  1  0.23110661  0.69354865  0.93433047  1
  Zr  Zr28  1  0.73446146  0.50297161  0.88895027  1
  Zr  Zr29  1  0.25322061  0.54196115  0.10380701  1
  Zr  Zr30  1  0.07640180  0.28823477  0.49805265  1
  Zr  Zr31  1  0.42995353  0.36609584  0.60313796  1
  Zr  Zr32  1  0.05102040  0.90043760  0.27156453  1
  Zr  Zr33  1  0.94326340  0.03249617  0.71447960  1
  Zr  Zr34  1  0.72081817  0.16337598  0.04302817  1
  Zr  Zr35  1  0.90743637  0.89511167  0.46698883  1
  Zr  Zr36  1  0.27339418  0.27170944  0.90382248  1
  Zr  Zr37  1  0.22479449  0.80066141  0.35609303  1
  Zr  Zr38  1  0.86650516  0.87028425  0.83931224  1
  Zr  Zr39  1  0.45297203  0.31781023  0.79713879  1
  Zr  Zr40  1  0.34462046  0.89357555  0.03364577  1
  Zr  Zr41  1  0.32786504  0.61513478  0.29215350  1
  Zr  Zr42  1  0.66829077  0.29127107  0.86419908  1
  Zr  Zr43  1  0.72861445  0.77519235  0.12999058  1
  Zr  Zr44  1  0.69671631  0.37822753  0.06856768  1
  Zr  Zr45  1  0.97676178  0.49425412  0.48329693  1
  Zr  Zr46  1  0.54934373  0.68876213  0.23692529  1
  Zr  Zr47  1  0.31551297  0.34549847  0.08776183  1
  Zr  Zr48  1  0.22687942  0.35372364  0.71182732  1
  Zr  Zr49  1  0.20492402  0.74022019  0.71205436  1
  Sc  Sc50  1  0.67408815  0.75134453  0.89036330  1
  Sc  Sc51  1  0.55142501  0.11662528  0.77398785  1
  Sc  Sc52  1  0.49669309  0.22518149  0.99539082  1
  Sc  Sc53  1  0.97962747  0.83570661  0.04126729  1
  Sc  Sc54  1  0.41419206  0.95796510  0.39278982  1
  Sc  Sc55  1  0.89016682  0.03328173  0.12705319  1
  Sc  Sc56  1  0.56803936  0.09804761  0.33534840  1
  Sc  Sc57  1  0.64417926  0.76336033  0.47851197  1
  Sc  Sc58  1  0.19390513  0.77663142  0.13165999  1
  Sc  Sc59  1  0.49733864  0.30456371  0.40141009  1
  Sc  Sc60  1  0.28187098  0.13435791  0.08387647  1
  Sc  Sc61  1  0.84239190  0.66740382  0.75099395  1
  Sc  Sc62  1  0.54755437  0.27322451  0.19521221  1
  Sc  Sc63  1  0.06890230  0.41897890  0.15850083  1
  Sc  Sc64  1  0.72065872  0.99133024  0.43104385  1
  Sc  Sc65  1  0.95875951  0.28432432  0.33122412  1
  Sc  Sc66  1  0.85789935  0.24566671  0.71880682  1
  Sc  Sc67  1  0.46054961  0.66043351  0.86670881  1
  Sc  Sc68  1  0.10883110  0.61838573  0.23929188  1
  Sc  Sc69  1  0.76801996  0.15534152  0.27377630  1
  Sc  Sc70  1  0.94963941  0.49605720  0.85442809  1
  Sc  Sc71  1  0.89900054  0.26831977  0.13152541  1
  Sc  Sc72  1  0.52309205  0.44352904  0.95479871  1
  Sc  Sc73  1  0.32286362  0.17192229  0.70820912  1
  Sc  Sc74  1  0.54108349  0.51179543  0.35644341  1
  Sc  Sc75  1  0.15204286  0.53424874  0.79918469  1
  Sc  Sc76  1  0.72463393  0.08071779  0.63769351  1
  Sc  Sc77  1  0.95827229  0.08994575  0.93649229  1
  Sc  Sc78  1  0.28789939  0.87830357  0.83874694  1
  Sc  Sc79  1  0.08024213  0.89677134  0.85976653  1
  Sc  Sc80  1  0.04460017  0.61555889  0.64284166  1
  Sc  Sc81  1  0.74061665  0.54412515  0.46437858  1
  Sc  Sc82  1  0.90412563  0.13353857  0.52308104  1
  Sc  Sc83  1  0.35998898  0.16853081  0.29659858  1
  Sc  Sc84  1  0.72005436  0.54579418  0.20032991  1
  Sc  Sc85  1  0.57343315  0.48743262  0.73889529  1
  Sc  Sc86  1  0.47957542  0.49170987  0.15255902  1
  Sc  Sc87  1  0.72117233  0.36386071  0.32573606  1
  Sc  Sc88  1  0.17053316  0.09016763  0.85430028  1
  Sc  Sc89  1  0.92051661  0.68588093  0.17141948  1
  Sc  Sc90  1  0.86950413  0.69012631  0.53779087  1
  Sc  Sc91  1  0.14134739  0.11312563  0.37564330  1
  Sc  Sc92  1  0.77253677  0.70883610  0.33176049  1
  Sc  Sc93  1  0.50209571  0.15265357  0.55815068  1
  Sc  Sc94  1  0.27800751  0.07924719  0.52392281  1
  Sc  Sc95  1  0.56175365  0.92419960  0.58920675  1
  Sc  Sc96  1  0.51598588  0.58606394  0.55561165  1
  Sc  Sc97  1  0.91634901  0.51052666  0.29624211  1
  Sc  Sc98  1  0.46674256  0.02988258  0.15239313  1
  Sc  Sc99  1  0.39054319  0.97968014  0.69095795  1
  Nb  Nb100  1  0.07514182  -0.00750649  0.51777733  1
  Nb  Nb101  1  0.06084610  0.60843575  0.02115372  1
  Nb  Nb102  1  0.18752836  0.47048191  0.56609451  1
  Nb  Nb103  1  0.58546057  0.02777625  0.96400546  1
  Nb  Nb104  1  0.62274811  0.39667738  0.53051960  1
  Nb  Nb105  1  0.09838142  0.23618440  0.03066202  1
  Nb  Nb106  1  0.59549869  0.87501366  0.29128980  1
  Nb  Nb107  1  0.40006898  0.67952933  0.07363434  1
  Nb  Nb108  1  0.34482855  0.39873778  0.28121255  1
  Nb  Nb109  1  0.14231561  0.61030509  0.43471480  1
  Nb  Nb110  1  0.64871372  0.28136148  0.66794043  1
  Nb  Nb111  1  0.12708210  0.42289034  0.96671629  1
  Nb  Nb112  1  0.67150477  0.93301692  0.78494270  1
  Nb  Nb113  1  0.93993309  0.05891955  0.34309814  1
  Nb  Nb114  1  0.98271082  0.72387281  0.36595925  1
  Nb  Nb115  1  0.15432299  0.43734998  0.35856744  1
  Nb  Nb116  1  0.67206194  0.99901760  0.16617397  1
  Nb  Nb117  1  0.69081856  0.20890697  0.47217782  1
  Nb  Nb118  1  0.29020446  0.66474078  0.53655633  1
  Nb  Nb119  1  0.34814277  0.49319535  0.45597642  1
  Nb  Nb120  1  0.29046208  0.86841847  0.54620294  1
  Nb  Nb121  1  0.39518502  0.82308122  0.22346364  1
  Nb  Nb122  1  0.17098181  0.96147731  0.67890357  1
  Nb  Nb123  1  0.76264967  0.09848174  0.84710756  1
  Nb  Nb124  1  0.02735732  0.70179147  0.85234133  1
