# generated using pymatgen
data_Zr2Sc2Nb
_symmetry_space_group_name_H-M   'P 1'
_cell_length_a   14.86726223
_cell_length_b   14.05882014
_cell_length_c   13.67100675
_cell_angle_alpha   88.70952713
_cell_angle_beta   92.92068422
_cell_angle_gamma   88.00734229
_symmetry_Int_Tables_number   1
_chemical_formula_structural   Zr2Sc2Nb
_chemical_formula_sum   'Zr50 Sc50 Nb25'
_cell_volume   2851.17907604
_cell_formula_units_Z   25
loop_
 _symmetry_equiv_pos_site_id
 _symmetry_equiv_pos_as_xyz
  1  'x, y, z'
loop_
 _atom_site_type_symbol
 _atom_site_label
 _atom_site_symmetry_multiplicity
 _atom_site_fract_x
 _atom_site_fract_y
 _atom_site_fract_z
 _atom_site_occupancy
  Zr  Zr0  1  0.61921869  0.84602294  0.69931915  1
  Zr  Zr1  1  0.83083812  0.29524860  0.44261215  1
  Zr  Zr2  1  0.45540054  0.98424241  0.13665413  1
  Zr  Zr3  1  0.97822436  0.41593599  0.07967811  1
  Zr  Zr4  1  0.11730846  0.85750495  0.51731444  1
  Zr  Zr5  1  0.77898800  0.39946491  0.10465081  1
  Zr  Zr6  1  0.69212413  0.11528138  0.41728391  1
  Zr  Zr7  1  0.06339571  0.84630723  0.09142581  1
  Zr  Zr8  1  0.54378577  0.85452960  0.89080881  1
  Zr  Zr9  1  0.79211533  0.78986290  0.39712046  1
  Zr  Zr10  1  0.20825588  0.88740374  0.29568569  1
  Zr  Zr11  1  0.94909025  0.68453982  0.27316393  1
  Zr  Zr12  1  0.15180796  0.70066426  0.37114274  1
  Zr  Zr13  1  0.39156516  0.19956011  0.82201759  1
  Zr  Zr14  1  0.65580492  0.90921078  0.07040967  1
  Zr  Zr15  1  0.41546511  0.89019801  0.34214659  1
  Zr  Zr16  1  0.26937183  0.20194138  0.45504218  1
  Zr  Zr17  1  0.79424832  0.20729090  0.23178422  1
  Zr  Zr18  1  0.59011851  0.52421428  0.42476769  1
  Zr  Zr19  1  0.15781406  0.59429459  0.53580352  1
  Zr  Zr20  1  0.12576246  0.41951052  0.67781841  1
  Zr  Zr21  1  0.76175518  0.80442508  0.88148680  1
  Zr  Zr22  1  0.98161638  0.27490090  0.61811341  1
  Zr  Zr23  1  0.25037765  0.34418738  0.85594655  1
  Zr  Zr24  1  0.36030410  0.70428386  0.30265650  1
  Zr  Zr25  1  0.79689357  0.96406903  0.25438229  1
  Zr  Zr26  1  0.12338576  0.28000999  0.02359216  1
  Zr  Zr27  1  0.08018644  0.50742795  0.29487337  1
  Zr  Zr28  1  0.29923563  0.78881836  0.52176481  1
  Zr  Zr29  1  0.69666444  0.45333831  0.74218433  1
  Zr  Zr30  1  0.27128306  0.50185945  0.29643739  1
  Zr  Zr31  1  0.64689203  0.45870711  0.94606163  1
  Zr  Zr32  1  0.48467734  0.32123593  0.95053841  1
  Zr  Zr33  1  0.85345591  0.11079303  0.57822746  1
  Zr  Zr34  1  0.98640273  0.47739717  0.49979096  1
  Zr  Zr35  1  0.85999978  0.81431176  0.08956282  1
  Zr  Zr36  1  0.57882716  0.27697782  0.31841674  1
  Zr  Zr37  1  0.91965733  0.46900126  0.72041269  1
  Zr  Zr38  1  0.85194091  0.35717294  0.88695787  1
  Zr  Zr39  1  0.53085744  0.52216784  0.62271624  1
  Zr  Zr40  1  0.78295103  0.59136601  0.35801289  1
  Zr  Zr41  1  0.14280312  0.91331373  0.89161269  1
  Zr  Zr42  1  0.09159209  0.07970660  0.52918172  1
  Zr  Zr43  1  0.46240529  0.50430368  0.25948139  1
  Zr  Zr44  1  0.64294044  0.32477222  0.52165187  1
  Zr  Zr45  1  0.01810068  0.07026626  0.73088038  1
  Zr  Zr46  1  0.60852558  0.91237530  0.30716445  1
  Zr  Zr47  1  0.91527020  0.94467260  0.91637932  1
  Zr  Zr48  1  0.32106749  0.18111098  0.03274696  1
  Zr  Zr49  1  0.12260884  0.08605395  0.31490407  1
  Sc  Sc50  1  0.49621899  0.74547193  0.53524307  1
  Sc  Sc51  1  0.67948012  0.22953850  0.84865513  1
  Sc  Sc52  1  0.29704785  0.54327120  0.90846911  1
  Sc  Sc53  1  0.81957141  0.93771461  0.70802561  1
  Sc  Sc54  1  0.54171137  0.30561033  0.70501226  1
  Sc  Sc55  1  0.35335757  0.98320696  0.91197517  1
  Sc  Sc56  1  0.48296802  0.18490969  0.53135304  1
  Sc  Sc57  1  -0.03904765  0.69551424  0.50851259  1
  Sc  Sc58  1  0.96368206  0.03490649  0.14985160  1
  Sc  Sc59  1  0.36395279  0.57602023  0.48221856  1
  Sc  Sc60  1  0.37485277  0.75120332  0.93778639  1
  Sc  Sc61  1  0.34281189  0.33434079  0.64434599  1
  Sc  Sc62  1  0.17631472  0.03957911  0.09484154  1
  Sc  Sc63  1  0.17873169  0.30738721  0.24034153  1
  Sc  Sc64  1  0.66958682  0.23586874  0.05705237  1
  Sc  Sc65  1  0.48917574  0.97071086  0.53436297  1
  Sc  Sc66  1  0.50235784  0.75619269  0.14200666  1
  Sc  Sc67  1  0.44167476  0.67978939  0.75240435  1
  Sc  Sc68  1  0.30183309  0.53433719  0.68740782  1
  Sc  Sc69  1  0.31268120  0.08953583  0.25583486  1
  Sc  Sc70  1  0.90671274  0.42025555  0.28748149  1
  Sc  Sc71  1  0.63217024  0.57109277  0.18598868  1
  Sc  Sc72  1  0.01929693  0.85136905  0.71151594  1
  Sc  Sc73  1  0.63851843  0.64604201  0.78337890  1
  Sc  Sc74  1  0.83335784  0.69864640  0.69131808  1
  Sc  Sc75  1  0.79420773  0.28754352  0.67440164  1
  Sc  Sc76  1  1.02534194  0.10335388  0.95691192  1
  Sc  Sc77  1  0.34740675  0.39496226  0.08708562  1
  Sc  Sc78  1  0.37638280  0.29555772  0.29595775  1
  Sc  Sc79  1  0.22362757  0.74965436  0.73490472  1
  Sc  Sc80  1  0.54021855  0.08990931  0.97150125  1
  Sc  Sc81  1  0.69255762  0.92159786  0.51943426  1
  Sc  Sc82  1  0.92739852  0.10341492  0.37061936  1
  Sc  Sc83  1  0.69719151  0.00725289  0.85511390  1
  Sc  Sc84  1  0.52057446  0.04982707  0.74626975  1
  Sc  Sc85  1  0.91590026  0.92288978  0.51194192  1
  Sc  Sc86  1  0.05791248  0.28401370  0.41651617  1
  Sc  Sc87  1  0.07296833  0.48137459  0.89353381  1
  Sc  Sc88  1  0.83106309  0.57317248  0.91348238  1
  Sc  Sc89  1  0.29012086  0.84447195  0.10542895  1
  Sc  Sc90  1  0.77933128  0.49234583  0.54835550  1
  Sc  Sc91  1  0.16735582  0.69929066  0.95820510  1
  Sc  Sc92  1  0.00547750  0.62405639  0.07342720  1
  Sc  Sc93  1  0.00098648  0.88253479  0.31483884  1
  Sc  Sc94  1  0.65709196  0.68185320  1.00592758  1
  Sc  Sc95  1  0.96481608  0.73724346  0.88946853  1
  Sc  Sc96  1  0.05420468  0.62822513  0.71847633  1
  Sc  Sc97  1  0.38595047  0.88531437  0.70945006  1
  Sc  Sc98  1  0.19650126  0.12686300  0.84737807  1
  Sc  Sc99  1  0.32779263  0.09589820  0.64989554  1
  Nb  Nb100  1  0.17230410  0.49436976  0.09167953  1
  Nb  Nb101  1  0.19233850  0.96542163  0.68384786  1
  Nb  Nb102  1  0.58782386  0.71566336  0.35077406  1
  Nb  Nb103  1  0.47838121  0.20051489  0.14527583  1
  Nb  Nb104  1  0.28019620  0.99187020  0.47070103  1
  Nb  Nb105  1  0.56221581  0.38683326  0.13584179  1
  Nb  Nb106  1  0.99504622  0.23688457  0.20007074  1
  Nb  Nb107  1  0.43866986  0.38605225  0.46819969  1
  Nb  Nb108  1  0.82406912  0.58808182  0.14003179  1
  Nb  Nb109  1  0.85701759  0.13716143  0.82027875  1
  Nb  Nb110  1  0.33285477  0.61809584  0.11090484  1
  Nb  Nb111  1  0.67504789  0.11383599  0.64564012  1
  Nb  Nb112  1  0.21778050  0.40214250  0.47728145  1
  Nb  Nb113  1  0.46995411  0.47237001  0.81556460  1
  Nb  Nb114  1  0.49025123  0.08891955  0.34204088  1
  Nb  Nb115  1  0.88756706  0.22230494  0.02860832  1
  Nb  Nb116  1  0.17005868  0.22543054  0.65344672  1
  Nb  Nb117  1  0.63231982  0.08562567  0.19693236  1
  Nb  Nb118  1  0.02681838  0.27653221  0.82549195  1
  Nb  Nb119  1  0.17022617  0.68321766  0.17998920  1
  Nb  Nb120  1  0.78654744  0.05942015  0.03969444  1
  Nb  Nb121  1  0.68122379  0.68407771  0.54625811  1
  Nb  Nb122  1  0.48409227  0.55445565  1.01291154  1
  Nb  Nb123  1  0.72252187  0.75477290  0.20786262  1
  Nb  Nb124  1  0.70989250  0.40855341  0.30397378  1
