# generated using pymatgen
data_Zr2Sc2Nb
_symmetry_space_group_name_H-M   'P 1'
_cell_length_a   14.19987324
_cell_length_b   14.39132518
_cell_length_c   14.11315243
_cell_angle_alpha   90.29087236
_cell_angle_beta   88.26082493
_cell_angle_gamma   88.69188670
_symmetry_Int_Tables_number   1
_chemical_formula_structural   Zr2Sc2Nb
_chemical_formula_sum   'Zr50 Sc50 Nb25'
_cell_volume   2881.96526797
_cell_formula_units_Z   25
loop_
 _symmetry_equiv_pos_site_id
 _symmetry_equiv_pos_as_xyz
  1  'x, y, z'
loop_
 _atom_site_type_symbol
 _atom_site_label
 _atom_site_symmetry_multiplicity
 _atom_site_fract_x
 _atom_site_fract_y
 _atom_site_fract_z
 _atom_site_occupancy
  Zr  Zr0  1  0.07003552  0.83750453  0.68247215  1
  Zr  Zr1  1  0.45804969  0.25990199  0.00582470  1
  Zr  Zr2  1  0.73823522  0.95514958  0.48987755  1
  Zr  Zr3  1  0.64432153  0.16060373  0.06641296  1
  Zr  Zr4  1  0.65557431  0.95787224  0.07985217  1
  Zr  Zr5  1  0.02051075  0.91322074  0.89275741  1
  Zr  Zr6  1  0.47115727  0.09042067  0.40570514  1
  Zr  Zr7  1  0.24298828  0.46702647  0.71923649  1
  Zr  Zr8  1  1.01939521  0.43403878  0.67557201  1
  Zr  Zr9  1  0.28903739  0.94962579  0.12887258  1
  Zr  Zr10  1  0.11969683  0.31012014  0.44045854  1
  Zr  Zr11  1  0.52897981  0.82144986  0.65881491  1
  Zr  Zr12  1  0.60046106  0.82438988  0.87987401  1
  Zr  Zr13  1  0.53165569  0.84198410  0.23930749  1
  Zr  Zr14  1  0.84391737  0.70536692  0.12746466  1
  Zr  Zr15  1  -0.00840785  0.66751131  0.57919996  1
  Zr  Zr16  1  0.11132605  0.26705369  0.01759924  1
  Zr  Zr17  1  0.26677732  0.89510931  0.69859935  1
  Zr  Zr18  1  0.50486258  0.68398911  0.41808331  1
  Zr  Zr19  1  0.92858358  0.27044763  0.53080539  1
  Zr  Zr20  1  0.71671304  0.90363775  0.70653789  1
  Zr  Zr21  1  0.87610101  0.73857449  0.40776142  1
  Zr  Zr22  1  0.25904313  0.67487640  0.69078223  1
  Zr  Zr23  1  0.36736335  0.87375257  0.36666213  1
  Zr  Zr24  1  0.86889468  0.54151906  0.80542993  1
  Zr  Zr25  1  0.88607769  0.96664109  0.34745658  1
  Zr  Zr26  1  0.66105062  0.05346651  0.30251482  1
  Zr  Zr27  1  0.79505396  0.45491936  0.22822000  1
  Zr  Zr28  1  0.29415463  0.58895069  0.88614316  1
  Zr  Zr29  1  0.79659457  0.87958266  0.92307715  1
  Zr  Zr30  1  0.32160363  0.25249073  0.33541468  1
  Zr  Zr31  1  0.76382263  0.37729200  0.45204948  1
  Zr  Zr32  1  0.09405285  0.11038798  0.83289234  1
  Zr  Zr33  1  0.26163064  0.14043110  0.50810265  1
  Zr  Zr34  1  0.90127670  0.99340382  0.75068219  1
  Zr  Zr35  1  0.98357955  0.70095507  0.95152349  1
  Zr  Zr36  1  0.45753117  -0.01285880  0.78014926  1
  Zr  Zr37  1  0.46308686  0.05660989  -0.01970042  1
  Zr  Zr38  1  0.47465837  0.60804582  0.71064591  1
  Zr  Zr39  1  0.65206208  0.46260067  0.71861165  1
  Zr  Zr40  1  0.30374988  0.36764652  0.52436388  1
  Zr  Zr41  1  0.08210383  0.65936348  0.36909518  1
  Zr  Zr42  1  0.48373832  0.64926298  -0.01115612  1
  Zr  Zr43  1  0.13832505  0.25215209  0.63809256  1
  Zr  Zr44  1  0.11442848  0.85052179  0.07326089  1
  Zr  Zr45  1  0.63739720  0.28978170  0.61986496  1
  Zr  Zr46  1  0.87681467  0.51115131  0.02977287  1
  Zr  Zr47  1  0.81838708  0.08465500  0.15833319  1
  Zr  Zr48  1  0.17731600  0.46433591  0.32022126  1
  Zr  Zr49  1  0.76700350  0.14575637  0.68853754  1
  Sc  Sc50  1  0.69525707  0.36277079  0.06085515  1
  Sc  Sc51  1  0.30052781  0.55329108  0.12166766  1
  Sc  Sc52  1  0.05432872  0.00874251  0.23552105  1
  Sc  Sc53  1  0.45789860  0.85792258  1.03635581  1
  Sc  Sc54  1  0.46626998  0.42943356  0.85289566  1
  Sc  Sc55  1  0.47009105  0.05169377  0.19287763  1
  Sc  Sc56  1  0.27774607  0.38423460  0.95440129  1
  Sc  Sc57  1  0.96361127  0.36063758  0.30038128  1
  Sc  Sc58  1  0.97162949  0.48750056  0.46078866  1
  Sc  Sc59  1  0.65397577  0.52283991  0.91563383  1
  Sc  Sc60  1  0.17457932  0.83987072  0.29564815  1
  Sc  Sc61  1  0.28589619  0.16710170  0.91317446  1
  Sc  Sc62  1  0.90505219  0.06590578  0.54193484  1
  Sc  Sc63  1  0.59988665  0.45941650  0.29322153  1
  Sc  Sc64  1  0.43471716  0.20012622  0.59382844  1
  Sc  Sc65  1  0.58915181  1.05840827  0.61091558  1
  Sc  Sc66  1  0.25986308  0.95191000  0.91165340  1
  Sc  Sc67  1  0.30073904  0.64895676  0.36009841  1
  Sc  Sc68  1  0.70264683  0.65038692  0.30812453  1
  Sc  Sc69  1  0.39142002  0.77900951  0.83109183  1
  Sc  Sc70  1  0.39305952  0.45763554  0.33147708  1
  Sc  Sc71  1  0.68624868  0.67526455  0.74504314  1
  Sc  Sc72  1  0.49125214  0.44970164  0.08697527  1
  Sc  Sc73  1  0.18653764  0.74781341  0.51588989  1
  Sc  Sc74  1  0.88811261  0.75541230  0.76468594  1
  Sc  Sc75  1  0.70384530  0.28425654  0.85355887  1
  Sc  Sc76  1  0.25890692  0.05362301  0.31031970  1
  Sc  Sc77  1  0.53673268  0.30581529  0.43384818  1
  Sc  Sc78  1  0.90482805  0.91242608  0.09255770  1
  Sc  Sc79  1  0.50654046  0.20223978  0.79489736  1
  Sc  Sc80  1  0.49982009  0.26476005  0.21555482  1
  Sc  Sc81  1  0.12279176  0.22246236  0.23557293  1
  Sc  Sc82  1  0.49744582  0.63144197  0.20829865  1
  Sc  Sc83  1  0.90044327  0.27972382  0.10685733  1
  Sc  Sc84  1  0.94523257  0.57820220  0.25207095  1
  Sc  Sc85  1  0.08439090  0.43990236  0.12910229  1
  Sc  Sc86  1  0.69814790  0.73743764  0.53385017  1
  Sc  Sc87  1  0.08859129  0.04154210  0.63096909  1
  Sc  Sc88  1  0.71485562  0.25972676  0.26596169  1
  Sc  Sc89  1  0.92180794  0.34177605  0.88861881  1
  Sc  Sc90  1  0.11412966  0.65819371  0.13349173  1
  Sc  Sc91  1  0.55502428  0.88981824  0.45099970  1
  Sc  Sc92  1  0.66388651  0.05196181  0.86843863  1
  Sc  Sc93  1  0.87631403  0.11882655  0.93430236  1
  Sc  Sc94  1  0.74484815  0.85517562  0.25805898  1
  Sc  Sc95  1  0.80780646  0.55122802  0.58919596  1
  Sc  Sc96  1  0.90065002  0.17297494  0.33577708  1
  Sc  Sc97  1  0.59078718  0.51647981  0.51751078  1
  Sc  Sc98  1  0.08513513  0.49946848  0.91603698  1
  Sc  Sc99  1  0.10334171  0.06624027  1.04220806  1
  Nb  Nb100  1  0.16452567  0.53612465  0.53644015  1
  Nb  Nb101  1  0.76951799  0.68239431  0.93911427  1
  Nb  Nb102  1  0.37893619  0.77516352  0.55108429  1
  Nb  Nb103  1  0.72416690  0.16883353  0.46840703  1
  Nb  Nb104  1  0.45727894  0.40522156  0.64485029  1
  Nb  Nb105  1  0.12762710  0.30793273  0.82396243  1
  Nb  Nb106  1  0.03548627  0.88374536  0.45410104  1
  Nb  Nb107  1  0.36674650  0.56297433  0.53995558  1
  Nb  Nb108  1  0.82596319  0.35958678  0.68357135  1
  Nb  Nb109  1  0.28383103  0.09783487  0.71379545  1
  Nb  Nb110  1  0.88774718  0.85813235  0.57913471  1
  Nb  Nb111  1  0.95340241  0.20845752  0.73023187  1
  Nb  Nb112  1  0.67858129  0.57109487  0.10989990  1
  Nb  Nb113  1  0.29937343  0.16187844  0.12002486  1
  Nb  Nb114  1  0.07511584  0.62224205  0.75266084  1
  Nb  Nb115  1  0.31971288  0.29181483  0.74753723  1
  Nb  Nb116  1  0.07748929  0.09954035  0.42637229  1
  Nb  Nb117  1  0.33699494  0.75688739  0.18542368  1
  Nb  Nb118  1  0.16216882  0.76204703  0.86314587  1
  Nb  Nb119  1  0.28043826  0.74694748  1.01178626  1
  Nb  Nb120  1  0.21980690  0.94374837  0.49791190  1
  Nb  Nb121  1  0.29297174  0.34534714  0.15752997  1
  Nb  Nb122  1  0.97997350  0.79959899  0.24800379  1
  Nb  Nb123  1  0.39929561  -0.01799728  0.56846295  1
  Nb  Nb124  1  0.64527296  0.75606601  0.08125973  1
