# generated using pymatgen
data_Zr2Sc2Nb
_symmetry_space_group_name_H-M   'P 1'
_cell_length_a   14.42837304
_cell_length_b   13.89140143
_cell_length_c   14.28111529
_cell_angle_alpha   89.79307121
_cell_angle_beta   87.38045594
_cell_angle_gamma   90.89567233
_symmetry_Int_Tables_number   1
_chemical_formula_structural   Zr2Sc2Nb
_chemical_formula_sum   'Zr50 Sc50 Nb25'
_cell_volume   2859.00128361
_cell_formula_units_Z   25
loop_
 _symmetry_equiv_pos_site_id
 _symmetry_equiv_pos_as_xyz
  1  'x, y, z'
loop_
 _atom_site_type_symbol
 _atom_site_label
 _atom_site_symmetry_multiplicity
 _atom_site_fract_x
 _atom_site_fract_y
 _atom_site_fract_z
 _atom_site_occupancy
  Zr  Zr0  1  0.70818872  0.11942940  0.89020982  1
  Zr  Zr1  1  0.29736471  0.94239094  0.37726257  1
  Zr  Zr2  1  0.51722124  0.87470974  0.73628726  1
  Zr  Zr3  1  0.34868402  0.47112461  0.38559983  1
  Zr  Zr4  1  0.50970064  1.01464189  0.36835955  1
  Zr  Zr5  1  0.69165640  0.32365081  0.32214049  1
  Zr  Zr6  1  0.34366794  0.18225540  0.88713543  1
  Zr  Zr7  1  0.37367714  0.10736330  0.23949590  1
  Zr  Zr8  1  0.48944345  0.05239061  0.60679344  1
  Zr  Zr9  1  0.53356421  0.45053982  0.26318539  1
  Zr  Zr10  1  0.15959678  0.02429277  0.55370034  1
  Zr  Zr11  1  0.97191300  0.30588914  0.80065551  1
  Zr  Zr12  1  0.49938060  0.82590423  0.52874567  1
  Zr  Zr13  1  0.74620630  0.59102488  0.75571616  1
  Zr  Zr14  1  0.38490364  0.65375749  0.22429431  1
  Zr  Zr15  1  0.25259680  0.54101140  0.57064543  1
  Zr  Zr16  1  0.11824304  0.24100352  0.46626664  1
  Zr  Zr17  1  0.93947574  0.72945018  0.72689822  1
  Zr  Zr18  1  0.68018030  0.55811676  0.57205815  1
  Zr  Zr19  1  0.70087893  0.49620088  0.93780220  1
  Zr  Zr20  1  0.79408815  0.90010384  0.80236627  1
  Zr  Zr21  1  0.91075398  0.92064446  0.62266114  1
  Zr  Zr22  1  0.30690003  0.56099468  0.80284246  1
  Zr  Zr23  1  0.07285078  0.01723083  0.75023191  1
  Zr  Zr24  1  0.45751889  0.27423518  0.69400160  1
  Zr  Zr25  1  0.60278684  0.95435581  0.14316585  1
  Zr  Zr26  1  0.51856425  0.11152819  0.03592860  1
  Zr  Zr27  1  0.54099702  0.51887181  0.06912398  1
  Zr  Zr28  1  0.30770132  0.93885260  0.77461582  1
  Zr  Zr29  1  0.77854881  0.34412327  0.76190016  1
  Zr  Zr30  1  0.59778870  0.65557458  0.25611652  1
  Zr  Zr31  1  0.04150663  0.28097361  0.26098259  1
  Zr  Zr32  1  0.33663805  0.12711982  0.46793324  1
  Zr  Zr33  1  0.09058343  0.16095262  0.09886746  1
  Zr  Zr34  1  0.07325210  0.63259810  0.54144947  1
  Zr  Zr35  1  0.29351219  0.73681151  0.46667720  1
  Zr  Zr36  1  0.88244442  0.26514846  0.39888246  1
  Zr  Zr37  1  0.11789145  0.61187436  0.73830933  1
  Zr  Zr38  1  0.02086506  0.86955661  0.24983482  1
  Zr  Zr39  1  0.77893882  0.12844152  0.54926518  1
  Zr  Zr40  1  0.44698130  0.27676480  0.34244580  1
  Zr  Zr41  1  0.20215074  -0.02671567  0.15497439  1
  Zr  Zr42  1  0.73452102  0.34726802  0.55097749  1
  Zr  Zr43  1  0.45988220  0.80925721  0.32340636  1
  Zr  Zr44  1  0.22249418  0.32983356  0.04078702  1
  Zr  Zr45  1  0.29076829  0.12805531  0.68941420  1
  Zr  Zr46  1  0.17491278  0.01004205  0.93864963  1
  Zr  Zr47  1  0.13934007  0.82457124  0.66852757  1
  Zr  Zr48  1  0.22101154  0.75942498  0.87250783  1
  Zr  Zr49  1  0.71019209  0.78855034  0.65058558  1
  Sc  Sc50  1  0.81557859  0.30962322  0.97050482  1
  Sc  Sc51  1  0.09142223  0.43979642  0.41385233  1
  Sc  Sc52  1  0.93644651  0.55555115  0.08573793  1
  Sc  Sc53  1  0.19968011  0.60180831  0.33606555  1
  Sc  Sc54  1  0.17218443  0.55271000  1.00976618  1
  Sc  Sc55  1  0.34312056  0.72865229  0.67444155  1
  Sc  Sc56  1  0.79192072  0.93013921  0.00011578  1
  Sc  Sc57  1  0.86330778  0.69463475  0.52903723  1
  Sc  Sc58  1  0.09316366  0.84474993  0.45263826  1
  Sc  Sc59  1  0.93418401  0.08473452  0.25797787  1
  Sc  Sc60  1  0.99767678  0.66317925  0.34892549  1
  Sc  Sc61  1  0.54159997  0.40064825  0.49125860  1
  Sc  Sc62  1  0.86007534  0.88374630  0.40792481  1
  Sc  Sc63  1  0.63459801  0.73427502  0.87243094  1
  Sc  Sc64  1  -0.02782079  0.07894357  0.48485583  1
  Sc  Sc65  1  0.85562471  0.29234503  0.17225885  1
  Sc  Sc66  1  0.24489339  0.28274735  0.27236229  1
  Sc  Sc67  1  0.71095134  0.74047710  0.08939105  1
  Sc  Sc68  1  0.39433429  0.39115167  0.89837428  1
  Sc  Sc69  1  0.14063672  0.21191112  0.88202828  1
  Sc  Sc70  1  0.92840992  0.50123118  0.68085096  1
  Sc  Sc71  1  0.10396815  0.20852411  0.66763000  1
  Sc  Sc72  1  0.43154422  0.49109670  0.64828607  1
  Sc  Sc73  1  0.10205267  0.67064875  0.16235221  1
  Sc  Sc74  1  0.90947385  0.46795788  0.27978357  1
  Sc  Sc75  1  0.37021914  0.59501429  0.99983353  1
  Sc  Sc76  1  0.86859355  0.12178131  0.73058846  1
  Sc  Sc77  1  0.73419532  0.49821505  0.16087086  1
  Sc  Sc78  1  0.50597975  0.76372008  0.06362009  1
  Sc  Sc79  1  0.58884181  0.18731022  0.47449389  1
  Sc  Sc80  1  0.98764377  0.87805151  0.88537244  1
  Sc  Sc81  1  0.93958218  0.12148728  0.93691345  1
  Sc  Sc82  1  0.50714852  0.08652429  0.81529821  1
  Sc  Sc83  1  0.13795401  0.07387834  0.32852107  1
  Sc  Sc84  1  0.67254044  0.94901846  0.50943472  1
  Sc  Sc85  1  0.75724844  0.11434347  0.10550535  1
  Sc  Sc86  1  0.91699350  0.50051366  0.88746575  1
  Sc  Sc87  1  0.73280898  0.08391348  0.32820396  1
  Sc  Sc88  1  0.66430213  0.86197627  0.31169036  1
  Sc  Sc89  1  0.49080677  0.61423912  0.45489071  1
  Sc  Sc90  1  0.12327627  0.43494268  0.85388741  1
  Sc  Sc91  1  0.83656379  0.70477965  0.91895197  1
  Sc  Sc92  1  0.30466474  0.32381067  0.53758645  1
  Sc  Sc93  1  0.31596646  0.46722023  0.17277010  1
  Sc  Sc94  1  0.81411398  0.69584920  0.27404522  1
  Sc  Sc95  1  0.43778123  0.29922772  0.10751914  1
  Sc  Sc96  1  0.89097076  0.48173305  0.48370397  1
  Sc  Sc97  1  0.38600572  0.94688335  0.96739406  1
  Sc  Sc98  1  0.11377429  0.82980245  0.03967248  1
  Sc  Sc99  1  0.58545862  0.30437036  0.89917923  1
  Nb  Nb100  1  0.22834484  0.80073903  0.26410296  1
  Nb  Nb101  1  0.10485195  0.45426142  0.18914599  1
  Nb  Nb102  1  0.82240182  0.91326846  0.19612342  1
  Nb  Nb103  1  0.26396501  0.34756323  0.73650112  1
  Nb  Nb104  1  0.98262256  -0.01990988  0.08025036  1
  Nb  Nb105  1  0.64489047  0.20879552  0.69218783  1
  Nb  Nb106  1  0.70800642  0.52790710  0.37860692  1
  Nb  Nb107  1  0.64495143  0.31334794  0.10313920  1
  Nb  Nb108  1  0.29526277  0.77232473  0.07343588  1
  Nb  Nb109  1  0.32716561  0.92387856  0.57716299  1
  Nb  Nb110  1  0.57705847  0.16943205  0.22501770  1
  Nb  Nb111  1  0.29802324  0.13144854  0.06807111  1
  Nb  Nb112  1  0.59779236  0.93083447  0.92257295  1
  Nb  Nb113  1  0.67584362  1.01087984  0.70821982  1
  Nb  Nb114  1  0.52227240  0.55634147  0.84963393  1
  Nb  Nb115  1  0.54380923  0.66503719  0.68496571  1
  Nb  Nb116  1  0.01880424  0.35434904  0.03332440  1
  Nb  Nb117  1  0.60491656  0.43015572  0.72500611  1
  Nb  Nb118  1  0.10452989  0.41134962  0.62691544  1
  Nb  Nb119  1  0.42503942  0.75162649  0.86937428  1
  Nb  Nb120  1  0.03737587  0.67111937  0.92303315  1
  Nb  Nb121  1  0.93416318  0.29028701  0.58953861  1
  Nb  Nb122  1  0.92410174  0.77558424  0.09030183  1
  Nb  Nb123  1  0.39756607  0.92198930  0.17155816  1
  Nb  Nb124  1  0.67085059  0.72530889  0.45486194  1
