# generated using pymatgen
data_Zr2Sc2Nb
_symmetry_space_group_name_H-M   'P 1'
_cell_length_a   14.13579245
_cell_length_b   14.32084547
_cell_length_c   14.22962054
_cell_angle_alpha   89.41231917
_cell_angle_beta   89.50796200
_cell_angle_gamma   89.62054870
_symmetry_Int_Tables_number   1
_chemical_formula_structural   Zr2Sc2Nb
_chemical_formula_sum   'Zr50 Sc50 Nb25'
_cell_volume   2880.27532259
_cell_formula_units_Z   25
loop_
 _symmetry_equiv_pos_site_id
 _symmetry_equiv_pos_as_xyz
  1  'x, y, z'
loop_
 _atom_site_type_symbol
 _atom_site_label
 _atom_site_symmetry_multiplicity
 _atom_site_fract_x
 _atom_site_fract_y
 _atom_site_fract_z
 _atom_site_occupancy
  Zr  Zr0  1  0.87498990  0.94608189  0.10777293  1
  Zr  Zr1  1  0.30137471  0.77137585  0.03833846  1
  Zr  Zr2  1  0.00323069  0.64864013  0.22804412  1
  Zr  Zr3  1  0.78806163  0.30495788  0.16630985  1
  Zr  Zr4  1  0.35634527  0.74494383  0.82816645  1
  Zr  Zr5  1  0.48021957  0.42269935  0.68296989  1
  Zr  Zr6  1  0.87091570  0.21303839  0.67730027  1
  Zr  Zr7  1  0.96755521  0.37164907  0.76172278  1
  Zr  Zr8  1  0.33886868  0.15363419  0.46976591  1
  Zr  Zr9  1  0.95999056  0.16211330  0.87032413  1
  Zr  Zr10  1  0.86130476  0.40803387  0.57578522  1
  Zr  Zr11  1  0.91536905  0.81955629  0.70347287  1
  Zr  Zr12  1  0.21862487  0.68691405  0.22130833  1
  Zr  Zr13  1  0.05797215  0.97444967  0.77109147  1
  Zr  Zr14  1  0.15725627  0.27824498  0.24615410  1
  Zr  Zr15  1  0.27668193  0.53081325  0.53085041  1
  Zr  Zr16  1  0.70112207  0.13901422  0.55485892  1
  Zr  Zr17  1  0.51927254  0.84785665  0.34423501  1
  Zr  Zr18  1  0.91949012  0.58957122  0.70172269  1
  Zr  Zr19  1  0.01484607  0.35373021  0.41809691  1
  Zr  Zr20  1  0.21166739  0.58732405  0.88935727  1
  Zr  Zr21  1  0.75193762  0.51584671  0.22559707  1
  Zr  Zr22  1  0.57568237  0.62885894  0.34262779  1
  Zr  Zr23  1  0.65672143  1.00911004  0.39096877  1
  Zr  Zr24  1  0.87753756  0.14094411  0.07830300  1
  Zr  Zr25  1  0.83761251  0.02039664  0.72051279  1
  Zr  Zr26  1  0.48729397  0.34251764  1.00484524  1
  Zr  Zr27  1  0.24542593  0.07707218  0.28303672  1
  Zr  Zr28  1  0.65347647  0.35150039  0.51503410  1
  Zr  Zr29  1  0.11887271  0.16928463  0.43134195  1
  Zr  Zr30  1  0.42983397  0.69766791  0.20271225  1
  Zr  Zr31  1  0.04390800  0.00013412  0.41227518  1
  Zr  Zr32  1  0.89519890  0.17942168  0.46983402  1
  Zr  Zr33  1  0.72353110  0.88107004  0.23850137  1
  Zr  Zr34  1  0.71139191  0.79083842  0.43359988  1
  Zr  Zr35  1  0.37583354  0.12821524  0.11202738  1
  Zr  Zr36  1  0.08385359  0.27060546  0.61880900  1
  Zr  Zr37  1  0.66311327  0.93201659  0.59343785  1
  Zr  Zr38  1  0.61268494  0.07838137  0.75326438  1
  Zr  Zr39  1  0.68200276  0.84790016  1.00697218  1
  Zr  Zr40  1  0.44018014  0.57189227  0.91023869  1
  Zr  Zr41  1  0.59136249  0.39835789  0.31745873  1
  Zr  Zr42  1  0.35222078  0.70335077  0.39690003  1
  Zr  Zr43  1  0.80539822  0.48036914  0.85407472  1
  Zr  Zr44  1  0.93061304  0.84256148  0.30338290  1
  Zr  Zr45  1  0.53323915  0.51465983  0.13153676  1
  Zr  Zr46  1  0.59480780  0.46130454  0.85976065  1
  Zr  Zr47  1  0.47393751  0.00191894  0.53048646  1
  Zr  Zr48  1  0.49923047  0.25538502  0.81416230  1
  Zr  Zr49  1  0.13186345  0.32482111  0.91185603  1
  Sc  Sc50  1  0.43169784  0.36107697  0.47698833  1
  Sc  Sc51  1  0.26616614  0.91022276  0.70855672  1
  Sc  Sc52  1  0.68688436  0.52372124  0.67501508  1
  Sc  Sc53  1  0.75488006  0.04285571  0.92980344  1
  Sc  Sc54  1  0.85697000  0.95228298  0.50530981  1
  Sc  Sc55  1  0.22932628  0.34464398  0.45232171  1
  Sc  Sc56  1  0.16766139  0.15087502  0.79368786  1
  Sc  Sc57  1  0.12711271  0.68807862  0.43705202  1
  Sc  Sc58  1  0.64292338  0.71272635  0.17131460  1
  Sc  Sc59  1  0.28450840  0.92073108  0.45894695  1
  Sc  Sc60  1  0.06444897  0.50607026  0.56342599  1
  Sc  Sc61  1  0.32253046  0.73293541  0.60143453  1
  Sc  Sc62  1  0.14663921  0.82668681  0.89682951  1
  Sc  Sc63  1  0.72907010  0.56151675  0.46514126  1
  Sc  Sc64  1  0.91068658  0.72606732  0.50637720  1
  Sc  Sc65  1  0.10802794  0.45665065  0.08713781  1
  Sc  Sc66  1  0.69671687  0.88351552  0.79865603  1
  Sc  Sc67  1  0.33049978  0.40004302  0.86244994  1
  Sc  Sc68  1  0.50431912  0.20369300  0.61056556  1
  Sc  Sc69  1  0.72351934  0.19935641  0.33139911  1
  Sc  Sc70  1  0.90295413  0.34705059  0.98010203  1
  Sc  Sc71  1  0.45953353  0.05283582  0.29543098  1
  Sc  Sc72  1  0.37701364  0.49212341  0.30494728  1
  Sc  Sc73  1  0.15042012  0.49883628  0.31316840  1
  Sc  Sc74  1  0.90965513  0.88776211  0.90866231  1
  Sc  Sc75  1  0.49423783  0.55673177  0.51600600  1
  Sc  Sc76  1  0.10073273  0.65749374  0.04421371  1
  Sc  Sc77  1  0.29069329  0.32865464  0.08836405  1
  Sc  Sc78  1  0.70521503  0.25086716  0.93493166  1
  Sc  Sc79  1  0.70688815  0.72700395  0.64498568  1
  Sc  Sc80  1  0.48539586  0.91211583  0.90296909  1
  Sc  Sc81  1  0.68020657  0.61106370  -0.00206410  1
  Sc  Sc82  1  0.79539137  0.69810768  0.84839791  1
  Sc  Sc83  1  0.31858951  0.54689119  0.08529593  1
  Sc  Sc84  1  0.89365778  0.53978743  0.05410922  1
  Sc  Sc85  1  0.09112792  0.86645969  0.57484840  1
  Sc  Sc86  1  0.14179584  0.85993631  0.29339925  1
  Sc  Sc87  1  0.53025994  0.11003000  0.96701865  1
  Sc  Sc88  1  0.67705712  0.06808690  0.14809976  1
  Sc  Sc89  1  0.30299490  0.27900066  0.67539164  1
  Sc  Sc90  1  0.86215749  0.74009170  0.08260203  1
  Sc  Sc91  1  0.05141641  0.05034550  0.19430200  1
  Sc  Sc92  1  0.28000540  0.99951349  0.90775599  1
  Sc  Sc93  1  0.56023793  0.24878549  0.17475358  1
  Sc  Sc94  1  0.48802691  0.86667155  0.70157566  1
  Sc  Sc95  1  0.22968342  0.95392655  0.10399435  1
  Sc  Sc96  1  0.93152952  0.54560921  0.39323572  1
  Sc  Sc97  1  0.69141034  0.30965911  0.72329784  1
  Sc  Sc98  1  0.50089166  0.91602877  0.12345575  1
  Sc  Sc99  1  0.12785499  0.67191156  0.70638239  1
  Nb  Nb100  1  0.02482909  0.51282933  0.88203557  1
  Nb  Nb101  1  0.18501217  0.15158046  0.03904977  1
  Nb  Nb102  1  0.52285173  0.76650908  0.52492562  1
  Nb  Nb103  1  0.37546461  0.26468618  0.29053378  1
  Nb  Nb104  1  1.01029814  0.07277693  0.61047908  1
  Nb  Nb105  1  0.94863123  0.21518019  0.27715639  1
  Nb  Nb106  1  0.16130680  0.44571795  0.73117405  1
  Nb  Nb107  1  0.85595771  0.04154554  0.29574774  1
  Nb  Nb108  1  0.33455780  0.20098389  0.91167188  1
  Nb  Nb109  1  0.69035880  0.41826903  0.04531089  1
  Nb  Nb110  1  0.20573107  0.07284187  0.60105172  1
  Nb  Nb111  1  0.49742783  0.72597277  0.01738362  1
  Nb  Nb112  1  0.95721765  0.41199341  0.22129523  1
  Nb  Nb113  1  0.03614791  0.25197334  0.09061864  1
  Nb  Nb114  1  0.05496075  1.02319814  0.98343009  1
  Nb  Nb115  1  0.58544076  0.71523401  0.84260178  1
  Nb  Nb116  1  0.50170072  0.64014378  0.69964149  1
  Nb  Nb117  1  0.80719536  0.68564995  0.29747325  1
  Nb  Nb118  1  0.05349216  0.84063700  0.09693405  1
  Nb  Nb119  1  0.53683961  0.19970621  0.40414171  1
  Nb  Nb120  1  0.99057897  0.69541996  0.88162302  1
  Nb  Nb121  1  0.39024459  0.07835836  0.73897300  1
  Nb  Nb122  1  0.34061766  0.87379103  0.25390740  1
  Nb  Nb123  1  0.81246665  0.37286460  0.37166023  1
  Nb  Nb124  1  0.32512198  0.55395970  0.71792714  1
