# generated using pymatgen
data_Zr2Sc2Nb
_symmetry_space_group_name_H-M   'P 1'
_cell_length_a   13.77420828
_cell_length_b   14.54952650
_cell_length_c   14.37525729
_cell_angle_alpha   88.14359309
_cell_angle_beta   88.36527433
_cell_angle_gamma   92.85852438
_symmetry_Int_Tables_number   1
_chemical_formula_structural   Zr2Sc2Nb
_chemical_formula_sum   'Zr50 Sc50 Nb25'
_cell_volume   2874.51330338
_cell_formula_units_Z   25
loop_
 _symmetry_equiv_pos_site_id
 _symmetry_equiv_pos_as_xyz
  1  'x, y, z'
loop_
 _atom_site_type_symbol
 _atom_site_label
 _atom_site_symmetry_multiplicity
 _atom_site_fract_x
 _atom_site_fract_y
 _atom_site_fract_z
 _atom_site_occupancy
  Zr  Zr0  1  0.98306237  0.15770940  0.44267193  1
  Zr  Zr1  1  0.93212521  0.16300007  0.66150872  1
  Zr  Zr2  1  0.03948465  0.47700604  0.52112861  1
  Zr  Zr3  1  0.62484182  0.66081071  0.09798934  1
  Zr  Zr4  1  0.94577412  0.46955674  0.28629956  1
  Zr  Zr5  1  0.88171752  0.34003428  0.46627642  1
  Zr  Zr6  1  0.77412129  0.57706928  0.22198951  1
  Zr  Zr7  1  0.22551919  0.37638079  0.73284514  1
  Zr  Zr8  1  0.09050039  0.10905012  0.04633643  1
  Zr  Zr9  1  0.10556429  0.95432895  0.19779035  1
  Zr  Zr10  1  0.47505201  0.92832647  0.56886346  1
  Zr  Zr11  1  0.54877225  0.55168180  0.28082813  1
  Zr  Zr12  1  0.24059641  0.04017878  0.88688659  1
  Zr  Zr13  1  0.03283104  0.54982208  0.11025603  1
  Zr  Zr14  1  0.10841100  0.07231883  0.59171207  1
  Zr  Zr15  1  0.88400115  0.68932607  0.06924417  1
  Zr  Zr16  1  0.65325576  0.94222748  0.86834672  1
  Zr  Zr17  1  0.80528841  0.18287457  0.83013432  1
  Zr  Zr18  1  0.89255194  0.37554439  0.68493123  1
  Zr  Zr19  1  0.24323292  0.63684295  0.14973082  1
  Zr  Zr20  1  0.08809307  0.75905548  0.15585732  1
  Zr  Zr21  1  0.71518705  0.34098246  0.93714201  1
  Zr  Zr22  1  0.73918697  0.49358833  0.77741063  1
  Zr  Zr23  1  0.45988180  0.67910527  0.77361478  1
  Zr  Zr24  1  0.32252748  0.49287914  0.30724477  1
  Zr  Zr25  1  0.86640428  0.01027695  0.97315334  1
  Zr  Zr26  1  0.88772855  0.97229566  0.54331331  1
  Zr  Zr27  1  0.76567510  0.78843786  0.45321080  1
  Zr  Zr28  1  0.47519506  -0.01624820  0.34598752  1
  Zr  Zr29  1  0.65597107  0.60072167  0.43420848  1
  Zr  Zr30  1  0.41728744  0.08021977  0.73124321  1
  Zr  Zr31  1  0.30047272  0.24394952  0.09545784  1
  Zr  Zr32  1  0.43686610  0.35654156  0.63767839  1
  Zr  Zr33  1  0.54651752  0.79592305  0.36124132  1
  Zr  Zr34  1  0.47824064  0.33888168  0.23280678  1
  Zr  Zr35  1  0.80691163  0.09951096  0.35006813  1
  Zr  Zr36  1  0.30913789  0.87622132  0.26393253  1
  Zr  Zr37  1  0.90144538  0.07792851  0.16680304  1
  Zr  Zr38  1  0.46704941  0.88347377  0.76755622  1
  Zr  Zr39  1  0.32819845  1.05590669  0.49331233  1
  Zr  Zr40  1  0.36290214  0.24034591  0.84510512  1
  Zr  Zr41  1  0.88994643  0.80055455  0.67655420  1
  Zr  Zr42  1  0.15357510  0.65621803  0.55250651  1
  Zr  Zr43  1  0.51644284  0.29758251  0.02126283  1
  Zr  Zr44  1  0.32330271  0.12425104  0.29081924  1
  Zr  Zr45  1  0.16335360  0.48127132  0.93025561  1
  Zr  Zr46  1  0.07774165  0.72968412  0.73378318  1
  Zr  Zr47  1  0.16238165  0.27110710  0.93642652  1
  Zr  Zr48  1  0.11270807  0.86706853  0.56860803  1
  Zr  Zr49  1  0.84476382  0.41255471  0.10870783  1
  Sc  Sc50  1  0.52074537  0.15649609  0.55092392  1
  Sc  Sc51  1  0.06747649  0.50557245  0.73768011  1
  Sc  Sc52  1  0.71672627  0.39042700  0.31054052  1
  Sc  Sc53  1  0.26478949  0.82019807  0.84488971  1
  Sc  Sc54  1  0.45289708  0.00739377  0.94722853  1
  Sc  Sc55  1  0.86783636  0.58137782  0.43324081  1
  Sc  Sc56  1  0.76203665  0.55495678  0.97791455  1
  Sc  Sc57  1  0.40142023  0.28798874  0.42444199  1
  Sc  Sc58  1  0.50646572  0.71474249  0.55699178  1
  Sc  Sc59  1  0.06686230  0.94096078  0.76866316  1
  Sc  Sc60  1  0.14378327  0.99799483  0.39424546  1
  Sc  Sc61  1  0.71182666  0.84663600  0.04570066  1
  Sc  Sc62  1  0.69196017  0.72204298  0.84762631  1
  Sc  Sc63  1  0.84470421  0.98554226  0.75947373  1
  Sc  Sc64  1  0.29561528  0.21226257  0.61294990  1
  Sc  Sc65  1  0.69511040  0.96586668  0.23591604  1
  Sc  Sc66  1  0.92556267  0.91210980  0.34636790  1
  Sc  Sc67  1  0.66526052  0.97650506  0.46497120  1
  Sc  Sc68  1  0.51016907  0.90715460  0.13807484  1
  Sc  Sc69  1  0.10094457  0.68550252  0.94776258  1
  Sc  Sc70  1  0.60782936  0.35752350  0.48487604  1
  Sc  Sc71  1  0.73302703  0.66016289  0.63208043  1
  Sc  Sc72  1  0.70476921  0.23819373  0.15454487  1
  Sc  Sc73  1  0.90019168  0.87395299  0.14557045  1
  Sc  Sc74  1  0.29223207  0.82877202  0.05118194  1
  Sc  Sc75  1  0.65094415  0.05755543  0.68679304  1
  Sc  Sc76  1  0.58000346  0.16991651  0.85428586  1
  Sc  Sc77  1  0.49615492  0.12280334  0.15444015  1
  Sc  Sc78  1  0.12128194  0.58091942  0.33460252  1
  Sc  Sc79  1  0.75302135  0.18051226  0.53045426  1
  Sc  Sc80  1  0.29344385  0.03130238  0.10266577  1
  Sc  Sc81  1  0.07829059  0.90817474  0.98777507  1
  Sc  Sc82  1  0.93325110  0.44052689  0.91119805  1
  Sc  Sc83  1  0.34230047  0.67203567  0.40562363  1
  Sc  Sc84  1  0.56246500  0.52111202  0.65035615  1
  Sc  Sc85  1  0.49404892  0.77653183  0.96356119  1
  Sc  Sc86  1  0.12875647  0.78682102  0.36334483  1
  Sc  Sc87  1  0.59221304  0.17520562  0.34527776  1
  Sc  Sc88  1  0.66832568  0.85262120  0.65887203  1
  Sc  Sc89  1  0.67392906  0.07848077  0.02695866  1
  Sc  Sc90  1  0.90037562  0.26601880  0.26220095  1
  Sc  Sc91  1  0.10082127  0.16152360  0.25208527  1
  Sc  Sc92  1  0.43325474  0.51254367  0.10896100  1
  Sc  Sc93  1  0.67383943  0.29810931  0.68764608  1
  Sc  Sc94  1  0.90799777  0.23226420  0.00534893  1
  Sc  Sc95  1  0.54721642  0.53894786  0.92858996  1
  Sc  Sc96  1  0.33442796  0.55836336  0.60795956  1
  Sc  Sc97  1  0.89711965  0.81933042  -0.10562747  1
  Sc  Sc98  1  0.43678307  0.71360510  0.19556379  1
  Sc  Sc99  1  0.06398802  0.33220650  0.12915063  1
  Nb  Nb100  1  0.89971427  0.62992732  0.82333332  1
  Nb  Nb101  1  0.16528607  0.15967217  0.75520565  1
  Nb  Nb102  1  0.30939002  0.77181734  0.64486728  1
  Nb  Nb103  1  0.23302652  0.44702074  0.11985626  1
  Nb  Nb104  1  0.32854044  0.61751557  0.95980868  1
  Nb  Nb105  1  0.19180197  0.20997505  0.43881467  1
  Nb  Nb106  1  0.53498048  0.37264244  0.82239407  1
  Nb  Nb107  1  0.96228612  0.74664058  0.49902639  1
  Nb  Nb108  1  0.38088711  0.48872220  0.79956082  1
  Nb  Nb109  1  0.45811812  0.49537837  0.46048951  1
  Nb  Nb110  1  0.24227506  0.62197624  0.78052792  1
  Nb  Nb111  1  0.93233527  0.70642749  0.28559479  1
  Nb  Nb112  1  0.24550576  0.40617673  0.49320407  1
  Nb  Nb113  1  0.63459942  0.44192498  0.11459139  1
  Nb  Nb114  1  0.08779340  0.35471333  0.36549130  1
  Nb  Nb115  1  0.31102260  0.85697414  0.47113526  1
  Nb  Nb116  1  1.02125019  0.29239483  0.80295709  1
  Nb  Nb117  1  0.25425901  0.31721166  0.27338042  1
  Nb  Nb118  1  0.00878318  0.10435059  0.86312909  1
  Nb  Nb119  1  0.08588124  0.29292469  0.59138808  1
  Nb  Nb120  1  0.92397812  0.59483805  0.63541997  1
  Nb  Nb121  1  0.26899562  -0.03792191  0.67430017  1
  Nb  Nb122  1  0.72929739  0.75951203  0.25446991  1
  Nb  Nb123  1  0.35125701  0.40044882  0.96011378  1
  Nb  Nb124  1  0.76244014  0.46658919  0.56795373  1
