# generated using pymatgen
data_Zr2Sc2Nb
_symmetry_space_group_name_H-M   'P 1'
_cell_length_a   13.98967275
_cell_length_b   14.16694743
_cell_length_c   14.49209504
_cell_angle_alpha   90.65051269
_cell_angle_beta   90.32649228
_cell_angle_gamma   90.11480513
_symmetry_Int_Tables_number   1
_chemical_formula_structural   Zr2Sc2Nb
_chemical_formula_sum   'Zr50 Sc50 Nb25'
_cell_volume   2871.96431417
_cell_formula_units_Z   25
loop_
 _symmetry_equiv_pos_site_id
 _symmetry_equiv_pos_as_xyz
  1  'x, y, z'
loop_
 _atom_site_type_symbol
 _atom_site_label
 _atom_site_symmetry_multiplicity
 _atom_site_fract_x
 _atom_site_fract_y
 _atom_site_fract_z
 _atom_site_occupancy
  Zr  Zr0  1  0.20154572  0.02289751  0.27964073  1
  Zr  Zr1  1  0.15162120  0.39000023  0.84401484  1
  Zr  Zr2  1  0.13513529  0.65309179  0.18476196  1
  Zr  Zr3  1  0.43457511  0.91023839  0.70511907  1
  Zr  Zr4  1  0.65330455  0.16412637  0.97640761  1
  Zr  Zr5  1  0.02428101  0.40993105  0.69935854  1
  Zr  Zr6  1  0.47894562  0.14131836  0.82289657  1
  Zr  Zr7  1  0.45906976  0.97944401  0.94422749  1
  Zr  Zr8  1  0.66938206  0.74811533  0.73894943  1
  Zr  Zr9  1  0.52379545  0.27001898  0.63588631  1
  Zr  Zr10  1  0.26622409  0.90291839  0.89878012  1
  Zr  Zr11  1  0.69944548  0.29392451  0.33875612  1
  Zr  Zr12  1  0.31574385  0.72904364  0.99544490  1
  Zr  Zr13  1  0.40480968  0.56392232  0.86239211  1
  Zr  Zr14  1  0.33329592  0.11789070  0.42504177  1
  Zr  Zr15  1  0.03897859  0.40633405  0.25230334  1
  Zr  Zr16  1  0.24633021  0.71901340  0.77890307  1
  Zr  Zr17  1  0.37350205  0.71065599  0.19064077  1
  Zr  Zr18  1  0.70164084  0.16982928  0.52841563  1
  Zr  Zr19  1  0.53488437  0.04405936  0.12518985  1
  Zr  Zr20  1  0.68239174  0.38394700  0.52237466  1
  Zr  Zr21  1  0.84790348  0.87197712  0.76485762  1
  Zr  Zr22  1  0.32334725  0.32077023  0.36409537  1
  Zr  Zr23  1  0.51929211  1.01057595  0.48609660  1
  Zr  Zr24  1  0.68217583  0.19353698  0.76527338  1
  Zr  Zr25  1  0.70236066  0.78542172  0.94447858  1
  Zr  Zr26  1  0.47852733  0.46301560  0.66085744  1
  Zr  Zr27  1  0.66974736  0.57286053  0.63007645  1
  Zr  Zr28  1  0.06149686  0.81950716  0.85438893  1
  Zr  Zr29  1  0.26750416  0.73798116  0.58057546  1
  Zr  Zr30  1  0.74375371  0.73135663  0.52652398  1
  Zr  Zr31  1  0.87786168  0.49617330  0.59366322  1
  Zr  Zr32  1  0.14074247  0.21065315  0.71138279  1
  Zr  Zr33  1  0.35715661  0.10849934  0.63249313  1
  Zr  Zr34  1  0.32326571  0.91436727  0.49076505  1
  Zr  Zr35  1  0.90104437  0.21002639  0.24908928  1
  Zr  Zr36  1  0.13226337  0.36151551  0.51269346  1
  Zr  Zr37  1  0.33868459  0.39397880  0.95050097  1
  Zr  Zr38  1  0.99922624  0.03442461  0.34859199  1
  Zr  Zr39  1  0.09701140  0.58219995  0.58768440  1
  Zr  Zr40  1  0.99471007  0.24720951  0.88349964  1
  Zr  Zr41  1  0.67397460  0.91425391  0.60883833  1
  Zr  Zr42  1  0.88213012  0.68910241  0.90607016  1
  Zr  Zr43  1  0.44794159  0.66632904  0.67534669  1
  Zr  Zr44  1  0.38178678  0.12287850  0.23587135  1
  Zr  Zr45  1  0.26432464  0.06639808  0.05520970  1
  Zr  Zr46  1  0.93736250  0.56555059  0.10419669  1
  Zr  Zr47  1  0.53513766  0.82809461  0.08021647  1
  Zr  Zr48  1  0.21317931  0.22619394  0.94310563  1
  Zr  Zr49  1  0.25516170  0.50034316  0.70413627  1
  Sc  Sc50  1  0.64678834  0.96735207  0.82126482  1
  Sc  Sc51  1  0.37544023  0.68775293  0.39937311  1
  Sc  Sc52  1  0.79041267  0.32903087  0.89729579  1
  Sc  Sc53  1  0.94235619  0.70297775  0.47828075  1
  Sc  Sc54  1  0.31967757  0.51536257  0.50786207  1
  Sc  Sc55  1  0.67877759  0.89778026  0.21504847  1
  Sc  Sc56  1  0.15191558  0.84660756  0.08236889  1
  Sc  Sc57  1  0.53112995  0.62274842  0.05843422  1
  Sc  Sc58  1  0.86851830  0.26850561  0.68481637  1
  Sc  Sc59  1  0.15590898  0.10807794  0.52867728  1
  Sc  Sc60  1  0.08634923  0.22072568  0.11803198  1
  Sc  Sc61  1  0.51521091  0.78936704  0.52276010  1
  Sc  Sc62  1  0.12184418  0.22346102  0.34170287  1
  Sc  Sc63  1  0.70919435  0.32529309  0.11879114  1
  Sc  Sc64  1  0.43483276  0.50870477  0.27180521  1
  Sc  Sc65  1  0.61511717  0.56948985  0.84137518  1
  Sc  Sc66  1  0.24873995  0.83075949  0.29739488  1
  Sc  Sc67  1  0.30829010  0.53679531  0.09679811  1
  Sc  Sc68  1  0.93160172  0.77772801  0.12075667  1
  Sc  Sc69  1  0.83542949  0.45318797  0.25218714  1
  Sc  Sc70  1  0.51668103  0.28991962  0.24019228  1
  Sc  Sc71  1  0.54487187  0.35506302  0.86274367  1
  Sc  Sc72  1  0.10408085  0.89625085  0.47067443  1
  Sc  Sc73  1  0.46054608  0.90800357  0.30312786  1
  Sc  Sc74  1  0.21338301  0.50143814  0.31851762  1
  Sc  Sc75  1  0.74884648  0.68539894  0.32509363  1
  Sc  Sc76  1  0.91662588  0.34539187  0.07422590  1
  Sc  Sc77  1  0.78665993  0.05263276  0.37949584  1
  Sc  Sc78  1  0.05364599  0.79256271  0.65105719  1
  Sc  Sc79  1  0.86327097  0.98178548  0.18371648  1
  Sc  Sc80  1  0.33811901  0.29734375  0.76175106  1
  Sc  Sc81  1  0.97040696  0.47918096  0.91462983  1
  Sc  Sc82  1  0.57610748  0.59163738  0.43920545  1
  Sc  Sc83  1  0.05165473  0.02017923  0.13129872  1
  Sc  Sc84  1  0.94303071  0.13980884  0.52793183  1
  Sc  Sc85  1  0.08304819  0.04884857  0.91400071  1
  Sc  Sc86  1  0.12388761  0.43764581  0.05838608  1
  Sc  Sc87  1  0.00748190  0.02516190  0.71005297  1
  Sc  Sc88  1  0.74181129  0.51515896  0.00626440  1
  Sc  Sc89  1  0.51719088  0.41987327  0.07300267  1
  Sc  Sc90  1  0.48574067  0.77308898  0.86600097  1
  Sc  Sc91  1  0.28751740  0.31558450  0.15560554  1
  Sc  Sc92  1  0.14054545  0.68467955  0.40390336  1
  Sc  Sc93  1  0.84323132  0.08488385  0.85949717  1
  Sc  Sc94  1  0.90054722  0.32917847  0.44024408  1
  Sc  Sc95  1  0.21353973  0.94033154  0.68445721  1
  Sc  Sc96  1  0.90933098  0.91838681  0.97263083  1
  Sc  Sc97  1  0.43404017  0.20814916  0.02358438  1
  Sc  Sc98  1  0.88495685  0.91407087  0.53616006  1
  Sc  Sc99  1  0.73202945  0.68876062  0.13100993  1
  Nb  Nb100  1  0.69250288  0.39432322  0.71776202  1
  Nb  Nb101  1  0.87790477  0.68430357  0.68644948  1
  Nb  Nb102  1  0.56676875  0.07377609  0.65640774  1
  Nb  Nb103  1  0.66564413  0.87578792  0.40329660  1
  Nb  Nb104  1  0.71069351  0.97965315  0.02359133  1
  Nb  Nb105  1  0.50894692  0.21634903  0.44609045  1
  Nb  Nb106  1  0.58869003  0.08863313  0.32032200  1
  Nb  Nb107  1  0.07828522  0.66930807  0.98901500  1
  Nb  Nb108  1  0.82273208  0.52438541  0.78672953  1
  Nb  Nb109  1  0.71572112  0.12988273  0.17981446  1
  Nb  Nb110  1  0.28603709  0.08407855  0.82515978  1
  Nb  Nb111  1  0.55721858  0.71670802  0.27139150  1
  Nb  Nb112  1  0.87248787  0.14218947  0.04792024  1
  Nb  Nb113  1  0.32659643  0.30443507  0.55914951  1
  Nb  Nb114  1  0.63698311  0.50572718  0.24953165  1
  Nb  Nb115  1  0.86685907  0.84735988  0.33927054  1
  Nb  Nb116  1  0.49738304  0.40232404  0.44338973  1
  Nb  Nb117  1  0.79536879  0.05798918  0.66290959  1
  Nb  Nb118  1  0.20661749  0.56678322  0.90701974  1
  Nb  Nb119  1  0.95025242  0.64014802  0.28633658  1
  Nb  Nb120  1  0.04470892  0.84255057  0.27595425  1
  Nb  Nb121  1  0.35072833  0.91197135  0.12468904  1
  Nb  Nb122  1  0.04744911  0.60852478  0.77971117  1
  Nb  Nb123  1  0.00690663  0.50745235  0.41789732  1
  Nb  Nb124  1  0.78817170  0.52733207  0.42661959  1
