# generated using pymatgen
data_Zr2Sc2Nb
_symmetry_space_group_name_H-M   'P 1'
_cell_length_a   14.01907819
_cell_length_b   14.19585241
_cell_length_c   14.48492277
_cell_angle_alpha   90.37969820
_cell_angle_beta   89.58050083
_cell_angle_gamma   90.32898624
_symmetry_Int_Tables_number   1
_chemical_formula_structural   Zr2Sc2Nb
_chemical_formula_sum   'Zr50 Sc50 Nb25'
_cell_volume   2882.49724581
_cell_formula_units_Z   25
loop_
 _symmetry_equiv_pos_site_id
 _symmetry_equiv_pos_as_xyz
  1  'x, y, z'
loop_
 _atom_site_type_symbol
 _atom_site_label
 _atom_site_symmetry_multiplicity
 _atom_site_fract_x
 _atom_site_fract_y
 _atom_site_fract_z
 _atom_site_occupancy
  Zr  Zr0  1  0.67760139  0.48424064  0.18898950  1
  Zr  Zr1  1  0.12923316  0.51974738  0.25368961  1
  Zr  Zr2  1  0.40862231  0.66277572  0.93260262  1
  Zr  Zr3  1  0.60328873  0.13432896  0.65279852  1
  Zr  Zr4  1  0.63006193  0.62709058  0.84812680  1
  Zr  Zr5  1  0.58893075  0.02235072  0.25508356  1
  Zr  Zr6  1  0.33673540  0.09966641  0.95839624  1
  Zr  Zr7  1  0.54514568  0.12922767  0.06103799  1
  Zr  Zr8  1  0.52399339  0.15231503  0.43534844  1
  Zr  Zr9  1  0.48399574  0.32819452  0.57065119  1
  Zr  Zr10  1  0.25941632  0.70356013  0.76731410  1
  Zr  Zr11  1  0.28773003  0.78482536  0.41072315  1
  Zr  Zr12  1  0.77419338  0.41591431  0.35613909  1
  Zr  Zr13  1  0.51737835  0.06089990  0.85100169  1
  Zr  Zr14  1  0.96608140  0.51939236  0.67994280  1
  Zr  Zr15  1  0.18423279  0.26162322  0.02840988  1
  Zr  Zr16  1  0.37984864  0.86951352  0.85610199  1
  Zr  Zr17  1  0.05943036  0.57377860  0.46533427  1
  Zr  Zr18  1  0.83741788  0.06660035  0.24168998  1
  Zr  Zr19  1  0.31965260  0.57563151  0.34305106  1
  Zr  Zr20  1  0.38333198  0.27708308  0.08774080  1
  Zr  Zr21  1  0.91799863  0.71729360  0.62457339  1
  Zr  Zr22  1  0.05552010  0.10157715  0.46999293  1
  Zr  Zr23  1  0.19200461  0.68681289  0.97447712  1
  Zr  Zr24  1  1.00407382  0.81785160  0.93144063  1
  Zr  Zr25  1  0.12081791  0.48162894  0.03590442  1
  Zr  Zr26  1  0.46010047  0.41953964  0.24219771  1
  Zr  Zr27  1  0.67234608  0.21410159  0.27469010  1
  Zr  Zr28  1  0.47544951  0.82387399  0.23982340  1
  Zr  Zr29  1  0.71054843  0.99193325  0.93308853  1
  Zr  Zr30  1  0.21462837  0.98057878  0.54170122  1
  Zr  Zr31  1  0.84686601  0.29206168  0.19655841  1
  Zr  Zr32  1  0.90243004  0.89283321  0.76348936  1
  Zr  Zr33  1  0.13202005  0.88927818  0.74214564  1
  Zr  Zr34  1  0.26496763  0.70142357  0.19430780  1
  Zr  Zr35  1  0.62243563  0.35437542  0.71598600  1
  Zr  Zr36  1  0.32450056  0.43809172  0.67852892  1
  Zr  Zr37  1  0.88877263  0.61928232  0.30283592  1
  Zr  Zr38  1  0.41605785  0.06396703  0.58237323  1
  Zr  Zr39  1  0.91261632  0.36263511  0.53856392  1
  Zr  Zr40  1  0.88511150  0.20693171  0.39476017  1
  Zr  Zr41  1  0.97668936  0.61688870  0.95494017  1
  Zr  Zr42  1  0.83619748  0.32419350  0.99766178  1
  Zr  Zr43  1  0.34645352  0.82883352  0.07040840  1
  Zr  Zr44  1  0.48120841  0.49281271  0.79845567  1
  Zr  Zr45  1  0.69259166  0.69380193  0.23251014  1
  Zr  Zr46  1  0.04290796  0.01451891  0.25278481  1
  Zr  Zr47  1  0.10236559  0.84788199  0.12819795  1
  Zr  Zr48  1  0.18087610  0.07343102  0.11622965  1
  Zr  Zr49  1  0.23561463  0.45260779  0.49183828  1
  Sc  Sc50  1  0.24271003  0.10879057  0.33928574  1
  Sc  Sc51  1  0.49344901  0.29443093  0.90923706  1
  Sc  Sc52  1  0.68617612  0.76174444  0.68862250  1
  Sc  Sc53  1  0.86146288  0.09674080  0.61060140  1
  Sc  Sc54  1  0.29058699  0.03435644  0.75269704  1
  Sc  Sc55  1  0.52497400  0.92921697  0.03373601  1
  Sc  Sc56  1  0.06921152  0.10770638  0.69282492  1
  Sc  Sc57  1  0.57941096  0.90531588  0.53074524  1
  Sc  Sc58  1  0.74844919  0.53583450  0.69292574  1
  Sc  Sc59  1  0.91761012  0.96332365  0.05375752  1
  Sc  Sc60  1  0.49624437  0.71659864  0.43143015  1
  Sc  Sc61  1  0.88959812  0.11099040  0.86633860  1
  Sc  Sc62  1  0.47120940  0.71816096  0.72395512  1
  Sc  Sc63  1  0.71149852  0.85887001  0.35840819  1
  Sc  Sc64  1  0.68721273  0.20339640  0.86717792  1
  Sc  Sc65  1  0.22295582  0.24919172  0.81252867  1
  Sc  Sc66  1  0.41807681  0.22358166  0.73566578  1
  Sc  Sc67  1  0.71180766  0.05905846  0.44653114  1
  Sc  Sc68  1  0.87425646  0.47042158  0.85920784  1
  Sc  Sc69  1  0.52081164  0.50108334  0.02426918  1
  Sc  Sc70  1  0.40971958  0.96478174  0.39224016  1
  Sc  Sc71  1  0.70884055  0.97741837  0.72974563  1
  Sc  Sc72  1  0.23031154  0.32781981  0.23566020  1
  Sc  Sc73  1  0.71437021  0.68704981  0.48814418  1
  Sc  Sc74  1  0.72069397  0.89416861  0.13658319  1
  Sc  Sc75  1  0.89980907  -0.02603098  0.41529594  1
  Sc  Sc76  1  0.09807571  0.08401709  0.90808935  1
  Sc  Sc77  1  0.62089723  0.31657026  0.08796612  1
  Sc  Sc78  1  0.84345572  0.29730289  0.73598983  1
  Sc  Sc79  1  0.25337754  0.21052108  0.58191185  1
  Sc  Sc80  1  0.76079671  0.13463393  0.06894505  1
  Sc  Sc81  1  0.90117749  0.50260818  0.13108577  1
  Sc  Sc82  1  0.77437655  0.79832353  0.93829760  1
  Sc  Sc83  1  0.35525642  0.29744374  0.40498343  1
  Sc  Sc84  1  0.91680251  0.83508721  0.25443182  1
  Sc  Sc85  1  0.58162818  0.72403366  0.05187486  1
  Sc  Sc86  1  0.33983318  0.63796932  0.56863131  1
  Sc  Sc87  1  0.02368735  0.30597487  0.89371363  1
  Sc  Sc88  1  0.20065681  0.91207389  0.94751986  1
  Sc  Sc89  1  0.31643320  0.51340492  0.11336201  1
  Sc  Sc90  1  0.97790983  0.40976399  0.33314352  1
  Sc  Sc91  1  0.38326553  0.03022407  0.16972385  1
  Sc  Sc92  1  0.67198455  0.45893003  0.52481453  1
  Sc  Sc93  1  0.13388061  0.50081866  0.82835764  1
  Sc  Sc94  1  0.13720498  0.76070750  0.56525984  1
  Sc  Sc95  1  0.10177895  0.35138634  0.65784673  1
  Sc  Sc96  1  0.31344254  0.42461564  0.91983250  1
  Sc  Sc97  1  0.11419271  0.29669100  0.43598353  1
  Sc  Sc98  1  0.71434900  0.25800857  0.52467412  1
  Sc  Sc99  1  0.75033661  0.58093643  1.00798752  1
  Nb  Nb100  1  0.54054527  0.56350134  0.61806675  1
  Nb  Nb101  1  0.67266355  0.41865735  0.89275434  1
  Nb  Nb102  1  0.10230077  0.72315014  0.32224365  1
  Nb  Nb103  1  0.60367562  0.55575792  0.35939202  1
  Nb  Nb104  1  0.44978910  0.49053610  0.46057391  1
  Nb  Nb105  1  0.86327155  0.55146685  0.49471334  1
  Nb  Nb106  1  0.58297982  0.83438296  0.86206773  1
  Nb  Nb107  1  0.46139521  0.20328057  0.25248543  1
  Nb  Nb108  1  0.50094825  0.93256062  0.71040121  1
  Nb  Nb109  1  0.04783698  0.20636161  0.25881894  1
  Nb  Nb110  1  0.87063503  0.72893425  0.09924641  1
  Nb  Nb111  1  0.48163082  0.62358012  0.21281444  1
  Nb  Nb112  1  0.05474017  0.69779345  0.77584721  1
  Nb  Nb113  1  0.24490667  0.90298934  0.25850362  1
  Nb  Nb114  1  0.93265379  0.76423552  0.44380676  1
  Nb  Nb115  1  0.98048723  0.16208329  0.07247786  1
  Nb  Nb116  1  0.80077072  0.88383735  0.56181996  1
  Nb  Nb117  1  0.03109367  0.34347868  0.12899961  1
  Nb  Nb118  1  0.04892268  0.66104339  0.14027224  1
  Nb  Nb119  1  0.57404042  0.34835456  0.37745343  1
  Nb  Nb120  1  0.09968402  0.89640277  0.40000517  1
  Nb  Nb121  1  0.34807036  0.85177968  0.61340477  1
  Nb  Nb122  1  0.85253602  0.67691860  0.80968780  1
  Nb  Nb123  1  0.00158180  0.92298741  0.58413808  1
  Nb  Nb124  1  0.15609030  0.57005701  0.64332499  1
