# generated using pymatgen
data_Zr2Sc2Nb
_symmetry_space_group_name_H-M   'P 1'
_cell_length_a   13.68804000
_cell_length_b   14.77769389
_cell_length_c   14.15509893
_cell_angle_alpha   89.84839287
_cell_angle_beta   89.83586778
_cell_angle_gamma   89.06749862
_symmetry_Int_Tables_number   1
_chemical_formula_structural   Zr2Sc2Nb
_chemical_formula_sum   'Zr50 Sc50 Nb25'
_cell_volume   2862.85973290
_cell_formula_units_Z   25
loop_
 _symmetry_equiv_pos_site_id
 _symmetry_equiv_pos_as_xyz
  1  'x, y, z'
loop_
 _atom_site_type_symbol
 _atom_site_label
 _atom_site_symmetry_multiplicity
 _atom_site_fract_x
 _atom_site_fract_y
 _atom_site_fract_z
 _atom_site_occupancy
  Zr  Zr0  1  0.57875266  0.49279524  0.15925834  1
  Zr  Zr1  1  0.21100416  0.82391220  0.99592207  1
  Zr  Zr2  1  0.12582853  0.26886027  0.97975924  1
  Zr  Zr3  1  0.88354894  0.96526355  0.52609098  1
  Zr  Zr4  1  0.95421329  0.01619793  0.18592886  1
  Zr  Zr5  1  0.53302629  0.69764018  0.81453397  1
  Zr  Zr6  1  0.90254962  0.62179310  0.35787625  1
  Zr  Zr7  1  0.65060259  0.36407316  0.32148506  1
  Zr  Zr8  1  0.11444811  0.16593294  0.17822658  1
  Zr  Zr9  1  0.33813518  0.54104660  0.27255191  1
  Zr  Zr10  1  0.37292754  0.87627919  0.48255289  1
  Zr  Zr11  1  0.16706675  0.88940904  0.44338204  1
  Zr  Zr12  1  0.27353832  0.93694604  0.66444487  1
  Zr  Zr13  1  0.91278549  0.03774029  0.75188665  1
  Zr  Zr14  1  0.52321693  0.69923069  0.21079803  1
  Zr  Zr15  1  0.77323677  0.97286613  0.32815158  1
  Zr  Zr16  1  0.90246126  0.66759687  0.95980378  1
  Zr  Zr17  1  0.54681084  0.01656128  0.39921553  1
  Zr  Zr18  1  0.28213568  0.54592858  0.71348555  1
  Zr  Zr19  1  0.75922138  0.18894430  0.74220010  1
  Zr  Zr20  1  0.19628517  0.30417014  0.77124630  1
  Zr  Zr21  1  0.58612094  0.84898041  0.00367599  1
  Zr  Zr22  1  0.68253321  0.21503865  0.94075491  1
  Zr  Zr23  1  0.12755225  0.19712531  0.57721637  1
  Zr  Zr24  1  0.31962408  0.77039225  0.77752004  1
  Zr  Zr25  1  0.06591374  0.59454268  0.62617423  1
  Zr  Zr26  1  0.12378382  0.02804372  1.00465765  1
  Zr  Zr27  1  0.71681659  -0.00004673  0.89321814  1
  Zr  Zr28  1  0.49988692  0.21328106  0.40137402  1
  Zr  Zr29  1  0.07914323  0.01336265  0.59239740  1
  Zr  Zr30  1  0.13089991  0.49451682  0.83802566  1
  Zr  Zr31  1  0.11626913  0.70703844  0.21498390  1
  Zr  Zr32  1  0.70243934  0.68843248  0.07217573  1
  Zr  Zr33  1  0.70568804  0.72290077  0.66892889  1
  Zr  Zr34  1  0.91686342  0.17512723  0.58857269  1
  Zr  Zr35  1  0.03174549  0.35759869  0.16723638  1
  Zr  Zr36  1  0.86559406  0.76613721  0.50641993  1
  Zr  Zr37  1  0.84618757  0.28982741  0.42205634  1
  Zr  Zr38  1  0.80099013  0.49927573  0.06519176  1
  Zr  Zr39  1  0.86520158  0.37455760  0.62842197  1
  Zr  Zr40  1  0.11175305  0.91138998  0.81231170  1
  Zr  Zr41  1  0.39585331  0.88088060  0.12205789  1
  Zr  Zr42  1  0.89986218  0.20616866  0.22789320  1
  Zr  Zr43  1  0.61795596  0.42031488  0.96686096  1
  Zr  Zr44  1  0.50987166  0.07323688  0.00366708  1
  Zr  Zr45  1  0.49091488  0.41173775  0.49504941  1
  Zr  Zr46  1  0.30753259  0.06612142  0.10141940  1
  Zr  Zr47  1  0.90259783  0.25397159  0.01050053  1
  Zr  Zr48  1  0.32177046  0.96929546  0.89139147  1
  Zr  Zr49  1  0.92574590  0.86043480  0.88855401  1
  Sc  Sc50  1  0.35357031  0.98150920  0.30221909  1
  Sc  Sc51  1  0.32221217  0.27624775  0.09669866  1
  Sc  Sc52  1  0.89800646  0.72947768  0.17101873  1
  Sc  Sc53  1  0.53275663  0.12693712  0.79173996  1
  Sc  Sc54  1  0.29833995  0.30040184  0.48348465  1
  Sc  Sc55  1  0.25751077  0.71961347  0.58428364  1
  Sc  Sc56  1  0.72069417  0.58894680  0.86899328  1
  Sc  Sc57  1  0.70773571  0.10572944  0.51516253  1
  Sc  Sc58  1  0.30730104  0.77073679  0.29902966  1
  Sc  Sc59  1  0.29615769  0.18115783  0.29914899  1
  Sc  Sc60  1  0.09454694  0.68605484  0.43481563  1
  Sc  Sc61  1  0.47554498  0.49839140  0.83095429  1
  Sc  Sc62  1  -0.01491900  0.44293745  0.97253913  1
  Sc  Sc63  1  0.69045368  0.97838243  0.68743070  1
  Sc  Sc64  1  0.38621502  0.35616465  0.69075761  1
  Sc  Sc65  1  0.11811902  0.11139238  0.79770671  1
  Sc  Sc66  1  0.73012785  0.77764830  0.29787061  1
  Sc  Sc67  1  0.69102148  0.50100535  0.68075117  1
  Sc  Sc68  1  0.72103629  0.09478762  0.10621245  1
  Sc  Sc69  1  0.74513399  0.32201581  0.13519742  1
  Sc  Sc70  1  0.10078216  0.39830913  0.61707208  1
  Sc  Sc71  1  0.91388689  0.05803734  0.97027806  1
  Sc  Sc72  1  0.59411081  0.93729735  0.19935381  1
  Sc  Sc73  1  0.11090823  0.70343296  0.81164156  1
  Sc  Sc74  1  0.67320986  0.30408967  0.55333199  1
  Sc  Sc75  1  0.49153887  1.00757321  0.60531273  1
  Sc  Sc76  1  -0.08039208  0.50782015  0.77540569  1
  Sc  Sc77  1  0.97287572  0.27525620  0.79453089  1
  Sc  Sc78  1  0.51450503  0.90861908  0.80686903  1
  Sc  Sc79  1  0.59985866  0.32871381  0.75493646  1
  Sc  Sc80  1  0.32491390  0.66281911  0.10764679  1
  Sc  Sc81  1  0.19579693  0.47653186  0.08771382  1
  Sc  Sc82  1  0.16327476  0.92619397  0.20689542  1
  Sc  Sc83  1  0.65488814  0.67066741  0.46555952  1
  Sc  Sc84  1  0.05237875  0.80940478  0.62611492  1
  Sc  Sc85  1  0.10642627  0.51072499  0.31390857  1
  Sc  Sc86  1  0.25595966  0.50905216  0.48794034  1
  Sc  Sc87  1  0.97762319  0.86611071  0.33192039  1
  Sc  Sc88  1  0.48737266  0.58057009  0.62182138  1
  Sc  Sc89  1  0.79685562  0.89033305  0.07616040  1
  Sc  Sc90  1  0.41687057  0.66298876  0.44088439  1
  Sc  Sc91  1  0.10591178  0.64635813  0.01371709  1
  Sc  Sc92  1  0.74213887  0.48420467  0.45790358  1
  Sc  Sc93  1  0.43461354  0.36044016  0.27126078  1
  Sc  Sc94  1  0.31009866  0.08296517  0.49192315  1
  Sc  Sc95  1  0.32140085  0.14104487  0.69543963  1
  Sc  Sc96  1  0.50693052  0.79361986  0.61250204  1
  Sc  Sc97  1  0.06547683  0.28215239  0.38236538  1
  Sc  Sc98  1  0.69253685  0.16380156  0.30104296  1
  Sc  Sc99  1  0.30966353  0.17065466  0.90962397  1
  Nb  Nb100  1  0.49029685  0.12322217  0.20639886  1
  Nb  Nb101  1  0.40915896  0.77992944  0.95436206  1
  Nb  Nb102  1  0.89867416  0.69784755  0.74778538  1
  Nb  Nb103  1  0.54441396  0.27327486  0.11113653  1
  Nb  Nb104  1  -0.02640109  0.55290545  0.15735190  1
  Nb  Nb105  1  0.86443127  0.58945481  0.58190229  1
  Nb  Nb106  1  0.53001997  0.82398191  0.36828489  1
  Nb  Nb107  1  1.02064655  0.85232024  0.06569012  1
  Nb  Nb108  1  0.46849092  0.29250210  0.92058002  1
  Nb  Nb109  1  0.92707756  0.09918103  0.39340363  1
  Nb  Nb110  1  0.22521537  0.36166388  0.26633887  1
  Nb  Nb111  1  0.54541528  0.53675154  0.35296488  1
  Nb  Nb112  1  0.52115059  0.62108609  0.00134991  1
  Nb  Nb113  1  0.67965132  0.87969914  0.50378069  1
  Nb  Nb114  1  0.41114755  0.45954554  0.05639787  1
  Nb  Nb115  1  0.73514431  0.57356145  0.25530685  1
  Nb  Nb116  1  0.31013850  0.60761089  0.91277612  1
  Nb  Nb117  1  0.79144924  0.37337163  0.86312599  1
  Nb  Nb118  1  0.72879735  0.79742798  0.86184161  1
  Nb  Nb119  1  0.97138251  0.46579745  0.46768649  1
  Nb  Nb120  1  0.87365713  0.42781605  0.28002507  1
  Nb  Nb121  1  0.29990852  0.39983655  0.90760303  1
  Nb  Nb122  1  0.85263925  0.86486813  0.69509885  1
  Nb  Nb123  1  0.11685554  0.06884848  0.37175296  1
  Nb  Nb124  1  0.49775045  0.20529810  0.59245508  1
