# generated using pymatgen
data_Zr2Sc2Nb
_symmetry_space_group_name_H-M   'P 1'
_cell_length_a   14.20304062
_cell_length_b   13.65485122
_cell_length_c   14.79389193
_cell_angle_alpha   91.15234854
_cell_angle_beta   89.79339969
_cell_angle_gamma   90.65458755
_symmetry_Int_Tables_number   1
_chemical_formula_structural   Zr2Sc2Nb
_chemical_formula_sum   'Zr50 Sc50 Nb25'
_cell_volume   2868.34958713
_cell_formula_units_Z   25
loop_
 _symmetry_equiv_pos_site_id
 _symmetry_equiv_pos_as_xyz
  1  'x, y, z'
loop_
 _atom_site_type_symbol
 _atom_site_label
 _atom_site_symmetry_multiplicity
 _atom_site_fract_x
 _atom_site_fract_y
 _atom_site_fract_z
 _atom_site_occupancy
  Zr  Zr0  1  0.77272031  0.37619652  0.11008348  1
  Zr  Zr1  1  0.18880117  0.67011287  0.45666458  1
  Zr  Zr2  1  0.13474178  0.25892508  0.53676094  1
  Zr  Zr3  1  0.04691679  0.19575406  0.14130106  1
  Zr  Zr4  1  0.33282006  0.70392495  0.84335858  1
  Zr  Zr5  1  0.36655956  0.90254929  0.74669454  1
  Zr  Zr6  1  0.26503844  0.50606746  0.34760374  1
  Zr  Zr7  1  0.25401078  0.88794630  0.93993944  1
  Zr  Zr8  1  0.66185060  0.84397588  0.93926590  1
  Zr  Zr9  1  0.27204727  0.71597081  0.05771795  1
  Zr  Zr10  1  0.87470991  0.52877270  -0.00938003  1
  Zr  Zr11  1  0.78007671  0.98198260  0.82809720  1
  Zr  Zr12  1  0.65288210  0.86074371  0.52579148  1
  Zr  Zr13  1  0.83316315  0.92688285  0.02763394  1
  Zr  Zr14  1  0.31631690  0.70183998  0.63683477  1
  Zr  Zr15  1  0.67723331  0.10011698  0.29427443  1
  Zr  Zr16  1  0.43514664  0.34229900  1.00585446  1
  Zr  Zr17  1  0.18903529  0.05670371  0.06457174  1
  Zr  Zr18  1  0.45524877  0.91246162  0.93537353  1
  Zr  Zr19  1  0.84465400  0.78277639  0.52304450  1
  Zr  Zr20  1  0.79961621  0.40964756  0.60978541  1
  Zr  Zr21  1  0.13604988  0.29744469  0.32020251  1
  Zr  Zr22  1  0.76354007  0.14155995  0.95911711  1
  Zr  Zr23  1  0.06447503  0.47184197  0.44971814  1
  Zr  Zr24  1  0.16700474  0.84763297  0.73139532  1
  Zr  Zr25  1  0.61181201  0.19155385  0.12206802  1
  Zr  Zr26  1  0.71670115  0.61596293  0.54123034  1
  Zr  Zr27  1  0.82816652  0.14713897  0.14172284  1
  Zr  Zr28  1  0.05282966  0.40655002  0.10242271  1
  Zr  Zr29  1  0.97367644  0.76122698  0.19481771  1
  Zr  Zr30  1  0.77910773  0.71059707  0.09508562  1
  Zr  Zr31  1  0.63766945  0.44265905  0.43895661  1
  Zr  Zr32  1  0.38167262  0.74275634  0.43831591  1
  Zr  Zr33  1  0.73355080  0.44022260  0.85637738  1
  Zr  Zr34  1  0.08730305  0.43412409  0.91021947  1
  Zr  Zr35  1  0.44149773  0.50985498  0.50784309  1
  Zr  Zr36  1  0.46599254  0.51801148  0.30611822  1
  Zr  Zr37  1  0.77478009  0.91867415  0.22849965  1
  Zr  Zr38  1  -0.01938123  0.97976728  0.16546513  1
  Zr  Zr39  1  0.88958091  0.13432849  0.32385692  1
  Zr  Zr40  1  0.56317904  0.38411074  0.17189207  1
  Zr  Zr41  1  0.91017729  0.20415106  0.62279232  1
  Zr  Zr42  1  0.98829450  0.67346014  0.38494301  1
  Zr  Zr43  1  0.94020309  0.13078381  0.80637960  1
  Zr  Zr44  1  0.20831197  0.07597861  0.46169954  1
  Zr  Zr45  1  0.10098090  0.06084632  0.29409483  1
  Zr  Zr46  1  0.28763585  0.12710081  0.26311664  1
  Zr  Zr47  1  0.44827039  0.92795986  0.55030101  1
  Zr  Zr48  1  0.98966452  0.07603520  0.48075931  1
  Zr  Zr49  1  0.08411101  0.04659280  0.65154581  1
  Sc  Sc50  1  0.51944720  0.27296596  0.35353599  1
  Sc  Sc51  1  0.35283417  0.12072521  0.87732375  1
  Sc  Sc52  1  0.28440217  0.08867650  0.66351081  1
  Sc  Sc53  1  0.54208080  0.70921281  0.79576459  1
  Sc  Sc54  1  0.12081536  0.68140086  0.86432922  1
  Sc  Sc55  1  0.41042036  0.13024427  0.07849378  1
  Sc  Sc56  1  0.35768220  0.33419016  0.22346220  1
  Sc  Sc57  1  0.57465531  0.92863135  0.74740953  1
  Sc  Sc58  1  -0.00885697  0.91517992  0.83347642  1
  Sc  Sc59  1  0.07052444  0.61792064  0.06392549  1
  Sc  Sc60  1  0.95948296  0.55671737  0.79019106  1
  Sc  Sc61  1  0.58519073  0.72230144  0.18102311  1
  Sc  Sc62  1  0.60358761  0.96957522  0.10677239  1
  Sc  Sc63  1  0.59978029  0.48588810  0.68112520  1
  Sc  Sc64  1  0.53136784  0.29710469  0.56230180  1
  Sc  Sc65  1  0.91810907  0.34408426  0.79103942  1
  Sc  Sc66  1  0.49548049  0.30665466  0.79992595  1
  Sc  Sc67  1  0.92839632  0.34553951  0.25754434  1
  Sc  Sc68  1  0.49177763  0.70913431  1.00173318  1
  Sc  Sc69  1  0.29063054  0.51416028  0.94882666  1
  Sc  Sc70  1  0.94361779  0.89690208  0.36079703  1
  Sc  Sc71  1  0.38910911  0.50925159  0.73006557  1
  Sc  Sc72  1  0.58085074  0.67579881  0.39584528  1
  Sc  Sc73  1  0.71124319  0.23423674  0.76731502  1
  Sc  Sc74  1  0.88790872  0.96048879  0.64143510  1
  Sc  Sc75  1  0.78124446  0.72963571  0.32665083  1
  Sc  Sc76  1  0.06192128  0.84720590  0.01714638  1
  Sc  Sc77  1  0.38835919  0.91633829  0.14235426  1
  Sc  Sc78  1  0.70871756  0.06300296  0.63186297  1
  Sc  Sc79  1  0.56803883  0.10320067  0.90319933  1
  Sc  Sc80  1  0.15843844  0.86155433  0.36963694  1
  Sc  Sc81  1  0.15801917  0.05553928  0.84419237  1
  Sc  Sc82  1  0.56368626  0.89272681  0.33158461  1
  Sc  Sc83  1  0.49326219  0.11704552  0.67817702  1
  Sc  Sc84  1  0.11012318  0.63769021  0.64816324  1
  Sc  Sc85  1  0.84849095  0.49489167  0.39676925  1
  Sc  Sc86  1  0.02423625  0.41413795  0.63522054  1
  Sc  Sc87  1  0.32785980  0.30132248  0.64447421  1
  Sc  Sc88  1  0.52501121  0.70402296  0.60148816  1
  Sc  Sc89  1  0.88010480  0.74077363  0.90172868  1
  Sc  Sc90  1  0.51730614  0.50958726  0.89870589  1
  Sc  Sc91  1  0.36785543  0.71555270  0.24016550  1
  Sc  Sc92  1  0.73681228  0.79644456  0.71732764  1
  Sc  Sc93  1  0.23830110  0.29281607  0.06012226  1
  Sc  Sc94  1  0.05250130  0.83582035  0.54888639  1
  Sc  Sc95  1  0.69337207  0.53701951  0.25229588  1
  Sc  Sc96  1  0.24188861  0.47726511  0.56241803  1
  Sc  Sc97  1  0.57808012  0.07448685  0.46605546  1
  Sc  Sc98  1  0.90886941  0.29436983  -0.01792990  1
  Sc  Sc99  1  0.74164726  0.22621819  0.48089732  1
  Nb  Nb100  1  0.92019342  0.59325715  0.57664746  1
  Nb  Nb101  1  0.25741842  0.89328517  0.54992897  1
  Nb  Nb102  1  0.12187948  0.25617246  0.74105842  1
  Nb  Nb103  1  0.34970434  0.94351104  0.35489761  1
  Nb  Nb104  1  0.43654770  0.54088189  0.11003379  1
  Nb  Nb105  1  0.09806461  0.22958384  0.93200210  1
  Nb  Nb106  1  0.73107757  0.30975371  0.29724547  1
  Nb  Nb107  1  0.24685817  0.51152754  0.15219143  1
  Nb  Nb108  1  0.77757135  0.59907571  0.72897678  1
  Nb  Nb109  1  0.32028255  0.31268798  0.43091598  1
  Nb  Nb110  1  0.93907846  0.30261800  0.45422710  1
  Nb  Nb111  1  0.39070260  0.13124415  0.47199548  1
  Nb  Nb112  1  0.18871555  0.47559554  0.75669130  1
  Nb  Nb113  1  0.47677215  0.08062412  0.27073375  1
  Nb  Nb114  1  0.94351419  0.75176078  0.70632584  1
  Nb  Nb115  1  0.16343629  0.68529745  0.24404249  1
  Nb  Nb116  1  0.06842216  0.51712566  0.26653236  1
  Nb  Nb117  1  0.18897200  0.88410691  0.18004293  1
  Nb  Nb118  1  0.78035415  -0.00742183  0.44281860  1
  Nb  Nb119  1  0.63212235  0.31774069  0.96769056  1
  Nb  Nb120  1  0.69871997  0.64174727  0.90580444  1
  Nb  Nb121  1  0.64587235  0.53298836  0.05120636  1
  Nb  Nb122  1  0.97739266  0.07026620  0.98597587  1
  Nb  Nb123  1  0.27576423  0.31911219  0.84827888  1
  Nb  Nb124  1  0.89543039  0.55722616  0.19274145  1
