# generated using pymatgen
data_Zr2Sc2Nb
_symmetry_space_group_name_H-M   'P 1'
_cell_length_a   14.22193747
_cell_length_b   13.82199831
_cell_length_c   14.66393408
_cell_angle_alpha   93.92765182
_cell_angle_beta   91.93062690
_cell_angle_gamma   89.27650780
_symmetry_Int_Tables_number   1
_chemical_formula_structural   Zr2Sc2Nb
_chemical_formula_sum   'Zr50 Sc50 Nb25'
_cell_volume   2874.01500719
_cell_formula_units_Z   25
loop_
 _symmetry_equiv_pos_site_id
 _symmetry_equiv_pos_as_xyz
  1  'x, y, z'
loop_
 _atom_site_type_symbol
 _atom_site_label
 _atom_site_symmetry_multiplicity
 _atom_site_fract_x
 _atom_site_fract_y
 _atom_site_fract_z
 _atom_site_occupancy
  Zr  Zr0  1  0.60395881  0.44480230  0.47648014  1
  Zr  Zr1  1  0.68266110  0.79404069  0.44365893  1
  Zr  Zr2  1  0.21349931  0.26463150  0.65616806  1
  Zr  Zr3  1  0.12142592  0.57891838  0.62629389  1
  Zr  Zr4  1  0.46191427  0.62904064  0.15672128  1
  Zr  Zr5  1  0.50412729  0.52759823  0.63975425  1
  Zr  Zr6  1  0.29968546  0.95103850  0.90151323  1
  Zr  Zr7  1  0.59970194  0.64963986  0.81514112  1
  Zr  Zr8  1  0.85308353  0.35845405  0.74123609  1
  Zr  Zr9  1  0.77572161  0.85521885  0.65346258  1
  Zr  Zr10  1  0.63637068  0.25377525  0.81614470  1
  Zr  Zr11  1  0.69822087  0.38285358  0.29821577  1
  Zr  Zr12  1  0.47631520  0.07289923  0.01016600  1
  Zr  Zr13  1  0.65036903  0.22526912  0.44212639  1
  Zr  Zr14  1  0.98630729  0.78554861  0.70911897  1
  Zr  Zr15  1  0.60368600  0.27357344  0.03959434  1
  Zr  Zr16  1  0.20597458  0.90721797  0.07089320  1
  Zr  Zr17  1  0.44089990  0.14646603  0.37492124  1
  Zr  Zr18  1  0.41793005  0.92950102  0.42789724  1
  Zr  Zr19  1  0.11397614  0.18635074  0.12908915  1
  Zr  Zr20  1  0.57659693  0.19642476  0.22815028  1
  Zr  Zr21  1  0.70247638  0.47092050  0.82328782  1
  Zr  Zr22  1  0.19625327  0.51563432  0.42905389  1
  Zr  Zr23  1  0.41353023  0.69986935  0.73851579  1
  Zr  Zr24  1  0.80558090  0.32892173  0.95082293  1
  Zr  Zr25  1  0.30435599  0.44416070  0.62677053  1
  Zr  Zr26  1  0.26488026  0.67724803  0.12579686  1
  Zr  Zr27  1  0.96934708  0.52537435  0.45733614  1
  Zr  Zr28  1  0.37999680  0.90758141  0.69470611  1
  Zr  Zr29  1  0.51309194  0.80196812  0.28473233  1
  Zr  Zr30  1  0.86623583  0.69011071  0.55350368  1
  Zr  Zr31  1  0.92038398  0.73904934  0.91625815  1
  Zr  Zr32  1  0.89423786  0.51083833  0.26936780  1
  Zr  Zr33  1  0.75235951  0.57295015  0.41939999  1
  Zr  Zr34  1  0.91168070  0.14164101  0.00964650  1
  Zr  Zr35  1  0.32621151  0.46949871  0.24797154  1
  Zr  Zr36  1  0.87386144  0.16863880  0.81431919  1
  Zr  Zr37  1  0.27384787  0.29138894  0.44776181  1
  Zr  Zr38  1  0.92935088  0.93632493  0.27994223  1
  Zr  Zr39  1  0.73783139  0.52321342  0.63381818  1
  Zr  Zr40  1  0.56177032  0.13290660  0.59405539  1
  Zr  Zr41  1  0.91587400  0.11396551  0.45229795  1
  Zr  Zr42  1  0.08007690  0.41298291  0.76040091  1
  Zr  Zr43  1  0.75798158  0.09517517  0.30861575  1
  Zr  Zr44  1  0.08542474  0.78663794  0.23004518  1
  Zr  Zr45  1  -0.02448162  0.23611105  0.62808292  1
  Zr  Zr46  1  0.56492123  0.92305942  0.57729927  1
  Zr  Zr47  1  0.72903863  0.87425003  0.27947363  1
  Zr  Zr48  1  0.13663329  0.51877110  -0.02003922  1
  Zr  Zr49  1  0.35395681  0.09554620  0.57213483  1
  Sc  Sc50  1  0.36669336  0.45557328  0.01842914  1
  Sc  Sc51  1  0.11364952  0.56035173  0.21149170  1
  Sc  Sc52  1  0.99373840  0.93653362  0.07097336  1
  Sc  Sc53  1  0.96825444  0.35724713  0.12739482  1
  Sc  Sc54  1  -0.05600010  0.57046460  0.07335667  1
  Sc  Sc55  1  0.27539412  0.17107620  1.00222362  1
  Sc  Sc56  1  0.46197011  0.73230749  0.52043292  1
  Sc  Sc57  1  0.69101237  0.64165231  0.22448088  1
  Sc  Sc58  1  0.29636610  0.12044436  0.78839263  1
  Sc  Sc59  1  0.90651843  0.88620236  0.48185270  1
  Sc  Sc60  1  0.25354716  0.33560067  0.86737662  1
  Sc  Sc61  1  0.53190550  0.58958854  0.34970281  1
  Sc  Sc62  1  0.94825643  0.12342537  0.21663821  1
  Sc  Sc63  1  0.90456242  0.30205069  0.33724353  1
  Sc  Sc64  1  0.89614104  0.71947458  0.33538382  1
  Sc  Sc65  1  0.10248913  0.37025135  0.29726918  1
  Sc  Sc66  1  0.70532736  0.03362100  0.73713140  1
  Sc  Sc67  1  0.34909639  0.05385445  0.18006054  1
  Sc  Sc68  1  0.69378205  0.09204855  0.94607010  1
  Sc  Sc69  1  0.75353854  0.45709638  0.11125678  1
  Sc  Sc70  1  0.13881390  0.97244152  0.72837649  1
  Sc  Sc71  1  0.08997402  0.71662458  0.46280385  1
  Sc  Sc72  1  0.27698854  0.54741785  0.80701035  1
  Sc  Sc73  1  0.44735124  0.64810634  0.95488136  1
  Sc  Sc74  1  0.93568137  0.55449030  0.69120847  1
  Sc  Sc75  1  0.50542973  0.05570447  0.79931226  1
  Sc  Sc76  1  0.77672335  0.98652522  0.10753188  1
  Sc  Sc77  1  0.09698025  0.06567808  0.93310815  1
  Sc  Sc78  1  0.49071137  0.85819025  0.90748261  1
  Sc  Sc79  1  0.77853509  0.23411315  0.14833807  1
  Sc  Sc80  1  0.93037956  0.02393648  0.65462637  1
  Sc  Sc81  1  0.55961171  0.98161084  0.18376881  1
  Sc  Sc82  1  0.57873556  0.47678424  0.98817657  1
  Sc  Sc83  1  0.07926000  0.35747724  0.51576076  1
  Sc  Sc84  1  0.74847283  0.63103756  0.97760947  1
  Sc  Sc85  1  0.20630227  0.76642226  0.72597710  1
  Sc  Sc86  1  0.90531324  0.95447386  0.85351332  1
  Sc  Sc87  1  0.86308824  0.76954758  0.12965132  1
  Sc  Sc88  1  0.31372560  0.68021149  0.35622874  1
  Sc  Sc89  1  0.71804723  0.85312569  0.90099249  1
  Sc  Sc90  1  0.13055628  0.09252275  0.55646803  1
  Sc  Sc91  1  0.25126998  0.86647703  0.53220856  1
  Sc  Sc92  1  0.03559396  0.31426761  0.93889056  1
  Sc  Sc93  1  0.09737431  0.93732620  0.40290047  1
  Sc  Sc94  1  0.26201579  0.73730777  0.92964838  1
  Sc  Sc95  1  0.28908800  0.86626758  0.26650562  1
  Sc  Sc96  1  0.82207515  0.36118548  0.51469990  1
  Sc  Sc97  1  0.61239363  0.78295679  0.08073188  1
  Sc  Sc98  1  0.42937980  0.27127241  0.71679424  1
  Sc  Sc99  1  0.40521738  0.28003187  0.13069104  1
  Nb  Nb100  1  0.39265423  0.49856136  0.45882388  1
  Nb  Nb101  1  0.19783423  0.36983105  0.10531045  1
  Nb  Nb102  1  0.26446856  0.23441092  0.26130014  1
  Nb  Nb103  1  0.62723911  0.34314839  0.65095216  1
  Nb  Nb104  1  0.59581746  0.00666983  0.38858432  1
  Nb  Nb105  1  0.54468970  0.43608389  0.18359124  1
  Nb  Nb106  1  0.09349950  0.17070467  0.36536692  1
  Nb  Nb107  1  0.09335476  0.85214152  0.88970085  1
  Nb  Nb108  1  0.40435129  0.84253050  0.08838066  1
  Nb  Nb109  1  0.08389921  0.18344317  0.77647477  1
  Nb  Nb110  1  0.47619762  0.44990939  0.81415421  1
  Nb  Nb111  1  0.25976585  0.06305163  0.38519046  1
  Nb  Nb112  1  0.91845308  0.51402893  0.88215022  1
  Nb  Nb113  1  0.78892353  0.68779275  0.76710275  1
  Nb  Nb114  1  0.46713018  0.34848619  0.33509609  1
  Nb  Nb115  1  0.64327802  0.68946385  0.60227545  1
  Nb  Nb116  1  0.76875426  0.19032421  0.62386652  1
  Nb  Nb117  1  0.08040822  0.72370879  0.03906292  1
  Nb  Nb118  1  0.13753617  0.01924887  0.22979924  1
  Nb  Nb119  1  0.74209097  1.01762389  0.51147581  1
  Nb  Nb120  1  0.29344854  0.64722077  0.57118404  1
  Nb  Nb121  1  0.45839646  0.31075231  0.52929231  1
  Nb  Nb122  1  0.45074250  0.25917314  0.91609065  1
  Nb  Nb123  1  0.58726319  0.83164884  0.73479541  1
  Nb  Nb124  1  0.07933559  0.63964048  0.83479510  1
