# generated using pymatgen
data_Zr2Sc2Nb
_symmetry_space_group_name_H-M   'P 1'
_cell_length_a   14.40026094
_cell_length_b   14.25929632
_cell_length_c   13.93383311
_cell_angle_alpha   89.60130035
_cell_angle_beta   90.53824898
_cell_angle_gamma   90.56705807
_symmetry_Int_Tables_number   1
_chemical_formula_structural   Zr2Sc2Nb
_chemical_formula_sum   'Zr50 Sc50 Nb25'
_cell_volume   2860.80587365
_cell_formula_units_Z   25
loop_
 _symmetry_equiv_pos_site_id
 _symmetry_equiv_pos_as_xyz
  1  'x, y, z'
loop_
 _atom_site_type_symbol
 _atom_site_label
 _atom_site_symmetry_multiplicity
 _atom_site_fract_x
 _atom_site_fract_y
 _atom_site_fract_z
 _atom_site_occupancy
  Zr  Zr0  1  0.92180707  0.56201291  0.84155600  1
  Zr  Zr1  1  0.67066678  0.89028234  0.26686703  1
  Zr  Zr2  1  0.66595982  0.21506994  0.74443591  1
  Zr  Zr3  1  0.66224687  0.54933673  0.07957050  1
  Zr  Zr4  1  0.08529627  0.51727117  0.30211728  1
  Zr  Zr5  1  0.10432707  0.48230044  0.70523483  1
  Zr  Zr6  1  0.96994166  0.37872265  0.45565101  1
  Zr  Zr7  1  0.23382241  0.97013767  0.76238511  1
  Zr  Zr8  1  0.60557723  0.74307366  0.45793379  1
  Zr  Zr9  1  0.66296227  0.89492302  0.92118094  1
  Zr  Zr10  1  0.26104511  0.02353614  0.24934160  1
  Zr  Zr11  1  0.82318632  0.71293153  0.50459946  1
  Zr  Zr12  1  0.33522075  0.64901658  0.89845039  1
  Zr  Zr13  1  0.28368770  0.37497718  0.65524333  1
  Zr  Zr14  1  0.44760799  0.29849060  0.77124745  1
  Zr  Zr15  1  0.10299418  0.11944817  0.36667622  1
  Zr  Zr16  1  0.55755075  0.09232359  0.92768253  1
  Zr  Zr17  1  0.37255799  0.41569317  0.13366611  1
  Zr  Zr18  1  0.15731529  0.01080402  0.55726792  1
  Zr  Zr19  1  0.37243832  0.86389195  0.15502297  1
  Zr  Zr20  1  0.38128700  0.10401025  0.81540106  1
  Zr  Zr21  1  0.20864462  0.30505776  0.04395128  1
  Zr  Zr22  1  0.12969392  0.23838630  0.53505307  1
  Zr  Zr23  1  0.68751988  0.29705931  0.46413547  1
  Zr  Zr24  1  0.68404870  0.44747990  0.28583910  1
  Zr  Zr25  1  0.86847284  0.73760832  0.71151848  1
  Zr  Zr26  1  0.06794513  0.68647535  0.70375133  1
  Zr  Zr27  1  0.38439423  0.06992951  0.07746148  1
  Zr  Zr28  1  0.21907907  0.66157945  0.47103247  1
  Zr  Zr29  1  0.28764430  0.44488930  0.87742859  1
  Zr  Zr30  1  0.87171399  0.48186375  0.02073084  1
  Zr  Zr31  1  0.37185798  0.95002809  0.60846477  1
  Zr  Zr32  1  0.69637183  0.01807857  0.75354873  1
  Zr  Zr33  1  0.88415875  0.49108719  0.66286937  1
  Zr  Zr34  1  0.77388921  0.25875178  0.26485392  1
  Zr  Zr35  1  0.27645892  0.60865474  0.68614065  1
  Zr  Zr36  1  0.89003345  0.17912667  0.43101262  1
  Zr  Zr37  1  0.04260186  0.97412918  0.88499448  1
  Zr  Zr38  1  0.46877647  0.50552947  0.71453775  1
  Zr  Zr39  1  0.02882658  0.29596868  0.71265308  1
  Zr  Zr40  1  0.17804821  0.88411286  0.39207586  1
  Zr  Zr41  1  0.36129352  0.21880345  0.23868363  1
  Zr  Zr42  1  0.76251788  0.11830352  0.93920142  1
  Zr  Zr43  1  0.55423239  0.37825809  0.13575873  1
  Zr  Zr44  1  1.00994796  0.58182842  0.51570880  1
  Zr  Zr45  1  0.32733748  0.07770544  0.43986234  1
  Zr  Zr46  1  0.08143146  0.74024382  0.27450328  1
  Zr  Zr47  1  0.29003888  0.70147600  0.27010574  1
  Zr  Zr48  1  0.21709255  0.10693147  0.94626526  1
  Zr  Zr49  1  0.55287504  0.95051000  0.47353059  1
  Sc  Sc50  1  0.83397465  0.67936496  0.12826055  1
  Sc  Sc51  1  0.84181568  0.28055739  0.62204734  1
  Sc  Sc52  1  0.16653524  0.80133539  0.86346072  1
  Sc  Sc53  1  0.48213728  0.79237509  0.97247038  1
  Sc  Sc54  1  0.37392857  0.84681152  0.41618170  1
  Sc  Sc55  1  0.60609031  0.30964205  0.91843800  1
  Sc  Sc56  1  0.48317718  0.38284107  0.34894847  1
  Sc  Sc57  1  0.71161169  0.66487726  0.30145849  1
  Sc  Sc58  1  0.51648443  0.11092076  0.63012837  1
  Sc  Sc59  1  0.21235147  0.52959773  0.10667339  1
  Sc  Sc60  1  0.54760999  0.68660024  0.80718856  1
  Sc  Sc61  1  0.91235779  0.23634349  0.07722478  1
  Sc  Sc62  1  0.12590157  0.59471347  0.90609951  1
  Sc  Sc63  1  0.67033085  0.83027145  0.66025077  1
  Sc  Sc64  1  0.48821539  0.32092826  0.56660213  1
  Sc  Sc65  1  0.96335187  0.75659932  0.91133672  1
  Sc  Sc66  1  0.05603806  0.39673425  0.91043474  1
  Sc  Sc67  1  0.18223945  0.31955592  0.28210806  1
  Sc  Sc68  1  0.88285638  0.83632008  0.28383027  1
  Sc  Sc69  1  0.76265501  0.90739854  0.45819984  1
  Sc  Sc70  1  0.68963920  0.08485951  0.34441697  1
  Sc  Sc71  1  0.20966565  0.74218594  0.06761892  1
  Sc  Sc72  1  0.40491981  0.26171656  0.98261888  1
  Sc  Sc73  1  0.89787760  0.11327544  0.77984870  1
  Sc  Sc74  1  0.79780324  0.88496420  0.07848355  1
  Sc  Sc75  1  0.73862627  0.32850572  0.07112046  1
  Sc  Sc76  1  0.96530034  0.97055563  0.43885776  1
  Sc  Sc77  1  0.70532622  0.49711979  0.86127273  1
  Sc  Sc78  1  0.66473605  0.40441095  0.66503492  1
  Sc  Sc79  1  0.41849283  0.63576570  0.10478743  1
  Sc  Sc80  1  0.10169721  0.15063975  0.14416871  1
  Sc  Sc81  1  0.58654200  0.52048798  0.48299779  1
  Sc  Sc82  1  0.74864124  0.70270067  0.91558988  1
  Sc  Sc83  1  0.50170012  0.92615244  0.77979070  1
  Sc  Sc84  1  0.56478091  0.17252220  0.16829299  1
  Sc  Sc85  1  0.56526208  0.95519487  0.10115144  1
  Sc  Sc86  1  0.02158297  0.61093528  0.10404950  1
  Sc  Sc87  1  0.94047399  0.02948937  0.04835074  1
  Sc  Sc88  1  0.02107579  0.78765459  0.50948423  1
  Sc  Sc89  1  0.50903689  0.17274166  0.40458625  1
  Sc  Sc90  1  0.17147536  0.94360516  0.06607477  1
  Sc  Sc91  1  0.17480723  0.44658467  0.48816648  1
  Sc  Sc92  1  0.44392509  0.72475045  0.60300271  1
  Sc  Sc93  1  0.88251737  0.45660748  0.23717610  1
  Sc  Sc94  1  0.69201926  0.61375518  0.65925366  1
  Sc  Sc95  1  0.73978110  0.09725220  0.56228884  1
  Sc  Sc96  1  0.79781275  0.49902056  0.46588857  1
  Sc  Sc97  1  0.84692055  0.32234200  0.85715717  1
  Sc  Sc98  1  0.30802708  0.49275207  0.31823203  1
  Sc  Sc99  1  0.48984355  0.49492886  0.94200117  1
  Nb  Nb100  1  0.33929439  0.92056549  0.94043026  1
  Nb  Nb101  1  0.74208349  0.08279805  0.13153459  1
  Nb  Nb102  1  0.97795806  0.10300258  0.59659334  1
  Nb  Nb103  1  0.84898888  0.91462144  0.84710690  1
  Nb  Nb104  1  0.50808932  0.77800432  0.27069828  1
  Nb  Nb105  1  0.35097645  0.79677300  0.77446888  1
  Nb  Nb106  1  0.22386801  0.26749455  0.81748747  1
  Nb  Nb107  1  0.86298393  0.93383500  0.63927594  1
  Nb  Nb108  1  0.47222017  0.00166690  0.28515292  1
  Nb  Nb109  1  0.43131577  0.64078517  0.40587174  1
  Nb  Nb110  1  0.62427763  0.74404808  0.11294823  1
  Nb  Nb111  1  0.05221866  0.95448349  0.23653310  1
  Nb  Nb112  1  0.04238864  0.19389074  0.92093524  1
  Nb  Nb113  1  0.92156110  0.63360740  0.33652554  1
  Nb  Nb114  1  0.21721710  0.81030133  0.61544069  1
  Nb  Nb115  1  0.04702228  0.39130324  0.12275109  1
  Nb  Nb116  1  0.52708556  0.57097118  0.25388263  1
  Nb  Nb117  1  0.30466400  0.16946401  0.63351148  1
  Nb  Nb118  1  0.37775091  0.49868886  0.52236242  1
  Nb  Nb119  1  0.89774404  0.07320270  0.25292503  1
  Nb  Nb120  1  0.03412041  0.90266838  0.69694723  1
  Nb  Nb121  1  1.00318317  0.82749584  0.09311565  1
  Nb  Nb122  1  0.11804107  0.12068654  0.73874347  1
  Nb  Nb123  1  0.31611890  0.28995246  0.44817218  1
  Nb  Nb124  1  0.98440958  0.27431400  0.27627427  1
