# generated using pymatgen
data_Zr2Sc2Nb
_symmetry_space_group_name_H-M   'P 1'
_cell_length_a   14.23414902
_cell_length_b   14.25666709
_cell_length_c   14.18364025
_cell_angle_alpha   92.33631014
_cell_angle_beta   88.95806420
_cell_angle_gamma   92.23146589
_symmetry_Int_Tables_number   1
_chemical_formula_structural   Zr2Sc2Nb
_chemical_formula_sum   'Zr50 Sc50 Nb25'
_cell_volume   2873.33723126
_cell_formula_units_Z   25
loop_
 _symmetry_equiv_pos_site_id
 _symmetry_equiv_pos_as_xyz
  1  'x, y, z'
loop_
 _atom_site_type_symbol
 _atom_site_label
 _atom_site_symmetry_multiplicity
 _atom_site_fract_x
 _atom_site_fract_y
 _atom_site_fract_z
 _atom_site_occupancy
  Zr  Zr0  1  0.71608722  0.52304961  0.25611828  1
  Zr  Zr1  1  0.53172250  0.65017598  0.85861345  1
  Zr  Zr2  1  0.69828302  0.14384871  0.36575181  1
  Zr  Zr3  1  0.02029906  0.49020582  0.77947378  1
  Zr  Zr4  1  0.15484655  0.93895746  0.27955358  1
  Zr  Zr5  1  0.78916168  0.97473297  0.45874391  1
  Zr  Zr6  1  0.56231815  0.09209790  0.13593535  1
  Zr  Zr7  1  0.44867144  0.47206795  -0.00103164  1
  Zr  Zr8  1  0.55493179  0.90476373  0.90535083  1
  Zr  Zr9  1  0.35049329  0.67789446  0.72760133  1
  Zr  Zr10  1  0.33091091  0.11013877  0.92468167  1
  Zr  Zr11  1  0.02776054  0.35115858  0.35012790  1
  Zr  Zr12  1  0.83684098  0.72216011  0.29687999  1
  Zr  Zr13  1  0.52006373  0.35451546  0.64652429  1
  Zr  Zr14  1  0.89559847  0.76484634  0.49406629  1
  Zr  Zr15  1  0.66448512  0.24771297  0.74630876  1
  Zr  Zr16  1  0.88473612  0.20374709  0.46507150  1
  Zr  Zr17  1  0.03345590  0.32834308  0.92650315  1
  Zr  Zr18  1  0.95585151  0.40604805  0.55901063  1
  Zr  Zr19  1  0.90213869  0.19691347  0.24844739  1
  Zr  Zr20  1  0.60602162  0.38904185  0.88054078  1
  Zr  Zr21  1  0.35416723  0.90728688  0.20271646  1
  Zr  Zr22  1  0.32805460  0.90300488  0.42408502  1
  Zr  Zr23  1  0.91948108  0.97018211  0.28362917  1
  Zr  Zr24  1  0.54012795  0.60041714  0.37353055  1
  Zr  Zr25  1  0.49551766  0.03426915  0.33120885  1
  Zr  Zr26  1  0.32577140  0.61130366  0.95423718  1
  Zr  Zr27  1  0.27635468  0.72670993  0.31926434  1
  Zr  Zr28  1  0.68125239  0.28793879  0.22917735  1
  Zr  Zr29  1  0.52638311  0.81421937  0.71681338  1
  Zr  Zr30  1  0.68780649  0.42495381  0.06440214  1
  Zr  Zr31  1  0.56585879  0.18638796  0.52393513  1
  Zr  Zr32  1  0.07302973  0.33974655  0.14510847  1
  Zr  Zr33  1  0.70862910  0.20689254  1.02894404  1
  Zr  Zr34  1  0.41805062  0.51747119  0.56966359  1
  Zr  Zr35  1  0.80640737  0.85212692  0.13768250  1
  Zr  Zr36  1  0.14403195  0.63907604  0.87248281  1
  Zr  Zr37  1  0.63666240  0.51044670  0.71270457  1
  Zr  Zr38  1  0.94270664  0.53152954  0.21959392  1
  Zr  Zr39  1  0.86918673  0.01906913  0.67041988  1
  Zr  Zr40  1  0.22969544  0.43326117  0.87578790  1
  Zr  Zr41  1  0.03554437  0.13965617  0.58989604  1
  Zr  Zr42  1  0.51264020  0.44724312  0.21564889  1
  Zr  Zr43  1  1.01912149  0.13848011  0.80259076  1
  Zr  Zr44  1  0.23300229  0.10333473  0.68384233  1
  Zr  Zr45  1  0.38398616  0.08256236  0.53560491  1
  Zr  Zr46  1  0.11819368  0.12712079  0.18196979  1
  Zr  Zr47  1  0.10183895  0.31829454  0.68840715  1
  Zr  Zr48  1  0.41849370  0.63743862  0.19466757  1
  Zr  Zr49  1  0.30884814  0.32406481  0.66651883  1
  Sc  Sc50  1  0.55254475  0.12495959  0.90562580  1
  Sc  Sc51  1  0.98776687  0.95219195  0.48551419  1
  Sc  Sc52  1  -0.00029117  0.94323625  0.07709931  1
  Sc  Sc53  1  0.86068040  0.61001338  0.64636450  1
  Sc  Sc54  1  0.33471843  0.11910089  0.14905262  1
  Sc  Sc55  1  0.58549490  0.89757985  0.12988333  1
  Sc  Sc56  1  0.48962252  0.27832104  0.07017905  1
  Sc  Sc57  1  0.67791462  0.76286576  0.42251097  1
  Sc  Sc58  1  0.45279157  0.76169900  0.04039962  1
  Sc  Sc59  1  0.26211636  0.86265727  0.64379644  1
  Sc  Sc60  1  0.11439633  0.12042049  0.98429910  1
  Sc  Sc61  1  0.23714097  0.63566864  0.50950169  1
  Sc  Sc62  1  0.60524757  0.03315157  0.70810699  1
  Sc  Sc63  1  0.34737995  0.49936389  0.36294331  1
  Sc  Sc64  1  0.86840078  0.35510471  0.12457892  1
  Sc  Sc65  1  0.72479337  0.84103129  0.61480113  1
  Sc  Sc66  1  0.99103660  0.57868841  0.43960911  1
  Sc  Sc67  1  0.39654698  -0.02262693  0.77114931  1
  Sc  Sc68  1  0.73822841  0.91292222  0.81292104  1
  Sc  Sc69  1  0.21372981  0.51954421  0.68492678  1
  Sc  Sc70  1  0.17695679  0.41977364  0.49109282  1
  Sc  Sc71  1  0.91176997  0.14587800  0.02742141  1
  Sc  Sc72  1  0.07012955  0.82740784  0.88444792  1
  Sc  Sc73  1  0.14631285  0.54569025  0.28850419  1
  Sc  Sc74  1  0.04341597  0.74863984  0.27949781  1
  Sc  Sc75  1  0.12399429  0.80201300  0.47570386  1
  Sc  Sc76  1  0.49619548  0.81212933  0.32229068  1
  Sc  Sc77  1  0.29202675  0.46845297  0.14709303  1
  Sc  Sc78  1  0.38814890  0.30421611  0.46842430  1
  Sc  Sc79  1  0.88271721  0.25503461  0.70256015  1
  Sc  Sc80  1  0.59535784  0.39499669  0.41750067  1
  Sc  Sc81  1  0.30049774  0.82259005  0.89114290  1
  Sc  Sc82  1  0.25449555  0.28924622  0.03788871  1
  Sc  Sc83  1  0.06642336  0.12828643  0.37302832  1
  Sc  Sc84  1  0.23909105  0.29762093  0.29105722  1
  Sc  Sc85  1  0.91131220  0.81465434  0.72173751  1
  Sc  Sc86  1  0.22105589  0.74248429  0.10595648  1
  Sc  Sc87  1  0.80433992  0.63646186  0.08984721  1
  Sc  Sc88  1  0.42673834  0.74263484  0.51892444  1
  Sc  Sc89  1  0.74140157  0.35216133  0.56106233  1
  Sc  Sc90  1  0.41083173  0.30381052  0.86169517  1
  Sc  Sc91  1  0.82063378  0.44442467  0.76501372  1
  Sc  Sc92  1  -0.00036095  0.70938153  0.06000139  1
  Sc  Sc93  1  0.57087513  0.95198231  0.50678036  1
  Sc  Sc94  1  0.08323736  0.70277297  0.67315902  1
  Sc  Sc95  1  0.76377607  0.55942061  0.46248441  1
  Sc  Sc96  1  0.47318579  0.23673878  0.29139909  1
  Sc  Sc97  1  0.11426581  0.52760204  0.05149929  1
  Sc  Sc98  1  0.73348228  0.56850611  0.90990591  1
  Sc  Sc99  1  0.59867037  0.65321575  0.59375354  1
  Nb  Nb100  1  0.44473545  0.17195570  0.71404116  1
  Nb  Nb101  1  0.64012152  0.71685859  0.20797891  1
  Nb  Nb102  1  0.91979465  0.49656582  -0.02297577  1
  Nb  Nb103  1  0.17912898  -0.00898706  0.83931762  1
  Nb  Nb104  1  0.20544382  0.21505708  0.50234379  1
  Nb  Nb105  1  0.82251174  0.31702510  0.91083739  1
  Nb  Nb106  1  0.73976743  0.13087784  0.58830758  1
  Nb  Nb107  1  0.92353160  0.65035682  0.85306114  1
  Nb  Nb108  1  0.58586677  0.59684305  0.06948996  1
  Nb  Nb109  1  0.18329875  1.01006278  0.49971137  1
  Nb  Nb110  1  0.83120809  0.38172394  0.35694985  1
  Nb  Nb111  1  0.41848514  0.49327336  0.77756531  1
  Nb  Nb112  1  0.20994732  0.22939819  0.83233491  1
  Nb  Nb113  1  0.93903171  0.98089188  0.87563929  1
  Nb  Nb114  1  0.78551184  0.11973247  0.84149428  1
  Nb  Nb115  1  0.28815715  0.10041920  0.34825634  1
  Nb  Nb116  1  0.72080830  0.71222183  0.77961786  1
  Nb  Nb117  1  0.67191624  0.76553693  0.98509638  1
  Nb  Nb118  1  0.68818974  0.92497972  0.29931173  1
  Nb  Nb119  1  0.21244471  0.95260895  0.04916540  1
  Nb  Nb120  1  0.85499872  0.80617130  0.93934077  1
  Nb  Nb121  1  0.40971143  0.96682770  0.01876423  1
  Nb  Nb122  1  0.07093551  0.94490063  0.68231337  1
  Nb  Nb123  1  0.76276676  0.06385652  0.17958930  1
  Nb  Nb124  1  0.74492544  -0.01018868  0.99950423  1
