# generated using pymatgen
data_Zr2Sc2Nb
_symmetry_space_group_name_H-M   'P 1'
_cell_length_a   14.13769309
_cell_length_b   14.35827695
_cell_length_c   14.16640410
_cell_angle_alpha   88.26044143
_cell_angle_beta   88.84612357
_cell_angle_gamma   89.81285116
_symmetry_Int_Tables_number   1
_chemical_formula_structural   Zr2Sc2Nb
_chemical_formula_sum   'Zr50 Sc50 Nb25'
_cell_volume   2873.76133645
_cell_formula_units_Z   25
loop_
 _symmetry_equiv_pos_site_id
 _symmetry_equiv_pos_as_xyz
  1  'x, y, z'
loop_
 _atom_site_type_symbol
 _atom_site_label
 _atom_site_symmetry_multiplicity
 _atom_site_fract_x
 _atom_site_fract_y
 _atom_site_fract_z
 _atom_site_occupancy
  Zr  Zr0  1  0.00311116  0.84034223  0.65796626  1
  Zr  Zr1  1  0.39926867  0.53713888  0.37816603  1
  Zr  Zr2  1  0.60595888  0.70390689  0.01631897  1
  Zr  Zr3  1  0.18045208  0.95728701  0.18401694  1
  Zr  Zr4  1  0.97650682  0.63293671  0.06898856  1
  Zr  Zr5  1  0.75921035  0.17298617  0.06189697  1
  Zr  Zr6  1  0.44622158  0.10891243  0.54365268  1
  Zr  Zr7  1  0.23867347  0.90068068  0.99227995  1
  Zr  Zr8  1  0.63486472  0.02259987  0.47885558  1
  Zr  Zr9  1  0.46244916  0.86160726  0.94967647  1
  Zr  Zr10  1  0.56589793  0.40659895  0.39603667  1
  Zr  Zr11  1  0.22716796  0.34054571  0.19293504  1
  Zr  Zr12  1  0.69704541  0.43697014  0.55972744  1
  Zr  Zr13  1  0.74163803  0.69834816  0.82205269  1
  Zr  Zr14  1  0.75669433  0.53970491  0.06454639  1
  Zr  Zr15  1  0.29311003  0.44879340  0.55530077  1
  Zr  Zr16  1  0.45553306  0.90092835  0.50717667  1
  Zr  Zr17  1  0.62555703  0.34130244  0.16440654  1
  Zr  Zr18  1  0.82854792  0.91750676  0.53503711  1
  Zr  Zr19  1  0.61252727  0.63123672  0.66513629  1
  Zr  Zr20  1  0.77574539  0.40546342  0.36404870  1
  Zr  Zr21  1  0.78839520  0.89197572  0.73829089  1
  Zr  Zr22  1  0.63665885  0.53684139  0.24231169  1
  Zr  Zr23  1  0.17207015  0.74075554  0.14765091  1
  Zr  Zr24  1  0.58285503  0.13219330  0.15219600  1
  Zr  Zr25  1  0.81623243  0.71146699  0.60180625  1
  Zr  Zr26  1  0.89205526  0.74684510  0.39991903  1
  Zr  Zr27  1  0.64579096  0.23956234  0.53558468  1
  Zr  Zr28  1  0.34531782  0.02331936  0.87916528  1
  Zr  Zr29  1  0.45104363  0.31718974  0.56517750  1
  Zr  Zr30  1  0.06185759  0.63832918  0.28913508  1
  Zr  Zr31  1  0.94075362  0.28553778  0.37165079  1
  Zr  Zr32  1  0.39037129  0.03498293  0.10564705  1
  Zr  Zr33  1  0.37612527  0.83565393  0.15495825  1
  Zr  Zr34  1  0.16951036  0.49889149  0.39916865  1
  Zr  Zr35  1  0.03154942  0.85976092  0.02088885  1
  Zr  Zr36  1  0.58483362  0.29843758  0.95875958  1
  Zr  Zr37  1  0.70197048  0.20842247  0.32478199  1
  Zr  Zr38  1  0.31750119  0.15079321  0.71933064  1
  Zr  Zr39  1  0.49160269  0.22814470  0.34500443  1
  Zr  Zr40  1  1.02051229  0.04934481  0.08601974  1
  Zr  Zr41  1  0.49087793  0.62704891  0.85908943  1
  Zr  Zr42  1  0.21858516  0.15127223  0.06542570  1
  Zr  Zr43  1  0.79066962  0.50580280  0.71786070  1
  Zr  Zr44  1  0.27426526  0.53680502  0.86968051  1
  Zr  Zr45  1  0.31526404  0.91679398  0.34573200  1
  Zr  Zr46  1  0.68890978  0.91705919  0.91286108  1
  Zr  Zr47  1  0.48216584  0.03231740  0.31721241  1
  Zr  Zr48  1  0.02756949  0.44259879  0.24639760  1
  Zr  Zr49  1  0.50867202  0.71037331  0.45068225  1
  Sc  Sc50  1  0.13198562  0.08288049  0.87838306  1
  Sc  Sc51  1  0.90446291  0.53253843  0.48707276  1
  Sc  Sc52  1  0.03543944  0.97599035  0.49580254  1
  Sc  Sc53  1  0.52738072  0.21396396  0.75517592  1
  Sc  Sc54  1  0.54946197  0.08193272  0.94457004  1
  Sc  Sc55  1  0.24215570  0.06407162  0.47661453  1
  Sc  Sc56  1  0.34047929  0.93423847  0.69420413  1
  Sc  Sc57  1  0.15018958  0.51985264  0.06960044  1
  Sc  Sc58  1  0.36880712  0.23113840  0.92551684  1
  Sc  Sc59  1  0.29807995  0.66043703  0.53428579  1
  Sc  Sc60  1  0.84833209  0.11308327  0.45970040  1
  Sc  Sc61  1  0.03956821  0.25652939  0.14748250  1
  Sc  Sc62  1  0.29109394  0.14466933  0.27835529  1
  Sc  Sc63  1  0.21292001  0.85501445  0.55660406  1
  Sc  Sc64  1  0.94773652  0.38485152  0.78644259  1
  Sc  Sc65  1  0.87446748  0.13511495  0.22666770  1
  Sc  Sc66  1  0.55237424  0.42492886  0.71572649  1
  Sc  Sc67  1  0.83824505  0.35204202  0.16791226  1
  Sc  Sc68  1  0.34369100  0.42058618  0.04115184  1
  Sc  Sc69  1  0.28701070  0.71595597  0.33020818  1
  Sc  Sc70  1  0.94534731  0.06861210  0.68332745  1
  Sc  Sc71  1  0.05973028  0.54513294  0.87368525  1
  Sc  Sc72  1  0.07454367  0.09832429  0.31253854  1
  Sc  Sc73  1  0.09893586  0.83785886  0.34982135  1
  Sc  Sc74  1  0.47737238  0.65743116  0.21029690  1
  Sc  Sc75  1  0.78976609  0.35842280  0.94256869  1
  Sc  Sc76  1  0.86172312  0.28379926  0.59731928  1
  Sc  Sc77  1  0.92756131  0.98083183  0.88272489  1
  Sc  Sc78  1  0.04968012  0.38429961  0.54382627  1
  Sc  Sc79  1  0.24041308  0.25049080  0.55406305  1
  Sc  Sc80  1  0.54380945  -0.00687180  0.72415736  1
  Sc  Sc81  1  0.72820507  0.09410183  0.66052654  1
  Sc  Sc82  1  0.82307164  0.95945781  0.09166286  1
  Sc  Sc83  1  0.96121206  0.75326416  0.84455054  1
  Sc  Sc84  1  0.17625440  0.69486954  0.71672729  1
  Sc  Sc85  1  0.35561818  0.64872141  0.03489217  1
  Sc  Sc86  1  0.85611236  0.58609240  0.25517037  1
  Sc  Sc87  1  0.14754271  0.48053460  0.69858972  1
  Sc  Sc88  1  0.69950185  0.99037722  0.27541244  1
  Sc  Sc89  1  0.81748791  0.76161101  0.01466608  1
  Sc  Sc90  1  0.07063783  0.67301351  0.51763887  1
  Sc  Sc91  1  0.69963014  0.61653975  0.43428738  1
  Sc  Sc92  1  0.59008492  0.91236841  0.11032471  1
  Sc  Sc93  1  0.75862059  0.13382491  0.86078789  1
  Sc  Sc94  1  0.16125496  0.71206567  0.93545098  1
  Sc  Sc95  1  0.10613787  0.24484465  0.72421002  1
  Sc  Sc96  1  0.96039740  0.21489831  0.94417385  1
  Sc  Sc97  1  0.71660288  0.75594453  0.22051647  1
  Sc  Sc98  1  0.16291085  0.33894095  0.92571380  1
  Sc  Sc99  1  0.90302691  0.94422859  0.31721440  1
  Nb  Nb100  1  0.04903336  0.17534488  0.52381219  1
  Nb  Nb101  1  0.52546417  0.84540770  0.30396530  1
  Nb  Nb102  1  0.15144412  0.03821205  0.66574372  1
  Nb  Nb103  1  0.63369290  0.83327350  0.60539211  1
  Nb  Nb104  1  0.53770545  0.50437081  0.04834596  1
  Nb  Nb105  1  0.33180792  0.34550569  0.36984699  1
  Nb  Nb106  1  0.44493835  0.42495192  0.21848840  1
  Nb  Nb107  1  0.14812120  0.89014542  0.80289291  1
  Nb  Nb108  1  0.56856306  0.80277587  0.79444568  1
  Nb  Nb109  1  0.42033051  0.24711061  0.13463304  1
  Nb  Nb110  1  0.65396916  0.50288240  0.87986430  1
  Nb  Nb111  1  0.71785849  0.31318848  0.75317502  1
  Nb  Nb112  1  0.96875037  0.42567223  1.02181341  1
  Nb  Nb113  1  0.32419807  0.35496189  0.74448267  1
  Nb  Nb114  1  0.96433401  0.60632160  0.69675688  1
  Nb  Nb115  1  0.33699602  0.76733632  0.82908017  1
  Nb  Nb116  1  0.43791796  0.74690637  0.65651643  1
  Nb  Nb117  1  0.44944123  0.42597082  0.87625689  1
  Nb  Nb118  1  0.86449997  0.56017364  0.89909822  1
  Nb  Nb119  1  0.94802058  0.79186869  0.19299253  1
  Nb  Nb120  1  0.14192713  0.28582492  0.37280153  1
  Nb  Nb121  1  0.69228932  0.82916567  0.41893422  1
  Nb  Nb122  1  0.27096154  0.53908776  0.22322250  1
  Nb  Nb123  1  0.49404411  0.53414686  0.55075503  1
  Nb  Nb124  1  0.37644871  0.56122548  0.70774939  1
