# generated using pymatgen
data_Zr2Sc2Nb
_symmetry_space_group_name_H-M   'P 1'
_cell_length_a   14.48652214
_cell_length_b   14.01311169
_cell_length_c   14.17994632
_cell_angle_alpha   89.57799736
_cell_angle_beta   87.49371190
_cell_angle_gamma   91.06867324
_symmetry_Int_Tables_number   1
_chemical_formula_structural   Zr2Sc2Nb
_chemical_formula_sum   'Zr50 Sc50 Nb25'
_cell_volume   2875.19667714
_cell_formula_units_Z   25
loop_
 _symmetry_equiv_pos_site_id
 _symmetry_equiv_pos_as_xyz
  1  'x, y, z'
loop_
 _atom_site_type_symbol
 _atom_site_label
 _atom_site_symmetry_multiplicity
 _atom_site_fract_x
 _atom_site_fract_y
 _atom_site_fract_z
 _atom_site_occupancy
  Zr  Zr0  1  0.58968254  0.74099086  0.41983831  1
  Zr  Zr1  1  0.67789434  0.17698575  0.42325378  1
  Zr  Zr2  1  0.80547732  0.34984979  0.05949007  1
  Zr  Zr3  1  1.00707544  0.30880054  -0.01431802  1
  Zr  Zr4  1  0.73047192  0.33212579  0.26796263  1
  Zr  Zr5  1  0.35570728  0.79942365  0.48839469  1
  Zr  Zr6  1  0.46361591  0.76110553  0.06522811  1
  Zr  Zr7  1  0.81275476  0.62293392  0.45935866  1
  Zr  Zr8  1  0.27768140  0.31002429  0.25948298  1
  Zr  Zr9  1  0.95489087  0.46546470  0.17787465  1
  Zr  Zr10  1  0.52304239  0.36724834  0.51515712  1
  Zr  Zr11  1  0.35687112  0.45216672  0.61023490  1
  Zr  Zr12  1  0.42557744  0.21624645  0.13068111  1
  Zr  Zr13  1  0.32804787  0.08904013  0.98298015  1
  Zr  Zr14  1  0.17396886  0.15816177  0.37632064  1
  Zr  Zr15  1  0.72041765  0.95285518  0.12580203  1
  Zr  Zr16  1  0.98995995  0.10559185  0.32232899  1
  Zr  Zr17  1  0.41727380  0.88293516  0.86154972  1
  Zr  Zr18  1  0.12430135  0.95194980  0.30738199  1
  Zr  Zr19  1  0.70076569  0.94131446  0.35547031  1
  Zr  Zr20  1  0.79557778  0.11152252  0.24933205  1
  Zr  Zr21  1  0.98783338  0.37469048  0.74326077  1
  Zr  Zr22  1  0.90278219  0.71507325  0.08510536  1
  Zr  Zr23  1  0.56045459  0.61714539  0.18522694  1
  Zr  Zr24  1  0.14271652  0.51574267  0.65118581  1
  Zr  Zr25  1  0.25895059  0.03103650  0.80700781  1
  Zr  Zr26  1  0.07209751  0.25499431  0.54967656  1
  Zr  Zr27  1  0.39718502  0.68653305  0.30906050  1
  Zr  Zr28  1  0.83788839  0.03710841  0.47243716  1
  Zr  Zr29  1  0.29796785  0.01631107  0.48549288  1
  Zr  Zr30  1  0.82252947  0.66377265  0.87831190  1
  Zr  Zr31  1  0.58328112  0.72796673  0.88467600  1
  Zr  Zr32  1  0.55014275  0.84067863  0.23025238  1
  Zr  Zr33  1  0.19757333  0.41554809  0.46686001  1
  Zr  Zr34  1  0.69768476  0.14647017  0.76305092  1
  Zr  Zr35  1  0.01385746  0.60592789  0.78314268  1
  Zr  Zr36  1  0.71451417  0.53597636  1.01405915  1
  Zr  Zr37  1  0.62470183  0.92974748  0.77407258  1
  Zr  Zr38  1  0.31840261  0.88211602  0.27294965  1
  Zr  Zr39  1  0.32512997  0.25732022  0.48477741  1
  Zr  Zr40  1  0.14904876  0.73761072  0.33004412  1
  Zr  Zr41  1  0.06567858  0.18416597  0.77049386  1
  Zr  Zr42  1  0.15404018  0.45478818  0.10186761  1
  Zr  Zr43  1  0.66937099  0.32283410  0.90703400  1
  Zr  Zr44  1  0.87554649  0.19147173  0.64210691  1
  Zr  Zr45  1  0.21473361  0.81034464  0.83374771  1
  Zr  Zr46  1  0.22502238  0.52967370  0.28514933  1
  Zr  Zr47  1  0.23110266  0.63084283  0.49106864  1
  Zr  Zr48  1  0.91692117  0.77984660  0.67065748  1
  Zr  Zr49  1  0.25733745  0.29373169  0.03768722  1
  Sc  Sc50  1  0.34639017  0.45190160  0.81957257  1
  Sc  Sc51  1  0.94457944  0.03993932  0.87246077  1
  Sc  Sc52  1  0.40893920  0.47242487  0.36033337  1
  Sc  Sc53  1  0.88565479  0.25139089  0.42746637  1
  Sc  Sc54  1  0.27161992  0.67704295  0.13489700  1
  Sc  Sc55  1  0.44840541  0.99017763  0.11453594  1
  Sc  Sc56  1  0.97286724  0.53352351  -0.01488324  1
  Sc  Sc57  1  0.51211621  0.52444425  0.95297271  1
  Sc  Sc58  1  0.08220267  0.94963805  0.71720773  1
  Sc  Sc59  1  0.63372289  0.15972806  0.05889656  1
  Sc  Sc60  1  0.83332837  0.97863781  0.69801885  1
  Sc  Sc61  1  0.49524393  0.94362312  0.42281743  1
  Sc  Sc62  1  0.84569877  0.56439187  0.67180102  1
  Sc  Sc63  1  0.51084252  0.28810415  0.31607352  1
  Sc  Sc64  1  0.36807269  0.10240774  0.30320813  1
  Sc  Sc65  1  0.45661740  0.30038297  0.93871784  1
  Sc  Sc66  1  0.98685007  0.80824373  0.86813846  1
  Sc  Sc67  1  0.45915899  0.61083955  0.52309529  1
  Sc  Sc68  1  0.12465862  0.68262007  0.97801158  1
  Sc  Sc69  1  0.06406037  0.34897968  0.32769739  1
  Sc  Sc70  1  0.73567255  0.37965660  0.49779898  1
  Sc  Sc71  1  0.57515721  0.08412736  0.25930226  1
  Sc  Sc72  1  0.31318299  0.66457988  0.69396561  1
  Sc  Sc73  1  0.75536685  0.82442291  0.52419067  1
  Sc  Sc74  1  0.93086754  0.69144378  0.29913696  1
  Sc  Sc75  1  0.69685810  0.75214107  0.06286023  1
  Sc  Sc76  1  0.49586107  0.80046552  0.65233925  1
  Sc  Sc77  1  0.69902944  0.72898447  0.70795903  1
  Sc  Sc78  1  0.14603223  0.43909362  0.87267035  1
  Sc  Sc79  1  0.63005949  0.52392097  0.36846999  1
  Sc  Sc80  1  0.58410762  0.38732528  0.12070989  1
  Sc  Sc81  1  0.77054512  0.56308771  0.21002792  1
  Sc  Sc82  1  0.54284143  0.38774087  0.74055910  1
  Sc  Sc83  1  0.03777805  0.04551514  0.53492581  1
  Sc  Sc84  1  -0.04427133  0.84463625  0.45375272  1
  Sc  Sc85  1  0.26100902  0.24154828  0.83857101  1
  Sc  Sc86  1  0.64461187  1.01182560  0.57229995  1
  Sc  Sc87  1  0.11105924  0.94557998  0.96664118  1
  Sc  Sc88  1  0.27590229  0.87395131  0.04940072  1
  Sc  Sc89  1  0.95801850  0.43667685  0.54025967  1
  Sc  Sc90  1  0.51397688  0.09891186  0.86494740  1
  Sc  Sc91  1  0.75676888  0.35971707  0.70393889  1
  Sc  Sc92  1  0.44406550  0.02296748  0.65880190  1
  Sc  Sc93  1  0.15164672  0.85808756  0.50977723  1
  Sc  Sc94  1  0.40536478  0.23196796  0.68133869  1
  Sc  Sc95  1  0.89767604  0.90469554  0.25318610  1
  Sc  Sc96  1  0.34999339  0.66090483  0.91263102  1
  Sc  Sc97  1  0.87099754  0.13851008  0.04911688  1
  Sc  Sc98  1  0.38162211  0.47048781  0.12997069  1
  Sc  Sc99  1  0.64154187  0.54761598  0.59655444  1
  Nb  Nb100  1  0.49765385  0.59952986  0.74523264  1
  Nb  Nb101  1  0.73395935  0.75433944  0.27616306  1
  Nb  Nb102  1  0.28568986  0.88756421  0.66152745  1
  Nb  Nb103  1  0.74256671  0.04343099  0.92114230  1
  Nb  Nb104  1  0.04603012  0.54969208  0.37741673  1
  Nb  Nb105  1  0.86943692  0.45376639  0.35272220  1
  Nb  Nb106  1  0.48586563  0.14447440  0.48152249  1
  Nb  Nb107  1  0.58957077  0.92258912  0.97841415  1
  Nb  Nb108  1  0.85571187  0.23488054  0.85751569  1
  Nb  Nb109  1  0.77927474  0.85909019  0.88464293  1
  Nb  Nb110  1  0.07635481  0.82993566  0.14437105  1
  Nb  Nb111  1  0.10429481  0.22953840  0.16233702  1
  Nb  Nb112  1  0.12060525  0.14372923  0.97477780  1
  Nb  Nb113  1  0.12399490  0.73954314  0.67144932  1
  Nb  Nb114  1  0.20511889  0.32688389  0.67259620  1
  Nb  Nb115  1  0.02208970  0.04359057  0.13238536  1
  Nb  Nb116  1  0.92053744  0.26642925  0.20680601  1
  Nb  Nb117  1  0.67466190  0.53449073  0.81240748  1
  Nb  Nb118  1  0.84663600  0.44388561  0.86764873  1
  Nb  Nb119  1  0.89793459  0.91417168  0.03661009  1
  Nb  Nb120  1  0.61124354  0.22094312  0.61356040  1
  Nb  Nb121  1  0.22289836  0.07180925  0.15689710  1
  Nb  Nb122  1  0.01522662  0.65384594  0.53520569  1
  Nb  Nb123  1  0.07380916  0.62683111  0.17383820  1
  Nb  Nb124  1  0.21891032  0.11977709  0.63139779  1
