# generated using pymatgen
data_Zr2Sc2Nb
_symmetry_space_group_name_H-M   'P 1'
_cell_length_a   14.03724992
_cell_length_b   14.74938652
_cell_length_c   13.89916975
_cell_angle_alpha   91.81077755
_cell_angle_beta   88.40030356
_cell_angle_gamma   89.60759876
_symmetry_Int_Tables_number   1
_chemical_formula_structural   Zr2Sc2Nb
_chemical_formula_sum   'Zr50 Sc50 Nb25'
_cell_volume   2875.05149109
_cell_formula_units_Z   25
loop_
 _symmetry_equiv_pos_site_id
 _symmetry_equiv_pos_as_xyz
  1  'x, y, z'
loop_
 _atom_site_type_symbol
 _atom_site_label
 _atom_site_symmetry_multiplicity
 _atom_site_fract_x
 _atom_site_fract_y
 _atom_site_fract_z
 _atom_site_occupancy
  Zr  Zr0  1  0.80909608  0.33652218  0.78028960  1
  Zr  Zr1  1  0.35851619  0.78954969  0.55915248  1
  Zr  Zr2  1  0.28405623  0.06357126  0.33656183  1
  Zr  Zr3  1  0.31241665  0.18610714  0.70371591  1
  Zr  Zr4  1  0.16898616  0.69474214  0.94398319  1
  Zr  Zr5  1  0.28159433  0.59808932  0.65649753  1
  Zr  Zr6  1  0.77279855  0.54407098  0.85931048  1
  Zr  Zr7  1  0.93994910  0.25249736  0.92446691  1
  Zr  Zr8  1  0.26508597  0.26198576  0.27637316  1
  Zr  Zr9  1  0.27509491  0.52159091  1.01654658  1
  Zr  Zr10  1  0.87687528  0.93926095  0.13697908  1
  Zr  Zr11  1  0.07163330  0.17383504  0.27517397  1
  Zr  Zr12  1  0.34228678  0.32024550  0.08530002  1
  Zr  Zr13  1  0.45356829  0.59789371  0.51702005  1
  Zr  Zr14  1  0.08488336  0.96763078  0.25501464  1
  Zr  Zr15  1  0.70610536  0.02077390  0.25257432  1
  Zr  Zr16  1  0.41843835  0.91975701  0.82985136  1
  Zr  Zr17  1  0.48247052  0.72264753  0.72100289  1
  Zr  Zr18  1  0.61399471  0.38361345  0.84764213  1
  Zr  Zr19  1  0.89144268  0.15354600  0.70273870  1
  Zr  Zr20  1  0.08163042  0.43695145  -0.01087818  1
  Zr  Zr21  1  0.97028359  0.60797006  0.50550256  1
  Zr  Zr22  1  0.08030037  0.10458011  0.86479560  1
  Zr  Zr23  1  0.67536468  0.93677445  0.44988515  1
  Zr  Zr24  1  0.54926598  0.65212951  0.24299890  1
  Zr  Zr25  1  0.07565342  0.83046317  0.08271093  1
  Zr  Zr26  1  0.01587668  0.98429107  0.68270705  1
  Zr  Zr27  1  0.87399463  0.66558902  0.70533388  1
  Zr  Zr28  1  0.79226947  0.74661585  0.48116029  1
  Zr  Zr29  1  0.47827870  0.28973390  0.69329308  1
  Zr  Zr30  1  0.71515869  1.02802991  0.65805532  1
  Zr  Zr31  1  0.11974756  0.14352171  0.64540929  1
  Zr  Zr32  1  0.17427579  0.43021262  0.17848628  1
  Zr  Zr33  1  0.74029533  0.13796262  0.45583495  1
  Zr  Zr34  1  0.65108307  0.94183137  0.83595363  1
  Zr  Zr35  1  0.27568664  0.68173140  0.14997986  1
  Zr  Zr36  1  0.28800577  0.89511918  0.19359241  1
  Zr  Zr37  1  0.42376707  0.40479578  0.52428829  1
  Zr  Zr38  1  0.12924708  0.29639514  0.82344620  1
  Zr  Zr39  1  0.92633489  0.68768058  0.32594706  1
  Zr  Zr40  1  0.22395926  0.95328301  0.98277235  1
  Zr  Zr41  1  0.30896983  0.02081733  0.54888547  1
  Zr  Zr42  1  0.88113028  0.89278293  0.34080358  1
  Zr  Zr43  1  0.67017991  0.23418958  0.26036078  1
  Zr  Zr44  1  0.67079637  0.22108452  0.67762550  1
  Zr  Zr45  1  0.30892432  0.45627521  0.36514584  1
  Zr  Zr46  1  0.50496129  0.09445171  0.78444667  1
  Zr  Zr47  1  0.45152607  -0.00057828  1.02145914  1
  Zr  Zr48  1  0.96629566  0.65481389  0.91301123  1
  Zr  Zr49  1  0.53612677  0.79527068  0.93204338  1
  Sc  Sc50  1  0.57148070  0.47444190  0.36187072  1
  Sc  Sc51  1  0.12566171  0.57140313  0.32984465  1
  Sc  Sc52  1  0.30430360  0.14407334  0.92869735  1
  Sc  Sc53  1  0.58373238  0.73955712  0.43871114  1
  Sc  Sc54  1  0.63968953  0.51827944  0.06994299  1
  Sc  Sc55  1  0.84693327  0.82667362  0.93889883  1
  Sc  Sc56  1  0.08598813  0.02637227  0.46171222  1
  Sc  Sc57  1  0.37397689  0.21633518  0.47670591  1
  Sc  Sc58  1  0.86881224  0.52099594  0.06684791  1
  Sc  Sc59  1  0.68579276  0.71291814  0.05668846  1
  Sc  Sc60  1  0.63757868  0.42433856  0.61797850  1
  Sc  Sc61  1  0.24784813  0.38400378  0.66133099  1
  Sc  Sc62  1  0.03457580  0.05854538  0.07122128  1
  Sc  Sc63  1  0.17598577  0.68874927  0.50380293  1
  Sc  Sc64  1  0.52928853  0.11046183  0.56174327  1
  Sc  Sc65  1  0.66590511  0.61770309  0.63971679  1
  Sc  Sc66  1  0.44809213  0.90455450  0.38371384  1
  Sc  Sc67  1  0.16801019  0.26447356  0.48370871  1
  Sc  Sc68  1  0.74079112  0.42570658  0.22679970  1
  Sc  Sc69  1  0.74242624  0.32431143  0.01745704  1
  Sc  Sc70  1  0.23850854  0.00230878  0.76457152  1
  Sc  Sc71  1  0.70862823  0.15311797  0.88176176  1
  Sc  Sc72  1  -0.00002718  0.82694013  0.51193522  1
  Sc  Sc73  1  0.11678253  0.77107442  0.29064381  1
  Sc  Sc74  1  0.13674565  0.24287619  0.05230723  1
  Sc  Sc75  1  0.86102467  0.29409331  0.34080983  1
  Sc  Sc76  1  0.43396119  0.15518653  0.16542695  1
  Sc  Sc77  1  0.95380423  0.33234275  0.14525972  1
  Sc  Sc78  1  0.96652604  0.46372801  0.82887135  1
  Sc  Sc79  1  0.35002949  0.70005060  0.34932435  1
  Sc  Sc80  1  0.07961136  0.71906530  0.71579031  1
  Sc  Sc81  1  0.26988769  0.78752367  0.77892825  1
  Sc  Sc82  1  0.88042532  0.73324116  0.13353033  1
  Sc  Sc83  1  0.57542301  0.59643450  0.86891818  1
  Sc  Sc84  1  0.45001324  0.49565767  0.73382407  1
  Sc  Sc85  1  0.50074551  0.83645778  0.16364222  1
  Sc  Sc86  1  0.87675815  0.02665848  0.90056299  1
  Sc  Sc87  1  0.50255687  0.23612828  0.94530845  1
  Sc  Sc88  1  0.49406356  0.92766716  0.62377981  1
  Sc  Sc89  1  0.66392047  0.82017668  0.64234511  1
  Sc  Sc90  1  0.32562146  0.36261728  0.86383157  1
  Sc  Sc91  1  0.67466521  0.93599512  0.05201586  1
  Sc  Sc92  1  0.77371277  0.51493804  0.44666832  1
  Sc  Sc93  1  0.52550335  0.10216333  0.34410769  1
  Sc  Sc94  1  1.05778733  0.87842903  0.86321547  1
  Sc  Sc95  1  0.83274345  0.14874197  0.10833579  1
  Sc  Sc96  1  0.41893692  0.49389697  0.18860702  1
  Sc  Sc97  1  0.85396242  0.87044201  0.71430376  1
  Sc  Sc98  1  0.06110671  0.61099903  0.12536085  1
  Sc  Sc99  1  0.01112673  0.32911139  0.65347280  1
  Nb  Nb100  1  0.07702646  0.36343057  0.33359768  1
  Nb  Nb101  1  0.89722810  0.08508420  0.31381451  1
  Nb  Nb102  1  0.70661357  0.81262375  0.26028632  1
  Nb  Nb103  1  0.80804289  0.30842609  0.55479432  1
  Nb  Nb104  1  0.96578521  0.41623189  0.48044516  1
  Nb  Nb105  1  0.17618304  0.88013135  0.61159684  1
  Nb  Nb106  1  0.46218674  0.64741709  0.05293416  1
  Nb  Nb107  1  0.23185346  0.87857975  0.41374553  1
  Nb  Nb108  1  0.36416782  0.63050692  0.87552491  1
  Nb  Nb109  1  0.93429776  0.49758742  0.28303935  1
  Nb  Nb110  1  0.55486333  0.33689352  0.12708917  1
  Nb  Nb111  1  0.74422658  0.62551668  0.26762362  1
  Nb  Nb112  1  0.46541950  0.31010620  0.30745307  1
  Nb  Nb113  1  0.62239161  0.13697031  0.08603841  1
  Nb  Nb114  1  0.34169757  0.80083500  0.99901884  1
  Nb  Nb115  1  0.59727268  0.28401363  0.46738436  1
  Nb  Nb116  1  0.87735552  1.00549307  0.52189365  1
  Nb  Nb117  1  0.84962146  0.48217356  0.64686126  1
  Nb  Nb118  1  0.71071507  0.73741504  0.82379114  1
  Nb  Nb119  1  0.17785907  0.52693306  0.82290272  1
  Nb  Nb120  1  0.46708923  0.45726369  -0.02637805  1
  Nb  Nb121  1  0.96252349  0.19388576  0.48658225  1
  Nb  Nb122  1  0.06327165  0.52696805  0.65948167  1
  Nb  Nb123  1  0.16276085  0.47257415  0.50244932  1
  Nb  Nb124  1  0.23943708  0.08827754  0.13792471  1
