# generated using pymatgen
data_Zr2Sc2Nb
_symmetry_space_group_name_H-M   'P 1'
_cell_length_a   14.24443951
_cell_length_b   14.21526234
_cell_length_c   14.16206047
_cell_angle_alpha   90.23372456
_cell_angle_beta   89.13214216
_cell_angle_gamma   90.78127897
_symmetry_Int_Tables_number   1
_chemical_formula_structural   Zr2Sc2Nb
_chemical_formula_sum   'Zr50 Sc50 Nb25'
_cell_volume   2867.03656117
_cell_formula_units_Z   25
loop_
 _symmetry_equiv_pos_site_id
 _symmetry_equiv_pos_as_xyz
  1  'x, y, z'
loop_
 _atom_site_type_symbol
 _atom_site_label
 _atom_site_symmetry_multiplicity
 _atom_site_fract_x
 _atom_site_fract_y
 _atom_site_fract_z
 _atom_site_occupancy
  Zr  Zr0  1  1.00427935  0.44483190  0.67253746  1
  Zr  Zr1  1  0.10836561  0.56479409  0.44763175  1
  Zr  Zr2  1  0.69247296  0.86136575  0.48290519  1
  Zr  Zr3  1  0.53728526  0.84191255  0.66735969  1
  Zr  Zr4  1  0.63132152  0.07056587  0.10593092  1
  Zr  Zr5  1  0.80955548  0.04718291  0.50430136  1
  Zr  Zr6  1  0.06135135  0.21497375  0.67039683  1
  Zr  Zr7  1  0.36246274  0.75040318  0.18396559  1
  Zr  Zr8  1  0.33383578  0.93027239  0.68961561  1
  Zr  Zr9  1  0.87984686  0.60237306  0.55489726  1
  Zr  Zr10  1  0.72825446  0.89354811  0.22473737  1
  Zr  Zr11  1  0.50448649  -0.00529908  -0.03150052  1
  Zr  Zr12  1  0.16722666  0.37309390  0.54235173  1
  Zr  Zr13  1  0.43994248  0.30226569  0.78458266  1
  Zr  Zr14  1  0.41927283  0.83237473  0.84901987  1
  Zr  Zr15  1  0.42214394  0.66325902  -0.02818423  1
  Zr  Zr16  1  0.64605395  0.65225723  0.48482870  1
  Zr  Zr17  1  0.24210114  0.60019576  0.10908841  1
  Zr  Zr18  1  0.35866528  0.08339568  0.83647797  1
  Zr  Zr19  1  0.65447494  0.46552748  0.10749075  1
  Zr  Zr20  1  0.83593171  0.54330470  0.05080938  1
  Zr  Zr21  1  0.16608714  0.10090688  0.28927230  1
  Zr  Zr22  1  0.76914793  0.55108764  0.82151715  1
  Zr  Zr23  1  0.71353807  0.68265730  0.14871586  1
  Zr  Zr24  1  0.74015382  0.05387351  0.88110758  1
  Zr  Zr25  1  0.70296148  0.17951612  0.69564695  1
  Zr  Zr26  1  0.02632036  0.62586011  1.01877964  1
  Zr  Zr27  1  0.66021392  0.52205602  0.64292925  1
  Zr  Zr28  1  0.32988408  0.64451949  0.75812304  1
  Zr  Zr29  1  0.19866452  0.71430447  0.32865987  1
  Zr  Zr30  1  0.26034124  0.49913782  0.30393582  1
  Zr  Zr31  1  0.12384795  0.56767913  0.83458025  1
  Zr  Zr32  1  0.78352035  0.70557137  0.35473688  1
  Zr  Zr33  1  0.82787245  0.71650957  0.93938724  1
  Zr  Zr34  1  0.53875710  0.28037629  0.07884614  1
  Zr  Zr35  1  0.63288663  0.54033651  0.30431086  1
  Zr  Zr36  1  0.64507853  0.83782584  0.87132948  1
  Zr  Zr37  1  0.87715240  0.25843942  0.79984678  1
  Zr  Zr38  1  0.12898075  0.79582082  0.13579310  1
  Zr  Zr39  1  0.87779642  0.27717516  0.33660472  1
  Zr  Zr40  1  0.92812447  0.37935310  0.14239958  1
  Zr  Zr41  1  0.55806113  0.16804835  0.27322076  1
  Zr  Zr42  1  0.71953607  0.30197058  0.21240658  1
  Zr  Zr43  1  0.05533657  0.56491431  0.22418092  1
  Zr  Zr44  1  0.17584025  0.78400762  0.73464932  1
  Zr  Zr45  1  0.30240527  0.48251357  0.91115347  1
  Zr  Zr46  1  0.46378112  0.47776514  0.71221943  1
  Zr  Zr47  1  0.49510733  0.36960896  0.27811417  1
  Zr  Zr48  1  0.91515112  0.75207625  0.16974269  1
  Zr  Zr49  1  0.77201977  0.08681358  0.28556757  1
  Sc  Sc50  1  0.36162201  0.07445898  0.34541282  1
  Sc  Sc51  1  0.56562746  0.97970430  0.35382309  1
  Sc  Sc52  1  0.31188290  0.53073825  0.52862432  1
  Sc  Sc53  1  0.96626739  0.03741735  0.91514132  1
  Sc  Sc54  1  0.74206818  0.43356605  0.45845839  1
  Sc  Sc55  1  0.72361024  0.95175345  0.68730283  1
  Sc  Sc56  1  0.12054594  0.34860920  0.83767131  1
  Sc  Sc57  1  0.99186044  0.24865660  0.98734179  1
  Sc  Sc58  1  0.08217238  0.89912300  0.32705210  1
  Sc  Sc59  1  0.06901912  0.22455057  0.43709615  1
  Sc  Sc60  1  0.83029668  0.13093657  0.07808601  1
  Sc  Sc61  1  0.73233188  0.72693457  0.69439588  1
  Sc  Sc62  1  0.19495543  0.93822977  0.89324014  1
  Sc  Sc63  1  0.42400291  0.63275211  0.37255230  1
  Sc  Sc64  1  0.93882280  0.44990335  0.88823815  1
  Sc  Sc65  1  0.88549941  0.84203949  0.58658231  1
  Sc  Sc66  1  0.33764782  0.26793663  0.96202133  1
  Sc  Sc67  1  0.01197148  0.83661603  0.95669979  1
  Sc  Sc68  1  0.29758444  0.75197531  0.54581288  1
  Sc  Sc69  1  0.88342847  0.88815452  0.37246506  1
  Sc  Sc70  1  0.56645733  0.76484021  0.28911222  1
  Sc  Sc71  1  0.79558335  0.90779211  1.02701488  1
  Sc  Sc72  1  0.96174331  0.68813694  0.75124643  1
  Sc  Sc73  1  0.07231412  0.77369774  0.53711107  1
  Sc  Sc74  1  -0.00512889  0.17896570  0.19534914  1
  Sc  Sc75  1  0.34115827  0.40165291  0.12810422  1
  Sc  Sc76  1  0.51629572  0.45131311  0.47608112  1
  Sc  Sc77  1  0.20451917  0.94494348  0.50348927  1
  Sc  Sc78  1  0.48046118  0.57413622  0.15495187  1
  Sc  Sc79  1  0.76673787  0.32243245  -0.01486492  1
  Sc  Sc80  1  0.57867407  0.18539519  0.89526737  1
  Sc  Sc81  1  0.68604854  0.22834578  0.44436894  1
  Sc  Sc82  1  0.55648148  0.81399671  0.07351270  1
  Sc  Sc83  1  0.59718845  0.05529672  0.55102147  1
  Sc  Sc84  1  0.51142588  0.46015821  0.94049082  1
  Sc  Sc85  1  0.47919485  0.64853564  0.60052271  1
  Sc  Sc86  1  0.84995380  0.51913802  0.27816389  1
  Sc  Sc87  1  0.29007400  0.29020660  0.35352898  1
  Sc  Sc88  1  0.12212288  0.43118742  0.04997181  1
  Sc  Sc89  1  0.88433871  0.23470028  0.55590564  1
  Sc  Sc90  1  0.30652165  0.06904693  0.04731789  1
  Sc  Sc91  1  0.43762322  0.14558395  0.64895762  1
  Sc  Sc92  1  0.35476509  0.86498508  0.35576063  1
  Sc  Sc93  1  0.65568291  0.37055840  0.80555631  1
  Sc  Sc94  1  0.25196531  0.14978267  0.52927272  1
  Sc  Sc95  1  0.90314074  0.06505809  0.71017425  1
  Sc  Sc96  1  0.15570166  0.14706489  0.89730359  1
  Sc  Sc97  1  0.96156620  0.42681622  0.45329502  1
  Sc  Sc98  1  0.18369420  0.23874679  0.12452274  1
  Sc  Sc99  1  0.21691861  0.72496997  0.94132975  1
  Nb  Nb100  1  0.80644759  0.39348592  0.65791003  1
  Nb  Nb101  1  0.38511739  0.19182797  0.18169051  1
  Nb  Nb102  1  0.63759118  0.63240214  0.97077349  1
  Nb  Nb103  1  0.10312997  1.01982656  0.08670813  1
  Nb  Nb104  1  0.25674643  0.23839900  0.72397011  1
  Nb  Nb105  1  0.16588892  0.04419313  0.70372971  1
  Nb  Nb106  1  0.14135467  0.59646802  0.63952519  1
  Nb  Nb107  1  0.85559314  0.87450664  0.81483142  1
  Nb  Nb108  1  0.47196874  0.21371515  0.45403106  1
  Nb  Nb109  1  0.37073412  0.33055874  0.57548464  1
  Nb  Nb110  1  0.49927227  0.81592643  0.48014409  1
  Nb  Nb111  1  0.58568367  0.31370662  0.61118217  1
  Nb  Nb112  1  0.55655974  0.64893721  0.80046676  1
  Nb  Nb113  1  0.09094654  0.36853319  0.28112184  1
  Nb  Nb114  1  0.02105602  0.02216713  0.54157557  1
  Nb  Nb115  1  0.03203207  0.90872537  0.72940346  1
  Nb  Nb116  1  0.41324204  0.98593499  0.52151958  1
  Nb  Nb117  1  0.25203354  0.94259068  0.20114931  1
  Nb  Nb118  1  0.94250078  0.96586168  0.17471094  1
  Nb  Nb119  1  0.45252055  0.97378543  0.17774521  1
  Nb  Nb120  1  0.54431313  0.01635608  0.76657378  1
  Nb  Nb121  1  0.98057572  0.69462718  0.36432732  1
  Nb  Nb122  1  0.95851129  0.07519586  0.36425705  1
  Nb  Nb123  1  0.25671910  0.44098289  0.71364803  1
  Nb  Nb124  1  0.33712131  0.86642171  0.03464152  1
