# generated using pymatgen
data_Zr2Sc2Nb
_symmetry_space_group_name_H-M   'P 1'
_cell_length_a   14.17569913
_cell_length_b   14.61578640
_cell_length_c   13.86315726
_cell_angle_alpha   91.30204954
_cell_angle_beta   91.43287205
_cell_angle_gamma   90.79151208
_symmetry_Int_Tables_number   1
_chemical_formula_structural   Zr2Sc2Nb
_chemical_formula_sum   'Zr50 Sc50 Nb25'
_cell_volume   2870.35676206
_cell_formula_units_Z   25
loop_
 _symmetry_equiv_pos_site_id
 _symmetry_equiv_pos_as_xyz
  1  'x, y, z'
loop_
 _atom_site_type_symbol
 _atom_site_label
 _atom_site_symmetry_multiplicity
 _atom_site_fract_x
 _atom_site_fract_y
 _atom_site_fract_z
 _atom_site_occupancy
  Zr  Zr0  1  0.11757989  0.75613064  0.27512978  1
  Zr  Zr1  1  0.21823235  0.71845570  0.09062715  1
  Zr  Zr2  1  0.76124277  0.21126682  0.23870935  1
  Zr  Zr3  1  0.35352772  0.94536968  0.89766484  1
  Zr  Zr4  1  0.40602997  0.33000962  0.23300695  1
  Zr  Zr5  1  0.53043986  0.15906673  0.23415940  1
  Zr  Zr6  1  0.71310654  1.01124757  0.21483840  1
  Zr  Zr7  1  0.49873903  0.46167773  0.97615277  1
  Zr  Zr8  1  0.64511430  0.86136047  0.37336302  1
  Zr  Zr9  1  0.95791104  0.28788483  0.29133986  1
  Zr  Zr10  1  0.75394065  0.54007367  0.89041407  1
  Zr  Zr11  1  0.30860865  0.36482813  0.92801046  1
  Zr  Zr12  1  0.47583002  0.97616703  0.29537792  1
  Zr  Zr13  1  0.33312451  0.05831218  0.12086764  1
  Zr  Zr14  1  0.37931309  0.66259871  0.49912087  1
  Zr  Zr15  1  0.17374276  0.34629246  0.28741343  1
  Zr  Zr16  1  0.97281133  0.01554638  0.74561413  1
  Zr  Zr17  1  0.62770155  0.34823346  0.17418767  1
  Zr  Zr18  1  0.85595792  0.84993592  0.78855589  1
  Zr  Zr19  1  0.26702388  0.98576176  0.41466109  1
  Zr  Zr20  1  0.59994989  0.82358930  0.15675467  1
  Zr  Zr21  1  0.86278572  0.04315529  0.91683698  1
  Zr  Zr22  1  0.50524457  0.52535893  0.18070452  1
  Zr  Zr23  1  0.82921076  0.45822051  0.24058739  1
  Zr  Zr24  1  0.59993991  0.66447133  0.00775346  1
  Zr  Zr25  1  0.69933348  0.83467437  0.61444078  1
  Zr  Zr26  1  0.92014462  0.88655696  0.57759323  1
  Zr  Zr27  1  0.43467449  0.85577059  0.48727265  1
  Zr  Zr28  1  0.47605808  0.27108888  0.81621120  1
  Zr  Zr29  1  1.00811991  0.69883679  0.47915457  1
  Zr  Zr30  1  0.69934169  0.15303698  1.03188761  1
  Zr  Zr31  1  0.68499237  0.24352408  0.58184461  1
  Zr  Zr32  1  0.09074049  0.31194556  0.50532456  1
  Zr  Zr33  1  0.04546547  0.35909733  0.09388778  1
  Zr  Zr34  1  0.51758854  0.73751632  0.66841218  1
  Zr  Zr35  1  0.79744307  0.37413354  0.75349527  1
  Zr  Zr36  1  0.56030150  0.85717098  0.93165717  1
  Zr  Zr37  1  0.42065828  0.68481817  0.09244096  1
  Zr  Zr38  1  0.89855560  0.20582450  0.66267942  1
  Zr  Zr39  1  0.58868578  -0.01115821  0.53078196  1
  Zr  Zr40  1  0.89374561  0.37750329  0.54301329  1
  Zr  Zr41  1  0.49278073  0.92558204  0.72038861  1
  Zr  Zr42  1  0.83199707  0.35610476  0.04757736  1
  Zr  Zr43  1  0.32080100  0.83741971  0.26606987  1
  Zr  Zr44  1  0.31066165  0.29451677  0.43527246  1
  Zr  Zr45  1  0.92282570  0.23784265  0.87884592  1
  Zr  Zr46  1  0.22395174  0.14963375  0.53774547  1
  Zr  Zr47  1  0.54429271  0.01208760  0.07763619  1
  Zr  Zr48  1  0.27259518  0.14443041  0.91295373  1
  Zr  Zr49  1  0.11090159  0.54561026  0.98322758  1
  Sc  Sc50  1  0.03235219  0.35544708  0.71849179  1
  Sc  Sc51  1  0.76797366  0.88516768  0.00949257  1
  Sc  Sc52  1  0.18206136  0.92875506  0.03680506  1
  Sc  Sc53  1  0.65667193  0.34459733  0.94032166  1
  Sc  Sc54  1  0.28428507  0.45131686  0.57926154  1
  Sc  Sc55  1  0.40698218  0.47991021  0.38662183  1
  Sc  Sc56  1  0.06186831  0.76892226  0.70433427  1
  Sc  Sc57  1  0.53532032  0.59730057  0.81627504  1
  Sc  Sc58  1  0.92824833  0.06591822  0.28122977  1
  Sc  Sc59  1  0.28818348  0.47933128  0.12007408  1
  Sc  Sc60  1  0.09631919  0.54749190  0.20176085  1
  Sc  Sc61  1  0.44060117  0.12310934  0.46897637  1
  Sc  Sc62  1  0.82171093  0.57044259  0.46172329  1
  Sc  Sc63  1  0.00499270  0.74656515  0.07520353  1
  Sc  Sc64  1  0.01460821  0.89977678  0.38603958  1
  Sc  Sc65  1  0.97560924  0.96129251  0.10067326  1
  Sc  Sc66  1  0.92220861  0.17327220  0.08919868  1
  Sc  Sc67  1  0.32439198  0.58144886  0.92415225  1
  Sc  Sc68  1  0.30226842  0.83666921  0.68654967  1
  Sc  Sc69  1  0.14343713  0.95117393  0.60009081  1
  Sc  Sc70  1  0.18965749  0.55609360  0.41564473  1
  Sc  Sc71  1  0.51283753  0.08394784  0.88188851  1
  Sc  Sc72  1  0.55293381  0.30287119  0.39930260  1
  Sc  Sc73  1  0.11427287  0.15852175  0.73825756  1
  Sc  Sc74  1  -0.00206581  0.47558774  0.38516963  1
  Sc  Sc75  1  0.08386453  0.54085059  0.59850307  1
  Sc  Sc76  1  0.70738811  0.66497128  0.25614012  1
  Sc  Sc77  1  0.00179808  0.08054482  0.52314796  1
  Sc  Sc78  1  0.68663359  0.44660868  0.55875263  1
  Sc  Sc79  1  0.68309273  0.97395249  0.80297765  1
  Sc  Sc80  1  0.21261621  0.78199297  0.47166087  1
  Sc  Sc81  1  0.19885872  0.76221678  0.88315315  1
  Sc  Sc82  1  0.93381531  0.67104557  0.87657603  1
  Sc  Sc83  1  0.30681830  0.63243966  0.27336361  1
  Sc  Sc84  1  0.70677011  0.18845386  0.80380503  1
  Sc  Sc85  1  0.50214573  0.70560231  0.32279367  1
  Sc  Sc86  1  0.27081318  0.28771102  0.71516418  1
  Sc  Sc87  1  -0.07879934  0.65540508  0.26608807  1
  Sc  Sc88  1  0.30235889  0.63286561  0.70363205  1
  Sc  Sc89  1  0.62734500  0.50066387  0.35202577  1
  Sc  Sc90  1  0.46762708  0.31064493  0.60299383  1
  Sc  Sc91  1  0.90611496  0.53946925  0.70315131  1
  Sc  Sc92  1  0.50193061  0.52979570  0.59470239  1
  Sc  Sc93  1  0.10987847  0.14829216  0.35530647  1
  Sc  Sc94  1  0.47086239  0.23746521  0.03782299  1
  Sc  Sc95  1  0.33697456  0.07042256  0.70289133  1
  Sc  Sc96  1  0.17739010  0.47768629  0.79341020  1
  Sc  Sc97  1  0.83878573  0.84532779  0.23212045  1
  Sc  Sc98  1  0.77162312  0.05078500  0.62336913  1
  Sc  Sc99  1  0.25025184  0.26197304  0.09899455  1
  Nb  Nb100  1  0.81704552  0.77352449  0.43258611  1
  Nb  Nb101  1  0.30190524  0.14778947  0.29148193  1
  Nb  Nb102  1  0.39956279  0.45055287  0.76592256  1
  Nb  Nb103  1  0.69877285  0.60823463  0.68182163  1
  Nb  Nb104  1  0.85066286  0.70934053  0.63110167  1
  Nb  Nb105  1  0.79378295  0.69325285  0.05562510  1
  Nb  Nb106  1  0.66099739  0.11893320  0.40012472  1
  Nb  Nb107  1  0.60386837  0.41462492  0.74928974  1
  Nb  Nb108  1  0.95768996  0.44361869  0.89640202  1
  Nb  Nb109  1  0.39258251  0.86782549  0.07773090  1
  Nb  Nb110  1  0.07149178  0.09199057  0.94556410  1
  Nb  Nb111  1  0.15719391  0.97043577  0.24121616  1
  Nb  Nb112  1  0.63813658  0.67546626  0.49439284  1
  Nb  Nb113  1  0.70275719  0.74008907  0.83182569  1
  Nb  Nb114  1  0.91455263  0.54511684  0.06600634  1
  Nb  Nb115  1  1.01648060  0.88190461  0.90551862  1
  Nb  Nb116  1  0.11775006  0.13335457  0.14406406  1
  Nb  Nb117  1  0.41191693  0.75422081  0.87027481  1
  Nb  Nb118  1  0.54813870  0.12314520  0.67269344  1
  Nb  Nb119  1  0.80197067  -0.02008311  0.42528560  1
  Nb  Nb120  1  0.16758746  0.96558798  0.81401339  1
  Nb  Nb121  1  0.11729158  0.29825833  0.91545154  1
  Nb  Nb122  1  0.69967338  0.51515889  0.09287887  1
  Nb  Nb123  1  0.84959547  0.18507215  0.44747224  1
  Nb  Nb124  1  0.76013922  0.34188420  0.38950444  1
