# generated using pymatgen
data_Zr2Sc2Nb
_symmetry_space_group_name_H-M   'P 1'
_cell_length_a   14.15183000
_cell_length_b   14.25076162
_cell_length_c   14.39169353
_cell_angle_alpha   88.51980659
_cell_angle_beta   88.18594083
_cell_angle_gamma   88.59919767
_symmetry_Int_Tables_number   1
_chemical_formula_structural   Zr2Sc2Nb
_chemical_formula_sum   'Zr50 Sc50 Nb25'
_cell_volume   2899.20186099
_cell_formula_units_Z   25
loop_
 _symmetry_equiv_pos_site_id
 _symmetry_equiv_pos_as_xyz
  1  'x, y, z'
loop_
 _atom_site_type_symbol
 _atom_site_label
 _atom_site_symmetry_multiplicity
 _atom_site_fract_x
 _atom_site_fract_y
 _atom_site_fract_z
 _atom_site_occupancy
  Zr  Zr0  1  0.54467962  0.23752299  0.68542582  1
  Zr  Zr1  1  0.91230014  0.39159793  0.18134700  1
  Zr  Zr2  1  0.71052123  0.44945965  0.12515962  1
  Zr  Zr3  1  0.48702049  0.56015683  0.85103766  1
  Zr  Zr4  1  0.64533510  0.59999148  0.72128770  1
  Zr  Zr5  1  0.20048925  0.11918851  0.70594520  1
  Zr  Zr6  1  0.07323422  0.57828398  0.51572310  1
  Zr  Zr7  1  0.04465955  0.30205696  0.03039432  1
  Zr  Zr8  1  0.03379427  0.21112544  0.84985063  1
  Zr  Zr9  1  0.75807491  0.27645754  0.28380587  1
  Zr  Zr10  1  0.38048758  0.74954183  0.11084310  1
  Zr  Zr11  1  0.77673470  0.75382084  0.72189661  1
  Zr  Zr12  1  0.86927993  0.02446507  0.53462023  1
  Zr  Zr13  1  0.63523645  0.56058174  0.50718948  1
  Zr  Zr14  1  0.92299617  0.18152282  0.15369713  1
  Zr  Zr15  1  0.04866692  0.16441580  0.55519050  1
  Zr  Zr16  1  0.40500461  0.09988993  0.80697360  1
  Zr  Zr17  1  0.49945150  0.45935517  0.20167863  1
  Zr  Zr18  1  0.09815721  0.50707265  0.05744815  1
  Zr  Zr19  1  0.55552229  0.61049651  0.04948565  1
  Zr  Zr20  1  0.97055971  0.22832466  0.35899250  1
  Zr  Zr21  1  0.72284696  0.52106298  0.91634475  1
  Zr  Zr22  1  0.11147250  0.30981302  0.22708878  1
  Zr  Zr23  1  0.24654262  0.34788882  0.06473359  1
  Zr  Zr24  1  0.28117860  0.54900130  0.78704555  1
  Zr  Zr25  1  0.73468829  0.15624881  0.70441688  1
  Zr  Zr26  1  0.07797127  0.08126844  1.03824789  1
  Zr  Zr27  1  0.06489140  -0.00297438  0.43018086  1
  Zr  Zr28  1  0.25440751  0.14023547  0.14489128  1
  Zr  Zr29  1  0.41886071  0.11524690  0.40794660  1
  Zr  Zr30  1  0.43922764  0.12450158  1.00440093  1
  Zr  Zr31  1  0.18755111  0.17461484  0.36790475  1
  Zr  Zr32  1  0.57338889  0.82277523  0.09300458  1
  Zr  Zr33  1  0.95494981  0.67965897  0.37148849  1
  Zr  Zr34  1  0.43091528  0.29660726  0.10428421  1
  Zr  Zr35  1  0.50459194  0.91474298  0.29543078  1
  Zr  Zr36  1  0.10614090  1.00216158  0.84830930  1
  Zr  Zr37  1  0.46672127  0.49800731  0.41681480  1
  Zr  Zr38  1  1.01831613  0.85963153  0.97378192  1
  Zr  Zr39  1  0.13819016  0.80261447  0.79784684  1
  Zr  Zr40  1  0.92981120  0.88754830  0.76548508  1
  Zr  Zr41  1  0.25451936  0.46105883  0.59994317  1
  Zr  Zr42  1  0.86756030  0.81098411  0.54611952  1
  Zr  Zr43  1  0.48791439  0.73607834  0.42308915  1
  Zr  Zr44  1  0.35212377  0.59424307  0.26570230  1
  Zr  Zr45  1  0.88136527  0.72394443  0.90744162  1
  Zr  Zr46  1  0.86573119  0.55652699  0.76718153  1
  Zr  Zr47  1  0.64148195  0.76468692  0.56232951  1
  Zr  Zr48  1  0.27770043  0.98830424  0.30515390  1
  Zr  Zr49  1  0.17664928  0.39320960  0.86616964  1
  Sc  Sc50  1  0.82722115  0.57650624  0.24187725  1
  Sc  Sc51  1  0.09422739  0.93293635  0.63204812  1
  Sc  Sc52  1  0.05150523  0.51953911  0.27427946  1
  Sc  Sc53  1  0.75448170  0.69001215  0.08471635  1
  Sc  Sc54  1  0.33555009  0.30853531  0.29182173  1
  Sc  Sc55  1  0.49014557  0.93540504  0.53176698  1
  Sc  Sc56  1  0.23265089  0.70091658  0.95907755  1
  Sc  Sc57  1  0.73390604  0.71574170  0.38045764  1
  Sc  Sc58  1  0.19246260  0.90487474  0.10811128  1
  Sc  Sc59  1  0.17891162  0.67902255  0.16274312  1
  Sc  Sc60  1  0.32094977  0.92801777  0.69209899  1
  Sc  Sc61  1  0.27220116  0.84066761  0.48844978  1
  Sc  Sc62  1  0.57393398  0.66143944  0.25133899  1
  Sc  Sc63  1  0.82288849  0.23460894  0.51479592  1
  Sc  Sc64  1  0.32662222  0.29323774  0.71511092  1
  Sc  Sc65  1  0.88680696  0.06103259  0.93770050  1
  Sc  Sc66  1  0.23757950  0.18220531  0.92072267  1
  Sc  Sc67  1  0.96861066  0.71113308  0.13173099  1
  Sc  Sc68  1  0.53409515  0.82405847  0.73713373  1
  Sc  Sc69  1  0.54735966  0.28237220  0.31392508  1
  Sc  Sc70  1  0.10053124  0.84703096  0.28647008  1
  Sc  Sc71  1  0.73370956  0.94719292  0.82105512  1
  Sc  Sc72  1  0.35382568  0.53065411  0.03396992  1
  Sc  Sc73  1  0.91464764  0.32822718  0.68392465  1
  Sc  Sc74  1  0.30509276  0.91677600  0.91753172  1
  Sc  Sc75  1  0.65688104  0.11827151  0.92133572  1
  Sc  Sc76  1  0.42468787  0.31254994  0.50550429  1
  Sc  Sc77  1  0.44842717  0.65038335  0.62891719  1
  Sc  Sc78  1  0.85366979  0.43653007  0.40979814  1
  Sc  Sc79  1  0.40803104  0.34193822  0.89021868  1
  Sc  Sc80  1  0.30881847  0.63270282  0.48170357  1
  Sc  Sc81  1  0.84772957  0.59041166  0.56280100  1
  Sc  Sc82  1  0.96119701  0.41337157  0.87308921  1
  Sc  Sc83  1  0.04916914  0.37143455  0.49702651  1
  Sc  Sc84  1  0.06322917  0.61082576  0.87089843  1
  Sc  Sc85  1  0.63760132  0.32771542  0.84888222  1
  Sc  Sc86  1  0.62440912  0.11688638  0.51037722  1
  Sc  Sc87  1  0.72580776  0.88627409  0.22457034  1
  Sc  Sc88  1  0.62968954  0.23652308  0.11134473  1
  Sc  Sc89  1  0.71994040  0.40839289  0.66629380  1
  Sc  Sc90  1  0.89820861  0.88053054  0.35574876  1
  Sc  Sc91  1  0.93316794  0.94481101  0.14771485  1
  Sc  Sc92  1  0.83332387  0.07316791  0.32663335  1
  Sc  Sc93  1  0.81285384  0.29620870  0.99329445  1
  Sc  Sc94  1  0.52895169  0.94047085  0.91985789  1
  Sc  Sc95  1  0.48940091  0.44480931  0.66661579  1
  Sc  Sc96  1  0.22494201  0.45149749  0.38910632  1
  Sc  Sc97  1  0.93754504  0.09520006  0.71931694  1
  Sc  Sc98  1  0.63756744  0.34293971  0.49095963  1
  Sc  Sc99  1  0.65705835  0.74197615  0.89901387  1
  Nb  Nb100  1  0.44577132  0.74407557  0.92628806  1
  Nb  Nb101  1  0.33716110  0.73719102  0.77703770  1
  Nb  Nb102  1  0.76565041  0.07940377  0.11917763  1
  Nb  Nb103  1  0.71073223  0.94533264  0.62304752  1
  Nb  Nb104  1  0.07118956  0.06743980  0.24300911  1
  Nb  Nb105  1  0.24954859  0.04575495  0.51843597  1
  Nb  Nb106  1  0.06847404  0.78484184  0.49865996  1
  Nb  Nb107  1  0.99395327  0.70403136  0.68409849  1
  Nb  Nb108  1  0.06797091  0.50227702  0.69851132  1
  Nb  Nb109  1  0.16949477  0.67263402  0.36313472  1
  Nb  Nb110  1  0.89745467  0.53221534  0.02657603  1
  Nb  Nb111  1  0.59073153  0.01814932  0.10757694  1
  Nb  Nb112  1  0.55762712  0.42007215  0.00481622  1
  Nb  Nb113  1  0.19187959  0.68505904  0.64548147  1
  Nb  Nb114  1  0.40271634  0.12008794  0.60702530  1
  Nb  Nb115  1  0.76898686  0.89903251  0.01521073  1
  Nb  Nb116  1  0.66189942  0.47522599  0.32479012  1
  Nb  Nb117  1  0.32374559  0.79395628  0.29002438  1
  Nb  Nb118  1  0.69002385  0.92620783  0.42853847  1
  Nb  Nb119  1  0.56329232  0.03275942  0.71456033  1
  Nb  Nb120  1  0.23839574  0.25421055  0.52951887  1
  Nb  Nb121  1  0.39508279  0.95202745  0.11934427  1
  Nb  Nb122  1  0.44752092  0.11964140  0.21584023  1
  Nb  Nb123  1  0.62902653  0.08403691  0.29187204  1
  Nb  Nb124  1  0.11952964  0.31134839  0.69277187  1
