# generated using pymatgen
data_Zr2Sc2Nb
_symmetry_space_group_name_H-M   'P 1'
_cell_length_a   14.44779653
_cell_length_b   14.08416147
_cell_length_c   14.10669797
_cell_angle_alpha   88.54256950
_cell_angle_beta   90.76688090
_cell_angle_gamma   90.01085043
_symmetry_Int_Tables_number   1
_chemical_formula_structural   Zr2Sc2Nb
_chemical_formula_sum   'Zr50 Sc50 Nb25'
_cell_volume   2869.31715634
_cell_formula_units_Z   25
loop_
 _symmetry_equiv_pos_site_id
 _symmetry_equiv_pos_as_xyz
  1  'x, y, z'
loop_
 _atom_site_type_symbol
 _atom_site_label
 _atom_site_symmetry_multiplicity
 _atom_site_fract_x
 _atom_site_fract_y
 _atom_site_fract_z
 _atom_site_occupancy
  Zr  Zr0  1  0.30247560  0.82712142  0.62549304  1
  Zr  Zr1  1  0.43762527  0.26473354  0.68460395  1
  Zr  Zr2  1  0.81644502  -0.05377248  0.99683329  1
  Zr  Zr3  1  0.32925926  0.73572190  0.32383014  1
  Zr  Zr4  1  0.91922461  0.47234005  0.66460751  1
  Zr  Zr5  1  0.13273346  0.92788717  0.01348710  1
  Zr  Zr6  1  0.97027400  0.84452857  0.12922912  1
  Zr  Zr7  1  0.24585310  0.75341317  0.82458884  1
  Zr  Zr8  1  0.65839595  0.73454180  0.95570149  1
  Zr  Zr9  1  0.15079767  0.47796078  0.12297961  1
  Zr  Zr10  1  0.06189617  0.86974242  0.50782222  1
  Zr  Zr11  1  0.28577523  0.25648323  0.05722860  1
  Zr  Zr12  1  0.32188652  0.62328265  0.16040824  1
  Zr  Zr13  1  0.31106435  0.03862116  0.02542794  1
  Zr  Zr14  1  0.04714819  0.96330389  0.30395559  1
  Zr  Zr15  1  0.37416487  0.05821991  0.44914800  1
  Zr  Zr16  1  0.43581265  0.93675983  0.23812052  1
  Zr  Zr17  1  0.05290750  0.67727949  0.63227105  1
  Zr  Zr18  1  0.98153556  0.15906043  0.30481293  1
  Zr  Zr19  1  0.74767698  0.45523609  0.51413921  1
  Zr  Zr20  1  0.26446788  0.19853356  0.82058144  1
  Zr  Zr21  1  0.50228583  0.32264862  0.27808509  1
  Zr  Zr22  1  0.64798478  0.31547246  0.63012472  1
  Zr  Zr23  1  0.77455844  0.31538469  0.80103849  1
  Zr  Zr24  1  0.82543402  0.14465330  0.10715037  1
  Zr  Zr25  1  0.77148440  0.15781404  0.55265636  1
  Zr  Zr26  1  0.80697149  0.08198321  0.79532659  1
  Zr  Zr27  1  0.45534743  0.12010120  0.87474193  1
  Zr  Zr28  1  0.51231801  0.53360597  0.15981579  1
  Zr  Zr29  1  0.94286680  0.40953817  0.87844198  1
  Zr  Zr30  1  0.60713559  0.62377938  0.55543243  1
  Zr  Zr31  1  0.26622040  0.40651679  0.71571265  1
  Zr  Zr32  1  0.31091450  0.81595776  0.03571791  1
  Zr  Zr33  1  0.93116534  0.19615564  0.91563538  1
  Zr  Zr34  1  0.24505499  0.89449252  0.42210607  1
  Zr  Zr35  1  0.47642614  0.48026855  0.70004691  1
  Zr  Zr36  1  0.20003706  0.52409893  0.34136444  1
  Zr  Zr37  1  0.47217318  0.68537597  0.74965447  1
  Zr  Zr38  1  0.58508576  0.31339833  0.83886799  1
  Zr  Zr39  1  0.91799611  0.64491913  0.19968500  1
  Zr  Zr40  1  0.74996176  0.32865217  0.00831320  1
  Zr  Zr41  1  0.53664202  0.68822690  0.35733324  1
  Zr  Zr42  1  0.60914429  0.11919159  0.71345926  1
  Zr  Zr43  1  0.65792631  0.00360922  0.14293612  1
  Zr  Zr44  1  0.32786969  0.30094638  0.40002876  1
  Zr  Zr45  1  0.88769959  0.82074576  0.61126302  1
  Zr  Zr46  1  0.69494706  0.81618427  0.50955254  1
  Zr  Zr47  1  0.89588121  0.65073207  0.78772789  1
  Zr  Zr48  1  0.88169946  0.45964576  0.11252470  1
  Zr  Zr49  1  0.40643855  0.65927451  0.53037463  1
  Sc  Sc50  1  0.22720748  0.91090482  0.20788201  1
  Sc  Sc51  1  0.83771746  0.29621496  0.25233235  1
  Sc  Sc52  1  0.51499552  0.43049213  0.49532829  1
  Sc  Sc53  1  0.39317788  0.34713691  0.87976025  1
  Sc  Sc54  1  0.64314341  0.89448905  0.32072732  1
  Sc  Sc55  1  0.98461893  0.59192917  0.42987622  1
  Sc  Sc56  1  0.44181383  0.68103557  0.97122607  1
  Sc  Sc57  1  0.64548068  0.93006103  0.84353387  1
  Sc  Sc58  1  0.46289351  0.86490378  0.45127402  1
  Sc  Sc59  1  0.34077288  0.14871831  0.24642627  1
  Sc  Sc60  1  0.07192441  0.87342106  0.72893297  1
  Sc  Sc61  1  0.22931927  0.98511709  0.82788046  1
  Sc  Sc62  1  0.89775485  0.80454119  0.37009537  1
  Sc  Sc63  1  0.24631048  0.21957494  0.59059930  1
  Sc  Sc64  1  0.51235375  0.91570976  0.01778682  1
  Sc  Sc65  1  0.03996680  0.76826197  0.90941377  1
  Sc  Sc66  1  0.74066070  0.10525014  0.33139828  1
  Sc  Sc67  1  0.18447592  1.01643328  0.59842352  1
  Sc  Sc68  1  0.16843536  0.38330518  0.92332334  1
  Sc  Sc69  1  0.75432192  0.80240074  0.15773717  1
  Sc  Sc70  1  0.51186331  0.33074338  0.05727695  1
  Sc  Sc71  1  0.07469239  0.12381529  0.75138833  1
  Sc  Sc72  1  0.53810643  0.86924495  0.65231354  1
  Sc  Sc73  1  0.16561554  0.29241249  0.25288712  1
  Sc  Sc74  1  0.74276933  0.67515012  0.34589746  1
  Sc  Sc75  1  0.60542908  0.02518793  0.50211909  1
  Sc  Sc76  1  0.82461156  0.63788151  0.55699078  1
  Sc  Sc77  1  0.30658980  0.46540095  0.52195250  1
  Sc  Sc78  1  0.90463408  0.24181696  0.67491511  1
  Sc  Sc79  1  0.12921854  0.70996825  0.11880318  1
  Sc  Sc80  1  0.00235765  0.57798128  0.99069248  1
  Sc  Sc81  1  0.69726863  0.51355148  0.73152758  1
  Sc  Sc82  1  0.70190985  0.73860923  0.73214211  1
  Sc  Sc83  1  0.53820103  0.75285774  0.15777942  1
  Sc  Sc84  1  0.66272656  0.13407681  0.95176077  1
  Sc  Sc85  1  0.39626030  0.04568959  0.67105706  1
  Sc  Sc86  1  0.08184639  0.32932203  0.69494501  1
  Sc  Sc87  1  0.92114339  0.33828071  0.47246271  1
  Sc  Sc88  1  0.55933411  0.51172834  0.93270794  1
  Sc  Sc89  1  0.77331683  0.53874716  0.93699360  1
  Sc  Sc90  1  0.50887308  0.21113712  0.49353808  1
  Sc  Sc91  1  0.10200816  0.74443288  0.31919771  1
  Sc  Sc92  1  0.48435377  0.12126274  0.09726113  1
  Sc  Sc93  1  0.87766626  0.99881721  0.45474326  1
  Sc  Sc94  1  0.17729967  0.11737740  0.39332441  1
  Sc  Sc95  1  0.41803495  0.88438940  0.83632730  1
  Sc  Sc96  1  0.67927714  0.30091343  0.38727618  1
  Sc  Sc97  1  1.01365864  0.42852058  0.29230439  1
  Sc  Sc98  1  0.10592259  0.54830869  0.79295136  1
  Sc  Sc99  1  0.01749638  0.28155298  0.09435026  1
  Nb  Nb100  1  0.74202501  0.95589765  0.65041826  1
  Nb  Nb101  1  0.26535996  0.61555846  0.66949870  1
  Nb  Nb102  1  0.65048603  0.21468840  0.17336216  1
  Nb  Nb103  1  1.02385953  0.14956011  0.52856136  1
  Nb  Nb104  1  -0.00988985  0.05171989  0.09254937  1
  Nb  Nb105  1  0.85363880  0.97442497  0.23066415  1
  Nb  Nb106  1  0.85183628  0.72569363  0.99280140  1
  Nb  Nb107  1  0.21559933  0.61424867  0.96820401  1
  Nb  Nb108  1  0.67941452  0.41299032  0.17511788  1
  Nb  Nb109  1  0.35069580  0.47598510  0.02786440  1
  Nb  Nb110  1  0.15198498  0.10527378  0.16267410  1
  Nb  Nb111  1  0.40730330  0.52668727  0.34298272  1
  Nb  Nb112  1  0.11274100  0.49307003  0.56355881  1
  Nb  Nb113  1  0.53697926  0.10140310  0.30956707  1
  Nb  Nb114  1  -0.01378535  0.99049380  0.88577420  1
  Nb  Nb115  1  0.81760960  0.49036064  0.31975656  1
  Nb  Nb116  1  0.33383748  0.40193093  0.20763791  1
  Nb  Nb117  1  0.34012948  0.55147618  0.84171744  1
  Nb  Nb118  1  0.71454267  0.59960615  0.13784428  1
  Nb  Nb119  1  0.93516742  0.01652207  0.65520704  1
  Nb  Nb120  1  0.12715579  0.14115036  0.96316047  1
  Nb  Nb121  1  0.62389038  0.50730659  0.33737978  1
  Nb  Nb122  1  0.85640700  0.86152659  0.81129470  1
  Nb  Nb123  1  0.20014143  0.67880496  0.49120761  1
  Nb  Nb124  1  0.12594953  0.33016876  0.45896351  1
