# generated using pymatgen
data_Zr2Sc2Nb
_symmetry_space_group_name_H-M   'P 1'
_cell_length_a   14.30586362
_cell_length_b   14.19070312
_cell_length_c   14.17198931
_cell_angle_alpha   90.16887502
_cell_angle_beta   90.05213531
_cell_angle_gamma   90.34246372
_symmetry_Int_Tables_number   1
_chemical_formula_structural   Zr2Sc2Nb
_chemical_formula_sum   'Zr50 Sc50 Nb25'
_cell_volume   2876.99415757
_cell_formula_units_Z   25
loop_
 _symmetry_equiv_pos_site_id
 _symmetry_equiv_pos_as_xyz
  1  'x, y, z'
loop_
 _atom_site_type_symbol
 _atom_site_label
 _atom_site_symmetry_multiplicity
 _atom_site_fract_x
 _atom_site_fract_y
 _atom_site_fract_z
 _atom_site_occupancy
  Zr  Zr0  1  0.33139376  0.08731041  0.09197652  1
  Zr  Zr1  1  0.07124169  0.40047276  0.99779653  1
  Zr  Zr2  1  0.77374237  0.15031547  -0.01243087  1
  Zr  Zr3  1  0.75189003  0.17870075  0.75394766  1
  Zr  Zr4  1  0.92944189  0.14341953  0.21426497  1
  Zr  Zr5  1  0.90744720  0.59293755  0.50561890  1
  Zr  Zr6  1  0.13292745  0.21295843  0.92666461  1
  Zr  Zr7  1  0.30825610  0.66972163  0.56411776  1
  Zr  Zr8  1  0.92365076  0.72172496  0.68322093  1
  Zr  Zr9  1  0.50079200  0.50995960  0.50217929  1
  Zr  Zr10  1  0.23171707  0.88613723  0.04840217  1
  Zr  Zr11  1  0.61213605  0.63815078  0.36894201  1
  Zr  Zr12  1  0.51276560  0.42850957  0.07555618  1
  Zr  Zr13  1  0.31899825  0.71569578  0.98676387  1
  Zr  Zr14  1  0.02542021  0.67177877  0.31835890  1
  Zr  Zr15  1  0.70538646  0.33734950  0.91007697  1
  Zr  Zr16  1  0.55797759  0.24278430  0.30203709  1
  Zr  Zr17  1  0.02063900  0.82432845  0.08385290  1
  Zr  Zr18  1  0.14789977  0.16077720  0.71656115  1
  Zr  Zr19  1  0.68664649  0.06850197  0.42295757  1
  Zr  Zr20  1  0.09025190  0.47406162  0.19472747  1
  Zr  Zr21  1  0.43309919  0.03716461  0.89674793  1
  Zr  Zr22  1  0.29767850  0.98968958  0.44234620  1
  Zr  Zr23  1  0.68333652  0.36931138  0.68855697  1
  Zr  Zr24  1  0.06884417  0.48427376  0.43063566  1
  Zr  Zr25  1  0.52765292  0.19811062  0.72561995  1
  Zr  Zr26  1  0.33263837  0.25014592  0.80355692  1
  Zr  Zr27  1  0.52693344  0.74100653  0.54284783  1
  Zr  Zr28  1  0.82826370  0.78552588  0.11201604  1
  Zr  Zr29  1  0.94799362  0.44227674  0.65505238  1
  Zr  Zr30  1  0.11864635  0.60713154  -0.01364737  1
  Zr  Zr31  1  0.25039232  0.05652026  0.88985188  1
  Zr  Zr32  1  0.27066744  0.33530956  0.62184704  1
  Zr  Zr33  1  0.31586841  0.15837444  0.29654369  1
  Zr  Zr34  1  0.15792565  0.52666402  0.63432412  1
  Zr  Zr35  1  0.88297157  0.34599830  0.10624374  1
  Zr  Zr36  1  0.66878456  0.28490766  0.11928492  1
  Zr  Zr37  1  0.23793579  0.56146635  0.31057997  1
  Zr  Zr38  1  0.85890560  0.93001796  0.28154684  1
  Zr  Zr39  1  0.04241915  0.58757997  0.79666218  1
  Zr  Zr40  1  0.77283100  0.27878733  0.32571360  1
  Zr  Zr41  1  0.12044842  0.11678020  0.35113121  1
  Zr  Zr42  1  0.50779130  0.63594331  0.16232766  1
  Zr  Zr43  1  0.89142452  0.99354330  0.07418261  1
  Zr  Zr44  1  0.82878070  0.71145066  0.33828887  1
  Zr  Zr45  1  0.56398678  0.06890967  0.07283033  1
  Zr  Zr46  1  0.46355655  0.14635656  0.50553838  1
  Zr  Zr47  1  0.64416686  0.44951958  0.27131292  1
  Zr  Zr48  1  0.64708790  0.70509830  1.01231328  1
  Zr  Zr49  1  0.50728801  0.94664131  0.49739307  1
  Sc  Sc50  1  0.31123244  0.29974467  0.01213614  1
  Sc  Sc51  1  0.15805300  0.70520061  0.16641618  1
  Sc  Sc52  1  0.71207518  0.91494494  0.97943828  1
  Sc  Sc53  1  0.68123110  0.84621381  0.38709200  1
  Sc  Sc54  1  0.34916714  0.06365585  0.67396023  1
  Sc  Sc55  1  0.30795648  0.53348630  0.09428663  1
  Sc  Sc56  1  0.79353715  0.55953631  0.70830504  1
  Sc  Sc57  1  0.72166847  0.48450010  0.49857588  1
  Sc  Sc58  1  0.51505424  0.83132729  0.90963834  1
  Sc  Sc59  1  0.91017073  0.84046336  0.49332978  1
  Sc  Sc60  1  0.91554103  0.29183749  0.86041928  1
  Sc  Sc61  1  0.66483221  0.54148782  0.87088269  1
  Sc  Sc62  1  0.64512314  0.87171724  0.18127037  1
  Sc  Sc63  1  0.88886762  0.48557472  0.91016350  1
  Sc  Sc64  1  0.26366698  0.46138809  0.87582820  1
  Sc  Sc65  1  0.44252640  0.88551135  0.09892663  1
  Sc  Sc66  1  0.06836553  0.99369963  0.93752206  1
  Sc  Sc67  1  0.07912883  0.29372098  0.53202579  1
  Sc  Sc68  1  0.97983596  0.91445596  0.70087260  1
  Sc  Sc69  1  0.44599639  0.71159408  0.73542762  1
  Sc  Sc70  1  0.93101031  0.08128139  0.82352917  1
  Sc  Sc71  1  0.84781085  0.68771498  0.90456702  1
  Sc  Sc72  1  0.72205888  0.08919504  0.20868908  1
  Sc  Sc73  1  0.90526996  0.13007254  0.42010652  1
  Sc  Sc74  1  0.99404193  0.31519752  0.31162858  1
  Sc  Sc75  1  0.11427443  0.04285053  0.14124990  1
  Sc  Sc76  1  0.67294185  0.74100603  0.75552259  1
  Sc  Sc77  1  0.52111862  0.92182100  0.70909545  1
  Sc  Sc78  1  0.47113140  0.82679492  0.32037568  1
  Sc  Sc79  1  0.76803103  0.93668038  0.76435141  1
  Sc  Sc80  1  0.93638645  0.22091103  0.65355532  1
  Sc  Sc81  1  0.05876369  0.06482110  0.55468040  1
  Sc  Sc82  1  0.85798781  0.49547764  0.29566912  1
  Sc  Sc83  1  0.31123794  0.85576203  0.82066087  1
  Sc  Sc84  1  0.93102042  0.60042082  0.11349579  1
  Sc  Sc85  1  0.10411662  0.36502933  0.77458387  1
  Sc  Sc86  1  0.39430671  0.31966863  0.42124173  1
  Sc  Sc87  1  0.46175615  0.59167435  0.91280283  1
  Sc  Sc88  1  0.51783883  0.23448853  0.94896455  1
  Sc  Sc89  1  0.60797033  0.30534326  0.48850467  1
  Sc  Sc90  1  0.24601084  0.77690037  0.38152396  1
  Sc  Sc91  1  0.07327666  0.89453424  0.30298613  1
  Sc  Sc92  1  0.48981800  0.03724805  0.27987306  1
  Sc  Sc93  1  0.49628987  0.40419583  0.82513108  1
  Sc  Sc94  1  0.62402782  0.05741631  0.85531999  1
  Sc  Sc95  1  0.73043385  0.50215592  0.07191061  1
  Sc  Sc96  1  0.13403301  0.25365324  0.15835726  1
  Sc  Sc97  1  0.12936157  0.87861986  0.52468659  1
  Sc  Sc98  1  0.10104422  0.79323634  0.87620628  1
  Sc  Sc99  1  0.30809560  0.36262615  0.21484581  1
  Nb  Nb100  1  0.70267179  0.88573675  0.58016655  1
  Nb  Nb101  1  0.09260745  0.67696873  0.50981270  1
  Nb  Nb102  1  0.88424215  0.36404845  0.48046251  1
  Nb  Nb103  1  0.45826067  0.23645577  0.14818544  1
  Nb  Nb104  1  0.40806200  0.64254779  0.37539808  1
  Nb  Nb105  1  0.76671713  0.22272651  0.54796184  1
  Nb  Nb106  1  0.24978566  0.17104301  0.50942857  1
  Nb  Nb107  1  0.14875651  0.75451387  0.68316714  1
  Nb  Nb108  1  0.19541389  0.33271729  0.37398004  1
  Nb  Nb109  1  0.32907378  0.86078608  0.60681617  1
  Nb  Nb110  1  0.28390550  0.93857048  0.24278877  1
  Nb  Nb111  1  0.16828246  0.95929106  0.72267730  1
  Nb  Nb112  1  0.63881466  0.07449850  0.61886607  1
  Nb  Nb113  1  0.83638538  0.03655121  0.59493284  1
  Nb  Nb114  1  0.29735373  0.48285182  0.47966047  1
  Nb  Nb115  1  0.97494459  0.18089926  0.02724410  1
  Nb  Nb116  1  0.34060861  0.73063539  0.19730874  1
  Nb  Nb117  1  0.90556912  0.87321099  0.90376077  1
  Nb  Nb118  1  0.37392057  0.51604260  0.69137554  1
  Nb  Nb119  1  0.58185110  0.55609314  0.67458640  1
  Nb  Nb120  1  0.44981641  0.47492068  0.29156628  1
  Nb  Nb121  1  0.73251772  0.69337746  0.54838650  1
  Nb  Nb122  1  0.25400918  0.64624784  0.79743318  1
  Nb  Nb123  1  0.46477250  0.35561279  0.62511246  1
  Nb  Nb124  1  0.70722076  0.65669306  0.20104761  1
