# generated using pymatgen
data_Zr2Sc2Nb
_symmetry_space_group_name_H-M   'P 1'
_cell_length_a   14.44827519
_cell_length_b   14.17962554
_cell_length_c   14.04875789
_cell_angle_alpha   90.26013388
_cell_angle_beta   88.61530673
_cell_angle_gamma   90.65430131
_symmetry_Int_Tables_number   1
_chemical_formula_structural   Zr2Sc2Nb
_chemical_formula_sum   'Zr50 Sc50 Nb25'
_cell_volume   2877.13065389
_cell_formula_units_Z   25
loop_
 _symmetry_equiv_pos_site_id
 _symmetry_equiv_pos_as_xyz
  1  'x, y, z'
loop_
 _atom_site_type_symbol
 _atom_site_label
 _atom_site_symmetry_multiplicity
 _atom_site_fract_x
 _atom_site_fract_y
 _atom_site_fract_z
 _atom_site_occupancy
  Zr  Zr0  1  0.37331857  0.02175889  0.25566067  1
  Zr  Zr1  1  0.68149945  -0.00842355  0.36391897  1
  Zr  Zr2  1  0.10523355  0.92642279  1.00092745  1
  Zr  Zr3  1  0.83786870  0.55173475  0.63256966  1
  Zr  Zr4  1  0.59480701  0.28544457  0.31021880  1
  Zr  Zr5  1  0.38614056  0.28979868  0.94036221  1
  Zr  Zr6  1  0.14903167  0.26452248  0.49460016  1
  Zr  Zr7  1  0.90011082  0.47857918  0.19180985  1
  Zr  Zr8  1  0.30951306  0.64962983  0.09594893  1
  Zr  Zr9  1  0.97788568  0.65897338  0.29893345  1
  Zr  Zr10  1  1.00114866  0.40123108  0.57304161  1
  Zr  Zr11  1  0.49037902  0.46880832  0.82978139  1
  Zr  Zr12  1  0.94338435  0.92722534  0.86712808  1
  Zr  Zr13  1  0.75157284  0.47878983  0.02659574  1
  Zr  Zr14  1  0.27354886  0.06387007  0.96521626  1
  Zr  Zr15  1  0.86447038  0.97367984  0.45908173  1
  Zr  Zr16  1  0.01502583  0.83689740  0.40879824  1
  Zr  Zr17  1  0.93980228  0.76851626  0.69612572  1
  Zr  Zr18  1  0.59485532  0.84783228  0.89655474  1
  Zr  Zr19  1  0.64590766  0.10600824  0.00930017  1
  Zr  Zr20  1  0.89565937  0.50783861  0.42928004  1
  Zr  Zr21  1  0.76619705  0.61284367  0.30698859  1
  Zr  Zr22  1  0.71412059  0.45102039  0.82136394  1
  Zr  Zr23  1  0.62024358  0.45913626  0.64767221  1
  Zr  Zr24  1  0.31965712  0.57330128  0.31963575  1
  Zr  Zr25  1  0.83840121  0.83529487  0.28501394  1
  Zr  Zr26  1  0.07122427  0.13439774  0.06445138  1
  Zr  Zr27  1  0.79433437  0.75979962  0.92341416  1
  Zr  Zr28  1  0.57475102  0.10164374  0.21931857  1
  Zr  Zr29  1  0.77085247  0.08512929  0.62245083  1
  Zr  Zr30  1  0.10746587  0.28295877  0.71590653  1
  Zr  Zr31  1  0.31273434  0.86703502  0.07134018  1
  Zr  Zr32  1  0.13568306  0.85460220  0.57016773  1
  Zr  Zr33  1  0.47874565  0.53567838  0.47439163  1
  Zr  Zr34  1  0.89901171  0.38097069  0.76926555  1
  Zr  Zr35  1  0.70675501  0.68655705  0.12785231  1
  Zr  Zr36  1  0.37541842  0.90841678  0.86080514  1
  Zr  Zr37  1  0.79497582  0.34095244  0.56823245  1
  Zr  Zr38  1  0.53818141  0.63392299  0.27538968  1
  Zr  Zr39  1  0.63282259  0.62664896  0.91528968  1
  Zr  Zr40  1  0.00929237  0.97586104  0.22618473  1
  Zr  Zr41  1  0.38429723  0.23887882  0.29865863  1
  Zr  Zr42  1  0.66139578  0.64162516  0.51677688  1
  Zr  Zr43  1  0.93555668  0.19064097  0.48683750  1
  Zr  Zr44  1  0.71569543  0.69290981  0.72520298  1
  Zr  Zr45  1  0.91090139  0.64144153  0.07791796  1
  Zr  Zr46  1  0.07441599  0.09523461  0.83924286  1
  Zr  Zr47  1  0.22854419  0.73817607  0.90810863  1
  Zr  Zr48  1  0.49765853  0.95931207  0.04536478  1
  Zr  Zr49  1  0.28040142  0.08469188  0.44102393  1
  Sc  Sc50  1  0.90640927  0.27465381  0.11828434  1
  Sc  Sc51  1  0.76550005  0.90318844  0.74250046  1
  Sc  Sc52  1  0.80483378  0.33260865  0.31852153  1
  Sc  Sc53  1  0.70539529  0.27769728  0.12090373  1
  Sc  Sc54  1  0.50725806  0.74383575  0.08387964  1
  Sc  Sc55  1  0.58814760  0.28989456  0.92382064  1
  Sc  Sc56  1  0.18597157  0.92358415  0.32291386  1
  Sc  Sc57  1  0.15947071  0.90199900  0.78111098  1
  Sc  Sc58  1  0.29332681  0.36316077  0.75794269  1
  Sc  Sc59  1  0.27478067  0.64159449  0.53234762  1
  Sc  Sc60  1  0.12074888  0.78020042  0.16198778  1
  Sc  Sc61  1  0.49604607  0.94314198  0.47549660  1
  Sc  Sc62  1  0.46857769  0.74142932  0.46424791  1
  Sc  Sc63  1  0.66801648  0.45549893  0.42421941  1
  Sc  Sc64  1  0.21585453  0.36446459  0.29507013  1
  Sc  Sc65  1  0.90489583  0.85725428  0.07769317  1
  Sc  Sc66  1  0.29284452  0.15486700  0.77903652  1
  Sc  Sc67  1  0.11821675  0.16035730  0.28902906  1
  Sc  Sc68  1  0.53736417  0.90431152  0.70587564  1
  Sc  Sc69  1  0.96442280  0.98925735  0.65254211  1
  Sc  Sc70  1  0.08915098  0.36675038  0.11141384  1
  Sc  Sc71  1  0.87022032  0.07886945  0.04672486  1
  Sc  Sc72  1  0.52468287  0.31351123  0.51696670  1
  Sc  Sc73  1  0.00980083  0.34499251  0.33461127  1
  Sc  Sc74  1  0.50870817  0.65227898  0.68335717  1
  Sc  Sc75  1  0.35900684  1.01213259  0.63559272  1
  Sc  Sc76  1  0.88483348  0.59021285  0.84564128  1
  Sc  Sc77  1  0.29675022  0.50197703  0.93160068  1
  Sc  Sc78  1  0.08848220  0.49040859  0.80855147  1
  Sc  Sc79  1  0.51974090  0.87957287  0.26341306  1
  Sc  Sc80  1  0.10551161  0.57227934  1.01128636  1
  Sc  Sc81  1  0.55316935  0.11474165  0.62066619  1
  Sc  Sc82  1  0.30079581  0.58940456  0.74393659  1
  Sc  Sc83  1  0.32458502  0.43363635  0.12952337  1
  Sc  Sc84  1  0.68691394  0.86551094  0.54863631  1
  Sc  Sc85  1  0.02334854  0.73880850  0.90303583  1
  Sc  Sc86  1  0.43050697  0.69040594  0.88999980  1
  Sc  Sc87  1  0.31964174  0.39576622  0.46345876  1
  Sc  Sc88  1  0.86215035  0.11623072  0.28536276  1
  Sc  Sc89  1  0.13591772  0.55523199  0.21725823  1
  Sc  Sc90  1  0.15228463  0.08703186  0.62313032  1
  Sc  Sc91  1  0.03908489  0.64372129  0.54019714  1
  Sc  Sc92  1  0.84475586  0.73200938  0.48932980  1
  Sc  Sc93  1  0.26099625  0.22602850  0.12360283  1
  Sc  Sc94  1  0.70365396  0.17989152  0.45369870  1
  Sc  Sc95  1  0.51308357  0.51583127  0.06264738  1
  Sc  Sc96  1  0.34076360  0.78083326  0.27035624  1
  Sc  Sc97  1  0.32848389  0.79707083  0.67596123  1
  Sc  Sc98  1  0.17259184  0.29485230  0.92836065  1
  Sc  Sc99  1  0.69486886  0.91072106  0.14235607  1
  Nb  Nb100  1  0.93949492  0.43206861  -0.02568752  1
  Nb  Nb101  1  0.46645176  0.43667352  0.28953412  1
  Nb  Nb102  1  0.41180729  0.44922764  0.63716207  1
  Nb  Nb103  1  0.66294338  0.78087546  0.35609025  1
  Nb  Nb104  1  0.92746665  0.20357970  0.69516153  1
  Nb  Nb105  1  0.30299030  0.86763833  0.46688786  1
  Nb  Nb106  1  0.48930358  0.12841989  0.42018352  1
  Nb  Nb107  1  0.65700647  0.46564880  0.20865725  1
  Nb  Nb108  1  0.49071896  0.27214294  0.73764321  1
  Nb  Nb109  1  0.47257066  0.09291083  0.86128292  1
  Nb  Nb110  1  0.34825348  0.22783863  0.58424552  1
  Nb  Nb111  1  0.20897039  0.02061775  0.15040689  1
  Nb  Nb112  1  0.12810934  0.50377459  0.42413627  1
  Nb  Nb113  1  0.16905413  0.71306215  0.37390847  1
  Nb  Nb114  1  0.43367820  0.13915189  0.07357567  1
  Nb  Nb115  1  0.13052181  0.68733964  0.71824356  1
  Nb  Nb116  1  0.64826122  0.08057628  0.80831254  1
  Nb  Nb117  1  0.05948548  0.03696505  0.44546882  1
  Nb  Nb118  1  0.74979759  0.95225403  0.94444481  1
  Nb  Nb119  1  0.18472985  0.46954349  0.61365754  1
  Nb  Nb120  1  0.84193495  0.09907580  0.82984273  1
  Nb  Nb121  1  0.70582809  0.25573973  0.73100228  1
  Nb  Nb122  1  0.50058737  0.31084673  0.12749740  1
  Nb  Nb123  1  0.79007837  0.26457529  0.91974821  1
  Nb  Nb124  1  0.97649067  0.24751908  0.91036950  1
