# generated using pymatgen
data_Zr2Sc2Nb
_symmetry_space_group_name_H-M   'P 1'
_cell_length_a   14.23157557
_cell_length_b   14.27782769
_cell_length_c   14.10778518
_cell_angle_alpha   90.29347996
_cell_angle_beta   87.09074152
_cell_angle_gamma   90.49327777
_symmetry_Int_Tables_number   1
_chemical_formula_structural   Zr2Sc2Nb
_chemical_formula_sum   'Zr50 Sc50 Nb25'
_cell_volume   2862.81306205
_cell_formula_units_Z   25
loop_
 _symmetry_equiv_pos_site_id
 _symmetry_equiv_pos_as_xyz
  1  'x, y, z'
loop_
 _atom_site_type_symbol
 _atom_site_label
 _atom_site_symmetry_multiplicity
 _atom_site_fract_x
 _atom_site_fract_y
 _atom_site_fract_z
 _atom_site_occupancy
  Zr  Zr0  1  0.64260079  0.02573225  0.27160763  1
  Zr  Zr1  1  0.13439564  0.07923856  0.00771695  1
  Zr  Zr2  1  0.96071383  0.51658464  0.26531824  1
  Zr  Zr3  1  0.55104533  0.69246618  0.90587683  1
  Zr  Zr4  1  0.35177738  0.07406524  0.49330587  1
  Zr  Zr5  1  0.59590870  0.58485130  0.53341720  1
  Zr  Zr6  1  0.39585505  1.00423539  0.90607162  1
  Zr  Zr7  1  0.95892713  0.16887009  0.64874918  1
  Zr  Zr8  1  0.86897620  0.30754958  0.26538192  1
  Zr  Zr9  1  0.75253426  0.12604715  0.40687187  1
  Zr  Zr10  1  0.17677340  0.48282249  0.18237667  1
  Zr  Zr11  1  0.44395818  0.19327829  0.96304479  1
  Zr  Zr12  1  0.49105388  0.41462212  0.48866475  1
  Zr  Zr13  1  0.56104089  0.32006203  0.83704180  1
  Zr  Zr14  1  0.17717835  0.16819502  0.67507864  1
  Zr  Zr15  1  0.34767640  0.39062407  0.91289491  1
  Zr  Zr16  1  0.14536258  0.63904680  0.55914372  1
  Zr  Zr17  1  0.06069285  0.98100071  0.67676865  1
  Zr  Zr18  1  0.94207174  0.46406616  0.93098379  1
  Zr  Zr19  1  0.52645377  0.20865837  0.57444069  1
  Zr  Zr20  1  0.26506281  0.19029821  0.87093174  1
  Zr  Zr21  1  0.40314184  0.31974292  0.71165023  1
  Zr  Zr22  1  0.95791203  0.70254695  0.88112349  1
  Zr  Zr23  1  0.09727588  0.09446890  0.22977372  1
  Zr  Zr24  1  0.66242617  0.55312683  0.76094446  1
  Zr  Zr25  1  0.77632883  0.24272975  0.06818764  1
  Zr  Zr26  1  0.22257143  0.91638405  0.07253666  1
  Zr  Zr27  1  0.19342673  0.82821398  0.46408456  1
  Zr  Zr28  1  0.94373570  0.18784529  0.42720698  1
  Zr  Zr29  1  0.72661166  -0.01144845  0.06983528  1
  Zr  Zr30  1  0.30008358  0.49836377  0.56002121  1
  Zr  Zr31  1  0.55307067  0.61357323  0.32237959  1
  Zr  Zr32  1  0.01897911  0.91241764  0.90727089  1
  Zr  Zr33  1  0.84459747  0.09856237  0.21060816  1
  Zr  Zr34  1  0.21310238  0.97150472  0.82356222  1
  Zr  Zr35  1  0.56433434  0.13757807  0.12695591  1
  Zr  Zr36  1  0.69596532  0.92555618  0.66666855  1
  Zr  Zr37  1  0.49499241  0.94598153  0.09529820  1
  Zr  Zr38  1  0.79074109  0.52510708  0.55207684  1
  Zr  Zr39  1  0.38356722  0.81220647  0.98988580  1
  Zr  Zr40  1  0.16330209  0.51760384  0.96022941  1
  Zr  Zr41  1  0.77286614  0.27549465  0.77182573  1
  Zr  Zr42  1  0.50605809  0.21329391  0.36736062  1
  Zr  Zr43  1  0.74925386  0.65885502  0.19645438  1
  Zr  Zr44  1  0.70208148  0.32604476  0.44862570  1
  Zr  Zr45  1  -0.02860455  0.82977855  0.50468397  1
  Zr  Zr46  1  0.74812647  0.74082782  0.79830312  1
  Zr  Zr47  1  0.55284939  0.41497863  0.27170860  1
  Zr  Zr48  1  0.56687814  0.10779433  0.75816826  1
  Zr  Zr49  1  -0.00499761  0.20581260  0.09002684  1
  Sc  Sc50  1  0.10565186  0.87578985  0.26634817  1
  Sc  Sc51  1  0.74272041  0.49438106  0.33494641  1
  Sc  Sc52  1  0.34503606  0.83240618  0.23175342  1
  Sc  Sc53  1  0.94803619  0.62666679  0.44955961  1
  Sc  Sc54  1  0.75135084  0.90143116  0.44341843  1
  Sc  Sc55  1  0.25478740  -0.00679337  0.32235282  1
  Sc  Sc56  1  0.41180220  0.26974197  0.18221251  1
  Sc  Sc57  1  0.35618716  0.60658346  0.92628807  1
  Sc  Sc58  1  0.45141316  0.53242856  0.72492914  1
  Sc  Sc59  1  0.33625208  0.42507180  0.33646890  1
  Sc  Sc60  1  0.56777021  0.78838989  0.48634592  1
  Sc  Sc61  1  0.20274027  0.39172015  0.72718989  1
  Sc  Sc62  1  0.21925205  0.27604798  0.09632530  1
  Sc  Sc63  1  0.89796379  0.86334116  0.71372559  1
  Sc  Sc64  1  0.10797349  0.04811847  0.47946755  1
  Sc  Sc65  1  0.99674922  0.60673568  0.08304637  1
  Sc  Sc66  1  0.83304976  0.06077825  0.78218484  1
  Sc  Sc67  1  0.08342954  0.31172603  0.28757607  1
  Sc  Sc68  1  0.10967395  0.31812718  0.91994442  1
  Sc  Sc69  1  0.46903993  0.92848869  0.64877829  1
  Sc  Sc70  1  0.85476560  0.48155400  0.75369989  1
  Sc  Sc71  1  0.76192156  0.60849055  0.96130585  1
  Sc  Sc72  1  0.63486357  0.38243621  0.64609829  1
  Sc  Sc73  1  0.09885057  0.30139328  0.52469196  1
  Sc  Sc74  1  0.35122887  0.79601748  0.78142561  1
  Sc  Sc75  1  0.80006142  0.44917490  0.11994626  1
  Sc  Sc76  1  0.56870317  0.82540932  0.27428077  1
  Sc  Sc77  1  0.36910458  0.10348925  0.70640381  1
  Sc  Sc78  1  0.65262387  0.78692555  0.05775128  1
  Sc  Sc79  1  0.93432571  0.97598392  0.34912339  1
  Sc  Sc80  1  0.72987913  0.14727726  0.60944180  1
  Sc  Sc81  1  0.33572729  0.65142784  0.37424496  1
  Sc  Sc82  1  0.46930667  0.68074351  0.12871705  1
  Sc  Sc83  1  0.93104988  0.75328296  0.26931933  1
  Sc  Sc84  1  0.26947538  0.20081307  0.32600672  1
  Sc  Sc85  1  0.57890301  0.34225209  0.06161874  1
  Sc  Sc86  1  0.12529631  0.78055311  0.71020242  1
  Sc  Sc87  1  0.56349284  0.01690924  0.47707357  1
  Sc  Sc88  1  0.59614423  0.91279235  0.87489853  1
  Sc  Sc89  1  0.24272486  0.67651808  0.11376958  1
  Sc  Sc90  1  0.17567658  0.73606808  0.90987630  1
  Sc  Sc91  1  0.31855023  0.28261031  0.52380985  1
  Sc  Sc92  1  0.55980571  0.73802318  0.69544062  1
  Sc  Sc93  1  0.12804432  0.67282057  0.30525397  1
  Sc  Sc94  1  0.93442686  0.66410987  0.66445658  1
  Sc  Sc95  1  0.86602666  0.78970936  0.05729151  1
  Sc  Sc96  1  0.39507231  0.48059517  0.11375610  1
  Sc  Sc97  1  0.36009741  0.72017302  0.57995444  1
  Sc  Sc98  1  0.13536548  0.48603262  0.40875291  1
  Sc  Sc99  1  0.67628893  0.13885610  0.92457649  1
  Nb  Nb100  1  0.77818263  0.87530874  0.23306811  1
  Nb  Nb101  1  0.24972753  0.60154829  0.74523957  1
  Nb  Nb102  1  0.00328274  0.33460779  0.74426783  1
  Nb  Nb103  1  0.26132816  0.93459348  0.61570618  1
  Nb  Nb104  1  0.61410976  0.54359442  0.10570358  1
  Nb  Nb105  1  0.75919655  0.73671526  0.58471223  1
  Nb  Nb106  1  0.85979904  0.32934749  0.58803348  1
  Nb  Nb107  1  0.32807502  0.08177566  0.12305203  1
  Nb  Nb108  1  0.06949446  0.55288402  0.77777053  1
  Nb  Nb109  1  0.39375899  0.88159916  0.43539954  1
  Nb  Nb110  1  0.53871085  0.50019869  0.93255462  1
  Nb  Nb111  1  0.06700892  0.79094024  0.08415629  1
  Nb  Nb112  1  0.44187484  0.03597800  0.28488392  1
  Nb  Nb113  1  -0.03220584  0.95835398  0.12352246  1
  Nb  Nb114  1  0.90269024  0.26326023  0.90928705  1
  Nb  Nb115  1  0.04211741  0.13039857  0.83878911  1
  Nb  Nb116  1  0.72652137  0.40687508  0.92501222  1
  Nb  Nb117  1  1.01404476  0.39465433  0.10155365  1
  Nb  Nb118  1  0.74637156  0.69908171  0.39486650  1
  Nb  Nb119  1  0.80637646  0.89723579  0.90484828  1
  Nb  Nb120  1  0.01800042  0.47719138  0.60029933  1
  Nb  Nb121  1  0.88255772  1.00969552  0.55733629  1
  Nb  Nb122  1  0.92971606  0.40720778  0.43053839  1
  Nb  Nb123  1  0.89534636  0.07020999  -0.01971855  1
  Nb  Nb124  1  0.67449479  0.25586113  0.24992264  1
