# generated using pymatgen
data_Zr2Sc2Nb
_symmetry_space_group_name_H-M   'P 1'
_cell_length_a   13.93611827
_cell_length_b   13.81571490
_cell_length_c   14.91004264
_cell_angle_alpha   89.79980171
_cell_angle_beta   90.80987340
_cell_angle_gamma   90.01653176
_symmetry_Int_Tables_number   1
_chemical_formula_structural   Zr2Sc2Nb
_chemical_formula_sum   'Zr50 Sc50 Nb25'
_cell_volume   2870.43700954
_cell_formula_units_Z   25
loop_
 _symmetry_equiv_pos_site_id
 _symmetry_equiv_pos_as_xyz
  1  'x, y, z'
loop_
 _atom_site_type_symbol
 _atom_site_label
 _atom_site_symmetry_multiplicity
 _atom_site_fract_x
 _atom_site_fract_y
 _atom_site_fract_z
 _atom_site_occupancy
  Zr  Zr0  1  0.06206600  0.12790611  0.77583601  1
  Zr  Zr1  1  0.64192809  0.07962128  0.66338728  1
  Zr  Zr2  1  0.51275818  0.29350480  0.47065116  1
  Zr  Zr3  1  0.85166891  0.12062406  0.21573478  1
  Zr  Zr4  1  0.67669728  0.25130957  0.98029150  1
  Zr  Zr5  1  0.30020391  0.24809779  0.88373148  1
  Zr  Zr6  1  0.46665732  0.08913018  0.36483019  1
  Zr  Zr7  1  0.78510858  0.43007536  0.50447402  1
  Zr  Zr8  1  0.29140667  0.21899655  0.46038333  1
  Zr  Zr9  1  0.14899213  0.52290164  0.38666561  1
  Zr  Zr10  1  0.23754658  0.10491970  0.65784040  1
  Zr  Zr11  1  0.52501406  0.53696647  0.96315443  1
  Zr  Zr12  1  0.87404674  0.12348769  0.94723700  1
  Zr  Zr13  1  0.56610823  0.74268767  0.86799315  1
  Zr  Zr14  1  0.04236889  0.46213417  0.20454912  1
  Zr  Zr15  1  0.97998118  0.92315629  0.66468385  1
  Zr  Zr16  1  0.85009183  0.09872138  0.74482941  1
  Zr  Zr17  1  0.35305972  0.95130173  0.06410278  1
  Zr  Zr18  1  0.34630404  0.44788016  0.87244123  1
  Zr  Zr19  1  0.46998470  0.31684121  0.04286917  1
  Zr  Zr20  1  0.05613521  0.63421676  0.04960528  1
  Zr  Zr21  1  0.48329898  0.09771481  0.16224976  1
  Zr  Zr22  1  0.84255791  0.99009299  0.37958401  1
  Zr  Zr23  1  0.15195140  0.56410591  0.79199091  1
  Zr  Zr24  1  0.94977516  0.62579874  0.50780964  1
  Zr  Zr25  1  0.34186399  0.93813800  0.27777458  1
  Zr  Zr26  1  0.52063472  0.69059250  0.42340225  1
  Zr  Zr27  1  0.46164434  0.12636377  0.76686064  1
  Zr  Zr28  1  0.97618837  0.91243001  0.23670888  1
  Zr  Zr29  1  0.41030264  0.50979392  0.34837591  1
  Zr  Zr30  1  0.41114462  0.49461730  0.13220636  1
  Zr  Zr31  1  0.25924401  0.15297987  0.06495769  1
  Zr  Zr32  1  0.27610678  0.04760073  0.86167545  1
  Zr  Zr33  1  0.35482309  0.51596742  0.67930288  1
  Zr  Zr34  1  0.90305446  0.32487681  0.28562605  1
  Zr  Zr35  1  0.22655574  0.56373244  0.19213787  1
  Zr  Zr36  1  0.65356468  0.06473982  0.46370189  1
  Zr  Zr37  1  0.76316027  0.88880685  0.72277761  1
  Zr  Zr38  1  0.50011985  0.65121015  0.21897553  1
  Zr  Zr39  1  0.70819769  0.25796375  0.78360014  1
  Zr  Zr40  1  0.87349613  0.76416825  0.35971253  1
  Zr  Zr41  1  0.93588079  0.53972250  0.86039752  1
  Zr  Zr42  1  0.67087540  0.85206666  0.37728913  1
  Zr  Zr43  1  0.23063308  0.82352515  0.93570288  1
  Zr  Zr44  1  0.35208868  0.92389048  0.68758786  1
  Zr  Zr45  1  0.16181334  0.98321529  0.16235676  1
  Zr  Zr46  1  0.55618033  0.33858653  0.65582209  1
  Zr  Zr47  1  0.69453095  0.05749532  0.07512097  1
  Zr  Zr48  1  0.73455265  0.62688874  0.87153467  1
  Zr  Zr49  1  0.92874073  0.27835333  0.64656605  1
  Sc  Sc50  1  0.62523196  0.46791141  0.34709904  1
  Sc  Sc51  1  0.47533282  0.30037244  0.26315467  1
  Sc  Sc52  1  0.72182842  0.63745469  0.47096559  1
  Sc  Sc53  1  0.37069432  0.85071314  0.48140799  1
  Sc  Sc54  1  0.88871396  0.30075305  0.07348526  1
  Sc  Sc55  1  0.24790853  0.72756999  0.67271088  1
  Sc  Sc56  1  0.26210772  0.36655721  0.27271670  1
  Sc  Sc57  1  0.12333826  0.35098572  0.78888163  1
  Sc  Sc58  1  0.74464582  0.87836749  0.18450461  1
  Sc  Sc59  1  0.25194137  0.59476276  -0.01046775  1
  Sc  Sc60  1  0.26810086  0.14851829  0.26934985  1
  Sc  Sc61  1  0.76272117  0.46262529  0.71031519  1
  Sc  Sc62  1  0.90177457  0.20237944  0.44748192  1
  Sc  Sc63  1  0.67250360  0.25753825  0.17569255  1
  Sc  Sc64  1  0.13360522  0.30787596  0.58569918  1
  Sc  Sc65  1  0.06148308  0.09212302  0.53602256  1
  Sc  Sc66  1  0.30970368  0.71394064  0.32513070  1
  Sc  Sc67  1  0.69995684  0.25180537  0.36804680  1
  Sc  Sc68  1  0.52929487  0.87353700  0.21732874  1
  Sc  Sc69  1  0.46380149  0.71326575  0.64182776  1
  Sc  Sc70  1  0.47541271  0.11477150  0.96501868  1
  Sc  Sc71  1  0.90810796  0.32185120  0.85288446  1
  Sc  Sc72  1  0.73274359  0.23967065  0.57542735  1
  Sc  Sc73  1  0.66515782  0.70107993  0.06000052  1
  Sc  Sc74  1  0.55403941  0.90329006  0.74704938  1
  Sc  Sc75  1  0.24468875  0.37099524  0.06097223  1
  Sc  Sc76  1  0.10072088  0.01118053  0.95559287  1
  Sc  Sc77  1  0.14939768  0.53534074  0.58698377  1
  Sc  Sc78  1  0.65540942  0.05436107  0.86868095  1
  Sc  Sc79  1  0.55360234  0.52630920  0.76642327  1
  Sc  Sc80  1  0.42738765  0.73454783  0.03940962  1
  Sc  Sc81  1  0.05905335  0.42900322  0.99092302  1
  Sc  Sc82  1  0.87991864  0.53745223  0.32559271  1
  Sc  Sc83  1  0.64000868  0.47099406  0.12459066  1
  Sc  Sc84  1  0.32010714  0.41539211  0.50033869  1
  Sc  Sc85  1  0.60110962  0.87454404  0.55793516  1
  Sc  Sc86  1  0.88909807  0.71912272  0.15493942  1
  Sc  Sc87  1  0.67065066  0.68172396  0.66227218  1
  Sc  Sc88  1  0.36734529  0.67985524  0.83376733  1
  Sc  Sc89  1  0.87692505  0.69216633  0.72383400  1
  Sc  Sc90  1  0.23183815  0.77631681  0.14398263  1
  Sc  Sc91  1  0.44512818  0.08749579  0.56554139  1
  Sc  Sc92  1  0.34618096  0.29595164  0.68232802  1
  Sc  Sc93  1  0.73560385  0.86835459  0.93238511  1
  Sc  Sc94  1  0.70408589  0.65919875  0.26115058  1
  Sc  Sc95  1  0.06999147  0.70409370  0.27798219  1
  Sc  Sc96  1  0.93825499  0.92068626  0.86195103  1
  Sc  Sc97  1  0.06071620  0.09502316  0.32601997  1
  Sc  Sc98  1  0.84728852  0.52659486  0.05581422  1
  Sc  Sc99  1  0.05748458  0.74046886  0.84838183  1
  Nb  Nb100  1  0.41985297  0.90545912  0.88339127  1
  Nb  Nb101  1  0.17391932  0.90204678  0.57053724  1
  Nb  Nb102  1  0.65465352  0.05558254  0.27129919  1
  Nb  Nb103  1  0.55785513  0.91229040  0.02214613  1
  Nb  Nb104  1  0.05054213  0.73017122  0.63945225  1
  Nb  Nb105  1  0.88587264  0.73100146  0.96045715  1
  Nb  Nb106  1  0.71178575  0.43203069  0.91359829  1
  Nb  Nb107  1  0.51777158  0.32473624  0.85296928  1
  Nb  Nb108  1  0.09135695  0.26208787  0.17523244  1
  Nb  Nb109  1  0.98319358  0.41265076  0.47423579  1
  Nb  Nb110  1  0.33286996  0.62525274  0.50460657  1
  Nb  Nb111  1  0.10050580  0.29880575  0.37665721  1
  Nb  Nb112  1  0.00296634  0.87725324  0.46870614  1
  Nb  Nb113  1  1.01220023  0.10291266  0.10617768  1
  Nb  Nb114  1  0.53041924  0.51620442  0.53992308  1
  Nb  Nb115  1  0.82445876  0.81655173  0.54639914  1
  Nb  Nb116  1  0.04520573  0.83680566  0.05109935  1
  Nb  Nb117  1  0.83497911  0.02775520  0.56505927  1
  Nb  Nb118  1  0.97179130  0.48594962  0.66858241  1
  Nb  Nb119  1  0.08725765  0.22350528  0.96339037  1
  Nb  Nb120  1  0.15413104  0.72572274  0.47354393  1
  Nb  Nb121  1  0.88842564  0.94558712  0.05714118  1
  Nb  Nb122  1  0.16218213  0.89040995  0.35456316  1
  Nb  Nb123  1  0.15482534  0.91324771  0.76330309  1
  Nb  Nb124  1  0.25772314  0.02916738  0.45090175  1
