# generated using pymatgen
data_Zr2Sc2Nb
_symmetry_space_group_name_H-M   'P 1'
_cell_length_a   14.08714960
_cell_length_b   14.33112451
_cell_length_c   14.22730384
_cell_angle_alpha   89.36419332
_cell_angle_beta   90.39931112
_cell_angle_gamma   90.88427050
_symmetry_Int_Tables_number   1
_chemical_formula_structural   Zr2Sc2Nb
_chemical_formula_sum   'Zr50 Sc50 Nb25'
_cell_volume   2871.68962019
_cell_formula_units_Z   25
loop_
 _symmetry_equiv_pos_site_id
 _symmetry_equiv_pos_as_xyz
  1  'x, y, z'
loop_
 _atom_site_type_symbol
 _atom_site_label
 _atom_site_symmetry_multiplicity
 _atom_site_fract_x
 _atom_site_fract_y
 _atom_site_fract_z
 _atom_site_occupancy
  Zr  Zr0  1  0.77356695  0.32958663  0.00424905  1
  Zr  Zr1  1  0.14656327  0.71167911  0.12408511  1
  Zr  Zr2  1  0.57963962  0.43744090  0.53014140  1
  Zr  Zr3  1  0.69922703  0.72866290  0.85644524  1
  Zr  Zr4  1  0.37851235  0.17170795  0.96946113  1
  Zr  Zr5  1  0.84783253  0.75226609  0.39101092  1
  Zr  Zr6  1  0.65776595  0.94873245  0.21157328  1
  Zr  Zr7  1  0.62600576  0.78681783  0.41960366  1
  Zr  Zr8  1  0.83755411  0.89910359  0.75526736  1
  Zr  Zr9  1  0.42326066  0.10930872  0.75716867  1
  Zr  Zr10  1  0.30825153  0.27946105  0.78099689  1
  Zr  Zr11  1  0.82570899  0.83045515  0.18223047  1
  Zr  Zr12  1  0.89237451  0.68816779  0.77805325  1
  Zr  Zr13  1  0.92008549  0.16493794  0.01055639  1
  Zr  Zr14  1  0.49832889  0.94184930  0.09472211  1
  Zr  Zr15  1  0.88315596  0.88711165  0.54399465  1
  Zr  Zr16  1  0.07694453  0.49540391  0.09765341  1
  Zr  Zr17  1  0.31677239  0.21427572  0.57015231  1
  Zr  Zr18  1  0.25055459  0.75927941  0.54085777  1
  Zr  Zr19  1  0.36996709  0.27588879  0.16930271  1
  Zr  Zr20  1  0.62742573  0.14444813  0.67836424  1
  Zr  Zr21  1  0.20193452  0.83130232  0.73507518  1
  Zr  Zr22  1  0.70280301  0.44143614  0.34884583  1
  Zr  Zr23  1  0.39279864  0.13096329  0.35490318  1
  Zr  Zr24  1  0.26317648  -0.00136185  0.62293827  1
  Zr  Zr25  1  0.18041934  0.85041732  0.96887806  1
  Zr  Zr26  1  0.96356499  0.28718650  0.56896836  1
  Zr  Zr27  1  0.57503773  0.68907173  0.06052429  1
  Zr  Zr28  1  0.36733402  0.76102269  0.06312050  1
  Zr  Zr29  1  0.69390863  0.11099150  0.06609129  1
  Zr  Zr30  1  0.21560561  0.03825456  0.81547176  1
  Zr  Zr31  1  0.72604425  0.26554492  0.52185348  1
  Zr  Zr32  1  0.91048219  0.29075486  0.81599050  1
  Zr  Zr33  1  0.94045532  0.64259544  0.16244897  1
  Zr  Zr34  1  0.47273845  0.04995970  0.55671436  1
  Zr  Zr35  1  0.71120431  0.88381219  0.99904327  1
  Zr  Zr36  1  0.03439473  0.48168197  0.50235728  1
  Zr  Zr37  1  0.98648103  0.08411016  0.83365414  1
  Zr  Zr38  1  0.70618913  0.76864695  0.62150754  1
  Zr  Zr39  1  0.92444273  0.76387594  0.98014678  1
  Zr  Zr40  1  0.88906827  0.64323359  0.57247405  1
  Zr  Zr41  1  0.93171514  0.47376181  0.70918314  1
  Zr  Zr42  1  0.46508410  0.37993008  0.90293659  1
  Zr  Zr43  1  0.46649525  0.60417483  0.90849083  1
  Zr  Zr44  1  0.32463817  0.93957619  0.43812618  1
  Zr  Zr45  1  0.52683810  0.76753004  0.23549587  1
  Zr  Zr46  1  0.50301702  0.63137782  0.54338052  1
  Zr  Zr47  1  0.65179293  0.47128964  0.13173618  1
  Zr  Zr48  1  0.11505640  0.59542247  0.30393799  1
  Zr  Zr49  1  0.33023155  0.64535788  0.23746915  1
  Sc  Sc50  1  0.93991539  0.96122588  0.04374128  1
  Sc  Sc51  1  0.86381532  0.10259141  0.46951868  1
  Sc  Sc52  1  0.09847443  0.67495312  0.87167187  1
  Sc  Sc53  1  0.27147032  0.37338928  0.99466556  1
  Sc  Sc54  1  0.02507765  0.88703254  0.84041261  1
  Sc  Sc55  1  0.50615685  0.55144034  0.33705244  1
  Sc  Sc56  1  0.71930266  0.35506660  0.71575677  1
  Sc  Sc57  1  0.21330552  0.22199810  0.30727581  1
  Sc  Sc58  1  0.13898358  0.06447977  1.00213084  1
  Sc  Sc59  1  0.11837728  0.18577353  0.68327606  1
  Sc  Sc60  1  0.89732252  0.54973974  0.35616205  1
  Sc  Sc61  1  0.13198634  0.11075389  0.49049101  1
  Sc  Sc62  1  0.71327934  0.64366603  0.25281770  1
  Sc  Sc63  1  0.92814078  0.27130411  0.18128445  1
  Sc  Sc64  1  0.14993159  0.39170120  0.66952054  1
  Sc  Sc65  1  0.12026509  0.60577247  0.66391291  1
  Sc  Sc66  1  0.67787289  0.97962696  0.54850809  1
  Sc  Sc67  1  0.54652062  0.03848623  0.91680363  1
  Sc  Sc68  1  0.51221085  0.50380414  0.72671510  1
  Sc  Sc69  1  0.12086853  0.24816690  0.89150232  1
  Sc  Sc70  1  0.25916170  0.44154639  0.23444763  1
  Sc  Sc71  1  0.71803499  0.26667498  0.21683790  1
  Sc  Sc72  1  0.51371778  0.24775502  0.49770077  1
  Sc  Sc73  1  0.27144147  0.55857236  0.45489082  1
  Sc  Sc74  1  0.87189826  0.32735511  0.37911468  1
  Sc  Sc75  1  0.66254882  0.49728864  0.90521393  1
  Sc  Sc76  1  0.34300805  0.88896791  0.22866960  1
  Sc  Sc77  1  0.13725806  0.26724532  0.11574375  1
  Sc  Sc78  1  0.09386882  0.46048663  0.86738173  1
  Sc  Sc79  1  0.29622113  0.07511534  0.14849642  1
  Sc  Sc80  1  0.61817757  0.23748011  0.86986189  1
  Sc  Sc81  1  0.44133191  0.49315158  0.10862044  1
  Sc  Sc82  1  0.10348462  0.89450112  0.48859525  1
  Sc  Sc83  1  0.76795393  0.07078239  0.87145965  1
  Sc  Sc84  1  0.05869312  0.39245854  0.29659367  1
  Sc  Sc85  1  0.34487156  0.64961036  0.68302249  1
  Sc  Sc86  1  0.89756027  0.52996555  0.93533438  1
  Sc  Sc87  1  -0.02787477  0.97538775  0.34495628  1
  Sc  Sc88  1  0.84627433  0.12438326  0.67477997  1
  Sc  Sc89  1  1.02021612  0.79629346  0.28134813  1
  Sc  Sc90  1  0.47198569  0.84169670  0.57920323  1
  Sc  Sc91  1  0.83878916  0.07890104  0.22650683  1
  Sc  Sc92  1  0.76772790  0.64248513  0.04481699  1
  Sc  Sc93  1  0.64295717  0.11731482  0.37112045  1
  Sc  Sc94  1  0.55592719  0.28448743  0.06869727  1
  Sc  Sc95  1  0.30041651  0.49181871  0.80355065  1
  Sc  Sc96  1  0.61610074  0.92625611  0.75210149  1
  Sc  Sc97  1  0.71046989  0.57226491  0.68984305  1
  Sc  Sc98  1  0.26027505  0.58331944  1.00273670  1
  Sc  Sc99  1  0.52998361  0.32608342  0.29220894  1
  Nb  Nb100  1  0.32862083  0.74321532  0.86611219  1
  Nb  Nb101  1  0.70256822  0.60382370  0.47032671  1
  Nb  Nb102  1  0.05640393  0.69260307  0.46816140  1
  Nb  Nb103  1  0.51766178  0.11775358  0.19214406  1
  Nb  Nb104  1  0.34632404  0.95654488  -0.04242405  1
  Nb  Nb105  1  0.40024213  0.90404144  0.76894195  1
  Nb  Nb106  1  0.81264552  0.44933528  0.54075087  1
  Nb  Nb107  1  0.51329611  0.82553512  0.91826925  1
  Nb  Nb108  1  0.17161924  0.33140381  0.47407297  1
  Nb  Nb109  1  1.03243724  -0.00697974  0.65671553  1
  Nb  Nb110  1  0.13535846  0.91290953  0.15819505  1
  Nb  Nb111  1  0.02232271  0.78822138  0.65486172  1
  Nb  Nb112  1  0.21008713  0.78177062  0.33652760  1
  Nb  Nb113  1  0.49654304  0.30162218  0.69537678  1
  Nb  Nb114  1  0.05327473  0.09235029  0.18696681  1
  Nb  Nb115  1  0.17898395  0.00900226  0.31773003  1
  Nb  Nb116  1  0.52781771  0.72317943  0.74848986  1
  Nb  Nb117  1  0.36025572  0.41820070  0.59597585  1
  Nb  Nb118  1  0.40655700  0.74902365  0.39758303  1
  Nb  Nb119  1  0.85450858  0.45889433  0.16039008  1
  Nb  Nb120  1  0.51654001  0.94852317  0.35715263  1
  Nb  Nb121  1  0.97666146  0.35637350  0.00365084  1
  Nb  Nb122  1  0.76291588  0.93326121  0.37095931  1
  Nb  Nb123  1  0.01847109  0.18920101  0.35242164  1
  Nb  Nb124  1  0.35967533  0.36106282  0.40591957  1
