# generated using pymatgen
data_Zr2Sc2Nb
_symmetry_space_group_name_H-M   'P 1'
_cell_length_a   14.29441396
_cell_length_b   14.25393407
_cell_length_c   14.11971139
_cell_angle_alpha   89.48960656
_cell_angle_beta   89.62809920
_cell_angle_gamma   89.68592611
_symmetry_Int_Tables_number   1
_chemical_formula_structural   Zr2Sc2Nb
_chemical_formula_sum   'Zr50 Sc50 Nb25'
_cell_volume   2876.69720170
_cell_formula_units_Z   25
loop_
 _symmetry_equiv_pos_site_id
 _symmetry_equiv_pos_as_xyz
  1  'x, y, z'
loop_
 _atom_site_type_symbol
 _atom_site_label
 _atom_site_symmetry_multiplicity
 _atom_site_fract_x
 _atom_site_fract_y
 _atom_site_fract_z
 _atom_site_occupancy
  Zr  Zr0  1  0.38808496  0.13267308  0.08609281  1
  Zr  Zr1  1  0.59580585  0.45400184  0.01255486  1
  Zr  Zr2  1  0.90851198  0.25914087  0.92347465  1
  Zr  Zr3  1  0.72111394  0.78293237  0.43877371  1
  Zr  Zr4  1  0.76195029  0.12829054  0.30829459  1
  Zr  Zr5  1  0.88613177  0.90169864  0.38113638  1
  Zr  Zr6  1  0.39332002  0.25927823  0.72757748  1
  Zr  Zr7  1  0.39585058  0.52061961  0.09120256  1
  Zr  Zr8  1  0.12370028  0.84415380  0.65153680  1
  Zr  Zr9  1  0.90938883  0.97637710  0.60621351  1
  Zr  Zr10  1  0.65610299  0.68558551  0.60217653  1
  Zr  Zr11  1  0.23179637  0.66700340  0.56067507  1
  Zr  Zr12  1  0.02527328  0.66405981  0.70265212  1
  Zr  Zr13  1  0.31941134  0.31570546  0.97620512  1
  Zr  Zr14  1  0.54346598  0.61475739  0.44903170  1
  Zr  Zr15  1  0.04477241  0.70001454  0.46918853  1
  Zr  Zr16  1  0.06393375  0.26803466  0.45835335  1
  Zr  Zr17  1  0.69340920  0.75789435  0.87306268  1
  Zr  Zr18  1  0.21133384  0.32121715  0.80622337  1
  Zr  Zr19  1  0.41151932  0.02554959  0.48836584  1
  Zr  Zr20  1  0.31185247  0.93162957  0.06938076  1
  Zr  Zr21  1  0.10692813  0.66537457  0.91475717  1
  Zr  Zr22  1  0.46317393  0.63709776  0.88433595  1
  Zr  Zr23  1  0.46192674  0.42724464  0.83972633  1
  Zr  Zr24  1  0.27933708  0.31867620  0.17347359  1
  Zr  Zr25  1  0.91985415  0.38448020  0.53715538  1
  Zr  Zr26  1  0.15902895  -0.02821672  0.26818689  1
  Zr  Zr27  1  0.25353268  0.69130497  0.76541802  1
  Zr  Zr28  1  0.10167275  0.17264703  0.87807388  1
  Zr  Zr29  1  0.37914384  0.15174315  0.29229781  1
  Zr  Zr30  1  0.22035250  0.11264638  0.43203566  1
  Zr  Zr31  1  0.54061965  0.83832090  0.35081577  1
  Zr  Zr32  1  0.55698901  0.03820138  0.96470448  1
  Zr  Zr33  1  0.17885801  0.52461616  0.08428996  1
  Zr  Zr34  1  0.89112671  0.78556735  0.57010966  1
  Zr  Zr35  1  0.68863188  0.38223867  0.83689383  1
  Zr  Zr36  1  0.80647224  0.27102969  0.69543219  1
  Zr  Zr37  1  0.07507250  0.61031493  0.27683249  1
  Zr  Zr38  1  0.09140627  -0.00226579  0.78907242  1
  Zr  Zr39  1  0.79288378  0.68871912  0.08155986  1
  Zr  Zr40  1  0.00896566  0.73538272  0.10428655  1
  Zr  Zr41  1  0.86471290  0.85368242  0.99709323  1
  Zr  Zr42  1  0.30968200  0.48138840  0.68725063  1
  Zr  Zr43  1  0.72459960  0.16639730  0.87761109  1
  Zr  Zr44  1  0.59391265  0.26210357  0.70100184  1
  Zr  Zr45  1  0.25692635  0.51917770  0.28155950  1
  Zr  Zr46  1  0.04700814  0.44156415  0.90388232  1
  Zr  Zr47  1  0.11306110  0.48665267  0.46041369  1
  Zr  Zr48  1  0.50775173  0.44103385  0.62529085  1
  Zr  Zr49  1  0.47504054  0.84975675  0.94340729  1
  Sc  Sc50  1  0.50264405  0.96473621  0.16364681  1
  Sc  Sc51  1  0.41199960  0.26136932  0.49845632  1
  Sc  Sc52  1  0.22053633  0.30225248  0.59073894  1
  Sc  Sc53  1  0.07897193  0.08866806  0.59134507  1
  Sc  Sc54  1  0.72035768  0.92773324  0.24554707  1
  Sc  Sc55  1  0.72783724  0.52585537  0.39177507  1
  Sc  Sc56  1  0.94316496  0.94920945  0.16800970  1
  Sc  Sc57  1  0.73396801  0.29736069  0.47444145  1
  Sc  Sc58  1  0.56659491  0.90728373  0.55583681  1
  Sc  Sc59  1  0.40059919  0.65811449  0.30795392  1
  Sc  Sc60  1  0.35335032  0.49939255  0.47502191  1
  Sc  Sc61  1  0.94188955  0.15638598  0.14491180  1
  Sc  Sc62  1  0.91180952  0.64505338  0.90628833  1
  Sc  Sc63  1  0.49454447  0.04526782  0.74031544  1
  Sc  Sc64  1  0.87984860  0.58415086  0.53349209  1
  Sc  Sc65  1  0.90496087  0.27563003  0.33482305  1
  Sc  Sc66  1  0.72553630  0.27152929  0.06431888  1
  Sc  Sc67  1  0.74230090  0.96291792  0.85789130  1
  Sc  Sc68  1  0.27508371  0.07694458  0.66776314  1
  Sc  Sc69  1  0.88297695  0.47253460  0.76148381  1
  Sc  Sc70  1  0.75750772  0.50741963  0.15994599  1
  Sc  Sc71  1  0.59244150  0.14821661  0.52253686  1
  Sc  Sc72  1  0.94309421  0.04188013  0.95605463  1
  Sc  Sc73  1  0.55858773  0.50306641  0.23828230  1
  Sc  Sc74  1  0.01840015  0.27065912  0.70124648  1
  Sc  Sc75  1  0.43877089  0.64946273  0.64902876  1
  Sc  Sc76  1  0.54134155  0.81266264  0.74832502  1
  Sc  Sc77  1  0.16215730  0.08841342  0.07112675  1
  Sc  Sc78  1  0.86889933  0.68814682  0.29951299  1
  Sc  Sc79  1  0.35223925  0.91284483  0.30311498  1
  Sc  Sc80  1  0.64605007  0.69540706  0.24515980  1
  Sc  Sc81  1  0.96993123  0.53548050  0.09971238  1
  Sc  Sc82  1  0.71453193  0.46748840  0.61560104  1
  Sc  Sc83  1  0.27798692  0.89811094  0.84991274  1
  Sc  Sc84  1  0.52087801  0.23841445  0.92514365  1
  Sc  Sc85  1  0.98984430  0.08010878  0.36838036  1
  Sc  Sc86  1  0.44737806  0.76178099  0.13703412  1
  Sc  Sc87  1  0.08192334  0.39080421  0.25468506  1
  Sc  Sc88  1  0.35414616  0.86688063  0.65895139  1
  Sc  Sc89  1  0.31844014  0.10892157  0.88598253  1
  Sc  Sc90  1  0.50328264  0.31034264  0.13591772  1
  Sc  Sc91  1  0.26567774  0.51372389  0.89399691  1
  Sc  Sc92  1  0.21973669  0.74549147  0.17142572  1
  Sc  Sc93  1  0.09620124  0.30188482  0.05595607  1
  Sc  Sc94  1  0.71536739  0.07172355  0.67316624  1
  Sc  Sc95  1  0.65419075  0.85834006  0.06103152  1
  Sc  Sc96  1  0.93038397  0.84494754  0.79082478  1
  Sc  Sc97  1  0.29651364  0.71857490  -0.01680171  1
  Sc  Sc98  1  0.09950254  0.47742592  0.68243520  1
  Sc  Sc99  1  0.10422333  0.88340950  0.98946812  1
  Nb  Nb100  1  0.39865970  0.78035426  0.48093791  1
  Nb  Nb101  1  0.60870943  0.57484504  0.76793357  1
  Nb  Nb102  1  0.80534628  0.66565508  0.72746381  1
  Nb  Nb103  1  0.56613252  1.03781535  0.35026488  1
  Nb  Nb104  1  0.58758747  0.65084001  0.04266816  1
  Nb  Nb105  1  0.24434112  0.32190690  0.37815330  1
  Nb  Nb106  1  0.24371334  0.91640512  0.49228318  1
  Nb  Nb107  1  0.21798803  0.75718305  0.37720553  1
  Nb  Nb108  1  0.72499470  0.57193317  0.91546162  1
  Nb  Nb109  1  0.91351661  0.47652261  0.32959719  1
  Nb  Nb110  1  0.73724803  0.99521512  0.47440920  1
  Nb  Nb111  1  0.56465903  0.40204963  0.43571807  1
  Nb  Nb112  1  0.75929211  0.04913142  0.06626827  1
  Nb  Nb113  1  0.13602530  0.19048921  0.25858872  1
  Nb  Nb114  1  0.87414763  0.16017631  0.53298028  1
  Nb  Nb115  1  0.83824409  0.43673562  0.97504003  1
  Nb  Nb116  1  0.71013384  0.33980898  0.26529538  1
  Nb  Nb117  1  0.56470438  0.23777358  0.33099705  1
  Nb  Nb118  1  0.60674374  0.13228481  0.16216678  1
  Nb  Nb119  1  0.04715053  0.81305694  0.28884844  1
  Nb  Nb120  1  0.90013208  0.35315144  0.14497078  1
  Nb  Nb121  1  0.90923965  0.10221060  0.76206933  1
  Nb  Nb122  1  0.41468067  0.38288867  0.30886583  1
  Nb  Nb123  1  0.06462203  0.90766801  0.46409669  1
  Nb  Nb124  1  0.73798188  0.86197728  0.66735599  1
