# generated using pymatgen
data_Zr2Sc2Nb
_symmetry_space_group_name_H-M   'P 1'
_cell_length_a   13.90631243
_cell_length_b   14.13967760
_cell_length_c   14.59446560
_cell_angle_alpha   89.69246227
_cell_angle_beta   92.25052992
_cell_angle_gamma   89.48395856
_symmetry_Int_Tables_number   1
_chemical_formula_structural   Zr2Sc2Nb
_chemical_formula_sum   'Zr50 Sc50 Nb25'
_cell_volume   2867.34427151
_cell_formula_units_Z   25
loop_
 _symmetry_equiv_pos_site_id
 _symmetry_equiv_pos_as_xyz
  1  'x, y, z'
loop_
 _atom_site_type_symbol
 _atom_site_label
 _atom_site_symmetry_multiplicity
 _atom_site_fract_x
 _atom_site_fract_y
 _atom_site_fract_z
 _atom_site_occupancy
  Zr  Zr0  1  0.46605104  0.22536547  0.49096715  1
  Zr  Zr1  1  0.67334435  0.31833048  0.52503555  1
  Zr  Zr2  1  0.83379916  0.61648326  0.14338323  1
  Zr  Zr3  1  0.54351016  0.29256149  0.72629060  1
  Zr  Zr4  1  0.55893327  0.91659469  0.35561130  1
  Zr  Zr5  1  0.70833536  0.78131581  0.22393772  1
  Zr  Zr6  1  0.33061702  0.35201775  0.37535261  1
  Zr  Zr7  1  0.83292697  0.56641602  0.76495507  1
  Zr  Zr8  1  0.41904495  0.65513034  0.88846704  1
  Zr  Zr9  1  0.18824588  0.16661641  0.72733295  1
  Zr  Zr10  1  0.64028667  0.32679738  0.15984252  1
  Zr  Zr11  1  0.98783034  0.46749102  0.30112679  1
  Zr  Zr12  1  0.68128283  0.50285895  0.02328746  1
  Zr  Zr13  1  0.60778598  0.70633220  0.03995887  1
  Zr  Zr14  1  0.85633629  0.38980485  0.15606210  1
  Zr  Zr15  1  0.81799951  0.53240613  0.54983689  1
  Zr  Zr16  1  0.46935327  0.42783036  0.56538924  1
  Zr  Zr17  1  0.37745014  0.07822773  0.86886662  1
  Zr  Zr18  1  0.31827457  0.84942291  0.11337859  1
  Zr  Zr19  1  0.39366470  0.13758141  0.67257771  1
  Zr  Zr20  1  0.59566666  0.05096409  0.86455204  1
  Zr  Zr21  1  0.49527197  0.46235713  0.83661622  1
  Zr  Zr22  1  0.78702893  0.28445664  0.00336864  1
  Zr  Zr23  1  0.70546388  0.40934602  0.84492085  1
  Zr  Zr24  1  0.25314836  0.49904056  0.50445960  1
  Zr  Zr25  1  0.27901446  0.46049677  0.13382852  1
  Zr  Zr26  1  0.90238597  0.32722250  0.48706729  1
  Zr  Zr27  1  0.02555010  0.68299764  0.23791740  1
  Zr  Zr28  1  0.54118160  0.12799839  0.26227258  1
  Zr  Zr29  1  1.01287758  0.93004399  0.44109265  1
  Zr  Zr30  1  0.68395916  0.89667859  0.01566964  1
  Zr  Zr31  1  0.74912109  0.22716093  0.34103040  1
  Zr  Zr32  1  0.35661857  0.94874582  0.28923766  1
  Zr  Zr33  1  0.32747635  0.15098868  0.30738951  1
  Zr  Zr34  1  0.42984308  0.02448220  0.49441350  1
  Zr  Zr35  1  0.63205822  0.56368889  0.22062478  1
  Zr  Zr36  1  0.87851359  0.83149249  0.09380627  1
  Zr  Zr37  1  0.62101541  0.12609032  0.64857810  1
  Zr  Zr38  1  0.62591622  0.52967820  0.45727231  1
  Zr  Zr39  1  0.52969079  0.90720984  0.14681766  1
  Zr  Zr40  1  0.24196013  0.16349364  0.49854537  1
  Zr  Zr41  1  0.33826283  0.29452470  0.82114472  1
  Zr  Zr42  1  0.82232151  0.12070476  0.54185442  1
  Zr  Zr43  1  0.80816316  0.70151660  0.92982586  1
  Zr  Zr44  1  0.22800393  0.89900563  0.90969072  1
  Zr  Zr45  1  0.97520933  0.19403116  0.67876697  1
  Zr  Zr46  1  0.73074577  -0.00720999  0.22648616  1
  Zr  Zr47  1  0.81058738  0.06250682  1.00584088  1
  Zr  Zr48  1  0.18754186  0.52471447  0.31595762  1
  Zr  Zr49  1  0.10693266  0.82796119  0.08654265  1
  Sc  Sc50  1  0.11158320  1.02898125  0.59704738  1
  Sc  Sc51  1  0.03221974  0.77893435  0.84439851  1
  Sc  Sc52  1  0.21146024  0.67497063  0.97861899  1
  Sc  Sc53  1  0.63711113  0.08892419  0.44348250  1
  Sc  Sc54  1  0.28249765  0.93470986  0.70662787  1
  Sc  Sc55  1  0.45958914  0.87786349  0.93256215  1
  Sc  Sc56  1  0.28762962  0.70941874  0.58614341  1
  Sc  Sc57  1  0.27322993  0.47767602  0.92141153  1
  Sc  Sc58  1  0.08564711  0.81841426  0.63934053  1
  Sc  Sc59  1  0.31461836  0.26865832  0.02421176  1
  Sc  Sc60  1  0.44342820  0.62400611  0.46715786  1
  Sc  Sc61  1  0.80192947  0.04894541  0.75011708  1
  Sc  Sc62  1  0.99859109  0.19338666  0.08570834  1
  Sc  Sc63  1  0.55441642  0.35322708  0.34585318  1
  Sc  Sc64  1  0.68456477  0.91632413  0.60855535  1
  Sc  Sc65  1  0.39629415  0.07601932  0.09390316  1
  Sc  Sc66  1  0.42069778  0.52201881  0.27928506  1
  Sc  Sc67  1  0.88530486  0.75811953  0.51749316  1
  Sc  Sc68  1  0.17840036  0.28491563  0.20303303  1
  Sc  Sc69  1  0.94879603  0.15297250  0.87857690  1
  Sc  Sc70  1  0.24378944  0.91348857  0.47402332  1
  Sc  Sc71  1  0.61633417  0.11759357  0.06859234  1
  Sc  Sc72  1  0.96957670  1.00521080  0.18802185  1
  Sc  Sc73  1  0.40740857  0.65332009  0.09741090  1
  Sc  Sc74  1  0.09327537  0.69423635  0.45384088  1
  Sc  Sc75  1  0.66175555  0.73229094  0.42466056  1
  Sc  Sc76  1  0.06988829  0.50189031  0.11019939  1
  Sc  Sc77  1  0.32153610  0.50349813  0.72198707  1
  Sc  Sc78  1  0.84739894  0.63325007  0.35542304  1
  Sc  Sc79  1  0.13798239  0.87347201  0.28097269  1
  Sc  Sc80  1  0.77714975  0.91820858  0.43055979  1
  Sc  Sc81  1  0.67358570  0.69262356  0.63134179  1
  Sc  Sc82  1  0.02653858  0.97942081  0.98175845  1
  Sc  Sc83  1  0.64956747  0.84064954  0.80650493  1
  Sc  Sc84  1  0.62732541  0.62942148  0.83193378  1
  Sc  Sc85  1  0.10540282  0.34013175  0.96911627  1
  Sc  Sc86  1  0.47680853  0.45632710  0.05619310  1
  Sc  Sc87  1  0.48266154  0.82129384  0.54374319  1
  Sc  Sc88  1  0.53470195  0.27331429  0.95238842  1
  Sc  Sc89  1  0.29300338  0.73107358  0.35123500  1
  Sc  Sc90  1  0.92156200  0.35035680  0.83592325  1
  Sc  Sc91  1  0.77127145  0.43540618  0.33862592  1
  Sc  Sc92  1  0.49265007  0.73379300  0.27152764  1
  Sc  Sc93  1  0.22821370  0.70223210  0.77514357  1
  Sc  Sc94  1  0.85994643  0.90242718  0.87898297  1
  Sc  Sc95  1  0.05677079  0.55101451  0.84636874  1
  Sc  Sc96  1  0.89089894  0.49633594  0.97385795  1
  Sc  Sc97  1  0.17348980  0.12546860  0.92663081  1
  Sc  Sc98  1  0.96902116  0.24727331  0.28828717  1
  Sc  Sc99  1  0.18813702  0.04594653  0.13745962  1
  Nb  Nb100  1  0.13935256  0.36498208  0.76606557  1
  Nb  Nb101  1  0.88674998  0.06838886  0.35362070  1
  Nb  Nb102  1  0.91553408  0.95213046  0.61914934  1
  Nb  Nb103  1  0.12222512  0.09000547  0.33556898  1
  Nb  Nb104  1  -0.04270973  0.42859326  0.66376018  1
  Nb  Nb105  1  0.12965981  0.32455225  0.40128410  1
  Nb  Nb106  1  0.85127127  0.78886650  0.71665051  1
  Nb  Nb107  1  0.48337019  0.61249705  0.67066174  1
  Nb  Nb108  1  1.04515442  -0.01208145  0.77949185  1
  Nb  Nb109  1  -0.00024557  0.67587090  0.02286259  1
  Nb  Nb110  1  0.02225866  0.50289110  0.48760203  1
  Nb  Nb111  1  0.78217459  0.29377336  0.68335080  1
  Nb  Nb112  1  0.49694743  0.96710578  0.70730129  1
  Nb  Nb113  1  0.90253774  0.83663084  0.29743753  1
  Nb  Nb114  1  0.11033345  0.32766405  0.58077964  1
  Nb  Nb115  1  0.42731192  0.29381540  0.18907647  1
  Nb  Nb116  1  0.80383745  0.17163215  0.17265523  1
  Nb  Nb117  1  0.71763629  0.20442589  0.84444868  1
  Nb  Nb118  1  -0.01883269  0.64228800  0.65798867  1
  Nb  Nb119  1  0.30321268  0.32403740  0.61587910  1
  Nb  Nb120  1  0.44292889  0.78231677  0.74217396  1
  Nb  Nb121  1  0.21323560  0.66484712  0.17517036  1
  Nb  Nb122  1  0.13555387  0.53724049  0.64914693  1
  Nb  Nb123  1  0.01867200  0.15856957  0.47758381  1
  Nb  Nb124  1  0.64956562  0.47752767  0.66679693  1
