# generated using pymatgen
data_Zr2Sc2Nb
_symmetry_space_group_name_H-M   'P 1'
_cell_length_a   14.20067406
_cell_length_b   14.37884503
_cell_length_c   14.03210612
_cell_angle_alpha   90.05670811
_cell_angle_beta   89.74202040
_cell_angle_gamma   91.22701464
_symmetry_Int_Tables_number   1
_chemical_formula_structural   Zr2Sc2Nb
_chemical_formula_sum   'Zr50 Sc50 Nb25'
_cell_volume   2864.51863332
_cell_formula_units_Z   25
loop_
 _symmetry_equiv_pos_site_id
 _symmetry_equiv_pos_as_xyz
  1  'x, y, z'
loop_
 _atom_site_type_symbol
 _atom_site_label
 _atom_site_symmetry_multiplicity
 _atom_site_fract_x
 _atom_site_fract_y
 _atom_site_fract_z
 _atom_site_occupancy
  Zr  Zr0  1  0.03140383  0.84588510  0.82643677  1
  Zr  Zr1  1  0.58251517  0.91955596  0.50731184  1
  Zr  Zr2  1  0.03445776  0.50745996  0.47940056  1
  Zr  Zr3  1  0.33693353  0.57312141  0.20482018  1
  Zr  Zr4  1  0.25100833  0.37738426  0.17129765  1
  Zr  Zr5  1  0.80972112  0.51385831  0.50361065  1
  Zr  Zr6  1  0.93536526  0.52969773  0.69950015  1
  Zr  Zr7  1  0.89875299  0.72969479  0.66121589  1
  Zr  Zr8  1  1.00858583  0.89636270  0.58173296  1
  Zr  Zr9  1  0.67156690  0.68839344  0.91402890  1
  Zr  Zr10  1  0.50586644  0.69431331  0.78283038  1
  Zr  Zr11  1  0.67107058  0.31167395  0.92614091  1
  Zr  Zr12  1  0.56845729  0.18186939  0.06871091  1
  Zr  Zr13  1  0.43429797  1.01852482  0.09757749  1
  Zr  Zr14  1  0.93293634  0.33467759  0.57707119  1
  Zr  Zr15  1  0.48947617  0.41349569  0.05308052  1
  Zr  Zr16  1  0.70934542  0.14984795  0.24989144  1
  Zr  Zr17  1  0.11052449  0.53369389  0.11161369  1
  Zr  Zr18  1  0.67359922  0.88829327  0.88503726  1
  Zr  Zr19  1  0.29495379  0.32335169  0.97453937  1
  Zr  Zr20  1  0.88404559  0.97517100  0.95001825  1
  Zr  Zr21  1  0.89979649  0.65567281  0.07901663  1
  Zr  Zr22  1  0.89869003  0.73329608  0.44904962  1
  Zr  Zr23  1  0.23214021  0.84704049  0.26611754  1
  Zr  Zr24  1  0.46294883  0.39525846  0.26273767  1
  Zr  Zr25  1  0.06925150  0.32478386  0.05225471  1
  Zr  Zr26  1  0.73336556  0.06028996  0.43484312  1
  Zr  Zr27  1  0.72352483  0.10604135  0.87749219  1
  Zr  Zr28  1  0.33129248  0.70873189  0.66198853  1
  Zr  Zr29  1  0.30098289  0.71636034  0.86453250  1
  Zr  Zr30  1  0.98006254  0.52210198  0.92336674  1
  Zr  Zr31  1  0.12865981  0.21109648  0.87257624  1
  Zr  Zr32  1  0.61921374  0.23284965  0.72474706  1
  Zr  Zr33  1  0.20002854  0.93501350  0.46703376  1
  Zr  Zr34  1  0.86121353  0.01304965  0.20028561  1
  Zr  Zr35  1  0.68297223  0.55135050  0.07801579  1
  Zr  Zr36  1  0.37651355  0.92376032  0.60107255  1
  Zr  Zr37  1  0.54107760  0.74868658  0.35520945  1
  Zr  Zr38  1  0.10012921  0.69575416  0.96063755  1
  Zr  Zr39  1  0.26292045  0.28216008  0.56225017  1
  Zr  Zr40  1  0.78413028  0.50944396  0.90292364  1
  Zr  Zr41  1  0.07564580  -0.00775053  0.25521372  1
  Zr  Zr42  1  0.22840237  0.08038424  0.69232680  1
  Zr  Zr43  1  0.87386620  0.71729953  0.87178333  1
  Zr  Zr44  1  0.63140731  0.40282951  0.57553597  1
  Zr  Zr45  1  0.43921415  0.36916472  0.46711953  1
  Zr  Zr46  1  0.28657740  0.53105411  0.99646852  1
  Zr  Zr47  1  0.46980704  0.84021215  0.95873323  1
  Zr  Zr48  1  0.84740283  0.18352889  0.72426232  1
  Zr  Zr49  1  0.76143879  0.24180952  0.52878947  1
  Sc  Sc50  1  0.20230942  0.13689958  0.08446528  1
  Sc  Sc51  1  0.34975971  0.10297447  0.49230400  1
  Sc  Sc52  1  0.74383409  0.87098606  0.34098377  1
  Sc  Sc53  1  0.92225725  0.17142767  0.38307737  1
  Sc  Sc54  1  0.15156941  0.43454746  0.87001982  1
  Sc  Sc55  1  0.12389174  0.41379486  0.66242860  1
  Sc  Sc56  1  0.66886131  1.03687300  0.66418754  1
  Sc  Sc57  1  0.73988661  0.48681147  0.28642713  1
  Sc  Sc58  1  0.74124265  0.68331139  0.26123080  1
  Sc  Sc59  1  0.60282524  0.76757958  0.11825818  1
  Sc  Sc60  1  0.71181655  0.58839465  0.70043821  1
  Sc  Sc61  1  0.57481822  0.96840719  0.27313553  1
  Sc  Sc62  1  0.54775561  0.17624147  0.52567879  1
  Sc  Sc63  1  0.48969470  0.54843754  0.61186793  1
  Sc  Sc64  1  0.40441122  0.58023265  0.40511742  1
  Sc  Sc65  1  0.65817604  0.98888045  0.07415644  1
  Sc  Sc66  1  0.24618741  0.92318661  0.04740914  1
  Sc  Sc67  1  0.68333480  0.79543984  0.69189308  1
  Sc  Sc68  1  0.16779591  0.61771555  0.34096130  1
  Sc  Sc69  1  0.18456899  0.85883253  0.69102533  1
  Sc  Sc70  1  0.08824381  0.72729143  0.17784912  1
  Sc  Sc71  1  0.29748326  0.04908906  0.26415946  1
  Sc  Sc72  1  0.56547639  0.47201657  0.82326251  1
  Sc  Sc73  1  0.10486700  0.10961080  0.48701007  1
  Sc  Sc74  1  0.89357700  0.45882246  0.13200247  1
  Sc  Sc75  1  0.52333637  0.04986777  0.88333025  1
  Sc  Sc76  1  0.28393628  0.72529076  0.07443459  1
  Sc  Sc77  1  0.10856340  0.69694861  0.55497066  1
  Sc  Sc78  1  0.46893615  0.26993583  0.87530886  1
  Sc  Sc79  1  0.89753764  0.26100900  0.19373205  1
  Sc  Sc80  1  0.26809501  0.52006087  0.56128987  1
  Sc  Sc81  1  0.94619780  0.59571888  0.29681614  1
  Sc  Sc82  1  0.12274856  0.63060079  0.75853485  1
  Sc  Sc83  1  0.42177914  0.81813153  0.19949446  1
  Sc  Sc84  1  0.68990911  0.34081897  0.14056214  1
  Sc  Sc85  1  0.32357389  0.93019922  0.82986968  1
  Sc  Sc86  1  0.30632185  0.75489366  0.44960433  1
  Sc  Sc87  1  0.87186595  0.31921040  0.97010868  1
  Sc  Sc88  1  0.77613554  0.38288057  0.73333770  1
  Sc  Sc89  1  0.29240840  0.24644612  0.34053895  1
  Sc  Sc90  1  0.32509384  0.11798883  0.91437852  1
  Sc  Sc91  1  0.02867491  0.88758521  0.06341844  1
  Sc  Sc92  1  0.79833820  0.82543947  0.07285856  1
  Sc  Sc93  1  0.10077023  0.21473215  0.25756090  1
  Sc  Sc94  1  0.64566688  0.31946895  0.36956779  1
  Sc  Sc95  1  0.49130617  0.15995887  0.30420926  1
  Sc  Sc96  1  0.34465052  0.49637295  0.78022831  1
  Sc  Sc97  1  0.69477408  0.69951974  0.49953707  1
  Sc  Sc98  1  0.47745100  0.62361566  0.00339087  1
  Sc  Sc99  1  0.84545248  0.94106913  0.74558241  1
  Nb  Nb100  1  0.79071868  0.15125794  0.05406366  1
  Nb  Nb101  1  0.59414151  0.53428362  0.41482773  1
  Nb  Nb102  1  0.38649373  0.22709084  0.12996314  1
  Nb  Nb103  1  0.51007824  0.89466645  0.73539647  1
  Nb  Nb104  1  0.93567338  -0.04123386  0.40349759  1
  Nb  Nb105  1  0.49721078  0.75018532  0.55924304  1
  Nb  Nb106  1  0.54221312  0.58281924  0.22116704  1
  Nb  Nb107  1  0.02934015  0.03945887  0.73492189  1
  Nb  Nb108  1  0.94579723  0.14787739  0.88687892  1
  Nb  Nb109  1  0.24295796  0.43268811  0.37306657  1
  Nb  Nb110  1  0.88963377  0.37578268  0.37366072  1
  Nb  Nb111  1  0.09246298  0.31645913  0.45100598  1
  Nb  Nb112  1  0.90474878  0.07770100  0.57155718  1
  Nb  Nb113  1  0.44763815  0.33257356  0.66723402  1
  Nb  Nb114  1  0.11878627  0.01484277  0.90692741  1
  Nb  Nb115  1  0.28150394  0.27912227  0.76013412  1
  Nb  Nb116  1  0.05979132  0.41594795  0.27573177  1
  Nb  Nb117  1  0.42873197  0.12040049  0.70594581  1
  Nb  Nb118  1  0.97555724  0.34297982  0.79785205  1
  Nb  Nb119  1  0.06958419  0.80680021  0.38017951  1
  Nb  Nb120  1  0.92284795  0.81786944  0.24671022  1
  Nb  Nb121  1  0.41028781  0.92363369  0.39149810  1
  Nb  Nb122  1  -0.00055368  0.11330736  0.07122849  1
  Nb  Nb123  1  0.79955038  0.89473552  0.54493451  1
  Nb  Nb124  1  0.06907609  0.21558165  0.66810856  1
