# generated using pymatgen
data_Zr2Sc2Nb
_symmetry_space_group_name_H-M   'P 1'
_cell_length_a   14.38420000
_cell_length_b   13.90140797
_cell_length_c   14.43479479
_cell_angle_alpha   88.30749343
_cell_angle_beta   88.98214465
_cell_angle_gamma   89.25849946
_symmetry_Int_Tables_number   1
_chemical_formula_structural   Zr2Sc2Nb
_chemical_formula_sum   'Zr50 Sc50 Nb25'
_cell_volume   2884.45356332
_cell_formula_units_Z   25
loop_
 _symmetry_equiv_pos_site_id
 _symmetry_equiv_pos_as_xyz
  1  'x, y, z'
loop_
 _atom_site_type_symbol
 _atom_site_label
 _atom_site_symmetry_multiplicity
 _atom_site_fract_x
 _atom_site_fract_y
 _atom_site_fract_z
 _atom_site_occupancy
  Zr  Zr0  1  0.74248966  0.67310937  0.92652653  1
  Zr  Zr1  1  0.06785663  0.07823910  0.67404807  1
  Zr  Zr2  1  0.73708877  0.25563329  0.52295849  1
  Zr  Zr3  1  0.88349089  0.70692528  0.75868528  1
  Zr  Zr4  1  0.63509014  0.52262530  0.78147665  1
  Zr  Zr5  1  0.66389390  0.12385568  0.67215206  1
  Zr  Zr6  1  0.43395768  0.55697750  0.73937207  1
  Zr  Zr7  1  0.52276174  0.34930587  0.28773729  1
  Zr  Zr8  1  0.91655390  0.89706253  0.20851072  1
  Zr  Zr9  1  0.96527469  0.65442382  0.93393361  1
  Zr  Zr10  1  0.49410523  0.12255432  0.81851417  1
  Zr  Zr11  1  0.95383406  0.69709611  0.15447560  1
  Zr  Zr12  1  0.63517720  0.05941306  0.45795555  1
  Zr  Zr13  1  0.72186854  0.69877430  0.65719632  1
  Zr  Zr14  1  0.98305018  0.37372197  0.17679348  1
  Zr  Zr15  1  0.03248824  0.42797172  0.94963900  1
  Zr  Zr16  1  0.07258122  0.23429584  1.01962460  1
  Zr  Zr17  1  0.74567842  0.98337704  0.10944651  1
  Zr  Zr18  1  0.85959455  0.84134848  0.99529402  1
  Zr  Zr19  1  0.24251718  0.93854562  0.04643991  1
  Zr  Zr20  1  0.76393698  0.87404232  0.80364013  1
  Zr  Zr21  1  0.51845231  0.71978744  0.24589279  1
  Zr  Zr22  1  0.38470680  0.79113157  0.75483275  1
  Zr  Zr23  1  0.16591374  0.92602300  0.24689791  1
  Zr  Zr24  1  0.10241396  0.51172177  0.76967024  1
  Zr  Zr25  1  0.29052708  0.68976829  0.32324545  1
  Zr  Zr26  1  0.11998774  0.05506821  0.89204706  1
  Zr  Zr27  1  0.05524339  0.77021421  0.33151714  1
  Zr  Zr28  1  0.36535319  1.00847289  0.22514065  1
  Zr  Zr29  1  0.66997454  0.47550045  -0.00348010  1
  Zr  Zr30  1  0.17537865  0.89033998  0.66328304  1
  Zr  Zr31  1  0.07726937  0.71577348  0.70703010  1
  Zr  Zr32  1  0.66320388  0.65190858  0.37078011  1
  Zr  Zr33  1  0.09826048  0.93163122  0.46801674  1
  Zr  Zr34  1  0.47767026  0.48485571  0.93544019  1
  Zr  Zr35  1  0.18350738  0.37678797  0.15421012  1
  Zr  Zr36  1  0.63940077  0.87614576  -0.03570021  1
  Zr  Zr37  1  0.10076880  0.31595860  0.63355098  1
  Zr  Zr38  1  0.76202025  0.35675671  0.18939981  1
  Zr  Zr39  1  0.68862705  0.07721198  0.89041401  1
  Zr  Zr40  1  0.78650645  0.06516228  0.30632643  1
  Zr  Zr41  1  0.11028736  0.56697160  0.29049806  1
  Zr  Zr42  1  0.39562419  0.31527102  0.81835158  1
  Zr  Zr43  1  0.56835481  0.71626827  0.83104022  1
  Zr  Zr44  1  0.69870080  0.42815868  0.39492196  1
  Zr  Zr45  1  0.25438963  0.17742859  0.70978035  1
  Zr  Zr46  1  0.65284533  0.53313711  0.20188856  1
  Zr  Zr47  1  0.89846790  0.25709795  0.35996907  1
  Zr  Zr48  1  0.69099635  0.87700132  0.29417109  1
  Zr  Zr49  1  0.55196750  0.67836563  0.04020476  1
  Sc  Sc50  1  0.26080005  0.47486475  0.90660802  1
  Sc  Sc51  1  0.89330473  0.17102814  0.16153042  1
  Sc  Sc52  1  0.88989936  0.51716630  0.30239328  1
  Sc  Sc53  1  0.35130424  0.31798246  0.03521316  1
  Sc  Sc54  1  0.30991233  0.46057812  0.33129693  1
  Sc  Sc55  1  0.06777364  0.16858598  0.47870804  1
  Sc  Sc56  1  0.85355437  0.52558362  0.07519612  1
  Sc  Sc57  1  0.55225116  0.32928604  0.09754791  1
  Sc  Sc58  1  0.28286836  0.41617644  0.67358912  1
  Sc  Sc59  1  0.27492762  0.03870203  0.54378133  1
  Sc  Sc60  1  0.60713860  0.29348905  0.89428276  1
  Sc  Sc61  1  0.33504039  0.24669504  0.26703722  1
  Sc  Sc62  1  0.94328430  0.40763419  0.50384045  1
  Sc  Sc63  1  0.45073175  0.14991889  0.61766249  1
  Sc  Sc64  1  0.23769609  0.14094016  0.11846626  1
  Sc  Sc65  1  0.89118036  0.06445202  0.95793154  1
  Sc  Sc66  1  0.45235100  0.51767395  0.15668362  1
  Sc  Sc67  1  0.21432352  0.85872434  0.85952641  1
  Sc  Sc68  1  0.93736781  0.88554562  0.62598078  1
  Sc  Sc69  1  0.13147189  0.53068221  0.54205251  1
  Sc  Sc70  1  0.58148316  0.53357089  0.55713452  1
  Sc  Sc71  1  0.52282415  0.29843028  0.47775055  1
  Sc  Sc72  1  0.36863336  0.68077473  0.93793377  1
  Sc  Sc73  1  0.83481221  0.49435352  0.84572906  1
  Sc  Sc74  1  -0.00693443  0.89698170  0.82621031  1
  Sc  Sc75  1  0.86397048  0.07596185  0.51148970  1
  Sc  Sc76  1  0.11814734  0.35729277  0.37288110  1
  Sc  Sc77  1  0.35786617  0.78898035  0.13896082  1
  Sc  Sc78  1  0.55950010  0.10956804  0.24387491  1
  Sc  Sc79  1  0.35316374  0.58228306  0.52876622  1
  Sc  Sc80  1  0.04698862  0.03267938  0.10727316  1
  Sc  Sc81  1  0.26951573  0.57401799  0.11437307  1
  Sc  Sc82  1  0.73129894  0.73739128  0.14220715  1
  Sc  Sc83  1  0.48696887  0.93867451  0.55875461  1
  Sc  Sc84  1  0.86369757  0.88583907  0.42978839  1
  Sc  Sc85  1  0.30511797  0.12799301  0.91352545  1
  Sc  Sc86  1  0.42829588  0.91636056  0.93298870  1
  Sc  Sc87  1  0.97487016  0.70078305  0.51324776  1
  Sc  Sc88  1  0.53901493  0.91274178  0.13673914  1
  Sc  Sc89  1  0.56317315  0.92730896  0.75083530  1
  Sc  Sc90  1  0.57182467  0.33147677  0.68795326  1
  Sc  Sc91  1  0.69586135  0.18312869  0.08349378  1
  Sc  Sc92  1  0.46782147  0.73549984  0.44111737  1
  Sc  Sc93  1  0.80396598  0.58867032  0.50122729  1
  Sc  Sc94  1  0.85208963  0.30310815  0.97256067  1
  Sc  Sc95  1  0.77203413  0.42333471  0.64575171  1
  Sc  Sc96  1  0.85513432  0.05807632  0.73674379  1
  Sc  Sc97  1  0.48316929  0.11390846  0.03785310  1
  Sc  Sc98  1  0.16130555  0.66667401  0.93069086  1
  Sc  Sc99  1  0.28964795  0.26506576  0.48961132  1
  Nb  Nb100  1  0.33147270  0.80783062  0.57353111  1
  Nb  Nb101  1  0.94157088  0.54546358  0.65716357  1
  Nb  Nb102  1  -0.00826136  0.19692738  0.82316558  1
  Nb  Nb103  1  0.84283306  0.72130394  0.32819500  1
  Nb  Nb104  1  0.72409019  0.92556882  0.61001540  1
  Nb  Nb105  1  0.07117356  0.55034811  0.09428784  1
  Nb  Nb106  1  0.90895463  0.23408868  0.62743839  1
  Nb  Nb107  1  0.66095774  0.81343200  0.48132620  1
  Nb  Nb108  1  0.78261898  0.25703960  0.78140527  1
  Nb  Nb109  1  0.49524443  0.53528269  0.36490285  1
  Nb  Nb110  1  0.99628202  0.04373179  0.32603412  1
  Nb  Nb111  1  0.95848661  0.36937726  0.75666623  1
  Nb  Nb112  1  0.50489741  0.92022485  0.35115985  1
  Nb  Nb113  1  0.21593864  0.09236656  0.35231420  1
  Nb  Nb114  1  0.15397121  0.74353339  0.14597225  1
  Nb  Nb115  1  0.25549942  0.64783387  0.70713332  1
  Nb  Nb116  1  0.68754744  0.23648787  0.32571590  1
  Nb  Nb117  1  0.34522358  -0.00780614  0.73758676  1
  Nb  Nb118  1  0.18435687  0.73342554  0.50037704  1
  Nb  Nb119  1  0.08816901  0.19835763  0.24583970  1
  Nb  Nb120  1  0.42320360  0.10177121  0.40733787  1
  Nb  Nb121  1  0.31028135  0.89387948  0.39532558  1
  Nb  Nb122  1  0.52990981  0.73013489  0.62972389  1
  Nb  Nb123  1  0.16489720  0.29714324  0.83844922  1
  Nb  Nb124  1  0.05812716  0.84639516  0.01837686  1
