# generated using pymatgen
data_Zr2Sc2Nb
_symmetry_space_group_name_H-M   'P 1'
_cell_length_a   14.32099319
_cell_length_b   14.40965121
_cell_length_c   13.94946198
_cell_angle_alpha   91.00879014
_cell_angle_beta   89.59467233
_cell_angle_gamma   89.73238683
_symmetry_Int_Tables_number   1
_chemical_formula_structural   Zr2Sc2Nb
_chemical_formula_sum   'Zr50 Sc50 Nb25'
_cell_volume   2878.06689378
_cell_formula_units_Z   25
loop_
 _symmetry_equiv_pos_site_id
 _symmetry_equiv_pos_as_xyz
  1  'x, y, z'
loop_
 _atom_site_type_symbol
 _atom_site_label
 _atom_site_symmetry_multiplicity
 _atom_site_fract_x
 _atom_site_fract_y
 _atom_site_fract_z
 _atom_site_occupancy
  Zr  Zr0  1  0.11237170  0.43069258  0.07406526  1
  Zr  Zr1  1  0.63398094  0.50483580  0.27092820  1
  Zr  Zr2  1  0.22860927  0.49498528  0.27329544  1
  Zr  Zr3  1  0.08777346  0.30761097  0.89923508  1
  Zr  Zr4  1  0.34147284  0.82981550  0.17265171  1
  Zr  Zr5  1  0.07555442  0.77645395  0.68889350  1
  Zr  Zr6  1  0.35612718  -0.00333896  0.48026593  1
  Zr  Zr7  1  0.23510309  0.45207630  0.69267633  1
  Zr  Zr8  1  0.89192689  0.84380122  0.70457226  1
  Zr  Zr9  1  0.21016362  0.84069347  0.53637411  1
  Zr  Zr10  1  0.82246929  0.09274946  0.93877710  1
  Zr  Zr11  1  0.12014300  0.83101204  0.10053928  1
  Zr  Zr12  1  0.25725704  0.20146952  0.51339038  1
  Zr  Zr13  1  0.13351426  0.03705650  0.11862764  1
  Zr  Zr14  1  0.03576431  0.88259223  0.89340201  1
  Zr  Zr15  1  0.04636335  0.73297834  0.46443221  1
  Zr  Zr16  1  0.46057458  0.20119476  0.54402343  1
  Zr  Zr17  1  0.53846980  0.72330392  0.29059202  1
  Zr  Zr18  1  0.81092934  0.88073656  0.90597679  1
  Zr  Zr19  1  0.24203536  -0.05709162  0.31075253  1
  Zr  Zr20  1  0.29539870  0.30123059  0.32772323  1
  Zr  Zr21  1  0.09203524  0.59275208  0.64494467  1
  Zr  Zr22  1  0.33871553  0.47793930  0.07400921  1
  Zr  Zr23  1  0.92631478  0.33837969  0.37951667  1
  Zr  Zr24  1  0.73869624  0.57305394  0.93270705  1
  Zr  Zr25  1  0.16974355  0.73702659  0.29148779  1
  Zr  Zr26  1  0.91058721  0.44949530  0.89865058  1
  Zr  Zr27  1  0.29315300  0.68243428  0.66330697  1
  Zr  Zr28  1  0.43946620  0.50579336  0.66186337  1
  Zr  Zr29  1  0.32030203  0.07693542  0.67808797  1
  Zr  Zr30  1  0.94798048  0.99494077  0.06511846  1
  Zr  Zr31  1  0.17365629  0.13319868  0.30805867  1
  Zr  Zr32  1  0.84129693  0.96259915  0.23895698  1
  Zr  Zr33  1  0.92776184  0.23082945  0.80223564  1
  Zr  Zr34  1  0.16475557  0.62611270  0.09773785  1
  Zr  Zr35  1  0.65344847  0.51485858  0.70814592  1
  Zr  Zr36  1  0.89851823  0.11970688  0.41361537  1
  Zr  Zr37  1  0.51305735  0.17381167  0.80236200  1
  Zr  Zr38  1  0.35427381  0.29045400  0.71156627  1
  Zr  Zr39  1  0.40745243  0.26956944  0.16227237  1
  Zr  Zr40  1  0.55152940  0.48199001  0.04187069  1
  Zr  Zr41  1  0.52458193  0.84049337  0.47073798  1
  Zr  Zr42  1  0.53067309  0.67024337  0.09764660  1
  Zr  Zr43  1  0.28187579  0.92543302  0.97807259  1
  Zr  Zr44  1  0.22361839  0.61112826  0.46111092  1
  Zr  Zr45  1  0.02695464  0.40036062  0.70506680  1
  Zr  Zr46  1  0.57128575  0.44917278  0.48701423  1
  Zr  Zr47  1  0.27605722  0.36861797  0.90444476  1
  Zr  Zr48  1  0.68766845  0.83463446  0.59980216  1
  Zr  Zr49  1  0.73602867  0.64403133  0.15746529  1
  Sc  Sc50  1  0.71161459  0.10390102  0.31233485  1
  Sc  Sc51  1  0.72250098  0.24136023  0.52214470  1
  Sc  Sc52  1  0.92274281  0.91276163  0.50397054  1
  Sc  Sc53  1  0.87956446  0.73646187  0.30580768  1
  Sc  Sc54  1  0.94376174  0.68304280  0.86751826  1
  Sc  Sc55  1  0.53593545  0.63214776  0.86553517  1
  Sc  Sc56  1  0.74165877  0.02974405  0.53096664  1
  Sc  Sc57  1  0.93719335  0.57600523  0.08038339  1
  Sc  Sc58  1  0.11731932  0.02574962  0.49031916  1
  Sc  Sc59  1  0.46609746  0.28658926  0.97338141  1
  Sc  Sc60  1  0.74500024  0.31922535  0.29938427  1
  Sc  Sc61  1  0.03202498  0.92520355  0.29984696  1
  Sc  Sc62  1  0.18040746  0.73216797  0.88433921  1
  Sc  Sc63  1  0.62709193  0.00180205  0.88551645  1
  Sc  Sc64  1  0.92141442  0.36541656  0.15941713  1
  Sc  Sc65  1  0.73675557  0.71026931  0.76741221  1
  Sc  Sc66  1  0.77303236  0.45572720  0.50898277  1
  Sc  Sc67  1  0.53363211  0.68801881  0.64167372  1
  Sc  Sc68  1  0.55818854  0.05173832  0.42882916  1
  Sc  Sc69  1  0.88606139  0.78860692  0.08225220  1
  Sc  Sc70  1  0.11509001  0.19157215  0.68802909  1
  Sc  Sc71  1  0.58352905  0.32432277  0.66964576  1
  Sc  Sc72  1  0.96918222  0.52174376  0.48587463  1
  Sc  Sc73  1  0.40909625  0.86571905  0.64354181  1
  Sc  Sc74  1  0.67431452  0.64617418  0.43685692  1
  Sc  Sc75  1  0.65998841  0.36821476  0.88054105  1
  Sc  Sc76  1  0.53708096  0.27528382  0.35346803  1
  Sc  Sc77  1  0.34351500  0.69644931  0.01954581  1
  Sc  Sc78  1  0.71208643  0.86582372  0.37828337  1
  Sc  Sc79  1  0.23348027  0.90780475  0.76789489  1
  Sc  Sc80  1  0.03296196  0.56057193  0.28012507  1
  Sc  Sc81  1  0.68595616  0.99576648  0.08616048  1
  Sc  Sc82  1  0.55556150  1.02132772  0.65355742  1
  Sc  Sc83  1  0.50246808  0.93905745  0.25402754  1
  Sc  Sc84  1  0.44121069  0.46209719  0.27645352  1
  Sc  Sc85  1  0.30512365  0.14710215  0.89745984  1
  Sc  Sc86  1  0.43818456  0.61320896  0.45188023  1
  Sc  Sc87  1  0.20676599  0.24046500  0.08865002  1
  Sc  Sc88  1  0.33738547  0.06130682  0.14803836  1
  Sc  Sc89  1  0.32715507  0.57073740  0.85188945  1
  Sc  Sc90  1  0.09665817  0.32562535  0.26850172  1
  Sc  Sc91  1  0.49902630  0.87080217  0.01497113  1
  Sc  Sc92  1  0.11020467  0.52965338  0.87600405  1
  Sc  Sc93  1  0.85276066  0.69901546  0.54037886  1
  Sc  Sc94  1  0.81702885  0.29505112  0.98117432  1
  Sc  Sc95  1  0.10231316  0.08312886  0.89433879  1
  Sc  Sc96  1  0.13971000  0.40145555  0.49002770  1
  Sc  Sc97  1  0.62363084  0.31061706  0.13251901  1
  Sc  Sc98  1  0.87366709  0.55194990  0.69877769  1
  Sc  Sc99  1  0.35852922  0.40600697  0.49718368  1
  Nb  Nb100  1  0.79660915  0.35955342  0.71985694  1
  Nb  Nb101  1  0.97711690  0.14949878  0.23797454  1
  Nb  Nb102  1  0.06761166  0.97703422  0.67732920  1
  Nb  Nb103  1  0.75210036  0.98120150  0.73001114  1
  Nb  Nb104  1  0.47781064  0.08117738  1.00948830  1
  Nb  Nb105  1  0.05987004  0.21612369  0.46793175  1
  Nb  Nb106  1  0.91322571  0.11113154  0.61962633  1
  Nb  Nb107  1  0.57983916  0.83941958  0.79186885  1
  Nb  Nb108  1  0.46965650  0.42368319  0.83405626  1
  Nb  Nb109  1  0.67490510  0.76697984  0.97687137  1
  Nb  Nb110  1  0.64539002  0.17851081  -0.02107783  1
  Nb  Nb111  1  -0.00377190  0.20145289  0.04696716  1
  Nb  Nb112  1  0.34933661  0.78897393  0.39225137  1
  Nb  Nb113  1  0.80219755  0.16689563  0.14268647  1
  Nb  Nb114  1  0.83184136  0.52044017  0.29998260  1
  Nb  Nb115  1  0.75678442  0.45751943  0.09652848  1
  Nb  Nb116  1  0.39167403  0.78218775  0.83483345  1
  Nb  Nb117  1  0.91970666  0.30158582  0.57804079  1
  Nb  Nb118  1  0.55553574  0.13080931  0.18477350  1
  Nb  Nb119  1  0.42781620  0.97854464  0.83262283  1
  Nb  Nb120  1  0.92979057  1.02814144  0.79256395  1
  Nb  Nb121  1  0.73297545  0.17142988  0.75419705  1
  Nb  Nb122  1  0.67938121  0.82415883  0.17163142  1
  Nb  Nb123  1  0.39007501  0.12527849  0.33570650  1
  Nb  Nb124  1  0.34936776  0.64341817  0.23839123  1
