# generated using pymatgen
data_Zr2Sc2Nb
_symmetry_space_group_name_H-M   'P 1'
_cell_length_a   14.31789519
_cell_length_b   14.05154307
_cell_length_c   14.23030825
_cell_angle_alpha   90.77200305
_cell_angle_beta   90.91047546
_cell_angle_gamma   90.34448774
_symmetry_Int_Tables_number   1
_chemical_formula_structural   Zr2Sc2Nb
_chemical_formula_sum   'Zr50 Sc50 Nb25'
_cell_volume   2862.29784195
_cell_formula_units_Z   25
loop_
 _symmetry_equiv_pos_site_id
 _symmetry_equiv_pos_as_xyz
  1  'x, y, z'
loop_
 _atom_site_type_symbol
 _atom_site_label
 _atom_site_symmetry_multiplicity
 _atom_site_fract_x
 _atom_site_fract_y
 _atom_site_fract_z
 _atom_site_occupancy
  Zr  Zr0  1  0.93538235  0.67002489  0.19113658  1
  Zr  Zr1  1  0.13615286  0.97201402  0.34664546  1
  Zr  Zr2  1  0.32840800  1.04590605  0.30644907  1
  Zr  Zr3  1  0.53468366  0.28089066  0.15556590  1
  Zr  Zr4  1  0.46767537  0.68830535  0.98814881  1
  Zr  Zr5  1  0.24954687  0.35660031  0.60954777  1
  Zr  Zr6  1  0.63696262  0.84903899  0.28769607  1
  Zr  Zr7  1  0.49550812  0.48968184  0.22846134  1
  Zr  Zr8  1  0.86382319  0.71055292  0.75566915  1
  Zr  Zr9  1  0.98048854  0.50798827  0.03561665  1
  Zr  Zr10  1  0.28533664  0.56697505  0.30062829  1
  Zr  Zr11  1  0.96076693  0.88946074  0.91220299  1
  Zr  Zr12  1  0.28381411  0.54454660  0.52957215  1
  Zr  Zr13  1  0.11557431  0.06506714  0.55857500  1
  Zr  Zr14  1  0.04801526  0.13757281  0.94709698  1
  Zr  Zr15  1  0.01348724  0.34800068  0.34599750  1
  Zr  Zr16  1  0.73130449  0.72369970  0.50699645  1
  Zr  Zr17  1  0.46006009  0.87407223  0.68936344  1
  Zr  Zr18  1  0.10224477  0.63573769  0.65617333  1
  Zr  Zr19  1  0.42882444  0.29438437  0.53581870  1
  Zr  Zr20  1  0.74308850  0.19408251  0.73930303  1
  Zr  Zr21  1  0.26459088  0.52473640  0.74136741  1
  Zr  Zr22  1  0.73549156  0.94906972  0.48690230  1
  Zr  Zr23  1  0.08442991  0.07765572  0.14691339  1
  Zr  Zr24  1  0.07470000  0.27556835  0.53311305  1
  Zr  Zr25  1  0.38726659  0.51523993  0.89783666  1
  Zr  Zr26  1  0.55934229  0.86537973  0.88016325  1
  Zr  Zr27  1  0.45531865  0.06472158  0.79027934  1
  Zr  Zr28  1  0.84313509  0.25328765  0.95001386  1
  Zr  Zr29  1  0.66742859  0.80296212  0.69707810  1
  Zr  Zr30  1  0.57310477  0.05444590  0.39653389  1
  Zr  Zr31  1  0.63537144  0.01301138  0.66159536  1
  Zr  Zr32  1  0.47315187  0.47235441  0.64050820  1
  Zr  Zr33  1  0.01909004  0.13922146  0.37128174  1
  Zr  Zr34  1  0.87131929  0.17670028  0.21053621  1
  Zr  Zr35  1  0.28295397  0.74913929  0.05094653  1
  Zr  Zr36  1  0.04514309  0.85574918  0.12302345  1
  Zr  Zr37  1  0.16930750  0.69598682  0.45125942  1
  Zr  Zr38  1  0.68363187  0.19848040  0.51789418  1
  Zr  Zr39  1  0.44038330  0.06634158  0.55807682  1
  Zr  Zr40  1  0.16121303  0.92123447  0.93375049  1
  Zr  Zr41  1  0.34635715  0.16325761  0.13277347  1
  Zr  Zr42  1  0.20959422  0.33197560  0.83981753  1
  Zr  Zr43  1  0.54049943  0.85848443  0.50109380  1
  Zr  Zr44  1  0.48272894  0.07349969  1.00420169  1
  Zr  Zr45  1  0.58017036  0.46883513  0.82370523  1
  Zr  Zr46  1  0.36940789  0.90445956  0.91682190  1
  Zr  Zr47  1  0.02659362  0.77957956  0.33645875  1
  Zr  Zr48  1  0.51669181  0.65946332  0.56439623  1
  Zr  Zr49  1  0.18401496  0.22700418  0.26169121  1
  Sc  Sc50  1  0.87232923  0.34737024  0.53183452  1
  Sc  Sc51  1  0.61698777  0.69761409  0.13649445  1
  Sc  Sc52  1  0.26671109  0.72129734  0.83940148  1
  Sc  Sc53  1  0.74129354  0.34142788  0.12573303  1
  Sc  Sc54  1  0.56360381  0.65181164  0.35538137  1
  Sc  Sc55  1  0.30118078  0.90926916  0.48772924  1
  Sc  Sc56  1  0.26836959  0.96238786  0.11589270  1
  Sc  Sc57  1  0.79910876  0.48589397  0.86867143  1
  Sc  Sc58  1  0.40407865  0.32034258  0.78254179  1
  Sc  Sc59  1  0.06601321  0.42112367  0.69645183  1
  Sc  Sc60  1  0.48351065  0.66763115  0.77135296  1
  Sc  Sc61  1  0.90153084  0.12861808  0.59912032  1
  Sc  Sc62  1  0.05996001  0.20690461  0.74492214  1
  Sc  Sc63  1  0.65233880  0.91797114  0.06392181  1
  Sc  Sc64  1  0.67360387  0.67387906  0.89688408  1
  Sc  Sc65  1  0.66288039  0.05747395  0.87701243  1
  Sc  Sc66  1  0.06222330  -0.00121099  0.75235951  1
  Sc  Sc67  1  0.39725643  0.33359429  0.00318352  1
  Sc  Sc68  1  0.99784516  0.56155773  0.82598278  1
  Sc  Sc69  1  0.57068655  0.48334505  0.03691351  1
  Sc  Sc70  1  0.87708914  0.54469847  0.41275651  1
  Sc  Sc71  1  0.68732118  0.38804745  0.65406330  1
  Sc  Sc72  1  0.60549469  0.27243957  0.91803894  1
  Sc  Sc73  1  0.24575491  0.80337994  0.26954607  1
  Sc  Sc74  1  0.30280378  0.73643459  0.62965647  1
  Sc  Sc75  1  0.87473182  0.70539534  0.97395119  1
  Sc  Sc76  1  0.55075916  0.22113612  0.68946948  1
  Sc  Sc77  1  0.94891268  0.94848298  0.47012381  1
  Sc  Sc78  1  0.99749023  0.29545748  0.11009945  1
  Sc  Sc79  1  0.17842828  0.50823942  0.96289999  1
  Sc  Sc80  1  0.14413018  0.64233065  0.15647049  1
  Sc  Sc81  1  0.26042301  0.93973048  0.72402538  1
  Sc  Sc82  1  0.76778126  0.56334627  0.08536759  1
  Sc  Sc83  1  0.67975860  0.51473983  0.48776064  1
  Sc  Sc84  1  0.86732917  0.01708289  0.05247997  1
  Sc  Sc85  1  0.87627689  0.07219777  0.83234896  1
  Sc  Sc86  1  0.58807761  0.35122000  0.39226557  1
  Sc  Sc87  1  0.19095098  0.28995406  0.04540615  1
  Sc  Sc88  1  0.10783388  0.85551949  0.57742558  1
  Sc  Sc89  1  0.43141387  0.22633872  0.33498043  1
  Sc  Sc90  1  0.27619657  0.15807429  0.68618947  1
  Sc  Sc91  1  0.88591220  0.33648034  0.74571296  1
  Sc  Sc92  1  0.27360215  0.12011960  0.91224396  1
  Sc  Sc93  1  0.94241357  0.71643429  0.53821547  1
  Sc  Sc94  1  0.25547254  0.17500615  0.46003596  1
  Sc  Sc95  1  0.68664061  0.13525759  0.07931426  1
  Sc  Sc96  1  0.90053893  0.46087627  0.22027103  1
  Sc  Sc97  1  0.86974771  0.90830672  0.67923075  1
  Sc  Sc98  1  0.43990134  0.87832059  0.31360822  1
  Sc  Sc99  1  0.08323493  0.70890902  0.96003565  1
  Nb  Nb100  1  0.41635040  0.69179795  0.20290938  1
  Nb  Nb101  1  0.87284461  0.53493496  0.63731266  1
  Nb  Nb102  1  1.01838443  0.35333915  0.90676345  1
  Nb  Nb103  1  0.33234184  0.36853035  0.21978923  1
  Nb  Nb104  1  0.81654151  0.82457456  0.14363467  1
  Nb  Nb105  1  0.74235597  0.00566321  0.24819450  1
  Nb  Nb106  1  0.76748831  0.87459044  0.88284974  1
  Nb  Nb107  1  0.07344497  0.55518805  0.33033596  1
  Nb  Nb108  1  0.37837188  0.70874209  0.42369970  1
  Nb  Nb109  1  0.42999052  0.47804004  0.41965816  1
  Nb  Nb110  1  0.33605579  0.53034412  0.09778523  1
  Nb  Nb111  1  0.79562759  0.32438031  0.34771924  1
  Nb  Nb112  1  0.68657969  0.59741051  0.69215912  1
  Nb  Nb113  1  0.06439003  0.49585163  0.50982051  1
  Nb  Nb114  1  0.93635522  0.97165302  0.25611676  1
  Nb  Nb115  1  0.83319443  0.82826186  0.34756214  1
  Nb  Nb116  1  0.76138434  0.66277577  0.28895304  1
  Nb  Nb117  1  0.66525975  0.19412716  0.28374213  1
  Nb  Nb118  1  0.45931608  0.87124043  0.10796284  1
  Nb  Nb119  1  0.22221942  0.38947557  0.39575643  1
  Nb  Nb120  1  0.52648530  0.04987133  0.20133223  1
  Nb  Nb121  1  0.69307342  0.48508931  0.26982461  1
  Nb  Nb122  1  0.81960750  0.11214112  0.39797510  1
  Nb  Nb123  1  0.14309106  0.43673613  0.18621471  1
  Nb  Nb124  1  0.06773115  0.79053364  0.76945188  1
