# generated using pymatgen
data_Zr2Sc2Nb
_symmetry_space_group_name_H-M   'P 1'
_cell_length_a   13.97222574
_cell_length_b   14.35089265
_cell_length_c   14.28334026
_cell_angle_alpha   90.44565354
_cell_angle_beta   91.45426795
_cell_angle_gamma   91.29629081
_symmetry_Int_Tables_number   1
_chemical_formula_structural   Zr2Sc2Nb
_chemical_formula_sum   'Zr50 Sc50 Nb25'
_cell_volume   2862.25324303
_cell_formula_units_Z   25
loop_
 _symmetry_equiv_pos_site_id
 _symmetry_equiv_pos_as_xyz
  1  'x, y, z'
loop_
 _atom_site_type_symbol
 _atom_site_label
 _atom_site_symmetry_multiplicity
 _atom_site_fract_x
 _atom_site_fract_y
 _atom_site_fract_z
 _atom_site_occupancy
  Zr  Zr0  1  0.54562759  0.08507141  0.29398718  1
  Zr  Zr1  1  0.25161656  0.64146184  0.41950564  1
  Zr  Zr2  1  0.32238094  0.72028032  0.80549400  1
  Zr  Zr3  1  0.44501679  0.89108666  0.86336484  1
  Zr  Zr4  1  0.04494943  0.92994156  0.61022489  1
  Zr  Zr5  1  0.56221421  0.77384610  1.00854757  1
  Zr  Zr6  1  0.56296359  0.07720833  0.91138537  1
  Zr  Zr7  1  0.69177730  0.29059484  0.50805943  1
  Zr  Zr8  1  0.07688258  0.23925082  0.12807882  1
  Zr  Zr9  1  0.86058211  0.89415566  0.96071478  1
  Zr  Zr10  1  0.72724023  0.09544275  0.45396090  1
  Zr  Zr11  1  0.19956645  0.88416271  0.44445782  1
  Zr  Zr12  1  0.90675940  0.59815510  0.76566791  1
  Zr  Zr13  1  0.84009185  0.56924729  0.21938961  1
  Zr  Zr14  1  0.69101331  0.15203822  0.70602556  1
  Zr  Zr15  1  0.32318100  0.38370111  0.88798893  1
  Zr  Zr16  1  0.05629674  0.74525632  0.47335166  1
  Zr  Zr17  1  0.65448192  0.89020587  0.82515271  1
  Zr  Zr18  1  0.96823943  0.70024936  0.11191739  1
  Zr  Zr19  1  0.44802496  0.35139810  0.59774423  1
  Zr  Zr20  1  0.63526063  0.15014018  0.09586537  1
  Zr  Zr21  1  0.70445271  0.89835139  0.34227121  1
  Zr  Zr22  1  0.05212585  0.39318885  0.27571706  1
  Zr  Zr23  1  0.48760435  0.26714343  0.98832401  1
  Zr  Zr24  1  0.40933963  0.44060895  0.08315570  1
  Zr  Zr25  1  0.26795864  0.29612790  0.49662088  1
  Zr  Zr26  1  0.25303163  0.91927826  0.70220910  1
  Zr  Zr27  1  0.69851175  0.26243318  0.90368807  1
  Zr  Zr28  1  0.68541218  0.75693989  0.64022429  1
  Zr  Zr29  1  0.77054243  0.05977234  0.23743739  1
  Zr  Zr30  1  0.85786435  0.83122515  0.74634655  1
  Zr  Zr31  1  0.13981934  0.72410404  0.91115079  1
  Zr  Zr32  1  0.46945547  0.84444364  0.63496655  1
  Zr  Zr33  1  0.12785503  0.26569443  0.89065459  1
  Zr  Zr34  1  0.06688014  0.61575336  0.29672139  1
  Zr  Zr35  1  0.46071568  0.59618736  0.93850746  1
  Zr  Zr36  1  0.05633513  0.20014341  0.68074914  1
  Zr  Zr37  1  0.65547801  0.68501114  0.25853525  1
  Zr  Zr38  1  0.26137630  0.52195626  0.23125289  1
  Zr  Zr39  1  0.17198394  0.08454038  0.02193945  1
  Zr  Zr40  1  0.62645266  0.56687660  0.07432432  1
  Zr  Zr41  1  0.83496197  0.53405906  -0.00038042  1
  Zr  Zr42  1  0.20005160  0.55293424  0.76918580  1
  Zr  Zr43  1  0.26763137  0.31101761  0.26645986  1
  Zr  Zr44  1  0.80502196  0.42326316  0.81182117  1
  Zr  Zr45  1  0.00527748  0.40190255  0.74484325  1
  Zr  Zr46  1  0.66228218  0.96177495  0.60863630  1
  Zr  Zr47  1  0.06061448  0.87604426  0.03505162  1
  Zr  Zr48  1  0.83778545  0.45895972  0.58249572  1
  Zr  Zr49  1  0.59214764  0.44469737  0.88394462  1
  Sc  Sc50  1  0.93694264  0.17413820  0.28286496  1
  Sc  Sc51  1  0.72290172  0.67268490  0.86563203  1
  Sc  Sc52  1  0.31096722  0.16600098  0.67147885  1
  Sc  Sc53  1  0.72400018  0.63210331  0.45663458  1
  Sc  Sc54  1  0.15352617  0.06613217  0.28503903  1
  Sc  Sc55  1  0.43556582  0.64074420  0.15562364  1
  Sc  Sc56  1  0.36149602  0.00471179  0.53908042  1
  Sc  Sc57  1  0.98642178  0.09328012  0.92333347  1
  Sc  Sc58  1  0.07470758  0.55881086  0.58693542  1
  Sc  Sc59  1  0.33775805  0.11907403  0.17800256  1
  Sc  Sc60  1  0.17535242  0.67365316  0.11580516  1
  Sc  Sc61  1  0.07044814  0.74215296  0.71257689  1
  Sc  Sc62  1  0.96590486  0.96436010  0.37110876  1
  Sc  Sc63  1  0.86336860  0.87088234  0.18894428  1
  Sc  Sc64  1  0.47883057  0.27283998  0.19579333  1
  Sc  Sc65  1  0.57704943  0.47986961  0.49330483  1
  Sc  Sc66  1  0.67394208  0.36771580  0.09119712  1
  Sc  Sc67  1  0.21481481  0.35488444  0.69591405  1
  Sc  Sc68  1  0.70126494  0.25093679  0.28752800  1
  Sc  Sc69  1  0.74642171  0.44889517  0.35882824  1
  Sc  Sc70  1  0.24853207  0.91442719  0.14014263  1
  Sc  Sc71  1  0.45777977  0.97826617  0.07348188  1
  Sc  Sc72  1  0.54965686  0.47446038  0.26289797  1
  Sc  Sc73  1  0.35556773  0.96107603  0.31952477  1
  Sc  Sc74  1  0.66703820  0.55099729  0.68526388  1
  Sc  Sc75  1  0.08900090  0.83126709  0.26038646  1
  Sc  Sc76  1  0.42525895  0.50434882  0.74387837  1
  Sc  Sc77  1  0.77141099  0.06563468  0.89859720  1
  Sc  Sc78  1  0.53183496  0.70501360  0.77781879  1
  Sc  Sc79  1  0.87802099  0.73919456  0.35021779  1
  Sc  Sc80  1  0.89392438  0.04583400  0.70983693  1
  Sc  Sc81  1  0.67923483  0.94363334  0.07493931  1
  Sc  Sc82  1  0.97528416  0.03770417  0.13137921  1
  Sc  Sc83  1  0.23920540  0.92120780  0.91130034  1
  Sc  Sc84  1  0.50707529  0.83799604  0.24789268  1
  Sc  Sc85  1  0.86660090  0.35721250  0.18819866  1
  Sc  Sc86  1  0.25671763  0.72829715  0.60374079  1
  Sc  Sc87  1  0.16248255  0.08790623  0.52175304  1
  Sc  Sc88  1  0.49654412  0.29042163  0.39748101  1
  Sc  Sc89  1  0.34010714  0.12063761  0.89007744  1
  Sc  Sc90  1  0.76247916  0.72930984  0.06830336  1
  Sc  Sc91  1  0.46261059  0.63596224  0.56976838  1
  Sc  Sc92  1  0.49339329  0.25393770  0.77963755  1
  Sc  Sc93  1  0.34556310  0.77025977  0.02293625  1
  Sc  Sc94  1  0.48868070  0.03892419  0.71749684  1
  Sc  Sc95  1  0.88955425  0.68121072  0.57973990  1
  Sc  Sc96  1  0.83563000  0.88224009  0.52102172  1
  Sc  Sc97  1  0.05063551  0.52759424  0.92062261  1
  Sc  Sc98  1  0.94583365  0.34685230  0.98394582  1
  Sc  Sc99  1  0.94313302  0.13095262  0.50353026  1
  Nb  Nb100  1  0.93605624  0.72175381  0.91492793  1
  Nb  Nb101  1  0.94250406  0.52466203  0.41921006  1
  Nb  Nb102  1  0.17707802  0.41159578  0.06439866  1
  Nb  Nb103  1  0.28722937  0.26198676  0.04961880  1
  Nb  Nb104  1  0.29744853  0.75458630  0.27035294  1
  Nb  Nb105  1  0.83753065  0.18508390  0.06462275  1
  Nb  Nb106  1  0.37597141  0.46389009  0.40605285  1
  Nb  Nb107  1  1.02197275  0.50642756  0.11870567  1
  Nb  Nb108  1  0.46736768  0.64082791  0.36100737  1
  Nb  Nb109  1  0.26859414  0.56360265  0.97318675  1
  Nb  Nb110  1  0.52634524  0.15550693  0.55160556  1
  Nb  Nb111  1  0.89427307  0.31880684  0.41847437  1
  Nb  Nb112  1  0.28701059  0.50489358  0.57528416  1
  Nb  Nb113  1  0.04190187  0.35415603  0.53916920  1
  Nb  Nb114  1  0.34640332  0.14702987  0.39583023  1
  Nb  Nb115  1  0.85646748  0.26880896  0.63262829  1
  Nb  Nb116  1  0.53531435  0.97292634  0.44985383  1
  Nb  Nb117  1  0.10600647  0.23946723  0.38921366  1
  Nb  Nb118  1  0.16304425  0.45509888  0.42155444  1
  Nb  Nb119  1  0.39418094  0.80493553  0.44587203  1
  Nb  Nb120  1  0.59231362  0.78512689  0.45862289  1
  Nb  Nb121  1  0.65461814  0.34657086  0.68858940  1
  Nb  Nb122  1  0.03642950  0.90846437  0.82984720  1
  Nb  Nb123  1  0.88547972  0.23370546  0.81886431  1
  Nb  Nb124  1  0.14484647  0.06610699  0.78333067  1
