# generated using pymatgen
data_Zr2Sc2Nb
_symmetry_space_group_name_H-M   'P 1'
_cell_length_a   14.77751820
_cell_length_b   13.98797629
_cell_length_c   13.89112900
_cell_angle_alpha   87.70994138
_cell_angle_beta   86.79682991
_cell_angle_gamma   91.77213540
_symmetry_Int_Tables_number   1
_chemical_formula_structural   Zr2Sc2Nb
_chemical_formula_sum   'Zr50 Sc50 Nb25'
_cell_volume   2863.04323233
_cell_formula_units_Z   25
loop_
 _symmetry_equiv_pos_site_id
 _symmetry_equiv_pos_as_xyz
  1  'x, y, z'
loop_
 _atom_site_type_symbol
 _atom_site_label
 _atom_site_symmetry_multiplicity
 _atom_site_fract_x
 _atom_site_fract_y
 _atom_site_fract_z
 _atom_site_occupancy
  Zr  Zr0  1  0.17813888  0.96692214  0.88212536  1
  Zr  Zr1  1  0.87553011  0.25502799  0.79487737  1
  Zr  Zr2  1  0.56475349  0.39740531  0.62531205  1
  Zr  Zr3  1  0.42154830  0.51407860  0.11972609  1
  Zr  Zr4  1  0.48543349  0.02662226  0.41280825  1
  Zr  Zr5  1  0.97325388  0.36336348  0.54426480  1
  Zr  Zr6  1  0.39874341  0.60661730  0.91804893  1
  Zr  Zr7  1  0.66722204  0.39739031  0.81128529  1
  Zr  Zr8  1  0.73111749  0.46233159  0.14859771  1
  Zr  Zr9  1  0.81785892  0.40862228  0.32605933  1
  Zr  Zr10  1  0.55765347  0.29577226  0.05168593  1
  Zr  Zr11  1  0.77312773  0.67225685  1.05175957  1
  Zr  Zr12  1  0.16995482  0.82095806  0.06195148  1
  Zr  Zr13  1  0.05237535  0.51590238  0.37040888  1
  Zr  Zr14  1  0.92901189  0.77951239  0.13709534  1
  Zr  Zr15  1  0.97363109  0.03344982  0.82497142  1
  Zr  Zr16  1  0.62507791  0.29775656  0.41465419  1
  Zr  Zr17  1  0.28358629  0.12726418  0.74074169  1
  Zr  Zr18  1  0.68019486  0.98592615  0.68787444  1
  Zr  Zr19  1  0.37194350  0.70176654  0.72123993  1
  Zr  Zr20  1  0.90888182  0.34981852  0.10086660  1
  Zr  Zr21  1  0.19527402  0.73787160  0.85244960  1
  Zr  Zr22  1  0.21324975  0.52890110  0.84684604  1
  Zr  Zr23  1  0.09756380  0.23914573  0.07614158  1
  Zr  Zr24  1  0.44444705  0.26583088  0.74239713  1
  Zr  Zr25  1  0.36123658  0.48804198  0.68911021  1
  Zr  Zr26  1  0.45834746  0.59523805  0.33100159  1
  Zr  Zr27  1  0.52726149  0.18349661  0.25542619  1
  Zr  Zr28  1  0.02708498  0.59784177  0.78864491  1
  Zr  Zr29  1  0.33174729  0.09423611  0.27622635  1
  Zr  Zr30  1  0.93267179  0.16384068  0.20782247  1
  Zr  Zr31  1  0.79849226  0.75824385  0.49867799  1
  Zr  Zr32  1  0.21820332  0.83433392  0.58872496  1
  Zr  Zr33  1  0.11326429  0.09014905  0.26870860  1
  Zr  Zr34  1  0.57672720  0.71321655  0.95442389  1
  Zr  Zr35  1  0.09907043  0.65493270  0.21207187  1
  Zr  Zr36  1  0.22206504  0.14410646  0.46003331  1
  Zr  Zr37  1  0.66665462  0.20887147  0.71478287  1
  Zr  Zr38  1  0.84066649  0.97665601  0.47734200  1
  Zr  Zr39  1  0.88362966  0.73030691  0.86987028  1
  Zr  Zr40  1  0.65631593  0.11417578  0.52145790  1
  Zr  Zr41  1  0.50012250  0.80942885  0.33597574  1
  Zr  Zr42  1  0.61622198  0.64046447  0.20170737  1
  Zr  Zr43  1  0.35756144  0.81132841  0.94503961  1
  Zr  Zr44  1  0.25458053  0.47847161  0.27530953  1
  Zr  Zr45  1  0.75636817  0.07238673  0.88092183  1
  Zr  Zr46  1  1.02862984  1.00778548  0.06639500  1
  Zr  Zr47  1  0.24803819  0.62048927  0.06395133  1
  Zr  Zr48  1  0.70506693  0.84991981  0.86814253  1
  Zr  Zr49  1  0.69986947  0.55744221  0.61917906  1
  Sc  Sc50  1  0.03934834  0.36929289  0.88736124  1
  Sc  Sc51  1  0.45782127  0.20407835  0.52937103  1
  Sc  Sc52  1  0.25143614  0.40230891  0.01901319  1
  Sc  Sc53  1  0.55275325  0.14411508  0.89020311  1
  Sc  Sc54  1  0.33238468  0.21331535  0.94008338  1
  Sc  Sc55  1  0.54476128  0.40994205  0.24944306  1
  Sc  Sc56  1  0.75242764  0.83768352  0.29088811  1
  Sc  Sc57  1  0.67222542  0.86188028  0.10436762  1
  Sc  Sc58  1  0.50871409  0.85438381  0.79450235  1
  Sc  Sc59  1  0.76662476  0.34408058  0.56714963  1
  Sc  Sc60  1  0.28463968  0.30431796  0.59703534  1
  Sc  Sc61  1  0.72920190  0.24176268  0.20321785  1
  Sc  Sc62  1  0.85665941  0.12401930  0.63414922  1
  Sc  Sc63  1  0.84937672  0.49398165  0.94516573  1
  Sc  Sc64  1  0.09087569  0.44705260  0.14738333  1
  Sc  Sc65  1  0.44211003  0.44260825  0.47590662  1
  Sc  Sc66  1  0.85591495  0.91580769  -0.02050006  1
  Sc  Sc67  1  0.85556881  0.89185224  0.69587299  1
  Sc  Sc68  1  0.35674402  0.29945359  0.36271617  1
  Sc  Sc69  1  0.95745864  0.72695290  0.35005888  1
  Sc  Sc70  1  0.12757725  0.86556866  0.26033597  1
  Sc  Sc71  1  0.03281821  0.62126829  1.00510618  1
  Sc  Sc72  1  0.10063354  0.95573877  0.44876117  1
  Sc  Sc73  1  0.34933887  0.69599546  0.48776449  1
  Sc  Sc74  1  0.85388728  0.55045014  0.47394947  1
  Sc  Sc75  1  0.45675088  0.74331827  0.12711831  1
  Sc  Sc76  1  0.29040505  0.70655550  0.26599771  1
  Sc  Sc77  1  0.64193177  0.89841384  0.48061310  1
  Sc  Sc78  1  0.02749479  0.58550671  0.56976175  1
  Sc  Sc79  1  0.82361248  0.19636140  0.40581503  1
  Sc  Sc80  1  0.93311007  0.95531856  0.28074994  1
  Sc  Sc81  1  0.75046247  0.26887011  -0.02004296  1
  Sc  Sc82  1  0.69076922  0.04505214  0.30404254  1
  Sc  Sc83  1  0.34109238  0.91388858  0.14248462  1
  Sc  Sc84  1  0.44329393  0.40522896  0.89195840  1
  Sc  Sc85  1  0.23795482  0.51837046  0.49153062  1
  Sc  Sc86  1  0.36681619  0.28942594  0.14619071  1
  Sc  Sc87  1  0.48730237  0.05255369  0.69097949  1
  Sc  Sc88  1  0.12706092  0.02419262  0.65599555  1
  Sc  Sc89  1  0.45903737  0.85326878  0.57322539  1
  Sc  Sc90  1  1.00280242  0.32107271  0.31384697  1
  Sc  Sc91  1  0.07799519  0.23359010  0.68518144  1
  Sc  Sc92  1  0.22974688  0.07554655  0.07598118  1
  Sc  Sc93  1  0.87478879  0.46515161  0.72099609  1
  Sc  Sc94  1  0.30442821  0.89904922  0.38041400  1
  Sc  Sc95  1  -0.00374115  0.79974603  0.54582410  1
  Sc  Sc96  1  0.01477379  0.15425290  0.46826756  1
  Sc  Sc97  1  0.65279403  0.75624011  0.67016744  1
  Sc  Sc98  1  0.60678280  0.50903203  0.99050308  1
  Sc  Sc99  1  0.05183213  0.82273569  0.73941406  1
  Nb  Nb100  1  0.31568204  0.91052681  0.74152609  1
  Nb  Nb101  1  0.51922332  -0.03054470  0.20831785  1
  Nb  Nb102  1  0.53025991  0.93636848  0.99120627  1
  Nb  Nb103  1  0.63894124  0.08810931  0.07883617  1
  Nb  Nb104  1  0.15111845  0.71289957  0.43043588  1
  Nb  Nb105  1  0.12080267  0.16313083  0.88902749  1
  Nb  Nb106  1  0.44395760  0.10123789  0.07944208  1
  Nb  Nb107  1  0.72524242  0.61784355  0.82751108  1
  Nb  Nb108  1  0.32799104  1.02027283  0.55825555  1
  Nb  Nb109  1  0.63028839  0.68952690  0.42812161  1
  Nb  Nb110  1  0.64605558  0.50269132  0.41353355  1
  Nb  Nb111  1  0.51306542  0.61667945  0.56931893  1
  Nb  Nb112  1  0.81008307  0.04617698  0.11668109  1
  Nb  Nb113  1  0.92807044  0.16393146  -0.02043557  1
  Nb  Nb114  1  0.38002178  0.01318039  0.90360811  1
  Nb  Nb115  1  0.23618598  0.32978746  0.80574049  1
  Nb  Nb116  1  0.78282032  0.63044245  0.28986743  1
  Nb  Nb117  1  0.19329255  0.64415960  0.65630875  1
  Nb  Nb118  1  0.86317766  0.67527204  0.67518590  1
  Nb  Nb119  1  0.13327054  0.43836618  0.67073597  1
  Nb  Nb120  1  0.14938486  0.33708386  0.45250898  1
  Nb  Nb121  1  0.54558398  0.57754038  0.77268303  1
  Nb  Nb122  1  1.02812888  0.83411780  0.94526878  1
  Nb  Nb123  1  0.18906679  0.27153518  0.25681677  1
  Nb  Nb124  1  0.91821402  0.55309133  0.18803931  1
