# generated using pymatgen
data_Zr2Sc2Nb
_symmetry_space_group_name_H-M   'P 1'
_cell_length_a   14.73076604
_cell_length_b   13.60556470
_cell_length_c   14.39094126
_cell_angle_alpha   87.94071430
_cell_angle_beta   88.55919746
_cell_angle_gamma   90.57253777
_symmetry_Int_Tables_number   1
_chemical_formula_structural   Zr2Sc2Nb
_chemical_formula_sum   'Zr50 Sc50 Nb25'
_cell_volume   2881.29268756
_cell_formula_units_Z   25
loop_
 _symmetry_equiv_pos_site_id
 _symmetry_equiv_pos_as_xyz
  1  'x, y, z'
loop_
 _atom_site_type_symbol
 _atom_site_label
 _atom_site_symmetry_multiplicity
 _atom_site_fract_x
 _atom_site_fract_y
 _atom_site_fract_z
 _atom_site_occupancy
  Zr  Zr0  1  0.33312281  0.85959714  0.91759278  1
  Zr  Zr1  1  0.38082710  0.54428580  0.47732400  1
  Zr  Zr2  1  0.25535610  0.77255837  0.12616171  1
  Zr  Zr3  1  0.15240951  0.41975705  0.71496773  1
  Zr  Zr4  1  0.56625606  0.77472771  0.67787272  1
  Zr  Zr5  1  0.26695441  0.30319897  0.86114548  1
  Zr  Zr6  1  0.10061753  0.71084687  0.44698362  1
  Zr  Zr7  1  0.72386770  0.44714507  0.03303653  1
  Zr  Zr8  1  0.44650738  0.96453621  0.68201906  1
  Zr  Zr9  1  0.74933028  0.70364369  0.29491833  1
  Zr  Zr10  1  0.38720427  0.17362143  0.73008001  1
  Zr  Zr11  1  0.68932659  0.25085780  0.90591180  1
  Zr  Zr12  1  0.09602322  0.49453207  0.13683291  1
  Zr  Zr13  1  0.83005242  0.41506001  0.84658248  1
  Zr  Zr14  1  0.72979119  0.65866838  0.09012317  1
  Zr  Zr15  1  0.85854574  0.45975695  0.20303254  1
  Zr  Zr16  1  0.93433480  0.66423147  0.17633094  1
  Zr  Zr17  1  0.98081057  0.21705453  0.70496447  1
  Zr  Zr18  1  0.01415362  0.28811886  0.11038293  1
  Zr  Zr19  1  0.51153029  0.13175237  0.55805764  1
  Zr  Zr20  1  0.07987988  0.63654982  0.65503185  1
  Zr  Zr21  1  0.80765199  0.09168732  0.23209862  1
  Zr  Zr22  1  0.79317421  0.49621034  0.39514401  1
  Zr  Zr23  1  0.44527602  0.49942918  0.27544550  1
  Zr  Zr24  1  0.93526071  0.49878544  0.01651685  1
  Zr  Zr25  1  0.06412579  0.09547840  0.54619484  1
  Zr  Zr26  1  0.12405490  0.31770737  0.29101037  1
  Zr  Zr27  1  0.02057672  0.50003480  0.33856923  1
  Zr  Zr28  1  0.12412657  0.13643746  0.93294652  1
  Zr  Zr29  1  0.03586040  0.85418249  0.12296602  1
  Zr  Zr30  1  0.27079938  0.71606015  0.55877436  1
  Zr  Zr31  1  0.71950410  0.85383420  0.95086230  1
  Zr  Zr32  1  0.82559387  0.26895297  0.07943494  1
  Zr  Zr33  1  0.17436916  0.50871569  0.52039114  1
  Zr  Zr34  1  0.04628041  0.34196925  0.89302282  1
  Zr  Zr35  1  0.57696172  0.31562964  0.66246452  1
  Zr  Zr36  1  0.77106529  0.81246863  0.75827906  1
  Zr  Zr37  1  0.15344456  0.86972604  0.63942627  1
  Zr  Zr38  1  0.29697491  0.57634365  0.72776130  1
  Zr  Zr39  1  0.01839813  0.58007687  0.84815835  1
  Zr  Zr40  1  0.20117534  0.12870365  0.38368613  1
  Zr  Zr41  1  0.17753715  0.20600906  0.70387505  1
  Zr  Zr42  1  0.66952458  0.31476148  0.45414707  1
  Zr  Zr43  1  0.86650158  0.01876507  0.66445567  1
  Zr  Zr44  1  0.95820039  0.42060900  0.69080383  1
  Zr  Zr45  1  0.94703153  0.52887852  0.52281179  1
  Zr  Zr46  1  0.32076165  0.31076294  0.27439559  1
  Zr  Zr47  1  0.90339851  0.95492001  0.91322697  1
  Zr  Zr48  1  0.21148436  0.97299877  0.06628167  1
  Zr  Zr49  1  0.53317035  0.28941113  0.27243497  1
  Sc  Sc50  1  0.76898324  0.90121706  0.51225275  1
  Sc  Sc51  1  0.02571456  0.07276941  0.30573531  1
  Sc  Sc52  1  0.31065488  0.73856574  0.34377652  1
  Sc  Sc53  1  0.46178406  0.72203341  0.04326416  1
  Sc  Sc54  1  0.84952020  0.08860104  0.43527922  1
  Sc  Sc55  1  0.41128303  0.12400670  0.37863796  1
  Sc  Sc56  1  0.53723111  0.88861693  0.86300368  1
  Sc  Sc57  1  0.77137123  0.24307540  0.71928579  1
  Sc  Sc58  1  0.18570790  0.14591328  0.16908857  1
  Sc  Sc59  1  0.41077763  0.13739056  0.15758533  1
  Sc  Sc60  1  0.81828309  0.87591230  0.13272028  1
  Sc  Sc61  1  0.23756854  0.51590129  0.31788650  1
  Sc  Sc62  1  0.34827745  0.10684677  0.94698670  1
  Sc  Sc63  1  0.99452260  0.90903273  0.48661176  1
  Sc  Sc64  1  0.49456769  0.92891620  0.30753473  1
  Sc  Sc65  1  0.97721376  0.06733364  0.08964765  1
  Sc  Sc66  1  0.75080835  0.06607521  0.03513854  1
  Sc  Sc67  1  0.37669336  0.90706923  0.49016402  1
  Sc  Sc68  1  0.04620569  0.02032522  0.76409609  1
  Sc  Sc69  1  0.42581543  0.93462546  0.09480310  1
  Sc  Sc70  1  0.61115163  0.46580851  0.84346309  1
  Sc  Sc71  1  0.91760191  0.28197005  0.31900474  1
  Sc  Sc72  1  0.74117051  0.46265010  0.61117688  1
  Sc  Sc73  1  0.69273396  0.69061653  0.50917669  1
  Sc  Sc74  1  0.86019448  0.28669382  0.53107207  1
  Sc  Sc75  1  0.39230423  0.47679438  0.89979199  1
  Sc  Sc76  1  0.89725042  0.88758967  0.31301571  1
  Sc  Sc77  1  0.55941225  0.07603505  0.97902181  1
  Sc  Sc78  1  0.89645805  0.74097840  0.57235381  1
  Sc  Sc79  1  0.48727523  0.28009365  0.88404965  1
  Sc  Sc80  1  0.53791820  0.52312696  0.05260436  1
  Sc  Sc81  1  0.61282982  0.84979385  0.14071037  1
  Sc  Sc82  1  0.30404983  0.54411327  0.10901896  1
  Sc  Sc83  1  0.51266692  0.54704325  0.64905802  1
  Sc  Sc84  1  0.63743478  0.10600726  0.38353113  1
  Sc  Sc85  1  0.42128610  0.34548518  0.08455366  1
  Sc  Sc86  1  0.97644825  0.79865237  0.76761354  1
  Sc  Sc87  1  0.54288234  0.70620773  0.32352365  1
  Sc  Sc88  1  0.27885719  0.07260096  0.57437248  1
  Sc  Sc89  1  0.46585276  0.34322009  0.46494606  1
  Sc  Sc90  1  0.06148814  0.31871617  0.50688904  1
  Sc  Sc91  1  0.91872455  0.74546482  0.97698133  1
  Sc  Sc92  1  0.21537007  0.33110357  0.05977301  1
  Sc  Sc93  1  0.64692779  0.49471537  0.24174953  1
  Sc  Sc94  1  0.24941210  0.99488649  0.78479845  1
  Sc  Sc95  1  0.90033264  0.17686121  0.89728066  1
  Sc  Sc96  1  0.10862293  0.87602118  0.92320141  1
  Sc  Sc97  1  0.29092049  0.96224119  0.26621180  1
  Sc  Sc98  1  0.36503465  0.37971898  0.66534476  1
  Sc  Sc99  1  0.26528230  0.30366752  0.49342013  1
  Nb  Nb100  1  0.60841883  0.08187624  0.18892840  1
  Nb  Nb101  1  0.10922865  0.86681172  0.29288022  1
  Nb  Nb102  1  0.11790784  0.67354085  0.24196676  1
  Nb  Nb103  1  0.17942094  0.72846131  0.80444362  1
  Nb  Nb104  1  0.18900230  0.92176109  0.44858666  1
  Nb  Nb105  1  0.79645637  0.61844883  0.89314028  1
  Nb  Nb106  1  0.47437296  0.72404972  0.51710298  1
  Nb  Nb107  1  0.70108412  0.12192513  0.57978168  1
  Nb  Nb108  1  0.73600916  0.04360898  0.82580534  1
  Nb  Nb109  1  0.87028404  0.60383163  0.71790194  1
  Nb  Nb110  1  0.69470815  0.91182323  0.31974350  1
  Nb  Nb111  1  0.72389845  0.28493179  0.25548679  1
  Nb  Nb112  1  0.61243063  0.26701080  0.08912303  1
  Nb  Nb113  1  0.18276429  0.50345833  0.91996611  1
  Nb  Nb114  1  0.58429392  0.52339784  0.44575496  1
  Nb  Nb115  1  0.92895483  0.68785553  0.37199339  1
  Nb  Nb116  1  0.11209749  0.67177158  0.02009920  1
  Nb  Nb117  1  0.68582071  0.62747281  0.72801825  1
  Nb  Nb118  1  0.65004385  -0.03657553  0.67734094  1
  Nb  Nb119  1  0.46743158  0.66674092  0.82883149  1
  Nb  Nb120  1  0.29490022  0.66508039  0.93165366  1
  Nb  Nb121  1  0.62441579  0.67929588  0.91191573  1
  Nb  Nb122  1  0.35289981  0.78873466  0.71954835  1
  Nb  Nb123  1  0.57652031  0.12428696  0.76508712  1
  Nb  Nb124  1  0.57657061  0.91724401  0.49875366  1
