# generated using pymatgen
data_Zr2Sc2Nb
_symmetry_space_group_name_H-M   'P 1'
_cell_length_a   14.42147498
_cell_length_b   13.89290957
_cell_length_c   14.31595011
_cell_angle_alpha   91.58218061
_cell_angle_beta   90.58813586
_cell_angle_gamma   89.51468808
_symmetry_Int_Tables_number   1
_chemical_formula_structural   Zr2Sc2Nb
_chemical_formula_sum   'Zr50 Sc50 Nb25'
_cell_volume   2866.94929169
_cell_formula_units_Z   25
loop_
 _symmetry_equiv_pos_site_id
 _symmetry_equiv_pos_as_xyz
  1  'x, y, z'
loop_
 _atom_site_type_symbol
 _atom_site_label
 _atom_site_symmetry_multiplicity
 _atom_site_fract_x
 _atom_site_fract_y
 _atom_site_fract_z
 _atom_site_occupancy
  Zr  Zr0  1  0.73248063  0.60140339  0.30739193  1
  Zr  Zr1  1  0.76986523  0.95284780  0.17340278  1
  Zr  Zr2  1  0.66953916  0.20303369  0.66386020  1
  Zr  Zr3  1  0.22504432  0.38432868  0.08122515  1
  Zr  Zr4  1  -0.01229917  0.41739461  0.78614057  1
  Zr  Zr5  1  0.94289990  0.60414862  0.65181688  1
  Zr  Zr6  1  0.08317698  0.50984276  0.41208654  1
  Zr  Zr7  1  0.48917500  0.09135723  0.16702630  1
  Zr  Zr8  1  0.83578529  0.09472708  0.36891525  1
  Zr  Zr9  1  0.08990449  0.48151066  0.20525296  1
  Zr  Zr10  1  0.47511849  0.96075009  0.95308504  1
  Zr  Zr11  1  0.55279327  0.35911097  0.58120011  1
  Zr  Zr12  1  0.76129631  0.02110422  0.56046129  1
  Zr  Zr13  1  0.96341672  0.15848166  0.52162538  1
  Zr  Zr14  1  0.87250063  0.54681112  0.46301167  1
  Zr  Zr15  1  0.10196359  0.06916400  0.36566590  1
  Zr  Zr16  1  0.79622047  0.43745731  0.87537592  1
  Zr  Zr17  1  0.66277012  0.47678952  0.47118992  1
  Zr  Zr18  1  0.95483022  0.90933324  0.05819740  1
  Zr  Zr19  1  0.94158356  0.64201508  0.27273561  1
  Zr  Zr20  1  0.43627086  0.93205026  0.71949257  1
  Zr  Zr21  1  0.24968804  0.79947189  0.67988403  1
  Zr  Zr22  1  0.16162761  0.68596469  0.29049902  1
  Zr  Zr23  1  0.86056808  0.24299021  0.68340520  1
  Zr  Zr24  1  0.53070185  0.57025787  0.30078243  1
  Zr  Zr25  1  0.82828252  0.31864552  0.45673133  1
  Zr  Zr26  1  0.44056702  0.48438526  0.10312933  1
  Zr  Zr27  1  0.58425752  0.04886129  0.81109895  1
  Zr  Zr28  1  0.11802229  0.22875063  0.19963509  1
  Zr  Zr29  1  0.56954449  0.89185041  0.13159445  1
  Zr  Zr30  1  0.45366159  0.73967302  0.60132895  1
  Zr  Zr31  1  0.69273662  0.15857341  0.22070835  1
  Zr  Zr32  1  0.75092444  -0.04858883  0.93670190  1
  Zr  Zr33  1  0.86126007  0.54247442  0.05995296  1
  Zr  Zr34  1  0.40782637  0.42998619  0.72764089  1
  Zr  Zr35  1  0.55718401  0.38437488  0.94407410  1
  Zr  Zr36  1  0.64334890  0.68366339  0.49475921  1
  Zr  Zr37  1  0.61286823  0.80486644  0.92508703  1
  Zr  Zr38  1  0.89697170  0.23699163  0.22381203  1
  Zr  Zr39  1  0.88340126  0.44278982  0.25897488  1
  Zr  Zr40  1  0.19020980  0.79764028  0.09345339  1
  Zr  Zr41  1  0.33070035  0.09459578  0.85684815  1
  Zr  Zr42  1  0.02673499  0.30669022  0.37558204  1
  Zr  Zr43  1  0.68810354  0.22046863  0.88478003  1
  Zr  Zr44  1  0.47950419  0.23340323  0.76738548  1
  Zr  Zr45  1  0.34426553  0.90600190  0.51368994  1
  Zr  Zr46  1  0.29706977  0.87265306  0.88036835  1
  Zr  Zr47  1  0.26643199  0.27536731  0.75541710  1
  Zr  Zr48  1  0.46474685  0.15778428  0.36471386  1
  Zr  Zr49  1  0.43922517  0.93578272  0.32107195  1
  Sc  Sc50  1  0.37322450  0.26583713  0.54860236  1
  Sc  Sc51  1  0.68531329  0.36444201  0.28902322  1
  Sc  Sc52  1  0.83725365  0.11132025  0.04698714  1
  Sc  Sc53  1  0.66612066  0.49221810  0.12060771  1
  Sc  Sc54  1  1.01002266  0.69179274  0.08059470  1
  Sc  Sc55  1  0.57807760  0.89113142  0.50779743  1
  Sc  Sc56  1  0.25876774  0.59432711  0.08395450  1
  Sc  Sc57  1  0.96228603  1.02367384  0.87447970  1
  Sc  Sc58  1  0.06412232  0.18905705  0.72186080  1
  Sc  Sc59  1  0.81466493  0.73950452  0.95884489  1
  Sc  Sc60  1  0.77076117  0.73661615  0.15504471  1
  Sc  Sc61  1  0.25334230  0.29948744  0.35619851  1
  Sc  Sc62  1  0.28948805  0.09680726  0.25269617  1
  Sc  Sc63  1  0.26621074  0.15434438  0.04819689  1
  Sc  Sc64  1  0.80209476  0.82285856  0.36148500  1
  Sc  Sc65  1  0.11099894  0.62024613  0.77512459  1
  Sc  Sc66  1  0.78730183  0.44533903  0.64806286  1
  Sc  Sc67  1  0.56050787  0.57477440  0.68737322  1
  Sc  Sc68  1  0.03481389  0.81994851  0.64503094  1
  Sc  Sc69  1  0.14439908  -0.01932429  0.76178097  1
  Sc  Sc70  1  0.65798589  0.86190725  0.71241686  1
  Sc  Sc71  1  0.31591923  0.52339654  0.29578477  1
  Sc  Sc72  1  0.50163027  0.08907008  0.57284562  1
  Sc  Sc73  1  0.86971849  0.83966793  0.78178604  1
  Sc  Sc74  1  0.15304078  0.98520995  0.97167810  1
  Sc  Sc75  1  0.47775424  0.37313477  0.36858420  1
  Sc  Sc76  1  0.82526023  0.78708248  0.57309352  1
  Sc  Sc77  1  0.38160926  0.28901253  0.18173496  1
  Sc  Sc78  1  0.65229132  0.20402062  0.44637427  1
  Sc  Sc79  1  0.13265814  0.27822178  0.91626192  1
  Sc  Sc80  1  0.28927510  0.68342174  0.46135488  1
  Sc  Sc81  1  0.90728426  0.23421348  0.88814537  1
  Sc  Sc82  1  0.98254591  0.35415952  0.06094371  1
  Sc  Sc83  1  0.29728577  0.08561941  0.65177332  1
  Sc  Sc84  1  0.13445920  0.63436255  0.57107497  1
  Sc  Sc85  1  0.07981038  0.52176525  0.96973926  1
  Sc  Sc86  1  0.40695220  0.74414975  0.01706231  1
  Sc  Sc87  1  0.63455850  0.58478821  0.91431150  1
  Sc  Sc88  1  0.02539819  0.84835434  0.26972945  1
  Sc  Sc89  1  0.16115739  0.43646042  0.67252047  1
  Sc  Sc90  1  0.28673465  0.46257303  0.51421769  1
  Sc  Sc91  1  0.06205579  0.79563710  0.88920959  1
  Sc  Sc92  1  0.75114202  0.64859656  0.74895175  1
  Sc  Sc93  1  0.45240109  0.73296556  0.80843256  1
  Sc  Sc94  1  0.76733308  0.31703712  0.06322078  1
  Sc  Sc95  1  0.56731372  0.67354018  0.11333774  1
  Sc  Sc96  1  0.64091517  0.99608260  0.34337418  1
  Sc  Sc97  1  0.33997083  0.93512883  0.11348101  1
  Sc  Sc98  1  0.95417416  0.93720085  0.46175788  1
  Sc  Sc99  1  0.16125781  0.24377067  0.54148752  1
  Nb  Nb100  1  0.42156319  0.54873481  0.90341067  1
  Nb  Nb101  1  0.12532568  0.01725470  0.56360975  1
  Nb  Nb102  1  0.14963082  0.84650097  0.46576560  1
  Nb  Nb103  1  0.93908804  0.01395548  0.66379950  1
  Nb  Nb104  1  0.24816572  0.88288729  0.30967218  1
  Nb  Nb105  1  0.13424682  0.99589543  0.16703615  1
  Nb  Nb106  1  0.62942101  0.39679375  0.76659956  1
  Nb  Nb107  1  0.92479487  0.60842001  0.86102714  1
  Nb  Nb108  1  0.46283768  0.55102274  0.50366396  1
  Nb  Nb109  1  0.03296427  0.13613615  0.05077888  1
  Nb  Nb110  1  0.78469395  0.05972581  0.77011169  1
  Nb  Nb111  1  0.47748950  0.18040093  0.97639713  1
  Nb  Nb112  1  -0.01363346  0.38901688  0.57206395  1
  Nb  Nb113  1  0.24746491  0.47233961  0.86800961  1
  Nb  Nb114  1  0.25586974  0.67679408  0.89126178  1
  Nb  Nb115  1  0.31793435  0.60180717  0.69613256  1
  Nb  Nb116  1  0.99219735  0.71935217  0.44955420  1
  Nb  Nb117  1  0.38009465  0.73307658  0.22326345  1
  Nb  Nb118  1  0.56963473  0.28947969  0.11892111  1
  Nb  Nb119  1  0.45642625  0.74139923  0.39702678  1
  Nb  Nb120  1  0.95658182  0.04618317  0.21973877  1
  Nb  Nb121  1  0.60605217  0.78266062  0.29695197  1
  Nb  Nb122  1  0.63561409  0.08378418  0.03498349  1
  Nb  Nb123  1  0.36229273  0.33127400  0.94252283  1
  Nb  Nb124  1  0.28881328  1.08012043  0.44699493  1
