# generated using pymatgen
data_Zr2Sc2Nb
_symmetry_space_group_name_H-M   'P 1'
_cell_length_a   14.11488365
_cell_length_b   14.25887213
_cell_length_c   14.26865834
_cell_angle_alpha   88.49248357
_cell_angle_beta   91.75498792
_cell_angle_gamma   89.36045379
_symmetry_Int_Tables_number   1
_chemical_formula_structural   Zr2Sc2Nb
_chemical_formula_sum   'Zr50 Sc50 Nb25'
_cell_volume   2869.19692112
_cell_formula_units_Z   25
loop_
 _symmetry_equiv_pos_site_id
 _symmetry_equiv_pos_as_xyz
  1  'x, y, z'
loop_
 _atom_site_type_symbol
 _atom_site_label
 _atom_site_symmetry_multiplicity
 _atom_site_fract_x
 _atom_site_fract_y
 _atom_site_fract_z
 _atom_site_occupancy
  Zr  Zr0  1  0.11298645  0.66330472  0.59081805  1
  Zr  Zr1  1  0.23095880  0.35798842  0.83806127  1
  Zr  Zr2  1  0.29443229  0.90065483  0.13039334  1
  Zr  Zr3  1  0.73879625  0.39131075  0.29049520  1
  Zr  Zr4  1  0.39679391  -0.01647949  0.94674997  1
  Zr  Zr5  1  0.74484756  0.55294213  0.11864920  1
  Zr  Zr6  1  0.60420141  0.05885525  0.32706460  1
  Zr  Zr7  1  0.48853758  0.39543088  0.77011156  1
  Zr  Zr8  1  0.53901604  0.43816328  0.99764160  1
  Zr  Zr9  1  0.08980873  0.19977565  0.88694636  1
  Zr  Zr10  1  1.00499887  0.55061058  0.15809045  1
  Zr  Zr11  1  0.25990550  0.31628950  0.20420346  1
  Zr  Zr12  1  0.77610584  0.04610636  0.89953511  1
  Zr  Zr13  1  0.41283154  0.52985028  0.40043074  1
  Zr  Zr14  1  0.05229923  0.13397342  0.29199185  1
  Zr  Zr15  1  0.39923674  0.97584547  0.32639693  1
  Zr  Zr16  1  0.97085094  0.90750098  0.30189538  1
  Zr  Zr17  1  0.32649209  0.42283640  0.99309412  1
  Zr  Zr18  1  0.07548276  0.16888383  0.09039205  1
  Zr  Zr19  1  0.44469985  0.54655038  0.60334854  1
  Zr  Zr20  1  0.45661047  0.79179417  0.90947056  1
  Zr  Zr21  1  0.66279399  0.70902201  0.94379348  1
  Zr  Zr22  1  0.27832945  0.21453223  1.01085227  1
  Zr  Zr23  1  0.29573761  0.33460189  0.42045786  1
  Zr  Zr24  1  0.81794324  0.44624459  0.72696744  1
  Zr  Zr25  1  0.27701670  0.11164274  0.60309052  1
  Zr  Zr26  1  0.11212929  0.23314316  0.48029982  1
  Zr  Zr27  1  0.30992175  0.15122944  0.80658613  1
  Zr  Zr28  1  0.74039733  0.64851478  0.53859413  1
  Zr  Zr29  1  0.50574173  0.35230806  0.53787553  1
  Zr  Zr30  1  0.86778446  0.67189101  0.00646279  1
  Zr  Zr31  1  0.61912228  0.88307377  0.78560660  1
  Zr  Zr32  1  0.31558858  0.70481581  0.51726452  1
  Zr  Zr33  1  0.89390100  0.07320353  0.13077847  1
  Zr  Zr34  1  0.09503590  1.02395462  0.48050749  1
  Zr  Zr35  1  0.88303366  0.23101402  -0.02003298  1
  Zr  Zr36  1  0.30366125  0.92477944  0.52181410  1
  Zr  Zr37  1  0.12505292  0.81114571  0.43294727  1
  Zr  Zr38  1  0.29203809  0.54184896  0.73532301  1
  Zr  Zr39  1  0.09720626  0.47887582  0.69885658  1
  Zr  Zr40  1  0.11296952  0.86521778  0.63687076  1
  Zr  Zr41  1  0.67072115  0.06849558  0.70156377  1
  Zr  Zr42  1  0.87978719  0.19239491  0.76801631  1
  Zr  Zr43  1  0.93025360  0.56208348  0.58559742  1
  Zr  Zr44  1  0.71744635  0.63033477  0.32615295  1
  Zr  Zr45  1  0.55633259  0.07201744  0.86715046  1
  Zr  Zr46  1  0.34234595  0.77630534  0.32171915  1
  Zr  Zr47  1  0.85585969  0.06111548  0.36430573  1
  Zr  Zr48  1  0.68429813  0.75381539  0.15085682  1
  Zr  Zr49  1  0.94538574  0.60980174  0.81763872  1
  Sc  Sc50  1  0.89762714  0.71955818  0.23296588  1
  Sc  Sc51  1  0.86849496  0.87604117  0.05468188  1
  Sc  Sc52  1  0.78017641  0.42652675  0.50705957  1
  Sc  Sc53  1  0.48636535  0.19497636  0.69744682  1
  Sc  Sc54  1  0.69940284  0.28055332  0.64113155  1
  Sc  Sc55  1  0.89976643  0.51198103  0.35390728  1
  Sc  Sc56  1  0.11890714  0.25911740  0.68177356  1
  Sc  Sc57  1  0.08652178  0.70669381  1.01248674  1
  Sc  Sc58  1  0.26404676  0.09878454  0.18409131  1
  Sc  Sc59  1  0.66451852  0.23970134  0.42682219  1
  Sc  Sc60  1  0.90727730  0.46190180  0.99066243  1
  Sc  Sc61  1  0.38995198  0.49200098  0.17586538  1
  Sc  Sc62  1  0.09457373  0.39400914  0.29671900  1
  Sc  Sc63  1  0.13200547  0.74792318  0.21902071  1
  Sc  Sc64  1  0.14124702  0.69838105  0.79655141  1
  Sc  Sc65  1  0.51126895  0.65510530  0.25190204  1
  Sc  Sc66  1  0.03877342  0.86827281  0.85502703  1
  Sc  Sc67  1  0.25844855  0.94699782  0.77110628  1
  Sc  Sc68  1  0.70540596  0.50038246  0.89082589  1
  Sc  Sc69  1  0.71475827  0.03104535  0.51440919  1
  Sc  Sc70  1  0.30892601  0.33976684  0.63545536  1
  Sc  Sc71  1  -0.06801690  0.32534643  0.17199653  1
  Sc  Sc72  1  0.74320835  0.84604507  0.39735096  1
  Sc  Sc73  1  0.50940660  0.59316881  0.82486693  1
  Sc  Sc74  1  0.54485429  0.73465974  0.66367805  1
  Sc  Sc75  1  0.72129696  0.34287105  0.07571028  1
  Sc  Sc76  1  0.72731528  0.96054193  0.20267752  1
  Sc  Sc77  1  0.32338480  0.69439209  0.11685644  1
  Sc  Sc78  1  0.31158765  0.62028451  0.92916270  1
  Sc  Sc79  1  0.47123676  0.12082778  0.49778524  1
  Sc  Sc80  1  0.87368180  0.97578269  0.71835096  1
  Sc  Sc81  1  0.74092972  0.66242679  0.74710362  1
  Sc  Sc82  1  0.90952409  0.13689068  0.56358114  1
  Sc  Sc83  1  0.33642940  0.76300686  0.72363900  1
  Sc  Sc84  1  0.63503737  0.91642898  0.00345145  1
  Sc  Sc85  1  0.47058299  0.24533950  0.92927245  1
  Sc  Sc86  1  0.82236530  0.82694645  0.84956903  1
  Sc  Sc87  1  0.18525367  0.02181470  0.95713482  1
  Sc  Sc88  1  0.07346968  0.05944946  0.72035805  1
  Sc  Sc89  1  0.48329348  0.06140054  0.13259632  1
  Sc  Sc90  1  0.54150207  0.70135523  0.45675242  1
  Sc  Sc91  1  0.98766805  0.36975285  0.83170524  1
  Sc  Sc92  1  0.67207762  0.13805749  0.05544242  1
  Sc  Sc93  1  0.91192529  0.28392891  0.39615278  1
  Sc  Sc94  1  0.23802306  0.56265609  0.30257254  1
  Sc  Sc95  1  0.53508113  0.90832557  0.51864764  1
  Sc  Sc96  1  0.68162373  0.27403001  0.85496303  1
  Sc  Sc97  1  0.91895608  0.91302608  0.52216365  1
  Sc  Sc98  1  0.06889668  0.61222418  0.38854031  1
  Sc  Sc99  1  0.07493202  0.93821335  0.10945636  1
  Nb  Nb100  1  0.44860877  0.29355205  0.12632761  1
  Nb  Nb101  1  0.11756326  0.51835140  0.91740624  1
  Nb  Nb102  1  0.23835030  0.51280064  0.52028036  1
  Nb  Nb103  1  0.55662663  0.85299275  0.29726062  1
  Nb  Nb104  1  0.92473304  0.75840101  0.66854099  1
  Nb  Nb105  1  0.96838575  0.04266355  -0.06936789  1
  Nb  Nb106  1  0.42186866  0.18654730  0.30164667  1
  Nb  Nb107  1  0.44872686  0.98103789  0.70341423  1
  Nb  Nb108  1  0.58433005  0.46758947  0.20085721  1
  Nb  Nb109  1  0.26003456  0.11958374  0.39426966  1
  Nb  Nb110  1  0.63178387  0.50299487  0.64851919  1
  Nb  Nb111  1  0.25145084  0.82126747  0.94516337  1
  Nb  Nb112  1  0.60550407  0.49438742  0.42729658  1
  Nb  Nb113  1  0.52060461  0.62764106  0.05045729  1
  Nb  Nb114  1  0.91277412  0.72533062  0.45369230  1
  Nb  Nb115  1  0.18907182  0.52676422  0.10587242  1
  Nb  Nb116  1  0.78435765  0.18950660  0.23847894  1
  Nb  Nb117  1  0.48861931  0.35745770  0.32823038  1
  Nb  Nb118  1  0.60202782  0.24143864  0.22032811  1
  Nb  Nb119  1  0.07090823  0.42761684  0.50053311  1
  Nb  Nb120  1  0.73760758  0.84057980  0.61832065  1
  Nb  Nb121  1  0.48411684  0.83452682  0.11754160  1
  Nb  Nb122  1  0.93904877  0.33559297  0.61311993  1
  Nb  Nb123  1  0.18630816  0.94899947  0.30737770  1
  Nb  Nb124  1  0.10486915  0.36384987  0.03928608  1
