# generated using pymatgen
data_Zr2Sc2Nb
_symmetry_space_group_name_H-M   'P 1'
_cell_length_a   14.22658340
_cell_length_b   14.01182306
_cell_length_c   14.39277258
_cell_angle_alpha   89.23996444
_cell_angle_beta   89.46734061
_cell_angle_gamma   91.52068002
_symmetry_Int_Tables_number   1
_chemical_formula_structural   Zr2Sc2Nb
_chemical_formula_sum   'Zr50 Sc50 Nb25'
_cell_volume   2867.66421355
_cell_formula_units_Z   25
loop_
 _symmetry_equiv_pos_site_id
 _symmetry_equiv_pos_as_xyz
  1  'x, y, z'
loop_
 _atom_site_type_symbol
 _atom_site_label
 _atom_site_symmetry_multiplicity
 _atom_site_fract_x
 _atom_site_fract_y
 _atom_site_fract_z
 _atom_site_occupancy
  Zr  Zr0  1  0.27358280  0.51854978  0.20898808  1
  Zr  Zr1  1  0.57301255  0.02903233  0.11363773  1
  Zr  Zr2  1  0.55263956  0.64749112  0.20366898  1
  Zr  Zr3  1  0.70545522  0.84691600  0.50937172  1
  Zr  Zr4  1  0.04042535  0.37814959  0.86457232  1
  Zr  Zr5  1  0.07098853  0.76598812  0.92578994  1
  Zr  Zr6  1  0.95503703  0.43547346  0.67869057  1
  Zr  Zr7  1  0.88392202  0.45393145  0.18051290  1
  Zr  Zr8  1  0.97891672  0.04499730  0.07971651  1
  Zr  Zr9  1  0.34528414  0.32018124  0.20253207  1
  Zr  Zr10  1  0.66718385  0.30224185  0.97622594  1
  Zr  Zr11  1  0.46983929  0.47557592  0.08164010  1
  Zr  Zr12  1  0.29184201  0.10239911  0.92890611  1
  Zr  Zr13  1  0.18975647  0.44352311  0.62723221  1
  Zr  Zr14  1  0.37069796  0.10677958  0.52100817  1
  Zr  Zr15  1  0.16980707  0.12904010  0.50935837  1
  Zr  Zr16  1  0.45894052  0.79286483  0.81972219  1
  Zr  Zr17  1  0.06655869  0.53882950  0.27122064  1
  Zr  Zr18  1  0.08671465  0.83350187  0.72630975  1
  Zr  Zr19  1  0.48936113  0.88526653  0.45932860  1
  Zr  Zr20  1  0.32548847  0.73378133  0.50430046  1
  Zr  Zr21  1  0.88139955  0.23187409  0.97342249  1
  Zr  Zr22  1  0.75867686  0.07044307  0.07259920  1
  Zr  Zr23  1  0.28477942  0.15236693  0.32564947  1
  Zr  Zr24  1  0.06142072  0.98719557  0.86948509  1
  Zr  Zr25  1  0.84905329  0.45179818  -0.02900259  1
  Zr  Zr26  1  0.82605455  0.45320427  0.50260287  1
  Zr  Zr27  1  0.65603880  0.14493005  0.29397746  1
  Zr  Zr28  1  0.28894650  0.91701857  0.21413115  1
  Zr  Zr29  1  0.55119324  0.50370617  0.69417254  1
  Zr  Zr30  1  0.02866347  0.54635867  0.49559453  1
  Zr  Zr31  1  0.60580795  0.93101718  0.67749818  1
  Zr  Zr32  1  0.56926517  0.07718584  0.49811790  1
  Zr  Zr33  1  0.02832538  0.03802718  0.66552637  1
  Zr  Zr34  1  0.77573176  0.27180939  0.14916938  1
  Zr  Zr35  1  0.68574291  0.36150934  0.30994212  1
  Zr  Zr36  1  0.87295075  0.24972686  0.60861379  1
  Zr  Zr37  1  0.72388724  0.76495310  0.32020061  1
  Zr  Zr38  1  0.69703665  0.12261501  0.87109787  1
  Zr  Zr39  1  0.96637915  0.61817982  0.06857644  1
  Zr  Zr40  1  0.91547626  0.88149052  0.58765152  1
  Zr  Zr41  1  0.92425348  0.66747514  0.64913189  1
  Zr  Zr42  1  0.44562335  0.57655623  0.87920660  1
  Zr  Zr43  1  0.27479491  0.93279581  0.40764038  1
  Zr  Zr44  1  0.15137227  0.33194130  0.27882164  1
  Zr  Zr45  1  0.11697917  0.73831763  0.54991679  1
  Zr  Zr46  1  0.94562304  0.73353070  0.24374984  1
  Zr  Zr47  1  0.34683692  0.59235340  0.69608879  1
  Zr  Zr48  1  0.34519202  0.70629425  0.29912898  1
  Zr  Zr49  1  0.82655573  0.91565039  0.19481855  1
  Sc  Sc50  1  0.59388190  0.45194390  0.48070439  1
  Sc  Sc51  1  0.96059469  0.11785038  0.48082091  1
  Sc  Sc52  1  0.08978248  0.25246652  0.68598228  1
  Sc  Sc53  1  0.54547828  0.26822570  0.15592954  1
  Sc  Sc54  1  0.41351537  0.90217305  0.02757735  1
  Sc  Sc55  1  0.49833420  0.84805400  0.23768965  1
  Sc  Sc56  1  0.31104430  0.32941585  0.45739655  1
  Sc  Sc57  1  0.37844154  0.36970854  0.68345588  1
  Sc  Sc58  1  0.90189162  0.31944202  0.35373946  1
  Sc  Sc59  1  0.52129195  0.28250481  0.56774259  1
  Sc  Sc60  1  0.07320680  0.10845310  0.31270824  1
  Sc  Sc61  1  0.06919915  0.33256305  0.48167976  1
  Sc  Sc62  1  0.76987383  0.54299547  0.74513343  1
  Sc  Sc63  1  0.51135384  0.73289186  0.62081707  1
  Sc  Sc64  1  0.77164011  0.66418668  0.14276460  1
  Sc  Sc65  1  0.67696230  0.16319364  0.67049675  1
  Sc  Sc66  1  0.49027642  0.18000616  0.95556517  1
  Sc  Sc67  1  0.37758397  0.10941766  0.12790085  1
  Sc  Sc68  1  0.58025136  0.68795185  -0.00189075  1
  Sc  Sc69  1  0.26999077  0.69767856  0.89441157  1
  Sc  Sc70  1  0.18172979  0.92528930  0.03682962  1
  Sc  Sc71  1  0.23656940  0.08723721  0.71968019  1
  Sc  Sc72  1  0.27432328  0.91344741  0.83541791  1
  Sc  Sc73  1  0.17616292  0.13082462  0.13058077  1
  Sc  Sc74  1  -0.00543425  0.25505577  0.15281254  1
  Sc  Sc75  1  0.90522973  0.72792046  0.45093806  1
  Sc  Sc76  1  0.42803919  0.36959961  0.89835218  1
  Sc  Sc77  1  0.85808467  0.11147394  0.28049671  1
  Sc  Sc78  1  0.80745795  0.99994419  0.71652852  1
  Sc  Sc79  1  0.52641236  0.67037300  0.41645492  1
  Sc  Sc80  1  0.49896216  -0.00301504  0.85474432  1
  Sc  Sc81  1  0.24302583  0.31270852  0.01663155  1
  Sc  Sc82  1  0.46095817  0.04534338  0.31219317  1
  Sc  Sc83  1  0.38320509  0.69408215  0.08675828  1
  Sc  Sc84  1  0.77703849  0.67849621  0.92524946  1
  Sc  Sc85  1  0.94762866  0.60060402  0.84374756  1
  Sc  Sc86  1  0.12677936  0.61333399  0.73659063  1
  Sc  Sc87  1  0.45887405  0.47188095  0.31643158  1
  Sc  Sc88  1  0.06407535  0.91353863  0.22993926  1
  Sc  Sc89  1  0.89649235  0.83584076  1.02507985  1
  Sc  Sc90  1  0.16703377  0.69343672  0.12138685  1
  Sc  Sc91  1  0.44267546  0.15716468  0.73247763  1
  Sc  Sc92  1  0.14090730  0.74477753  0.34554612  1
  Sc  Sc93  1  0.08720256  0.18194613  0.92972609  1
  Sc  Sc94  1  0.70635717  0.62969475  0.55336207  1
  Sc  Sc95  1  0.69531323  0.56098548  0.32879627  1
  Sc  Sc96  1  0.76985487  0.04886384  0.49544659  1
  Sc  Sc97  1  0.67348490  0.47406478  0.11418560  1
  Sc  Sc98  1  0.22943437  0.53811682  0.42116705  1
  Sc  Sc99  1  0.68932588  0.88263165  0.89301375  1
  Nb  Nb100  1  0.28649638  0.51470786  0.01814566  1
  Nb  Nb101  1  0.08928172  0.43734589  0.09208137  1
  Nb  Nb102  1  0.40746298  0.94202893  0.64931630  1
  Nb  Nb103  1  0.87349085  0.01744828  0.91015818  1
  Nb  Nb104  1  0.66299565  0.84539839  0.11008958  1
  Nb  Nb105  1  0.28848905  0.77648535  0.68997031  1
  Nb  Nb106  1  0.25111657  0.27223356  0.81311612  1
  Nb  Nb107  1  0.63737169  0.48835267  0.89796376  1
  Nb  Nb108  1  0.24542798  0.46243240  0.83363904  1
  Nb  Nb109  1  0.61675241  0.67847253  0.78926433  1
  Nb  Nb110  1  0.06975543  0.92948345  0.45437185  1
  Nb  Nb111  1  0.58939915  0.31318977  0.78562317  1
  Nb  Nb112  1  0.88405006  0.55885721  0.34064743  1
  Nb  Nb113  1  0.91891535  0.17292072  0.79094628  1
  Nb  Nb114  1  0.21668081  0.93185809  0.59127209  1
  Nb  Nb115  1  0.75277977  0.77717217  0.70309966  1
  Nb  Nb116  1  0.88930231  0.92359458  0.37725751  1
  Nb  Nb117  1  0.11424984  0.55688986  0.94921140  1
  Nb  Nb118  1  0.49246166  0.25420181  0.36650962  1
  Nb  Nb119  1  0.79635686  0.33132040  0.80690293  1
  Nb  Nb120  1  0.40504993  0.52091099  0.52574503  1
  Nb  Nb121  1  0.90175865  0.82941613  0.81175238  1
  Nb  Nb122  1  0.70894484  0.37687892  0.63992310  1
  Nb  Nb123  1  0.66724171  0.95283918  0.32089200  1
  Nb  Nb124  1  0.71285486  0.25393775  0.47064736  1
