# generated using pymatgen
data_Zr2Sc2Nb
_symmetry_space_group_name_H-M   'P 1'
_cell_length_a   14.44752530
_cell_length_b   13.73433925
_cell_length_c   14.46348886
_cell_angle_alpha   86.78329117
_cell_angle_beta   89.29662251
_cell_angle_gamma   89.77110707
_symmetry_Int_Tables_number   1
_chemical_formula_structural   Zr2Sc2Nb
_chemical_formula_sum   'Zr50 Sc50 Nb25'
_cell_volume   2865.19640000
_cell_formula_units_Z   25
loop_
 _symmetry_equiv_pos_site_id
 _symmetry_equiv_pos_as_xyz
  1  'x, y, z'
loop_
 _atom_site_type_symbol
 _atom_site_label
 _atom_site_symmetry_multiplicity
 _atom_site_fract_x
 _atom_site_fract_y
 _atom_site_fract_z
 _atom_site_occupancy
  Zr  Zr0  1  0.45956761  0.63180334  0.00835640  1
  Zr  Zr1  1  0.41140209  0.83029993  0.86411889  1
  Zr  Zr2  1  0.89189517  0.45509586  0.04119277  1
  Zr  Zr3  1  0.84821866  0.05145771  0.26101036  1
  Zr  Zr4  1  0.21531935  0.53863577  0.51612597  1
  Zr  Zr5  1  0.98425151  0.46273290  0.46237226  1
  Zr  Zr6  1  0.93615952  0.05336742  0.05182535  1
  Zr  Zr7  1  0.74510551  0.95190778  0.75755094  1
  Zr  Zr8  1  0.08033396  0.25787199  0.56019060  1
  Zr  Zr9  1  0.87288679  0.25766819  0.13177832  1
  Zr  Zr10  1  0.66726595  0.96139509  0.17497959  1
  Zr  Zr11  1  0.03780350  0.82960836  0.70396488  1
  Zr  Zr12  1  0.11198564  0.96165693  0.09969559  1
  Zr  Zr13  1  0.49288699  0.62051568  0.79907607  1
  Zr  Zr14  1  0.32999433  -0.01260625  0.04398790  1
  Zr  Zr15  1  0.62563450  0.75814955  0.87416137  1
  Zr  Zr16  1  0.78562674  0.05322175  0.46563762  1
  Zr  Zr17  1  0.71870585  0.86879840  0.36322429  1
  Zr  Zr18  1  0.92675399  0.63432156  0.71476153  1
  Zr  Zr19  1  0.82504372  0.46321598  0.62600562  1
  Zr  Zr20  1  0.67200752  0.77042182  0.10129721  1
  Zr  Zr21  1  0.26733927  0.85414360  0.21728218  1
  Zr  Zr22  1  0.38969212  0.08386097  0.42574335  1
  Zr  Zr23  1  0.45039410  0.81288145  0.09228440  1
  Zr  Zr24  1  0.24622001  0.10068446  0.88121811  1
  Zr  Zr25  1  0.53639457  0.96351215  0.73643354  1
  Zr  Zr26  1  0.12441752  0.04810528  0.70427195  1
  Zr  Zr27  1  0.78077834  0.92734122  0.98361119  1
  Zr  Zr28  1  0.35438093  0.26778221  0.81367744  1
  Zr  Zr29  1  0.24582006  0.09014280  0.25346942  1
  Zr  Zr30  1  0.73551122  0.56612793  0.80525156  1
  Zr  Zr31  1  0.06765178  0.37004061  0.12888053  1
  Zr  Zr32  1  0.45419834  0.21692718  0.26128047  1
  Zr  Zr33  1  0.38570092  0.69709309  0.44879159  1
  Zr  Zr34  1  0.84085050  0.77675117  0.83848685  1
  Zr  Zr35  1  0.24692300  0.51856133  0.07556798  1
  Zr  Zr36  1  0.35279802  0.66438281  0.66199852  1
  Zr  Zr37  1  0.48900115  0.41582248  0.72841210  1
  Zr  Zr38  1  0.91807410  0.84406091  0.38125317  1
  Zr  Zr39  1  0.58656220  0.37351191  0.30520409  1
  Zr  Zr40  1  0.19983680  0.34320918  -0.04964980  1
  Zr  Zr41  1  0.28247591  0.89968668  0.40745981  1
  Zr  Zr42  1  0.95473100  0.64132962  0.33441862  1
  Zr  Zr43  1  0.64998470  0.11482942  0.85827380  1
  Zr  Zr44  1  0.55951466  0.53687568  0.41284522  1
  Zr  Zr45  1  0.58734031  0.46291006  0.91400198  1
  Zr  Zr46  1  0.70407633  0.33406621  0.76424474  1
  Zr  Zr47  1  0.26944928  0.47096589  0.73773179  1
  Zr  Zr48  1  0.93350399  0.26549512  0.72990277  1
  Zr  Zr49  1  0.36590518  0.46774827  0.36174118  1
  Sc  Sc50  1  0.57101955  0.93637465  0.96855046  1
  Sc  Sc51  1  0.44053563  0.97511453  0.24321283  1
  Sc  Sc52  1  0.34205524  0.08593015  0.67747963  1
  Sc  Sc53  1  0.86230745  0.27036995  0.32958880  1
  Sc  Sc54  1  0.52367628  0.21014812  0.70239478  1
  Sc  Sc55  1  0.47148108  0.29665106  0.47481234  1
  Sc  Sc56  1  0.14815783  0.52667498  0.28482118  1
  Sc  Sc57  1  0.42283120  0.43091824  0.15205909  1
  Sc  Sc58  1  0.24542538  0.84962455  0.74054209  1
  Sc  Sc59  1  0.60002723  0.33117839  0.09349161  1
  Sc  Sc60  1  0.72938744  0.13692865  0.04568467  1
  Sc  Sc61  1  0.02767710  0.67547486  0.52975565  1
  Sc  Sc62  1  0.54613012  0.08427516  0.54847677  1
  Sc  Sc63  1  0.72504827  0.15183907  0.64725645  1
  Sc  Sc64  1  0.08057914  0.50271718  0.87593102  1
  Sc  Sc65  1  0.34555737  0.64672440  0.22576564  1
  Sc  Sc66  1  0.94822401  0.95373050  0.84637130  1
  Sc  Sc67  1  0.53407664  0.76795513  0.28342234  1
  Sc  Sc68  1  -0.01703950  0.28793647  0.94721911  1
  Sc  Sc69  1  0.57160405  0.57498625  0.18518872  1
  Sc  Sc70  1  0.71118276  0.57744215  1.01657325  1
  Sc  Sc71  1  0.77010830  0.45523670  0.40665078  1
  Sc  Sc72  1  0.86102239  0.86159396  0.58839395  1
  Sc  Sc73  1  0.05925412  0.59929449  0.07218467  1
  Sc  Sc74  1  0.81084728  0.66152630  0.50766113  1
  Sc  Sc75  1  0.38492555  0.44288547  0.93049780  1
  Sc  Sc76  1  0.27167962  0.63839951  0.87507232  1
  Sc  Sc77  1  0.86561831  0.65602087  0.13365769  1
  Sc  Sc78  1  0.36385263  0.22728116  0.03641665  1
  Sc  Sc79  1  0.86254835  0.27507141  0.53193463  1
  Sc  Sc80  1  0.14857528  0.16665235  0.05954539  1
  Sc  Sc81  1  0.14695656  0.27075100  0.75860964  1
  Sc  Sc82  1  0.73781792  0.65567239  0.29689267  1
  Sc  Sc83  1  0.23027408  0.75715294  0.03904433  1
  Sc  Sc84  1  0.60828033  0.72263096  0.48599629  1
  Sc  Sc85  1  0.06452248  0.76247157  0.19956652  1
  Sc  Sc86  1  0.92806313  0.06546502  0.65159691  1
  Sc  Sc87  1  0.60153363  0.05864332  0.35090725  1
  Sc  Sc88  1  0.52778080  0.10998210  0.08251101  1
  Sc  Sc89  1  0.29950743  0.31465145  0.60030341  1
  Sc  Sc90  1  0.20003776  0.08155438  0.50413428  1
  Sc  Sc91  1  0.08205161  0.95168961  0.30484358  1
  Sc  Sc92  1  0.61727483  0.56326090  0.62935313  1
  Sc  Sc93  1  0.05127430  0.45422568  0.66294285  1
  Sc  Sc94  1  0.26847581  0.27224867  0.40132799  1
  Sc  Sc95  1  0.14522249  0.91658485  0.90617272  1
  Sc  Sc96  1  0.99003770  0.10578323  0.43093363  1
  Sc  Sc97  1  0.07242561  0.31152813  0.34475263  1
  Sc  Sc98  1  0.24907960  0.31356968  0.19872768  1
  Sc  Sc99  1  0.07388069  0.90677281  0.51424761  1
  Nb  Nb100  1  0.86697784  0.86171508  0.18343833  1
  Nb  Nb101  1  0.75090268  0.43355437  0.19273270  1
  Nb  Nb102  1  0.68916180  0.20387907  0.23465898  1
  Nb  Nb103  1  0.06823732  0.72501333  0.87513105  1
  Nb  Nb104  1  0.42501529  0.49685790  0.55766711  1
  Nb  Nb105  1  0.90724191  0.61841977  0.92722899  1
  Nb  Nb106  1  0.53807018  0.26607060  0.90979822  1
  Nb  Nb107  1  0.14416635  0.64285541  0.70636907  1
  Nb  Nb108  1  0.44256379  0.07719752  0.87938996  1
  Nb  Nb109  1  0.04782715  0.11855797  0.87613384  1
  Nb  Nb110  1  0.51841560  0.78091337  0.65731792  1
  Nb  Nb111  1  0.49949062  0.89420935  0.44686577  1
  Nb  Nb112  1  0.93310888  0.46477905  0.24767544  1
  Nb  Nb113  1  0.37963969  0.90018212  0.58712253  1
  Nb  Nb114  1  0.96955528  0.81578798  1.01557195  1
  Nb  Nb115  1  0.75491472  0.33454630  0.95259399  1
  Nb  Nb116  1  0.63519217  0.36627527  0.56335667  1
  Nb  Nb117  1  0.16605279  0.72596545  0.37582603  1
  Nb  Nb118  1  0.67712050  0.23677532  0.43432932  1
  Nb  Nb119  1  0.84229200  0.14600466  0.86360283  1
  Nb  Nb120  1  0.70955755  0.74575774  0.68281676  1
  Nb  Nb121  1  0.03422746  0.15255537  0.22154112  1
  Nb  Nb122  1  0.88588894  0.43569976  0.82641231  1
  Nb  Nb123  1  0.65783479  0.91331782  0.56573856  1
  Nb  Nb124  1  0.21529665  0.76312451  0.55780167  1
