# generated using pymatgen
data_Zr2Sc2Nb
_symmetry_space_group_name_H-M   'P 1'
_cell_length_a   14.00165259
_cell_length_b   14.28212314
_cell_length_c   14.33880883
_cell_angle_alpha   91.10212289
_cell_angle_beta   90.15298549
_cell_angle_gamma   89.51401271
_symmetry_Int_Tables_number   1
_chemical_formula_structural   Zr2Sc2Nb
_chemical_formula_sum   'Zr50 Sc50 Nb25'
_cell_volume   2866.73669337
_cell_formula_units_Z   25
loop_
 _symmetry_equiv_pos_site_id
 _symmetry_equiv_pos_as_xyz
  1  'x, y, z'
loop_
 _atom_site_type_symbol
 _atom_site_label
 _atom_site_symmetry_multiplicity
 _atom_site_fract_x
 _atom_site_fract_y
 _atom_site_fract_z
 _atom_site_occupancy
  Zr  Zr0  1  0.36245121  0.33160610  0.22891864  1
  Zr  Zr1  1  0.68419206  0.45730813  0.04310030  1
  Zr  Zr2  1  0.08436415  0.54157256  0.35359810  1
  Zr  Zr3  1  0.17898733  0.86988519  0.32397513  1
  Zr  Zr4  1  0.15319025  0.74115849  0.86768934  1
  Zr  Zr5  1  0.59740323  0.03180442  0.01355002  1
  Zr  Zr6  1  0.52320916  0.76705702  0.30376664  1
  Zr  Zr7  1  0.88201633  0.73315603  0.60902302  1
  Zr  Zr8  1  0.66500178  0.34677069  0.43437785  1
  Zr  Zr9  1  0.99266800  0.91679922  0.94680940  1
  Zr  Zr10  1  0.96532726  0.11460399  0.14945160  1
  Zr  Zr11  1  0.93118085  0.24106215  0.31462431  1
  Zr  Zr12  1  0.22109745  0.21564525  0.90094330  1
  Zr  Zr13  1  0.03819061  0.93125532  0.47726935  1
  Zr  Zr14  1  0.34036801  0.46852140  0.90997195  1
  Zr  Zr15  1  0.06577966  0.23961722  0.67584071  1
  Zr  Zr16  1  0.64945998  0.58503831  0.36376571  1
  Zr  Zr17  1  0.13242803  0.08494062  0.28566544  1
  Zr  Zr18  1  0.34761860  0.33238717  0.75731614  1
  Zr  Zr19  1  0.87729493  0.06620069  0.55117358  1
  Zr  Zr20  1  0.43879261  0.12289457  0.12357951  1
  Zr  Zr21  1  0.24006900  0.83746959  0.51944738  1
  Zr  Zr22  1  0.90453399  0.53664488  0.96185702  1
  Zr  Zr23  1  0.56595156  0.43159731  0.24987518  1
  Zr  Zr24  1  1.00421388  0.73084249  0.04651089  1
  Zr  Zr25  1  0.70489864  0.24017863  0.96803021  1
  Zr  Zr26  1  0.29274515  0.73673828  0.67990578  1
  Zr  Zr27  1  0.63310480  0.60434849  0.70628984  1
  Zr  Zr28  1  0.06997876  0.36345453  0.46981561  1
  Zr  Zr29  1  0.92372217  0.03291232  0.33565398  1
  Zr  Zr30  1  0.51351499  0.80459612  0.69691165  1
  Zr  Zr31  1  0.26571713  0.67079128  0.38402605  1
  Zr  Zr32  1  0.71058494  0.38335830  0.64318699  1
  Zr  Zr33  1  0.43399568  0.62763031  0.78290231  1
  Zr  Zr34  1  0.93529070  0.39875586  0.68737987  1
  Zr  Zr35  1  0.72675670  0.13407922  0.38404904  1
  Zr  Zr36  1  0.26220211  0.15014622  0.70816480  1
  Zr  Zr37  1  0.07879786  0.79693142  0.66645743  1
  Zr  Zr38  1  0.04669009  0.72887894  0.44038139  1
  Zr  Zr39  1  0.72016414  0.79447067  0.75103892  1
  Zr  Zr40  1  0.72434385  0.43569565  0.84352668  1
  Zr  Zr41  1  0.44596780  0.87476078  0.07216346  1
  Zr  Zr42  1  0.88374176  0.44794393  0.36048779  1
  Zr  Zr43  1  0.28964378  0.97391821  0.17462741  1
  Zr  Zr44  1  0.78511820  0.71075428  0.07618245  1
  Zr  Zr45  1  0.33990600  0.14314364  0.32117879  1
  Zr  Zr46  1  0.35901271  0.82464419  0.87212611  1
  Zr  Zr47  1  0.49308628  0.29713660  0.59218433  1
  Zr  Zr48  1  0.62001336  0.25058022  0.76828510  1
  Zr  Zr49  1  0.27075004  0.04151489  0.49947070  1
  Sc  Sc50  1  0.55196605  0.50380723  0.52523876  1
  Sc  Sc51  1  0.27765599  0.26414304  0.52213390  1
  Sc  Sc52  1  0.09744713  0.02035177  0.65126298  1
  Sc  Sc53  1  0.83612075  0.57433656  0.73324821  1
  Sc  Sc54  1  0.35918454  0.50277772  0.59668792  1
  Sc  Sc55  1  0.02755238  0.12011247  0.84313656  1
  Sc  Sc56  1  0.82140722  0.87242466  0.46498096  1
  Sc  Sc57  1  0.70490343  0.05651600  0.81355052  1
  Sc  Sc58  1  0.43391280  0.48863173  0.09651941  1
  Sc  Sc59  1  0.32703761  0.94990751  0.70487487  1
  Sc  Sc60  1  0.86848232  0.28367364  0.51550172  1
  Sc  Sc61  1  0.33877108  0.73399154  0.19017441  1
  Sc  Sc62  1  0.05272798  0.25501268  0.03144116  1
  Sc  Sc63  1  0.33181480  0.02871861  0.95698418  1
  Sc  Sc64  1  0.57483201  0.65074172  0.12717033  1
  Sc  Sc65  1  0.60308519  0.91651066  0.42554636  1
  Sc  Sc66  1  0.17515896  0.59717373  1.01336610  1
  Sc  Sc67  1  0.07072321  0.15353975  0.47673453  1
  Sc  Sc68  1  0.02635619  0.48772018  0.14146479  1
  Sc  Sc69  1  0.85437068  0.91502231  0.11978099  1
  Sc  Sc70  1  0.84416090  0.19538516  0.72381680  1
  Sc  Sc71  1  0.13138777  0.31662890  0.26352943  1
  Sc  Sc72  1  0.87076626  0.33597057  0.10010820  1
  Sc  Sc73  1  0.20904050  0.38732325  0.06437829  1
  Sc  Sc74  1  0.67642570  0.16672238  0.58088055  1
  Sc  Sc75  1  0.25140882  0.52923064  0.21462867  1
  Sc  Sc76  1  0.85920350  0.09479051  0.97204781  1
  Sc  Sc77  1  0.06713324  0.91369774  0.15649522  1
  Sc  Sc78  1  0.56883097  0.77149517  0.92816001  1
  Sc  Sc79  1  0.91639060  0.74342202  0.84679751  1
  Sc  Sc80  1  0.16755532  0.42142735  0.64805383  1
  Sc  Sc81  1  0.75287530  0.88351369  0.93730155  1
  Sc  Sc82  1  0.48329236  0.08911990  0.67311959  1
  Sc  Sc83  1  0.93456379  0.65128361  0.23156511  1
  Sc  Sc84  1  0.90381585  0.31750592  0.88433466  1
  Sc  Sc85  1  0.73505818  0.94996797  0.28052745  1
  Sc  Sc86  1  0.52803445  0.36318983  0.92328716  1
  Sc  Sc87  1  0.72040847  0.12007268  0.15986269  1
  Sc  Sc88  1  0.66310700  0.95519464  0.62630736  1
  Sc  Sc89  1  0.77442283  0.53336651  0.20417122  1
  Sc  Sc90  1  0.73539127  0.31284412  0.24251844  1
  Sc  Sc91  1  0.04544361  0.59290874  0.74689239  1
  Sc  Sc92  1  0.66310353  0.72994030  0.52545842  1
  Sc  Sc93  1  0.46819276  0.16104499  0.87892398  1
  Sc  Sc94  1  0.89848524  0.93816641  0.72952752  1
  Sc  Sc95  1  0.49497331  0.10487572  0.45725089  1
  Sc  Sc96  1  0.43995257  0.69934608  0.50541778  1
  Sc  Sc97  1  0.98191312  0.54581227  0.54494619  1
  Sc  Sc98  1  0.10844542  0.41117933  0.86307035  1
  Sc  Sc99  1  0.16790604  0.95078920  0.83881236  1
  Nb  Nb100  1  0.63634017  0.85944620  0.13044789  1
  Nb  Nb101  1  0.44392616  0.90842711  0.54523305  1
  Nb  Nb102  1  0.26316837  0.45126241  0.41494882  1
  Nb  Nb103  1  0.12913049  0.05116078  0.02565270  1
  Nb  Nb104  1  0.52549553  -0.00197395  0.24729529  1
  Nb  Nb105  1  0.38253523  0.91276909  0.35935462  1
  Nb  Nb106  1  0.52537184  0.95214705  0.83387928  1
  Nb  Nb107  1  0.24276513  0.57054504  0.78158437  1
  Nb  Nb108  1  0.36958050  0.66989240  0.98505967  1
  Nb  Nb109  1  0.17860664  0.61223065  0.56091686  1
  Nb  Nb110  1  0.54952393  0.21215419  0.29021512  1
  Nb  Nb111  1  0.56251304  0.27979650  0.10673628  1
  Nb  Nb112  1  0.21484112  0.83231384  0.03497587  1
  Nb  Nb113  1  0.44473100  0.34955581  0.40864590  1
  Nb  Nb114  1  0.84952814  0.65848571  0.41082146  1
  Nb  Nb115  1  0.23106956  0.17821989  0.12602800  1
  Nb  Nb116  1  0.55036829  0.56323021  0.92415825  1
  Nb  Nb117  1  0.37138222  0.28111183  0.01951983  1
  Nb  Nb118  1  0.77251291  0.52756971  0.53258043  1
  Nb  Nb119  1  0.12662347  0.70867442  0.21012104  1
  Nb  Nb120  1  0.73093215  0.64094950  0.90197079  1
  Nb  Nb121  1  0.94251071  0.83323070  0.29569614  1
  Nb  Nb122  1  0.73692138  0.75081949  0.27882158  1
  Nb  Nb123  1  0.42989178  0.55019080  0.33641343  1
  Nb  Nb124  1  0.51899376  0.44325968  0.74040591  1
