# generated using pymatgen
data_Zr2Sc2Nb
_symmetry_space_group_name_H-M   'P 1'
_cell_length_a   14.44520995
_cell_length_b   14.34380074
_cell_length_c   13.87863667
_cell_angle_alpha   90.79575289
_cell_angle_beta   88.76473737
_cell_angle_gamma   89.86702591
_symmetry_Int_Tables_number   1
_chemical_formula_structural   Zr2Sc2Nb
_chemical_formula_sum   'Zr50 Sc50 Nb25'
_cell_volume   2874.68716701
_cell_formula_units_Z   25
loop_
 _symmetry_equiv_pos_site_id
 _symmetry_equiv_pos_as_xyz
  1  'x, y, z'
loop_
 _atom_site_type_symbol
 _atom_site_label
 _atom_site_symmetry_multiplicity
 _atom_site_fract_x
 _atom_site_fract_y
 _atom_site_fract_z
 _atom_site_occupancy
  Zr  Zr0  1  0.17974602  0.56070538  0.63988183  1
  Zr  Zr1  1  0.44126350  0.10462040  0.86025787  1
  Zr  Zr2  1  0.15139395  0.99334087  0.06792545  1
  Zr  Zr3  1  0.60960240  0.65063100  0.29776829  1
  Zr  Zr4  1  0.12453657  0.65609750  1.00456178  1
  Zr  Zr5  1  0.50785701  0.48052970  0.93469098  1
  Zr  Zr6  1  0.29314184  0.53174913  0.98756397  1
  Zr  Zr7  1  0.91315142  0.84706156  0.42512029  1
  Zr  Zr8  1  0.15703595  0.12973863  0.43580524  1
  Zr  Zr9  1  0.03970823  0.69439214  0.32612974  1
  Zr  Zr10  1  0.22249393  0.56657176  0.39551789  1
  Zr  Zr11  1  1.00338383  0.97231377  0.65101631  1
  Zr  Zr12  1  0.23371050  0.00831245  0.68766066  1
  Zr  Zr13  1  0.44808034  -0.00030270  0.67075152  1
  Zr  Zr14  1  0.54148719  0.15039854  0.05616618  1
  Zr  Zr15  1  0.04699806  0.96159874  0.27907011  1
  Zr  Zr16  1  0.14258149  0.35668293  0.32276717  1
  Zr  Zr17  1  0.23626925  0.78525779  0.34361835  1
  Zr  Zr18  1  0.47083028  0.33859934  0.09511947  1
  Zr  Zr19  1  0.72901673  0.74269425  0.12392477  1
  Zr  Zr20  1  0.29774526  0.96050068  0.89048367  1
  Zr  Zr21  1  0.06960487  0.02171600  0.85026863  1
  Zr  Zr22  1  0.31642899  0.75300814  0.97264967  1
  Zr  Zr23  1  0.42750489  0.06071431  0.19526038  1
  Zr  Zr24  1  0.51829058  0.23247629  0.27839429  1
  Zr  Zr25  1  0.89149273  0.27389418  0.02629251  1
  Zr  Zr26  1  0.63742897  0.36459273  0.48849079  1
  Zr  Zr27  1  -0.04941912  0.48697334  0.28226478  1
  Zr  Zr28  1  0.28205976  0.28695072  0.70187281  1
  Zr  Zr29  1  0.74159325  0.14303003  0.11706816  1
  Zr  Zr30  1  0.50767776  0.74511031  0.51831312  1
  Zr  Zr31  1  0.12658296  0.80827242  0.15270190  1
  Zr  Zr32  1  0.11897191  0.15690700  0.22095627  1
  Zr  Zr33  1  0.34896897  0.90836581  0.50666363  1
  Zr  Zr34  1  0.57549712  0.94061259  0.49138765  1
  Zr  Zr35  1  0.46829252  0.86396066  0.31104005  1
  Zr  Zr36  1  0.79908364  0.53948767  0.11257905  1
  Zr  Zr37  1  0.45944055  0.66616744  0.85514083  1
  Zr  Zr38  1  0.57849157  0.92475753  0.10940998  1
  Zr  Zr39  1  0.88593324  0.62704535  0.48275519  1
  Zr  Zr40  1  0.49206458  0.88415141  0.91106099  1
  Zr  Zr41  1  0.40532567  0.65142834  0.34295678  1
  Zr  Zr42  1  0.30984283  0.21709558  0.31055718  1
  Zr  Zr43  1  0.09121600  0.36867199  0.68365746  1
  Zr  Zr44  1  0.09520058  0.16884939  0.64648958  1
  Zr  Zr45  1  0.74905932  0.45754236  0.30256907  1
  Zr  Zr46  1  0.79207393  0.91677776  0.72134749  1
  Zr  Zr47  1  0.57857543  0.27989519  0.87292251  1
  Zr  Zr48  1  0.95192734  0.67475528  0.14199052  1
  Zr  Zr49  1  0.77427574  0.98835994  0.52416910  1
  Sc  Sc50  1  0.88993519  0.66642294  0.93467165  1
  Sc  Sc51  1  0.81821122  0.04727166  0.30668660  1
  Sc  Sc52  1  0.65875345  0.65256973  0.92767150  1
  Sc  Sc53  1  0.60722016  0.63367716  0.69067648  1
  Sc  Sc54  1  0.67984451  0.34033199  0.11131414  1
  Sc  Sc55  1  0.68380890  0.57061899  0.48951132  1
  Sc  Sc56  1  0.43449530  0.30381454  0.47793725  1
  Sc  Sc57  1  0.96468885  0.06605131  0.45915413  1
  Sc  Sc58  1  0.11484929  0.51417648  0.84583310  1
  Sc  Sc59  1  0.72399544  0.44548674  0.92353318  1
  Sc  Sc60  1  0.52374114  0.43210306  0.68667774  1
  Sc  Sc61  1  0.40883925  0.52943773  0.15925508  1
  Sc  Sc62  1  0.36750799  0.30342126  0.90885809  1
  Sc  Sc63  1  0.13269450  0.83100989  0.90216895  1
  Sc  Sc64  1  0.60055822  0.14991768  0.49015223  1
  Sc  Sc65  1  0.74858033  0.84687391  0.92497354  1
  Sc  Sc66  1  0.94534413  0.52858994  0.65669207  1
  Sc  Sc67  1  0.80506696  0.69348368  0.73474770  1
  Sc  Sc68  1  0.03176501  0.67970187  0.76574607  1
  Sc  Sc69  1  0.72853285  0.77778483  0.53378295  1
  Sc  Sc70  1  0.98769568  0.48751369  0.02900627  1
  Sc  Sc71  1  0.54792407  0.43828593  0.29467131  1
  Sc  Sc72  1  0.00364944  0.28165246  0.47207382  1
  Sc  Sc73  1  0.15591869  0.81903650  0.68336818  1
  Sc  Sc74  1  0.87218783  0.05610815  0.92758406  1
  Sc  Sc75  1  0.05301025  0.33213788  0.13426006  1
  Sc  Sc76  1  0.69897642  0.85841970  0.31660154  1
  Sc  Sc77  1  0.25666344  0.99237464  0.30458408  1
  Sc  Sc78  1  0.49706050  0.72013000  0.09974215  1
  Sc  Sc79  1  0.34151007  0.88622288  0.12598051  1
  Sc  Sc80  1  0.95789035  0.88074484  0.02840441  1
  Sc  Sc81  1  0.90067294  0.25967863  0.26999346  1
  Sc  Sc82  1  0.48961479  0.22231985  0.67709138  1
  Sc  Sc83  1  0.58554825  0.84282630  0.71357499  1
  Sc  Sc84  1  0.86575113  0.12023198  0.68799814  1
  Sc  Sc85  1  0.05121630  0.48389008  0.47803611  1
  Sc  Sc86  1  0.64763368  0.07742834  0.70233492  1
  Sc  Sc87  1  0.74559471  0.46920564  0.69327166  1
  Sc  Sc88  1  0.77749101  0.23543634  0.85140701  1
  Sc  Sc89  1  0.12547770  0.90558661  0.48215778  1
  Sc  Sc90  1  0.15083418  0.33347419  0.92194183  1
  Sc  Sc91  1  0.65500118  0.03897409  0.91739309  1
  Sc  Sc92  1  0.26503337  0.35052039  0.12909457  1
  Sc  Sc93  1  0.80180762  0.20762274  0.48938813  1
  Sc  Sc94  1  0.15026565  0.53297453  0.18760253  1
  Sc  Sc95  1  0.32889601  0.47533591  0.78501577  1
  Sc  Sc96  1  0.92040352  0.41055478  0.84218691  1
  Sc  Sc97  1  0.32274301  0.13901823  0.55283892  1
  Sc  Sc98  1  0.29781175  0.14807985  0.04714268  1
  Sc  Sc99  1  0.29405847  0.71013536  0.54230432  1
  Nb  Nb100  1  0.08197041  0.69658349  0.52324979  1
  Nb  Nb101  1  0.28261033  0.68471338  0.17227072  1
  Nb  Nb102  1  0.60886493  0.53801152  0.10916430  1
  Nb  Nb103  1  0.25138973  0.67087374  0.80113529  1
  Nb  Nb104  1  0.34455176  0.42264691  0.33424477  1
  Nb  Nb105  1  0.94523177  0.07312139  0.13304641  1
  Nb  Nb106  1  0.89539780  0.85057091  0.22361432  1
  Nb  Nb107  1  0.77005135  0.95407360  0.11286978  1
  Nb  Nb108  1  0.70206285  0.24762620  0.31250836  1
  Nb  Nb109  1  0.48439104  0.53158198  0.48151523  1
  Nb  Nb110  1  0.61523666  0.04850899  0.27751153  1
  Nb  Nb111  1  0.94349759  0.85599775  0.81815915  1
  Nb  Nb112  1  0.21384545  0.32542925  0.50229519  1
  Nb  Nb113  1  0.81394948  0.67014586  0.30576476  1
  Nb  Nb114  1  0.32883923  0.46395699  0.55888762  1
  Nb  Nb115  1  0.41012561  0.62002220  0.66213340  1
  Nb  Nb116  1  0.99944965  0.21690896  0.82648168  1
  Nb  Nb117  1  0.89373232  0.31586463  0.65561696  1
  Nb  Nb118  1  0.69404498  0.27797358  0.66441170  1
  Nb  Nb119  1  0.93876956  0.79412656  0.61406119  1
  Nb  Nb120  1  0.43779453  0.06404821  0.40106847  1
  Nb  Nb121  1  0.21789013  0.15126673  0.84250390  1
  Nb  Nb122  1  0.07096836  0.16230334  0.00695745  1
  Nb  Nb123  1  0.83770125  0.41371060  0.48533407  1
  Nb  Nb124  1  0.36733823  0.81820371  0.73106778  1
