# generated using pymatgen
data_Zr2Sc2Nb
_symmetry_space_group_name_H-M   'P 1'
_cell_length_a   14.11852688
_cell_length_b   14.03329273
_cell_length_c   14.50937230
_cell_angle_alpha   88.65563616
_cell_angle_beta   89.07919696
_cell_angle_gamma   89.73526756
_symmetry_Int_Tables_number   1
_chemical_formula_structural   Zr2Sc2Nb
_chemical_formula_sum   'Zr50 Sc50 Nb25'
_cell_volume   2873.54521182
_cell_formula_units_Z   25
loop_
 _symmetry_equiv_pos_site_id
 _symmetry_equiv_pos_as_xyz
  1  'x, y, z'
loop_
 _atom_site_type_symbol
 _atom_site_label
 _atom_site_symmetry_multiplicity
 _atom_site_fract_x
 _atom_site_fract_y
 _atom_site_fract_z
 _atom_site_occupancy
  Zr  Zr0  1  0.10627139  1.00029792  0.51194591  1
  Zr  Zr1  1  0.10295655  0.28587868  0.28944957  1
  Zr  Zr2  1  0.35832053  0.06560985  0.74978706  1
  Zr  Zr3  1  0.61352206  0.20013002  0.69552313  1
  Zr  Zr4  1  0.36546484  0.05264002  0.97881069  1
  Zr  Zr5  1  0.39495960  0.46085815  0.13679891  1
  Zr  Zr6  1  0.48649814  0.76184821  0.71204205  1
  Zr  Zr7  1  0.68564637  0.82793557  0.61334661  1
  Zr  Zr8  1  0.87246673  0.72287419  0.83238804  1
  Zr  Zr9  1  0.85944573  0.10214528  0.97803723  1
  Zr  Zr10  1  0.20125537  0.29319523  0.67194701  1
  Zr  Zr11  1  0.09309756  0.97744634  0.06745438  1
  Zr  Zr12  1  0.46578377  0.39645656  0.32374435  1
  Zr  Zr13  1  0.55012457  0.72000987  0.23030690  1
  Zr  Zr14  1  0.54295169  0.34132875  0.50985947  1
  Zr  Zr15  1  0.91853320  0.29110730  0.42446433  1
  Zr  Zr16  1  0.68666940  0.32230075  0.32074815  1
  Zr  Zr17  1  0.93237268  0.46733001  0.53344287  1
  Zr  Zr18  1  0.61245514  0.11045909  0.25188253  1
  Zr  Zr19  1  0.91613771  0.10213622  0.75623179  1
  Zr  Zr20  1  0.83742980  0.55562120  0.13383328  1
  Zr  Zr21  1  0.24596967  0.18522369  0.87446311  1
  Zr  Zr22  1  0.30692002  0.67659235  0.80930874  1
  Zr  Zr23  1  0.10814649  0.78539527  0.55139057  1
  Zr  Zr24  1  0.71500057  -0.00287039  0.09138279  1
  Zr  Zr25  1  0.12540550  0.10290692  0.70728174  1
  Zr  Zr26  1  0.19459171  -0.03662961  0.87686083  1
  Zr  Zr27  1  -0.02330988  0.91882425  0.91209592  1
  Zr  Zr28  1  0.12951661  0.78878446  0.16914467  1
  Zr  Zr29  1  0.97669836  0.15413389  0.15487132  1
  Zr  Zr30  1  0.33791771  0.54324920  0.96411431  1
  Zr  Zr31  1  0.52373047  0.65126952  0.88815315  1
  Zr  Zr32  1  0.61010155  0.77268830  0.43472545  1
  Zr  Zr33  1  0.53242057  0.61618940  0.58248939  1
  Zr  Zr34  1  0.96172522  0.72330935  0.02073786  1
  Zr  Zr35  1  0.94297987  0.67598976  0.43815947  1
  Zr  Zr36  1  0.19007926  0.38093607  0.07142823  1
  Zr  Zr37  1  0.59830072  0.79037405  0.02886885  1
  Zr  Zr38  1  0.67926745  0.27865154  0.89760231  1
  Zr  Zr39  1  0.04354467  0.52724597  0.10161514  1
  Zr  Zr40  1  0.22591762  0.60543128  0.14850603  1
  Zr  Zr41  1  0.95951196  0.33247844  0.03491055  1
  Zr  Zr42  1  0.82415499  0.84861048  0.36967520  1
  Zr  Zr43  1  0.11963023  0.58446227  0.53955737  1
  Zr  Zr44  1  0.48976538  0.92889920  0.12760854  1
  Zr  Zr45  1  0.68605464  0.64524094  0.73635809  1
  Zr  Zr46  1  0.71267737  0.06865051  0.84359314  1
  Zr  Zr47  1  0.70427998  0.19285324  0.47626669  1
  Zr  Zr48  1  0.45841406  0.94735785  0.34304088  1
  Zr  Zr49  1  0.66075745  0.89875178  0.26176272  1
  Sc  Sc50  1  0.91648957  0.10666831  0.53291967  1
  Sc  Sc51  1  0.90066363  0.88718724  0.55243687  1
  Sc  Sc52  1  0.64576585  0.51176003  0.21715864  1
  Sc  Sc53  1  0.45434381  0.51443671  0.75778573  1
  Sc  Sc54  1  0.92650289  0.67390839  0.64230185  1
  Sc  Sc55  1  0.46237406  0.18250940  0.36782258  1
  Sc  Sc56  1  0.38070507  0.08821277  0.19183248  1
  Sc  Sc57  1  0.03155334  0.49920387  0.33066396  1
  Sc  Sc58  1  0.62454777  0.41541511  0.69401427  1
  Sc  Sc59  1  0.45466459  0.89117642  0.55089036  1
  Sc  Sc60  1  0.89146321  0.35964710  0.22168805  1
  Sc  Sc61  1  0.37306968  0.26763360  0.03874490  1
  Sc  Sc62  1  0.30725650  0.29853280  0.46288103  1
  Sc  Sc63  1  0.39995160  0.85548773  0.88972619  1
  Sc  Sc64  1  0.91736599  0.51919649  0.91498071  1
  Sc  Sc65  1  0.87936444  0.30786198  0.84530600  1
  Sc  Sc66  1  0.55441734  -0.02292034  0.72502924  1
  Sc  Sc67  1  0.91887475  0.93164657  0.17532311  1
  Sc  Sc68  1  0.95743392  0.68991035  0.24005076  1
  Sc  Sc69  1  0.83020785  0.47966141  0.71424900  1
  Sc  Sc70  1  0.31272906  0.70122274  0.58931882  1
  Sc  Sc71  1  0.58756813  0.54609004  0.40458108  1
  Sc  Sc72  1  0.20183773  0.68355100  0.36163712  1
  Sc  Sc73  1  0.80180446  0.26450103  0.65048771  1
  Sc  Sc74  1  0.03958346  0.90299885  0.71569318  1
  Sc  Sc75  1  0.48044668  0.19703102  0.85816083  1
  Sc  Sc76  1  0.23967701  0.46018610  0.31689515  1
  Sc  Sc77  1  0.56665538  0.14531284  0.04183625  1
  Sc  Sc78  1  0.75216636  0.62082465  0.52603307  1
  Sc  Sc79  1  0.31016228  0.37922672  0.85484210  1
  Sc  Sc80  1  0.41123440  0.29215443  0.67192859  1
  Sc  Sc81  1  0.76234842  0.22235771  0.12106277  1
  Sc  Sc82  1  0.39351074  0.71255113  0.07059771  1
  Sc  Sc83  1  0.50928555  0.10784605  0.55477662  1
  Sc  Sc84  1  0.82144570  0.90937255  0.75266112  1
  Sc  Sc85  1  0.56389034  0.32724111  0.13815192  1
  Sc  Sc86  1  0.09310992  0.34824271  0.86077956  1
  Sc  Sc87  1  0.29546580  0.09413085  0.55344380  1
  Sc  Sc88  1  0.19024753  0.15735608  0.12378287  1
  Sc  Sc89  1  0.17456926  0.75237348  0.96537113  1
  Sc  Sc90  1  0.26937070  0.89082131  0.43297785  1
  Sc  Sc91  1  0.24214735  0.50636757  0.69362098  1
  Sc  Sc92  1  0.26134796  0.88399244  0.68393254  1
  Sc  Sc93  1  0.09804748  0.68901198  0.76436049  1
  Sc  Sc94  1  0.05179960  0.14366610  0.92877997  1
  Sc  Sc95  1  0.04487550  0.86552015  0.35582698  1
  Sc  Sc96  1  0.82192307  0.08995762  0.30917713  1
  Sc  Sc97  1  0.35782669  0.51406603  0.48909415  1
  Sc  Sc98  1  0.66150790  0.98682803  0.45053117  1
  Sc  Sc99  1  0.77648785  0.76920862  0.13982734  1
  Nb  Nb100  1  0.74017115  0.65015069  0.96812449  1
  Nb  Nb101  1  0.04058811  0.08601180  0.33223428  1
  Nb  Nb102  1  0.65229158  0.81951640  0.83367052  1
  Nb  Nb103  1  0.12233115  0.39307180  0.50569215  1
  Nb  Nb104  1  0.40223765  0.59853403  0.27900556  1
  Nb  Nb105  1  0.78666838  0.87597232  0.95866400  1
  Nb  Nb106  1  0.81917419  0.50058524  0.35364872  1
  Nb  Nb107  1  0.56564648  0.97614301  0.93168365  1
  Nb  Nb108  1  0.10772160  0.20308201  0.49542099  1
  Nb  Nb109  1  0.73599770  0.40520963  0.50914929  1
  Nb  Nb110  1  0.73546489  0.04899901  0.62950079  1
  Nb  Nb111  1  0.73905608  0.41952365  0.03510331  1
  Nb  Nb112  1  0.33687036  0.80590784  0.24460390  1
  Nb  Nb113  1  0.24065330  0.12344868  0.35465924  1
  Nb  Nb114  1  0.56491572  0.56011782  0.05223766  1
  Nb  Nb115  1  1.00146654  0.29052967  0.65218963  1
  Nb  Nb116  1  0.03986913  0.47885099  0.71486159  1
  Nb  Nb117  1  0.19847347  0.97212836  0.24919819  1
  Nb  Nb118  1  0.31576715  0.28442617  0.24079630  1
  Nb  Nb119  1  0.42065701  0.72669014  0.41426838  1
  Nb  Nb120  1  0.74830746  0.67206073  0.31525605  1
  Nb  Nb121  1  0.68259949  0.49376337  0.87429335  1
  Nb  Nb122  1  0.28476866  0.90371967  0.07832291  1
  Nb  Nb123  1  0.51526016  0.40559206  0.94168132  1
  Nb  Nb124  1  0.14042144  0.54220879  0.91174100  1
