# generated using pymatgen
data_Zr2Sc2Nb
_symmetry_space_group_name_H-M   'P 1'
_cell_length_a   14.06612665
_cell_length_b   14.05347324
_cell_length_c   14.53093043
_cell_angle_alpha   89.20236074
_cell_angle_beta   90.71371633
_cell_angle_gamma   89.68125800
_symmetry_Int_Tables_number   1
_chemical_formula_structural   Zr2Sc2Nb
_chemical_formula_sum   'Zr50 Sc50 Nb25'
_cell_volume   2871.89586336
_cell_formula_units_Z   25
loop_
 _symmetry_equiv_pos_site_id
 _symmetry_equiv_pos_as_xyz
  1  'x, y, z'
loop_
 _atom_site_type_symbol
 _atom_site_label
 _atom_site_symmetry_multiplicity
 _atom_site_fract_x
 _atom_site_fract_y
 _atom_site_fract_z
 _atom_site_occupancy
  Zr  Zr0  1  0.31188826  0.71293726  0.87494252  1
  Zr  Zr1  1  0.46440263  0.46376511  0.69394785  1
  Zr  Zr2  1  0.45911248  0.05075822  0.78216208  1
  Zr  Zr3  1  0.84615784  0.76229220  0.54876868  1
  Zr  Zr4  1  0.37659942  0.49866985  0.46737553  1
  Zr  Zr5  1  0.47238434  0.31611635  0.00481186  1
  Zr  Zr6  1  0.85722999  0.71732495  0.74544112  1
  Zr  Zr7  1  0.06734130  0.62231593  0.07250211  1
  Zr  Zr8  1  0.04680718  0.67134159  0.63422887  1
  Zr  Zr9  1  0.95909478  0.10728724  0.94350696  1
  Zr  Zr10  1  0.32176394  0.16166999  0.17155399  1
  Zr  Zr11  1  0.93782878  0.39344038  0.41245373  1
  Zr  Zr12  1  0.53737728  0.35345784  0.40696064  1
  Zr  Zr13  1  0.29532494  0.06165812  0.34604461  1
  Zr  Zr14  1  0.30677508  0.92450695  0.89574780  1
  Zr  Zr15  1  0.73934039  0.03694771  0.03600905  1
  Zr  Zr16  1  0.65292613  0.95649181  0.85985285  1
  Zr  Zr17  1  0.68937386  0.25182289  0.08338400  1
  Zr  Zr18  1  0.44736265  0.12730641  0.57575363  1
  Zr  Zr19  1  0.10897977  0.03974492  0.82233080  1
  Zr  Zr20  1  0.96098328  0.88778898  0.68667108  1
  Zr  Zr21  1  0.94803853  0.29175500  0.80008662  1
  Zr  Zr22  1  0.44594277  0.66018793  0.57775816  1
  Zr  Zr23  1  0.60054312  0.51457338  0.53229497  1
  Zr  Zr24  1  0.78812020  0.42160791  0.91926993  1
  Zr  Zr25  1  0.95151002  0.54533522  0.25725674  1
  Zr  Zr26  1  0.68685224  0.53942402  0.74516159  1
  Zr  Zr27  1  0.12672323  0.44191293  0.76747749  1
  Zr  Zr28  1  0.58894923  0.90509849  0.12288555  1
  Zr  Zr29  1  0.77265054  0.19935525  0.88349121  1
  Zr  Zr30  1  0.21872852  0.70432594  0.46427134  1
  Zr  Zr31  1  0.84774000  0.72577272  0.33429639  1
  Zr  Zr32  1  0.49042610  0.30986360  0.20939829  1
  Zr  Zr33  1  0.87279534  0.91000016  0.87332772  1
  Zr  Zr34  1  0.83580382  0.34999425  0.22298883  1
  Zr  Zr35  1  0.41774888  0.52157947  0.11550468  1
  Zr  Zr36  1  0.66495216  0.68557579  0.43340736  1
  Zr  Zr37  1  0.91939399  0.22422008  0.56894801  1
  Zr  Zr38  1  0.12027479  0.26063801  0.68302393  1
  Zr  Zr39  1  0.23653393  0.52082541  0.96007452  1
  Zr  Zr40  1  0.52566323  0.11039251  0.13946895  1
  Zr  Zr41  1  0.61175446  0.35789812  0.83779222  1
  Zr  Zr42  1  0.67398521  0.04763765  0.28109363  1
  Zr  Zr43  1  0.75162943  0.34255438  0.48611417  1
  Zr  Zr44  1  0.34683310  0.90557246  0.49215174  1
  Zr  Zr45  1  0.12674599  0.29733373  0.48153993  1
  Zr  Zr46  1  0.84951695  0.15962059  0.38413844  1
  Zr  Zr47  1  0.31614241  0.62446428  0.29317148  1
  Zr  Zr48  1  0.52645710  0.55385702  0.30651661  1
  Zr  Zr49  1  0.45876639  0.74705781  0.40003079  1
  Sc  Sc50  1  0.09302912  0.63789864  0.84250175  1
  Sc  Sc51  1  0.45141750  0.50474546  0.90935031  1
  Sc  Sc52  1  0.95533124  0.95968963  0.08771456  1
  Sc  Sc53  1  0.07569981  0.07324786  0.62919276  1
  Sc  Sc54  1  0.26836289  0.34364018  0.07398619  1
  Sc  Sc55  1  0.09948843  0.69222261  0.29008096  1
  Sc  Sc56  1  0.48857607  0.85327439  0.72779596  1
  Sc  Sc57  1  0.34090113  0.26503368  0.42016243  1
  Sc  Sc58  1  0.50251527  0.65318180  0.78161383  1
  Sc  Sc59  1  0.05363112  0.40265498  0.14752139  1
  Sc  Sc60  1  0.57880498  0.31043147  0.61330850  1
  Sc  Sc61  1  0.64680350  0.72714097  0.62941975  1
  Sc  Sc62  1  0.16487177  0.02566880  0.02394423  1
  Sc  Sc63  1  0.70048516  0.66830313  0.17562530  1
  Sc  Sc64  1  0.87206204  0.12845359  0.17845016  1
  Sc  Sc65  1  0.66912217  0.13390598  0.49437667  1
  Sc  Sc66  1  0.01389804  0.45445967  0.94911016  1
  Sc  Sc67  1  0.73734687  0.92643003  0.66234529  1
  Sc  Sc68  1  0.56204910  0.92910780  0.49500596  1
  Sc  Sc69  1  0.94512920  0.95752969  0.31076668  1
  Sc  Sc70  1  0.76586777  0.91605702  0.42412590  1
  Sc  Sc71  1  0.29136676  0.96365319  0.68601122  1
  Sc  Sc72  1  0.90950244  0.51116969  0.76190280  1
  Sc  Sc73  1  0.31859151  0.32807992  0.62226977  1
  Sc  Sc74  1  0.65079747  0.14080401  0.71642728  1
  Sc  Sc75  1  0.74519285  0.81052111  0.01165243  1
  Sc  Sc76  1  0.13550969  0.88535297  0.57007543  1
  Sc  Sc77  1  0.73942586  0.50203714  0.33325344  1
  Sc  Sc78  1  0.91672121  0.74274831  0.13842379  1
  Sc  Sc79  1  0.14024076  0.83269715  0.77997098  1
  Sc  Sc80  1  0.34499801  0.94489475  0.12625547  1
  Sc  Sc81  1  0.18381892  0.50907965  0.57278244  1
  Sc  Sc82  1  0.64216013  0.45152213  0.13269806  1
  Sc  Sc83  1  0.33998895  0.14817327  0.94980577  1
  Sc  Sc84  1  0.90695671  0.28906254  0.03605560  1
  Sc  Sc85  1  0.14778161  0.91296181  0.37546690  1
  Sc  Sc86  1  0.07169511  0.10718254  0.42053225  1
  Sc  Sc87  1  0.06921101  0.82165660  0.96580323  1
  Sc  Sc88  1  0.88031181  0.65306394  0.93799375  1
  Sc  Sc89  1  0.81555855  0.54541346  0.56293400  1
  Sc  Sc90  1  0.57444231  0.15301575  0.92832880  1
  Sc  Sc91  1  0.14774082  0.47201108  0.35899413  1
  Sc  Sc92  1  0.27575933  0.71844914  0.08258976  1
  Sc  Sc93  1  0.13974673  0.24995195  0.90566004  1
  Sc  Sc94  1  0.65858038  0.59274785  0.96121120  1
  Sc  Sc95  1  0.47072893  0.73900999  0.18103434  1
  Sc  Sc96  1  0.87582531  0.09076357  0.72978925  1
  Sc  Sc97  1  0.28090801  0.73689539  0.66361209  1
  Sc  Sc98  1  0.51223160  0.77154730  0.95954248  1
  Sc  Sc99  1  0.13143429  0.85870395  0.16955078  1
  Nb  Nb100  1  0.47086416  0.95020317  0.29928091  1
  Nb  Nb101  1  0.45577547  0.25283002  0.77541152  1
  Nb  Nb102  1  0.67487784  0.25522675  0.29653754  1
  Nb  Nb103  1  0.30468462  0.82982094  0.29299129  1
  Nb  Nb104  1  0.98338000  0.41924385  0.60306782  1
  Nb  Nb105  1  0.00858735  0.25269555  0.28377565  1
  Nb  Nb106  1  0.85041674  0.51450020  0.09094565  1
  Nb  Nb107  1  0.25019836  0.11386878  0.54237811  1
  Nb  Nb108  1  0.31184481  0.35537045  0.83983205  1
  Nb  Nb109  1  0.29804212  0.54935600  0.75266691  1
  Nb  Nb110  1  0.19334110  0.27400086  0.27154889  1
  Nb  Nb111  1  0.62967564  0.82313287  0.30206881  1
  Nb  Nb112  1  0.68554792  0.75925148  0.82500664  1
  Nb  Nb113  1  0.99948791  0.79970569  0.45156586  1
  Nb  Nb114  1  0.48409861  0.97791499  0.97228322  1
  Nb  Nb115  1  0.11543407  0.06740091  0.22415906  1
  Nb  Nb116  1  0.27794016  0.15601098  0.74804168  1
  Nb  Nb117  1  0.34438400  0.41544232  0.27670456  1
  Nb  Nb118  1  0.09205933  0.20190357  0.10117779  1
  Nb  Nb119  1  0.91819284  -0.00691173  0.52379066  1
  Nb  Nb120  1  0.78151895  0.34165563  0.69735045  1
  Nb  Nb121  1  -0.00298501  0.59542481  0.45984293  1
  Nb  Nb122  1  0.78272049  0.89645915  0.20013084  1
  Nb  Nb123  1  0.20868279  0.52336420  0.16935389  1
  Nb  Nb124  1  0.49833351  0.13980223  0.35566991  1
