# generated using pymatgen
data_Zr2Sc2Nb
_symmetry_space_group_name_H-M   'P 1'
_cell_length_a   14.03007127
_cell_length_b   14.34465831
_cell_length_c   14.30567525
_cell_angle_alpha   88.55254543
_cell_angle_beta   90.46470759
_cell_angle_gamma   89.28639511
_symmetry_Int_Tables_number   1
_chemical_formula_structural   Zr2Sc2Nb
_chemical_formula_sum   'Zr50 Sc50 Nb25'
_cell_volume   2877.86710288
_cell_formula_units_Z   25
loop_
 _symmetry_equiv_pos_site_id
 _symmetry_equiv_pos_as_xyz
  1  'x, y, z'
loop_
 _atom_site_type_symbol
 _atom_site_label
 _atom_site_symmetry_multiplicity
 _atom_site_fract_x
 _atom_site_fract_y
 _atom_site_fract_z
 _atom_site_occupancy
  Zr  Zr0  1  0.72928411  0.78287675  0.26407870  1
  Zr  Zr1  1  0.09245242  0.71357906  0.05307981  1
  Zr  Zr2  1  0.73160278  0.63827797  0.89234401  1
  Zr  Zr3  1  0.12775441  0.31556874  0.26914111  1
  Zr  Zr4  1  0.68084394  0.02102042  0.29474843  1
  Zr  Zr5  1  0.91184970  0.34894503  0.96940015  1
  Zr  Zr6  1  0.88189521  0.14906377  0.05104488  1
  Zr  Zr7  1  0.45601064  0.58354499  0.13797667  1
  Zr  Zr8  1  0.05213242  0.85491950  0.90250591  1
  Zr  Zr9  1  0.68826340  0.23570919  0.29269399  1
  Zr  Zr10  1  1.00764484  0.95880381  0.70698825  1
  Zr  Zr11  1  0.08478733  0.09633516  0.18542492  1
  Zr  Zr12  1  0.69503597  0.32145518  0.71708786  1
  Zr  Zr13  1  0.20588972  0.96265352  0.77995588  1
  Zr  Zr14  1  0.67437917  0.01519321  0.76236935  1
  Zr  Zr15  1  0.74044464  0.32842353  0.09785955  1
  Zr  Zr16  1  0.46046172  0.15090373  0.24570576  1
  Zr  Zr17  1  0.32493968  0.32784987  0.32060147  1
  Zr  Zr18  1  0.50485200  0.33887439  0.17685401  1
  Zr  Zr19  1  0.86538775  0.34655466  0.57816400  1
  Zr  Zr20  1  0.93919142  0.63721579  0.16313656  1
  Zr  Zr21  1  0.83024854  0.38850265  0.36028890  1
  Zr  Zr22  1  0.17967192  1.04262140  0.55434084  1
  Zr  Zr23  1  0.13335405  0.62456401  0.85773146  1
  Zr  Zr24  1  0.72404504  0.69753578  0.68585444  1
  Zr  Zr25  1  0.39740524  0.21370794  0.49705633  1
  Zr  Zr26  1  0.84234448  0.76211137  1.01889842  1
  Zr  Zr27  1  0.23929926  0.30909060  0.88731331  1
  Zr  Zr28  1  0.45881959  0.25073061  1.00194296  1
  Zr  Zr29  1  0.94019541  0.76389224  0.57952793  1
  Zr  Zr30  1  0.12717351  0.77484533  0.70198612  1
  Zr  Zr31  1  0.29158191  0.75784908  0.16622317  1
  Zr  Zr32  1  0.68365703  0.27190297  0.50165608  1
  Zr  Zr33  1  0.46139543  0.74757933  0.29540962  1
  Zr  Zr34  1  0.00955561  0.17415606  0.61911450  1
  Zr  Zr35  1  0.27913594  0.65503996  0.60771288  1
  Zr  Zr36  1  0.11729173  0.72491281  0.28106341  1
  Zr  Zr37  1  0.64781160  0.46533883  0.22626514  1
  Zr  Zr38  1  0.03306783  0.52065738  0.32768598  1
  Zr  Zr39  1  0.19453882  0.25261647  0.50553881  1
  Zr  Zr40  1  0.36426538  0.44263809  0.51477007  1
  Zr  Zr41  1  0.29150233  0.63386600  0.01303041  1
  Zr  Zr42  1  0.93720072  0.56752924  0.95029954  1
  Zr  Zr43  1  0.88098881  1.04144603  0.25400200  1
  Zr  Zr44  1  0.52592442  0.61620773  0.52200133  1
  Zr  Zr45  1  0.71365203  0.22154128  0.90447686  1
  Zr  Zr46  1  0.43723864  0.53423303  0.70189734  1
  Zr  Zr47  1  0.65121491  0.67185328  0.10890413  1
  Zr  Zr48  1  0.70646977  0.50682679  0.60455292  1
  Zr  Zr49  1  0.48415408  0.94846393  0.25898471  1
  Sc  Sc50  1  0.77395120  0.88933938  0.62238954  1
  Sc  Sc51  1  0.94573610  1.00363368  0.51519447  1
  Sc  Sc52  1  0.27799280  0.87128212  0.97262284  1
  Sc  Sc53  1  0.07402278  0.36007869  0.66167782  1
  Sc  Sc54  1  0.29070936  0.65082214  0.39885628  1
  Sc  Sc55  1  0.09121579  0.27229740  0.05263537  1
  Sc  Sc56  1  0.11808218  0.48869495  0.04726248  1
  Sc  Sc57  1  0.49089198  0.02102896  0.03265428  1
  Sc  Sc58  1  0.93943173  0.42861449  0.16767321  1
  Sc  Sc59  1  0.51341015  0.34347636  0.81493047  1
  Sc  Sc60  1  0.83554374  0.88164762  0.83743371  1
  Sc  Sc61  1  0.93123800  0.70822655  0.78586751  1
  Sc  Sc62  1  0.50639283  0.65321290  0.91770481  1
  Sc  Sc63  1  0.44361380  0.92001939  0.82724562  1
  Sc  Sc64  1  0.47703727  0.81177066  0.07560890  1
  Sc  Sc65  1  0.63368477  0.83482058  0.89796276  1
  Sc  Sc66  1  0.27760947  0.88029338  0.32776871  1
  Sc  Sc67  1  0.23241084  0.47900133  0.72542574  1
  Sc  Sc68  1  0.92764570  0.71543642  0.37218312  1
  Sc  Sc69  1  0.34250838  0.29707817  0.68716231  1
  Sc  Sc70  1  0.56372823  0.16367699  0.63266745  1
  Sc  Sc71  1  0.82429764  0.88987360  0.40892739  1
  Sc  Sc72  1  0.31004245  0.10249924  0.91293676  1
  Sc  Sc73  1  0.10305251  0.06147074  0.96663809  1
  Sc  Sc74  1  0.37021633  0.47994206  0.90148337  1
  Sc  Sc75  1  0.16134200  0.46986016  0.48759685  1
  Sc  Sc76  1  0.69202823  0.91189117  0.10582515  1
  Sc  Sc77  1  0.64438030  0.14090495  0.10523035  1
  Sc  Sc78  1  0.38690029  -0.00675048  0.46455179  1
  Sc  Sc79  1  0.25454276  0.10932821  0.32916438  1
  Sc  Sc80  1  0.90525440  0.54429465  0.50480920  1
  Sc  Sc81  1  0.23582125  0.54017219  0.22719059  1
  Sc  Sc82  1  0.05962714  0.93473612  0.34516453  1
  Sc  Sc83  1  0.31954274  0.72566976  0.81046612  1
  Sc  Sc84  1  0.92106195  0.24001233  0.23975045  1
  Sc  Sc85  1  0.12239580  0.90432773  0.12626899  1
  Sc  Sc86  1  0.52429421  0.12628188  0.84559772  1
  Sc  Sc87  1  0.37098453  0.07359642  0.67695899  1
  Sc  Sc88  1  0.90161413  0.08745182  0.84674257  1
  Sc  Sc89  1  0.28456890  0.18869337  0.11878321  1
  Sc  Sc90  1  0.92964105  0.84494709  0.19793696  1
  Sc  Sc91  1  0.44857609  0.51105419  0.33225138  1
  Sc  Sc92  1  0.57371260  0.45858583  0.00058357  1
  Sc  Sc93  1  0.17427925  0.83882852  0.50784520  1
  Sc  Sc94  1  0.51016693  0.74002497  0.70212631  1
  Sc  Sc95  1  0.53961269  0.94070813  0.61510157  1
  Sc  Sc96  1  0.31385540  0.39740697  0.09180429  1
  Sc  Sc97  1  0.87046429  0.50642351  0.74417233  1
  Sc  Sc98  1  0.80739040  0.13666474  0.65586709  1
  Sc  Sc99  1  0.60556226  0.85528493  0.43473170  1
  Nb  Nb100  1  0.09398975  0.65872449  0.49203756  1
  Nb  Nb101  1  0.52275885  0.32409030  0.38599685  1
  Nb  Nb102  1  0.74069423  0.68718920  0.47573911  1
  Nb  Nb103  1  0.72283988  0.02632974  0.94983665  1
  Nb  Nb104  1  0.55334493  0.11029156  0.42106182  1
  Nb  Nb105  1  0.71095319  0.04727146  0.50233860  1
  Nb  Nb106  1  0.04943312  0.14355324  0.39136771  1
  Nb  Nb107  1  0.32724015  0.86992368  0.64781975  1
  Nb  Nb108  1  0.74630237  0.42771481  0.89051589  1
  Nb  Nb109  1  0.05508469  0.22933477  0.84374268  1
  Nb  Nb110  1  0.91505423  -0.04153232  0.02909434  1
  Nb  Nb111  1  0.88861202  0.29720673  0.77825842  1
  Nb  Nb112  1  0.65629027  0.47324108  0.42610365  1
  Nb  Nb113  1  0.18411385  0.16103818  0.72711396  1
  Nb  Nb114  1  0.05638206  0.57901593  0.66498071  1
  Nb  Nb115  1  0.53476764  0.38743761  0.59197321  1
  Nb  Nb116  1  0.61368560  0.64008482  0.32880541  1
  Nb  Nb117  1  0.80037936  0.57730832  0.29127561  1
  Nb  Nb118  1  0.61358268  0.52503350  0.77690049  1
  Nb  Nb119  1  0.05768183  0.43170067  0.84832745  1
  Nb  Nb120  1  0.31353412  0.98734043  0.14633419  1
  Nb  Nb121  1  0.77972656  0.52781043  0.06993966  1
  Nb  Nb122  1  0.85291074  0.17404096  0.43163806  1
  Nb  Nb123  1  0.41041033  0.78965422  0.50003297  1
  Nb  Nb124  1  0.00983460  0.32753067  0.43964011  1
