# generated using pymatgen
data_Zr2Sc2Nb
_symmetry_space_group_name_H-M   'P 1'
_cell_length_a   13.85181972
_cell_length_b   14.55707690
_cell_length_c   14.25828234
_cell_angle_alpha   88.76102888
_cell_angle_beta   92.27589145
_cell_angle_gamma   90.15592892
_symmetry_Int_Tables_number   1
_chemical_formula_structural   Zr2Sc2Nb
_chemical_formula_sum   'Zr50 Sc50 Nb25'
_cell_volume   2872.12413009
_cell_formula_units_Z   25
loop_
 _symmetry_equiv_pos_site_id
 _symmetry_equiv_pos_as_xyz
  1  'x, y, z'
loop_
 _atom_site_type_symbol
 _atom_site_label
 _atom_site_symmetry_multiplicity
 _atom_site_fract_x
 _atom_site_fract_y
 _atom_site_fract_z
 _atom_site_occupancy
  Zr  Zr0  1  0.88464242  0.21350779  0.84639423  1
  Zr  Zr1  1  0.62283300  0.83427593  0.08256507  1
  Zr  Zr2  1  0.28702701  0.43796142  0.54467876  1
  Zr  Zr3  1  0.38053499  0.94931208  0.55399590  1
  Zr  Zr4  1  0.73276189  0.06717568  0.72864747  1
  Zr  Zr5  1  0.87818391  0.44039602  0.37003090  1
  Zr  Zr6  1  0.51099798  0.90581563  0.73815574  1
  Zr  Zr7  1  0.62933344  0.96864251  0.57005326  1
  Zr  Zr8  1  0.59376449  0.96567089  0.25147305  1
  Zr  Zr9  1  0.64385677  0.15978723  0.36311451  1
  Zr  Zr10  1  0.73877206  0.01978762  0.08601121  1
  Zr  Zr11  1  0.07131260  0.16202860  0.26688312  1
  Zr  Zr12  1  0.44232327  0.12111267  0.25137926  1
  Zr  Zr13  1  0.22286653  0.50432827  0.18059581  1
  Zr  Zr14  1  0.49675356  0.01303910  0.06222702  1
  Zr  Zr15  1  0.48618976  0.55061657  0.94957118  1
  Zr  Zr16  1  0.95902491  0.54770175  0.83085060  1
  Zr  Zr17  1  0.89830931  0.47992429  0.62780866  1
  Zr  Zr18  1  0.27668007  0.07225839  0.39391351  1
  Zr  Zr19  1  0.06716509  0.74193817  0.33329563  1
  Zr  Zr20  1  0.30062476  0.78314895  0.68880860  1
  Zr  Zr21  1  0.86016547  0.76782392  0.41397720  1
  Zr  Zr22  1  0.46552331  0.33168406  0.65374382  1
  Zr  Zr23  1  0.33294248  0.43148399  0.34891341  1
  Zr  Zr24  1  0.60886610  0.18597221  0.12427812  1
  Zr  Zr25  1  0.67385011  0.76631151  0.51663272  1
  Zr  Zr26  1  0.84519926  0.70689540  0.87221735  1
  Zr  Zr27  1  0.26151320  0.81406371  0.46038419  1
  Zr  Zr28  1  0.01464956  0.55253029  0.22902554  1
  Zr  Zr29  1  0.25594312  0.11608591  0.60746564  1
  Zr  Zr30  1  0.55868538  0.58634229  0.60031838  1
  Zr  Zr31  1  0.16379255  0.69814792  0.11899446  1
  Zr  Zr32  1  0.74249033  0.52753268  0.95450819  1
  Zr  Zr33  1  0.12117721  0.90404376  0.06346575  1
  Zr  Zr34  1  0.08011124  0.94785396  0.86397735  1
  Zr  Zr35  1  0.01515959  0.34289578  0.75968753  1
  Zr  Zr36  1  0.89734403  0.88302136  0.77839127  1
  Zr  Zr37  1  0.35596425  0.40854432  0.06754053  1
  Zr  Zr38  1  0.63087310  0.70475928  0.91962295  1
  Zr  Zr39  1  0.10552606  0.37916687  0.32392633  1
  Zr  Zr40  1  0.32781949  0.87224222  0.11601954  1
  Zr  Zr41  1  0.75250125  0.32588194  0.00791082  1
  Zr  Zr42  1  0.28802542  0.64645507  0.85896634  1
  Zr  Zr43  1  0.84372322  0.26008117  0.63223959  1
  Zr  Zr44  1  0.05964450  0.40248207  0.53819589  1
  Zr  Zr45  1  0.79333826  0.69800698  0.08608233  1
  Zr  Zr46  1  0.97690501  0.59616421  0.45992278  1
  Zr  Zr47  1  0.79374868  0.39209629  0.80003135  1
  Zr  Zr48  1  0.88685897  0.87022704  1.00182599  1
  Zr  Zr49  1  0.50794637  0.44055434  0.46530537  1
  Sc  Sc50  1  0.37693456  0.20616823  0.05255619  1
  Sc  Sc51  1  0.12483448  0.13991615  0.79522546  1
  Sc  Sc52  1  0.66140734  0.49803526  0.29791063  1
  Sc  Sc53  1  0.15240359  0.50384329  0.74041911  1
  Sc  Sc54  1  0.19562218  0.25178605  0.45771983  1
  Sc  Sc55  1  0.44936361  0.54388662  0.21323773  1
  Sc  Sc56  1  0.35565578  0.19399021  0.81448302  1
  Sc  Sc57  1  0.14387258  0.31059159  0.11808203  1
  Sc  Sc58  1  0.52805289  0.29414898  0.92244260  1
  Sc  Sc59  1  0.08004623  0.12608017  1.00629416  1
  Sc  Sc60  1  0.68317293  0.39789318  0.59420064  1
  Sc  Sc61  1  0.82742602  0.09858989  0.27706107  1
  Sc  Sc62  1  0.57432945  0.46274909  0.78754117  1
  Sc  Sc63  1  0.05070195  0.73351727  0.94275753  1
  Sc  Sc64  1  0.28767672  0.02971018  0.96228731  1
  Sc  Sc65  1  0.21954865  0.30518510  0.68513985  1
  Sc  Sc66  1  0.94166584  0.24744387  0.40942388  1
  Sc  Sc67  1  0.59007991  0.42062909  0.09350183  1
  Sc  Sc68  1  0.14751329  0.92348073  0.28983233  1
  Sc  Sc69  1  0.82574835  0.09587662  0.50561643  1
  Sc  Sc70  1  0.08813089  0.75054560  0.74416929  1
  Sc  Sc71  1  0.31319356  0.70819071  0.28744597  1
  Sc  Sc72  1  0.35081564  0.41775500  0.83955282  1
  Sc  Sc73  1  0.42505175  0.23664737  0.45619412  1
  Sc  Sc74  1  0.73399570  0.59041366  0.72941541  1
  Sc  Sc75  1  0.80659531  0.86911530  0.21891354  1
  Sc  Sc76  1  0.16425981  0.64247078  0.57931430  1
  Sc  Sc77  1  0.37341000  0.67349865  0.05958599  1
  Sc  Sc78  1  0.86977605  0.90949125  0.57201532  1
  Sc  Sc79  1  0.96279096  0.38620438  -0.01602276  1
  Sc  Sc80  1  0.74744306  0.30550944  0.23811987  1
  Sc  Sc81  1  0.88781721  0.18531751  0.08134723  1
  Sc  Sc82  1  0.68974961  0.79562093  0.71934156  1
  Sc  Sc83  1  0.50432728  0.32550196  0.26385826  1
  Sc  Sc84  1  0.12023324  0.95143855  0.65106052  1
  Sc  Sc85  1  0.24055765  0.07476769  0.16825680  1
  Sc  Sc86  1  0.06014584  0.05268178  0.47111808  1
  Sc  Sc87  1  0.18694813  0.30980410  0.91542370  1
  Sc  Sc88  1  0.89831879  0.69994506  0.63462720  1
  Sc  Sc89  1  0.15477096  0.52006666  0.97318388  1
  Sc  Sc90  1  0.68705545  0.92589574  0.89196381  1
  Sc  Sc91  1  0.17912239  0.56929265  0.38780627  1
  Sc  Sc92  1  0.52648712  0.64111237  0.38594190  1
  Sc  Sc93  1  0.36937964  0.56143060  0.68736556  1
  Sc  Sc94  1  0.31270765  0.97744348  0.77228488  1
  Sc  Sc95  1  0.69472054  0.14362288  0.92861029  1
  Sc  Sc96  1  0.74735790  0.57817018  0.47676321  1
  Sc  Sc97  1  0.45016448  0.84170481  0.93006778  1
  Sc  Sc98  1  -0.02941998  -0.00043091  0.15592148  1
  Sc  Sc99  1  0.48072198  0.11277820  0.65807618  1
  Nb  Nb100  1  0.95537649  0.58688377  0.04524136  1
  Nb  Nb101  1  0.51397199  0.06850653  0.86615843  1
  Nb  Nb102  1  0.04240423  0.20046380  0.60572111  1
  Nb  Nb103  1  0.50620843  0.04491139  0.43431024  1
  Nb  Nb104  1  0.97844697  0.77156284  0.16127228  1
  Nb  Nb105  1  0.37443525  0.92905997  0.30145889  1
  Nb  Nb106  1  0.72281363  0.94165870  0.39870569  1
  Nb  Nb107  1  0.63394906  0.19476043  0.55986651  1
  Nb  Nb108  1  0.28863970  0.26077524  0.26014926  1
  Nb  Nb109  1  0.36099368  0.62597506  0.48993811  1
  Nb  Nb110  1  0.83824016  0.63414162  0.27127361  1
  Nb  Nb111  1  0.80980339  0.48568582  0.14594644  1
  Nb  Nb112  1  0.89151642  0.03978341  0.91623687  1
  Nb  Nb113  1  0.47300535  0.76525210  0.58603956  1
  Nb  Nb114  1  0.49184869  0.77473981  0.21169016  1
  Nb  Nb115  1  0.50746272  0.84311578  0.40906313  1
  Nb  Nb116  1  0.64246296  0.24711499  0.75236849  1
  Nb  Nb117  1  0.49405301  0.69356327  0.77597884  1
  Nb  Nb118  1  0.61735145  0.62488079  0.12905353  1
  Nb  Nb119  1  0.24125180  0.82053953  0.91636834  1
  Nb  Nb120  1  0.94309749  0.06834209  0.70382010  1
  Nb  Nb121  1  0.94747374  0.34604811  0.19608009  1
  Nb  Nb122  1  0.05225476  0.81586048  0.51466866  1
  Nb  Nb123  1  0.94419238  0.93465195  0.36138372  1
  Nb  Nb124  1  0.67181577  0.74441393  0.29572683  1
