# generated using pymatgen
data_Zr2Sc2Nb
_symmetry_space_group_name_H-M   'P 1'
_cell_length_a   14.32469056
_cell_length_b   13.87664158
_cell_length_c   14.46037824
_cell_angle_alpha   89.86294732
_cell_angle_beta   89.97900017
_cell_angle_gamma   90.89067377
_symmetry_Int_Tables_number   1
_chemical_formula_structural   Zr2Sc2Nb
_chemical_formula_sum   'Zr50 Sc50 Nb25'
_cell_volume   2874.05793780
_cell_formula_units_Z   25
loop_
 _symmetry_equiv_pos_site_id
 _symmetry_equiv_pos_as_xyz
  1  'x, y, z'
loop_
 _atom_site_type_symbol
 _atom_site_label
 _atom_site_symmetry_multiplicity
 _atom_site_fract_x
 _atom_site_fract_y
 _atom_site_fract_z
 _atom_site_occupancy
  Zr  Zr0  1  0.03805031  0.65393564  0.29576567  1
  Zr  Zr1  1  0.11345327  0.42922968  0.30860946  1
  Zr  Zr2  1  0.72825671  0.52394700  0.17993755  1
  Zr  Zr3  1  0.41798681  1.02842769  0.77095572  1
  Zr  Zr4  1  0.92683435  0.46392494  0.23029176  1
  Zr  Zr5  1  0.92442944  0.50692429  0.42685426  1
  Zr  Zr6  1  0.84730715  0.67298361  0.91467467  1
  Zr  Zr7  1  0.07741352  0.09000351  0.16584692  1
  Zr  Zr8  1  0.37026734  0.84429575  0.16155011  1
  Zr  Zr9  1  0.61316874  0.98842987  0.49101579  1
  Zr  Zr10  1  0.46329494  0.73723090  0.97294272  1
  Zr  Zr11  1  0.96303082  0.70891116  0.52341120  1
  Zr  Zr12  1  0.45652365  0.59898912  0.11696972  1
  Zr  Zr13  1  0.66252727  0.66678131  0.04230945  1
  Zr  Zr14  1  0.73414955  0.27406633  0.94216200  1
  Zr  Zr15  1  0.13915723  0.53975853  0.48011418  1
  Zr  Zr16  1  -0.07374817  0.96150765  0.05310961  1
  Zr  Zr17  1  0.33828639  0.05609958  0.21520070  1
  Zr  Zr18  1  0.73032673  0.09115875  0.65654126  1
  Zr  Zr19  1  0.53309117  0.38767207  0.63997434  1
  Zr  Zr20  1  0.53895180  0.92698218  0.29917588  1
  Zr  Zr21  1  0.39914094  0.01909966  0.55520749  1
  Zr  Zr22  1  0.06658389  0.31822723  0.06795966  1
  Zr  Zr23  1  0.84911450  0.08115502  0.47023568  1
  Zr  Zr24  1  0.82138967  0.70191007  0.70257636  1
  Zr  Zr25  1  0.47563637  0.13888288  0.37325028  1
  Zr  Zr26  1  0.64536304  0.72054435  0.84350061  1
  Zr  Zr27  1  0.94014140  0.27644620  0.88142064  1
  Zr  Zr28  1  0.54597768  0.58236529  0.50145825  1
  Zr  Zr29  1  0.32749155  0.39088147  0.36711565  1
  Zr  Zr30  1  0.45262368  0.71663240  0.31676074  1
  Zr  Zr31  1  0.60811090  0.31006034  0.25626517  1
  Zr  Zr32  1  0.32789650  0.41925626  0.57280597  1
  Zr  Zr33  1  0.96317783  0.88525737  0.27780482  1
  Zr  Zr34  1  0.81198155  0.29371436  0.31474416  1
  Zr  Zr35  1  0.04754818  0.45426392  0.83083578  1
  Zr  Zr36  1  0.84518991  0.67415501  0.31657501  1
  Zr  Zr37  1  0.34766451  0.88088753  0.39358961  1
  Zr  Zr38  1  0.04136278  0.08702317  0.77567113  1
  Zr  Zr39  1  0.42832695  0.03276625  0.01914675  1
  Zr  Zr40  1  0.56136336  0.91820873  0.88429915  1
  Zr  Zr41  1  0.52608507  0.34863819  0.44667904  1
  Zr  Zr42  1  0.91877891  0.46978124  -0.01163426  1
  Zr  Zr43  1  0.95731441  0.29979715  0.46281833  1
  Zr  Zr44  1  0.70800360  0.31244487  0.73662565  1
  Zr  Zr45  1  0.14049868  0.77345339  0.42823763  1
  Zr  Zr46  1  0.38664169  0.20912266  0.89187508  1
  Zr  Zr47  1  0.59046186  0.41361535  0.07213241  1
  Zr  Zr48  1  0.16846016  0.27147404  0.87062638  1
  Zr  Zr49  1  0.49027425  0.55026713  0.88991209  1
  Sc  Sc50  1  0.26601752  0.90205562  0.70202383  1
  Sc  Sc51  1  0.67728876  0.05503697  0.99735179  1
  Sc  Sc52  1  0.70777699  0.47971480  0.38257600  1
  Sc  Sc53  1  0.21818129  0.48519764  0.94830079  1
  Sc  Sc54  1  0.71854537  0.18712472  0.14521249  1
  Sc  Sc55  1  0.44631478  0.78666917  0.76023154  1
  Sc  Sc56  1  0.42133849  0.59535537  0.67386625  1
  Sc  Sc57  1  0.64599408  0.54548283  0.72337593  1
  Sc  Sc58  1  0.23877562  0.12762050  0.65701944  1
  Sc  Sc59  1  0.06263274  0.78428712  0.11671386  1
  Sc  Sc60  1  0.02647715  0.66748433  0.74263606  1
  Sc  Sc61  1  0.28117060  0.45031791  0.16770282  1
  Sc  Sc62  1  0.64629411  0.71931678  0.25727578  1
  Sc  Sc63  1  0.24948771  0.65621262  0.26378197  1
  Sc  Sc64  1  0.19282785  0.52512841  0.69637571  1
  Sc  Sc65  1  0.16588433  0.28903932  0.46576136  1
  Sc  Sc66  1  0.05885591  0.65324447  0.94409845  1
  Sc  Sc67  1  0.75277776  0.66346245  0.50291987  1
  Sc  Sc68  1  0.05625373  0.87054511  0.65859923  1
  Sc  Sc69  1  0.77567110  0.45709388  0.58559433  1
  Sc  Sc70  1  0.20167309  0.95764998  0.06465144  1
  Sc  Sc71  1  0.22238180  0.72167121  0.60752721  1
  Sc  Sc72  1  0.90074870  0.25102661  0.66969566  1
  Sc  Sc73  1  0.68353495  0.10961699  0.33914428  1
  Sc  Sc74  1  0.25179155  0.19277772  0.05858848  1
  Sc  Sc75  1  0.77120383  0.88729815  0.36471931  1
  Sc  Sc76  1  0.25939744  0.68962511  0.04900300  1
  Sc  Sc77  1  0.50604307  0.50234060  0.28884121  1
  Sc  Sc78  1  0.39468652  0.38646434  1.00594242  1
  Sc  Sc79  1  0.04625434  0.10887174  0.56938536  1
  Sc  Sc80  1  0.72054973  0.26306714  0.50707687  1
  Sc  Sc81  1  0.41160877  0.26984179  0.19732704  1
  Sc  Sc82  1  0.33839560  0.61677947  0.45949503  1
  Sc  Sc83  1  0.23076460  0.06169054  0.86907643  1
  Sc  Sc84  1  0.59282287  0.13914796  0.81482917  1
  Sc  Sc85  1  0.26112117  0.10528640  0.39999669  1
  Sc  Sc86  1  0.11610547  0.86915770  0.88541677  1
  Sc  Sc87  1  0.32873292  0.87477833  0.91906765  1
  Sc  Sc88  1  0.05262819  0.09383019  0.36988363  1
  Sc  Sc89  1  0.11880951  0.31254983  0.67023823  1
  Sc  Sc90  1  0.17395732  0.91885602  0.28017689  1
  Sc  Sc91  1  0.71032708  0.49162997  0.92371313  1
  Sc  Sc92  1  0.57622530  0.86753497  0.09936336  1
  Sc  Sc93  1  0.92022032  0.86754021  0.83651946  1
  Sc  Sc94  1  0.09575052  0.54198738  0.11820120  1
  Sc  Sc95  1  0.98375001  0.48485159  0.62330253  1
  Sc  Sc96  1  0.26548188  0.67798845  0.83163858  1
  Sc  Sc97  1  0.81937872  0.79296702  0.14157035  1
  Sc  Sc98  1  0.84016486  0.07560407  0.86245612  1
  Sc  Sc99  1  0.34344857  0.40599000  0.78888508  1
  Nb  Nb100  1  0.97189462  0.91557349  0.47503399  1
  Nb  Nb101  1  0.61682173  0.74921122  0.64193323  1
  Nb  Nb102  1  0.05576681  0.10771024  0.96822211  1
  Nb  Nb103  1  0.43185087  0.79680071  0.55572764  1
  Nb  Nb104  1  0.87876040  0.07923988  0.25301966  1
  Nb  Nb105  1  0.82076466  0.35300993  0.10719411  1
  Nb  Nb106  1  0.37187537  0.23658695  0.51938963  1
  Nb  Nb107  1  0.89547211  -0.00690638  0.66214980  1
  Nb  Nb108  1  0.56720344  0.94094855  0.66637311  1
  Nb  Nb109  1  0.19723250  0.24768412  0.25253844  1
  Nb  Nb110  1  0.77372274  0.87249673  0.57117336  1
  Nb  Nb111  1  0.73800063  0.97456178  0.17532927  1
  Nb  Nb112  1  0.59108738  0.79034642  0.45403403  1
  Nb  Nb113  1  0.73063645  0.90166867  0.76587844  1
  Nb  Nb114  1  0.54367851  0.08610559  0.17672330  1
  Nb  Nb115  1  0.42137040  0.23094400  0.70242325  1
  Nb  Nb116  1  0.98856109  0.26039861  0.24350598  1
  Nb  Nb117  1  0.90168605  0.62400339  0.10981635  1
  Nb  Nb118  1  0.54526120  0.35211517  0.85453393  1
  Nb  Nb119  1  0.53979382  0.22031740  0.02705752  1
  Nb  Nb120  1  0.89616117  0.16705803  0.06630774  1
  Nb  Nb121  1  0.85366851  0.47954955  0.78281111  1
  Nb  Nb122  1  0.18237474  0.95033666  0.51219243  1
  Nb  Nb123  1  0.75121097  0.86462286  0.96589416  1
  Nb  Nb124  1  0.55325640  0.16521371  0.58767913  1
