# generated using pymatgen
data_Zr2Sc2Nb
_symmetry_space_group_name_H-M   'P 1'
_cell_length_a   14.33227298
_cell_length_b   13.99942600
_cell_length_c   14.30038313
_cell_angle_alpha   89.96064045
_cell_angle_beta   90.63680223
_cell_angle_gamma   87.51479553
_symmetry_Int_Tables_number   1
_chemical_formula_structural   Zr2Sc2Nb
_chemical_formula_sum   'Zr50 Sc50 Nb25'
_cell_volume   2866.40257451
_cell_formula_units_Z   25
loop_
 _symmetry_equiv_pos_site_id
 _symmetry_equiv_pos_as_xyz
  1  'x, y, z'
loop_
 _atom_site_type_symbol
 _atom_site_label
 _atom_site_symmetry_multiplicity
 _atom_site_fract_x
 _atom_site_fract_y
 _atom_site_fract_z
 _atom_site_occupancy
  Zr  Zr0  1  0.56673281  0.47100696  0.70981037  1
  Zr  Zr1  1  0.13359732  0.11562393  0.45418160  1
  Zr  Zr2  1  0.05502913  0.55652528  0.87254952  1
  Zr  Zr3  1  0.39631279  0.09586430  0.93875779  1
  Zr  Zr4  1  0.16206985  0.51784426  0.37718109  1
  Zr  Zr5  1  0.83596517  0.07630773  0.99989110  1
  Zr  Zr6  1  0.74528425  0.17345089  0.84062788  1
  Zr  Zr7  1  0.32704620  0.60510977  0.46175323  1
  Zr  Zr8  1  0.17864785  0.75541460  0.88092112  1
  Zr  Zr9  1  0.96222521  0.74614256  0.87763264  1
  Zr  Zr10  1  0.70682961  0.53901103  0.53288039  1
  Zr  Zr11  1  0.62045699  0.68159574  0.70597467  1
  Zr  Zr12  1  0.25073548  0.76623427  0.67578049  1
  Zr  Zr13  1  0.66543310  0.11625021  0.50842454  1
  Zr  Zr14  1  0.43519918  0.78888754  0.16308772  1
  Zr  Zr15  1  0.36071781  0.81966838  0.49785911  1
  Zr  Zr16  1  0.75536556  0.72723281  0.89064758  1
  Zr  Zr17  1  0.92482521  0.17962823  0.48133308  1
  Zr  Zr18  1  0.40265487  0.60815822  0.65366455  1
  Zr  Zr19  1  0.21865301  0.83306023  0.11207708  1
  Zr  Zr20  1  0.95066483  0.57780848  0.49380682  1
  Zr  Zr21  1  0.42593015  0.49982931  0.86789627  1
  Zr  Zr22  1  0.18469847  0.14301403  0.20843361  1
  Zr  Zr23  1  0.44914184  0.66158450  0.31926748  1
  Zr  Zr24  1  0.70156384  0.33523518  0.23985996  1
  Zr  Zr25  1  0.27397461  0.94318677  0.80360105  1
  Zr  Zr26  1  0.86417076  0.38648615  0.56876597  1
  Zr  Zr27  1  0.26926417  0.62550828  0.20590622  1
  Zr  Zr28  1  0.54341908  0.69367649  0.50786285  1
  Zr  Zr29  1  0.52938670  0.27844825  0.37447440  1
  Zr  Zr30  1  0.30980805  0.25374713  0.06771453  1
  Zr  Zr31  1  0.77146387  0.13642888  0.33477119  1
  Zr  Zr32  1  0.56174110  0.75665469  -0.00231705  1
  Zr  Zr33  1  0.86044916  0.69997781  0.68794927  1
  Zr  Zr34  1  0.69585260  0.93662158  0.93674249  1
  Zr  Zr35  1  0.61804449  0.57165625  0.90312335  1
  Zr  Zr36  1  0.20048801  0.41334586  0.17617860  1
  Zr  Zr37  1  0.04455892  0.84770757  0.69671852  1
  Zr  Zr38  1  0.91532916  0.34973130  0.34356981  1
  Zr  Zr39  1  0.02062510  0.07292638  0.09126254  1
  Zr  Zr40  1  0.69396471  0.86757981  0.72081641  1
  Zr  Zr41  1  0.60862390  0.06542262  0.70335380  1
  Zr  Zr42  1  0.19104651  0.50832383  0.62048213  1
  Zr  Zr43  1  0.69650720  0.61376004  0.13834631  1
  Zr  Zr44  1  0.36158074  0.87324386  -0.01918039  1
  Zr  Zr45  1  0.68894036  0.24464079  0.04854958  1
  Zr  Zr46  1  0.36955332  0.45645278  0.31007580  1
  Zr  Zr47  1  0.61798297  0.89585510  0.51951586  1
  Zr  Zr48  1  0.30519435  0.37650422  0.48687771  1
  Zr  Zr49  1  0.24139046  0.23522992  0.63746832  1
  Sc  Sc50  1  0.24407738  0.46310997  -0.02058877  1
  Sc  Sc51  1  0.51163406  0.93303905  0.84997457  1
  Sc  Sc52  1  0.76985795  0.73574108  0.49585116  1
  Sc  Sc53  1  0.59943332  0.50552747  0.31374166  1
  Sc  Sc54  1  0.21360490  0.04840882  0.00717975  1
  Sc  Sc55  1  0.83568177  0.94085393  0.57557775  1
  Sc  Sc56  1  0.35132541  0.23824371  0.27131110  1
  Sc  Sc57  1  0.49703508  0.37027231  0.17340310  1
  Sc  Sc58  1  0.88884160  0.30419415  0.98213956  1
  Sc  Sc59  1  0.11578680  0.64268895  0.06365989  1
  Sc  Sc60  1  0.14852410  0.69155266  0.50850511  1
  Sc  Sc61  1  0.49827692  0.32889773  0.97568093  1
  Sc  Sc62  1  0.87033309  0.74553320  0.29641786  1
  Sc  Sc63  1  0.69208403  0.30549078  0.65713125  1
  Sc  Sc64  1  0.71987405  0.92932044  0.33962265  1
  Sc  Sc65  1  0.89602951  0.66048389  0.07480226  1
  Sc  Sc66  1  0.12146128  0.95578428  0.27368346  1
  Sc  Sc67  1  0.50759620  0.16082740  0.13327162  1
  Sc  Sc68  1  0.14150508  0.89648656  0.48383695  1
  Sc  Sc69  1  1.00582307  0.53241904  0.24233218  1
  Sc  Sc70  1  0.53621948  0.06659583  0.32489936  1
  Sc  Sc71  1  0.46350158  0.86778074  0.66683471  1
  Sc  Sc72  1  0.35863222  1.00244491  0.17875165  1
  Sc  Sc73  1  0.48068669  0.56976396  0.09876306  1
  Sc  Sc74  1  0.27155155  1.00868329  0.60205673  1
  Sc  Sc75  1  0.08394961  0.73092668  0.31391374  1
  Sc  Sc76  1  0.05470110  0.04623254  0.64814093  1
  Sc  Sc77  1  0.42291194  0.72311984  0.82861205  1
  Sc  Sc78  1  0.85920693  0.20651285  0.16949878  1
  Sc  Sc79  1  1.01287935  0.83664615  0.13131072  1
  Sc  Sc80  1  -0.02065955  0.14454723  0.84854647  1
  Sc  Sc81  1  0.32169150  0.27988627  0.84907824  1
  Sc  Sc82  1  0.34246855  0.17037914  0.45937690  1
  Sc  Sc83  1  0.86971601  0.95227854  0.79968593  1
  Sc  Sc84  1  0.84353362  0.51626880  0.92315275  1
  Sc  Sc85  1  0.85029462  0.44352191  0.14488979  1
  Sc  Sc86  1  0.06647893  0.37819258  0.51604559  1
  Sc  Sc87  1  0.02737851  0.25462312  0.67201524  1
  Sc  Sc88  1  0.94138758  0.95861982  0.39591560  1
  Sc  Sc89  1  0.14361814  0.37853636  0.78999020  1
  Sc  Sc90  1  0.72177977  0.83255621  0.13540078  1
  Sc  Sc91  1  0.64998281  0.72315943  0.31895988  1
  Sc  Sc92  1  0.11785789  0.25808599  0.97594898  1
  Sc  Sc93  1  0.06199806  0.94282614  0.91019635  1
  Sc  Sc94  1  0.71567889  0.33328462  0.44311568  1
  Sc  Sc95  1  0.14778216  0.29852732  0.34715244  1
  Sc  Sc96  1  0.48613035  0.24631497  0.58649410  1
  Sc  Sc97  1  0.83787013  0.14213751  0.66263372  1
  Sc  Sc98  1  0.50147801  0.46193685  0.50321298  1
  Sc  Sc99  1  0.52761672  0.25930768  0.78902604  1
  Nb  Nb100  1  0.68956850  0.37478011  0.86819941  1
  Nb  Nb101  1  0.28028053  0.80321997  0.31843280  1
  Nb  Nb102  1  0.46901437  0.02500512  0.52645502  1
  Nb  Nb103  1  0.87337327  0.87988332  1.00603077  1
  Nb  Nb104  1  0.80042940  0.53570466  0.34290673  1
  Nb  Nb105  1  0.87100832  0.34189315  0.77866636  1
  Nb  Nb106  1  0.99701579  0.13897996  0.29800662  1
  Nb  Nb107  1  0.06651959  0.65649812  0.69334715  1
  Nb  Nb108  1  0.31187584  -0.00748106  0.37669691  1
  Nb  Nb109  1  0.25094019  0.58012229  0.79870852  1
  Nb  Nb110  1  0.03387944  0.30082918  0.16610622  1
  Nb  Nb111  1  0.03157286  0.45233288  0.03954800  1
  Nb  Nb112  1  0.97278704  0.48921118  0.69701809  1
  Nb  Nb113  1  0.66249811  0.44307111  0.05493790  1
  Nb  Nb114  1  0.69325830  0.04981248  0.14490401  1
  Nb  Nb115  1  0.18972703  0.12882700  0.80213464  1
  Nb  Nb116  1  0.48492301  0.87194413  0.35316016  1
  Nb  Nb117  1  0.59019770  0.11251480  0.94069222  1
  Nb  Nb118  1  0.76707289  0.51742021  0.73041927  1
  Nb  Nb119  1  0.32395845  0.66513551  0.99915008  1
  Nb  Nb120  1  0.96838113  0.77932264  0.51583273  1
  Nb  Nb121  1  0.53714142  0.95616301  0.07413404  1
  Nb  Nb122  1  0.36360612  0.40496142  0.68960145  1
  Nb  Nb123  1  0.40083551  0.10057216  0.72653449  1
  Nb  Nb124  1  0.87388556  -0.01690088  0.20029411  1
