# generated using pymatgen
data_Zr2Sc2Nb
_symmetry_space_group_name_H-M   'P 1'
_cell_length_a   14.42908614
_cell_length_b   13.88779563
_cell_length_c   14.38859860
_cell_angle_alpha   93.74215637
_cell_angle_beta   90.50225564
_cell_angle_gamma   91.12942254
_symmetry_Int_Tables_number   1
_chemical_formula_structural   Zr2Sc2Nb
_chemical_formula_sum   'Zr50 Sc50 Nb25'
_cell_volume   2876.45278618
_cell_formula_units_Z   25
loop_
 _symmetry_equiv_pos_site_id
 _symmetry_equiv_pos_as_xyz
  1  'x, y, z'
loop_
 _atom_site_type_symbol
 _atom_site_label
 _atom_site_symmetry_multiplicity
 _atom_site_fract_x
 _atom_site_fract_y
 _atom_site_fract_z
 _atom_site_occupancy
  Zr  Zr0  1  -0.02908147  0.52875591  0.67428351  1
  Zr  Zr1  1  0.44019051  0.99324632  0.51474330  1
  Zr  Zr2  1  0.86043827  0.41418567  0.23832880  1
  Zr  Zr3  1  1.07948961  0.34557088  0.33815977  1
  Zr  Zr4  1  0.22848976  0.71267199  0.77012642  1
  Zr  Zr5  1  0.89977540  0.18054572  0.48973029  1
  Zr  Zr6  1  0.77457878  0.42613254  0.98394209  1
  Zr  Zr7  1  0.25962786  0.48938975  0.23933160  1
  Zr  Zr8  1  0.53310193  0.66273491  0.04655111  1
  Zr  Zr9  1  0.88916706  0.69107219  0.17729545  1
  Zr  Zr10  1  0.36032138  0.49921170  0.05319634  1
  Zr  Zr11  1  0.12703972  0.72814389  0.57747843  1
  Zr  Zr12  1  0.48641014  0.77894726  0.49816724  1
  Zr  Zr13  1  0.83303452  0.11634696  0.67347300  1
  Zr  Zr14  1  0.77024946  0.10188804  0.14430882  1
  Zr  Zr15  1  0.98102136  0.40353085  0.90343931  1
  Zr  Zr16  1  0.45291858  0.17812607  0.62713950  1
  Zr  Zr17  1  0.56298925  0.42824343  0.02586435  1
  Zr  Zr18  1  0.12786225  0.15198968  0.00951672  1
  Zr  Zr19  1  0.93172470  0.31905854  0.67982026  1
  Zr  Zr20  1  0.81261787  0.81586551  0.34269216  1
  Zr  Zr21  1  0.89836500  0.61802990  0.92186613  1
  Zr  Zr22  1  0.12460022  0.35188203  0.74279200  1
  Zr  Zr23  1  1.00556894  0.76479596  0.36670356  1
  Zr  Zr24  1  0.45187817  0.35193343  0.23620422  1
  Zr  Zr25  1  0.85018124  0.83744907  0.87742757  1
  Zr  Zr26  1  0.50971687  0.85516692  0.04094797  1
  Zr  Zr27  1  0.90636652  0.74605143  0.55323212  1
  Zr  Zr28  1  0.68275560  0.87869391  0.19780745  1
  Zr  Zr29  1  0.74233541  0.31706372  0.62595566  1
  Zr  Zr30  1  0.90109628  0.39161015  0.45674287  1
  Zr  Zr31  1  0.52686774  1.01450159  0.90509454  1
  Zr  Zr32  1  -0.00248859  0.18826691  0.84377335  1
  Zr  Zr33  1  0.29360410  0.24481565  0.76521074  1
  Zr  Zr34  1  0.19531538  0.52291421  0.64449100  1
  Zr  Zr35  1  0.66733625  0.18958891  0.96574140  1
  Zr  Zr36  1  0.43938806  0.79947410  0.84013633  1
  Zr  Zr37  1  0.68789767  0.31629317  0.15769943  1
  Zr  Zr38  1  0.78932183  0.66422729  0.72650169  1
  Zr  Zr39  1  0.21051151  0.49130541  0.43752615  1
  Zr  Zr40  1  0.44090851  0.20807210  0.41830075  1
  Zr  Zr41  1  0.25344735  0.87483917  0.50314666  1
  Zr  Zr42  1  0.57436321  0.34402485  0.52962343  1
  Zr  Zr43  1  0.88939017  0.27215600  0.05231522  1
  Zr  Zr44  1  0.06935493  0.33800164  0.13088227  1
  Zr  Zr45  1  0.73706790  0.74200661  0.03595333  1
  Zr  Zr46  1  0.20055943  0.69203544  0.35630033  1
  Zr  Zr47  1  0.75625186  0.86234936  0.66766987  1
  Zr  Zr48  1  0.59491428  0.20174268  0.28704343  1
  Zr  Zr49  1  0.29846138  0.05954192  0.37114733  1
  Sc  Sc50  1  0.30183928  0.68596790  0.96133866  1
  Sc  Sc51  1  0.84855659  -0.04366483  0.50721210  1
  Sc  Sc52  1  0.63028035  0.68131098  0.33673104  1
  Sc  Sc53  1  0.04040470  0.96429139  0.91459592  1
  Sc  Sc54  1  0.33550353  0.12727379  0.97224071  1
  Sc  Sc55  1  1.00373609  0.73790376  0.75419453  1
  Sc  Sc56  1  0.07895869  0.74833863  0.95528215  1
  Sc  Sc57  1  0.03963724  0.54421865  0.26747726  1
  Sc  Sc58  1  0.15118729  0.52653922  0.03740197  1
  Sc  Sc59  1  0.67628440  0.59146521  0.88912090  1
  Sc  Sc60  1  0.58078227  0.71897448  0.68785286  1
  Sc  Sc61  1  0.02370793  0.56872705  0.47650405  1
  Sc  Sc62  1  0.36693731  0.02494908  0.76580579  1
  Sc  Sc63  1  0.91437209  0.21242154  0.27807532  1
  Sc  Sc64  1  0.28291924  0.29996407  0.10974292  1
  Sc  Sc65  1  0.06275244  0.14694474  0.63982650  1
  Sc  Sc66  1  0.54502680  0.57396077  0.51625543  1
  Sc  Sc67  1  0.64673230  0.12673409  0.51246723  1
  Sc  Sc68  1  0.27176041  0.29896832  0.54699528  1
  Sc  Sc69  1  0.55640303  0.05573680  0.11894689  1
  Sc  Sc70  1  0.40392382  0.43735234  0.43482403  1
  Sc  Sc71  1  0.39967993  0.60729085  0.68568412  1
  Sc  Sc72  1  0.83174369  0.59876070  0.36855373  1
  Sc  Sc73  1  0.95801873  0.95844596  0.71756322  1
  Sc  Sc74  1  0.05612568  0.94507815  0.50857487  1
  Sc  Sc75  1  0.26064417  0.91314485  0.92266415  1
  Sc  Sc76  1  0.72242778  0.00886874  0.81623140  1
  Sc  Sc77  1  0.09857218  0.71529762  0.15983080  1
  Sc  Sc78  1  0.16265485  0.13577293  0.21844568  1
  Sc  Sc79  1  0.89635953  0.89541796  0.09506529  1
  Sc  Sc80  1  0.32251449  0.70494115  0.17096164  1
  Sc  Sc81  1  0.76052432  0.51681744  0.55203481  1
  Sc  Sc82  1  0.34084545  0.93937215  0.15738351  1
  Sc  Sc83  1  0.86300373  0.07310498  0.94661646  1
  Sc  Sc84  1  0.44256774  0.38797598  0.70730268  1
  Sc  Sc85  1  0.16782913  0.91256270  0.71480736  1
  Sc  Sc86  1  0.47568924  0.55683939  0.86641268  1
  Sc  Sc87  1  0.71613357  0.55894786  0.15447941  1
  Sc  Sc88  1  0.12092428  0.93611966  0.10263228  1
  Sc  Sc89  1  0.63391453  0.44805555  0.34511047  1
  Sc  Sc90  1  -0.03801934  -0.01261442  0.29510523  1
  Sc  Sc91  1  0.25373175  0.08016550  0.59635650  1
  Sc  Sc92  1  0.55401198  0.94313501  0.68385133  1
  Sc  Sc93  1  0.16292018  0.90270016  0.30247557  1
  Sc  Sc94  1  0.63263303  0.17035188  0.72942026  1
  Sc  Sc95  1  0.50840761  0.99819004  0.31119369  1
  Sc  Sc96  1  0.49965803  0.55344856  0.20903155  1
  Sc  Sc97  1  0.64121254  0.90049310  0.44277956  1
  Sc  Sc98  1  0.10882426  0.15291950  0.42709698  1
  Sc  Sc99  1  0.75710439  0.05752807  0.34117353  1
  Nb  Nb100  1  0.38664516  0.15075727  0.20895917  1
  Nb  Nb101  1  0.80421438  0.45934778  0.77988435  1
  Nb  Nb102  1  0.74490128  0.28478978  0.39634239  1
  Nb  Nb103  1  0.62056634  0.50386483  0.69847038  1
  Nb  Nb104  1  0.07354086  0.35505330  0.54224915  1
  Nb  Nb105  1  0.27749644  0.49061967  0.83760956  1
  Nb  Nb106  1  0.80276072  0.26124614  0.83809394  1
  Nb  Nb107  1  0.61773853  0.36738790  0.83510097  1
  Nb  Nb108  1  0.27249751  0.28667784  0.33017564  1
  Nb  Nb109  1  0.97946426  0.09798002  0.11307199  1
  Nb  Nb110  1  0.50294153  0.78852572  0.23710485  1
  Nb  Nb111  1  0.36126368  0.82986973  0.66014739  1
  Nb  Nb112  1  0.71178396  0.72189713  0.52135239  1
  Nb  Nb113  1  0.64268225  0.81057818  0.86574721  1
  Nb  Nb114  1  0.49277384  0.24153137  0.06146050  1
  Nb  Nb115  1  0.10013359  0.55785917  0.84117415  1
  Nb  Nb116  1  0.70238092  0.94852631  0.00726502  1
  Nb  Nb117  1  0.39230307  0.35335579  0.92109913  1
  Nb  Nb118  1  0.18423348  0.33153688  0.92959414  1
  Nb  Nb119  1  0.48501896  0.20877310  0.84782082  1
  Nb  Nb120  1  0.36278851  0.84052925  0.35013137  1
  Nb  Nb121  1  0.40133864  0.63467357  0.35635815  1
  Nb  Nb122  1  0.31272760  0.66753952  0.52190772  1
  Nb  Nb123  1  0.94477263  0.51184158  0.08290952  1
  Nb  Nb124  1  0.17336417  0.10323672  0.81841446  1
