# generated using pymatgen
data_Zr2Sc2Nb
_symmetry_space_group_name_H-M   'P 1'
_cell_length_a   14.12422257
_cell_length_b   14.38452766
_cell_length_c   14.10338997
_cell_angle_alpha   90.03769348
_cell_angle_beta   89.23953835
_cell_angle_gamma   90.35236094
_symmetry_Int_Tables_number   1
_chemical_formula_structural   Zr2Sc2Nb
_chemical_formula_sum   'Zr50 Sc50 Nb25'
_cell_volume   2865.08251188
_cell_formula_units_Z   25
loop_
 _symmetry_equiv_pos_site_id
 _symmetry_equiv_pos_as_xyz
  1  'x, y, z'
loop_
 _atom_site_type_symbol
 _atom_site_label
 _atom_site_symmetry_multiplicity
 _atom_site_fract_x
 _atom_site_fract_y
 _atom_site_fract_z
 _atom_site_occupancy
  Zr  Zr0  1  0.63265050  0.09426283  -0.00852634  1
  Zr  Zr1  1  0.63472457  0.00326984  0.58550620  1
  Zr  Zr2  1  0.94456481  0.99432859  0.48402122  1
  Zr  Zr3  1  0.13528145  0.37612941  0.52009167  1
  Zr  Zr4  1  0.52935804  0.55412634  0.53374014  1
  Zr  Zr5  1  0.11630180  0.35393076  0.10299555  1
  Zr  Zr6  1  0.18135132  0.97629032  0.51504184  1
  Zr  Zr7  1  0.98750952  0.88356570  0.13545393  1
  Zr  Zr8  1  0.28023239  0.86683608  0.30291313  1
  Zr  Zr9  1  0.00594500  0.80203990  0.54506885  1
  Zr  Zr10  1  0.09540361  0.14528530  0.87692034  1
  Zr  Zr11  1  0.92628244  0.07734537  0.28064042  1
  Zr  Zr12  1  0.32655581  0.37963192  0.16668122  1
  Zr  Zr13  1  0.08539767  0.69041176  0.29461689  1
  Zr  Zr14  1  0.54233152  0.34485827  0.85990762  1
  Zr  Zr15  1  0.85008888  0.86984444  0.32988135  1
  Zr  Zr16  1  0.65182311  0.85758718  0.73816924  1
  Zr  Zr17  1  0.87329091  0.04603129  0.94606366  1
  Zr  Zr18  1  0.01022653  0.48501890  0.68354457  1
  Zr  Zr19  1  0.08930523  0.95701910  0.96473787  1
  Zr  Zr20  1  0.94520449  0.44661163  0.43464756  1
  Zr  Zr21  1  0.49498843  0.98059238  0.87624995  1
  Zr  Zr22  1  0.45071342  0.95821661  0.25694551  1
  Zr  Zr23  1  0.32607835  0.45115377  0.94759563  1
  Zr  Zr24  1  0.17963959  0.55368455  0.11299206  1
  Zr  Zr25  1  0.63037018  0.89782790  0.37824088  1
  Zr  Zr26  1  0.43733352  0.22610205  0.51423972  1
  Zr  Zr27  1  0.90129788  0.18247752  0.78155096  1
  Zr  Zr28  1  0.11012299  0.35643970  0.87329193  1
  Zr  Zr29  1  0.22670803  0.83684955  0.65946233  1
  Zr  Zr30  1  0.55380837  0.16805472  0.71022387  1
  Zr  Zr31  1  0.57319216  0.57536210  0.26347611  1
  Zr  Zr32  1  0.82076506  0.12018656  0.59635980  1
  Zr  Zr33  1  0.50307560  0.78292667  0.90656194  1
  Zr  Zr34  1  0.78719726  0.84166794  0.53780604  1
  Zr  Zr35  1  0.53691152  0.38501857  0.22625311  1
  Zr  Zr36  1  0.20378718  0.97862972  0.15821685  1
  Zr  Zr37  1  0.49364769  0.25899390  0.05980241  1
  Zr  Zr38  1  0.22537922  0.18205440  0.55586770  1
  Zr  Zr39  1  0.58692942  0.65885704  0.05964431  1
  Zr  Zr40  1  0.05812192  0.88326851  0.76858105  1
  Zr  Zr41  1  0.01804123  0.19142685  0.49516106  1
  Zr  Zr42  1  0.12548333  0.54707206  0.89963716  1
  Zr  Zr43  1  0.06452322  0.88951789  0.33534006  1
  Zr  Zr44  1  0.41329251  0.48210667  0.72610832  1
  Zr  Zr45  1  0.46857790  0.19627804  0.27901636  1
  Zr  Zr46  1  0.89387207  0.31568458  0.20753261  1
  Zr  Zr47  1  0.89789708  0.32810070  0.60524497  1
  Zr  Zr48  1  0.08250173  0.67584420  0.70892189  1
  Zr  Zr49  1  0.18693202  0.47608476  0.32463862  1
  Sc  Sc50  1  0.69741910  0.68197231  0.85549034  1
  Sc  Sc51  1  0.13829280  0.09202807  0.34034323  1
  Sc  Sc52  1  0.93811628  0.25551704  -0.00775530  1
  Sc  Sc53  1  0.42880149  0.86278208  0.70825325  1
  Sc  Sc54  1  0.91449365  0.62219270  0.89332926  1
  Sc  Sc55  1  0.56447982  0.79021050  0.55282855  1
  Sc  Sc56  1  0.47259366  0.72104349  0.37623475  1
  Sc  Sc57  1  0.55851542  0.37604938  0.42386038  1
  Sc  Sc58  1  0.29849169  0.66383105  0.78268159  1
  Sc  Sc59  1  0.81736720  0.52688072  0.72736370  1
  Sc  Sc60  1  0.31645287  0.28090526  0.72747939  1
  Sc  Sc61  1  0.66685960  0.22760837  0.51874743  1
  Sc  Sc62  1  0.33436364  0.67228827  0.99550838  1
  Sc  Sc63  1  0.06938500  0.29243591  0.30969397  1
  Sc  Sc64  1  0.97244733  0.67570868  0.10171855  1
  Sc  Sc65  1  0.20337324  0.76713311  0.46666766  1
  Sc  Sc66  1  0.77124721  0.55952282  0.13390426  1
  Sc  Sc67  1  0.62649280  0.06105686  0.21591172  1
  Sc  Sc68  1  0.29042134  0.65288323  0.29835858  1
  Sc  Sc69  1  0.10223596  0.74424698  0.93153705  1
  Sc  Sc70  1  0.79873816  0.15407853  0.12800628  1
  Sc  Sc71  1  0.19425098  0.77126956  0.12586574  1
  Sc  Sc72  1  0.05015963  0.06620788  0.66757381  1
  Sc  Sc73  1  0.27817743  0.16886171  0.18165773  1
  Sc  Sc74  1  0.73383768  0.45995254  0.53898898  1
  Sc  Sc75  1  0.72131180  0.30801269  0.72317420  1
  Sc  Sc76  1  0.50081054  0.56900017  0.89221474  1
  Sc  Sc77  1  0.26534017  0.25160695  0.98446401  1
  Sc  Sc78  1  0.09608568  0.59049413  0.49886296  1
  Sc  Sc79  1  0.33339743  0.63009169  0.55905360  1
  Sc  Sc80  1  0.75434920  0.44308925  0.31880987  1
  Sc  Sc81  1  0.27696412  0.86126331  0.87688309  1
  Sc  Sc82  1  0.88580034  0.65749126  0.33825511  1
  Sc  Sc83  1  0.28754269  0.29053795  0.36942239  1
  Sc  Sc84  1  0.78816744  0.94203622  0.12756424  1
  Sc  Sc85  1  0.69678693  0.66444643  0.42773235  1
  Sc  Sc86  1  0.40060282  0.05086521  0.61301596  1
  Sc  Sc87  1  0.72308278  0.47006516  0.92367838  1
  Sc  Sc88  1  0.87306598  0.75077358  0.72854229  1
  Sc  Sc89  1  0.24852434  0.04443438  0.76181987  1
  Sc  Sc90  1  0.21046860  0.47468678  0.70075713  1
  Sc  Sc91  1  0.58167705  0.88907972  0.08014678  1
  Sc  Sc92  1  0.94621839  0.45992696  0.02299859  1
  Sc  Sc93  1  0.42270337  0.16375895  0.87813552  1
  Sc  Sc94  1  0.39805537  0.89585997  0.47958495  1
  Sc  Sc95  1  0.06200072  0.13057975  0.10711005  1
  Sc  Sc96  1  0.70751113  0.34231708  0.09816823  1
  Sc  Sc97  1  0.85721760  0.95658300  0.73233709  1
  Sc  Sc98  1  0.68288890  0.75998430  0.22831049  1
  Sc  Sc99  1  0.99290023  0.49911246  0.23062944  1
  Nb  Nb100  1  0.27176523  0.04920777  0.97763422  1
  Nb  Nb101  1  0.53198650  0.35733482  0.63424027  1
  Nb  Nb102  1  0.53327983  0.45908203  0.04809634  1
  Nb  Nb103  1  0.90799088  0.37614506  0.82788564  1
  Nb  Nb104  1  0.90898585  0.84089337  0.92855728  1
  Nb  Nb105  1  0.85024012  0.25040558  0.40192450  1
  Nb  Nb106  1  0.61791600  0.50331411  0.72934296  1
  Nb  Nb107  1  0.33608510  0.07398978  0.39027428  1
  Nb  Nb108  1  0.70127586  0.07578826  0.79560533  1
  Nb  Nb109  1  0.70053982  0.66522844  0.63535221  1
  Nb  Nb110  1  0.51179639  0.67402608  0.71491295  1
  Nb  Nb111  1  0.54400966  0.07715404  0.42179668  1
  Nb  Nb112  1  0.78253945  0.75535108  0.03924633  1
  Nb  Nb113  1  0.68555942  0.23679508  0.30130196  1
  Nb  Nb114  1  0.75493912  0.06174941  0.39622002  1
  Nb  Nb115  1  0.74009302  0.24180688  0.91483285  1
  Nb  Nb116  1  0.43984226  0.75268862  0.17368441  1
  Nb  Nb117  1  0.39597623  0.49050442  0.36126133  1
  Nb  Nb118  1  0.34885073  0.41050943  0.53595300  1
  Nb  Nb119  1  0.40037838  0.55611097  0.15209575  1
  Nb  Nb120  1  0.71545714  0.90276915  0.91624083  1
  Nb  Nb121  1  0.08224357  0.27638277  0.69575315  1
  Nb  Nb122  1  0.88782830  0.62696177  0.55286774  1
  Nb  Nb123  1  0.36788019  0.88849818  0.06014154  1
  Nb  Nb124  1  0.43703506  0.06963378  0.08177780  1
