# generated using pymatgen
data_Zr2Sc2Nb
_symmetry_space_group_name_H-M   'P 1'
_cell_length_a   14.05995492
_cell_length_b   14.58048584
_cell_length_c   14.01997739
_cell_angle_alpha   90.29245847
_cell_angle_beta   89.22778418
_cell_angle_gamma   89.74997019
_symmetry_Int_Tables_number   1
_chemical_formula_structural   Zr2Sc2Nb
_chemical_formula_sum   'Zr50 Sc50 Nb25'
_cell_volume   2873.78230239
_cell_formula_units_Z   25
loop_
 _symmetry_equiv_pos_site_id
 _symmetry_equiv_pos_as_xyz
  1  'x, y, z'
loop_
 _atom_site_type_symbol
 _atom_site_label
 _atom_site_symmetry_multiplicity
 _atom_site_fract_x
 _atom_site_fract_y
 _atom_site_fract_z
 _atom_site_occupancy
  Zr  Zr0  1  0.90995455  0.51456301  0.26385131  1
  Zr  Zr1  1  0.44662185  0.37844637  0.08885902  1
  Zr  Zr2  1  0.90622257  0.92938439  0.81462212  1
  Zr  Zr3  1  0.69777119  0.72480449  0.78000885  1
  Zr  Zr4  1  0.11970809  0.64601516  0.75277180  1
  Zr  Zr5  1  0.62904166  0.49961533  0.10735756  1
  Zr  Zr6  1  0.32058307  0.54771997  0.35263508  1
  Zr  Zr7  1  0.50882594  0.28418823  0.63937534  1
  Zr  Zr8  1  0.44178439  0.42615454  0.51167745  1
  Zr  Zr9  1  0.60307279  0.70094642  0.09200381  1
  Zr  Zr10  1  0.83315476  0.13852429  0.10263557  1
  Zr  Zr11  1  0.53991207  0.20400966  0.17482741  1
  Zr  Zr12  1  0.55836074  0.16617751  0.80265270  1
  Zr  Zr13  1  0.66834386  0.94407884  0.82784524  1
  Zr  Zr14  1  0.68638702  0.95050772  0.47408736  1
  Zr  Zr15  1  0.92197820  0.75357291  0.68070975  1
  Zr  Zr16  1  0.56888711  0.04084017  0.63138502  1
  Zr  Zr17  1  0.88687089  0.73652982  0.30273414  1
  Zr  Zr18  1  0.02579083  0.91814425  0.28378213  1
  Zr  Zr19  1  0.96434283  0.64992255  0.47254267  1
  Zr  Zr20  1  0.47243872  1.00325449  0.86643599  1
  Zr  Zr21  1  0.08129489  0.34907128  0.68946657  1
  Zr  Zr22  1  0.19930650  0.00188075  0.59152855  1
  Zr  Zr23  1  0.67243232  0.01217820  0.17449282  1
  Zr  Zr24  1  0.85965208  0.11712759  0.49114572  1
  Zr  Zr25  1  0.53377713  0.78911566  0.46345033  1
  Zr  Zr26  1  0.40047877  0.63648159  0.52292764  1
  Zr  Zr27  1  0.21482161  0.45641269  0.80593168  1
  Zr  Zr28  1  0.22669422  0.08380723  0.05770522  1
  Zr  Zr29  1  0.88427571  0.87951960  0.46517526  1
  Zr  Zr30  1  0.56925680  0.06295041  0.35039859  1
  Zr  Zr31  1  0.74421566  0.19105444  0.29626190  1
  Zr  Zr32  1  0.41121039  0.97149726  0.48224551  1
  Zr  Zr33  1  0.07781596  0.43753853  0.10461722  1
  Zr  Zr34  1  0.68613559  0.82287884  0.28253550  1
  Zr  Zr35  1  0.23160047  0.64223740  0.15223686  1
  Zr  Zr36  1  0.23526709  0.14464414  0.43670375  1
  Zr  Zr37  1  0.85665674  0.86079851  0.13033733  1
  Zr  Zr38  1  0.78811793  0.78523238  0.94318050  1
  Zr  Zr39  1  0.91058301  0.61347745  0.85900249  1
  Zr  Zr40  1  0.23682506  0.49028887  0.59591384  1
  Zr  Zr41  1  0.66488689  0.17299581  0.50925095  1
  Zr  Zr42  1  0.55295818  0.64500706  0.67079462  1
  Zr  Zr43  1  0.32905537  0.75973141  0.34959544  1
  Zr  Zr44  1  0.32831586  0.92152096  0.98249173  1
  Zr  Zr45  1  0.24112174  0.33187863  1.00230710  1
  Zr  Zr46  1  0.11311286  0.84833091  0.72407572  1
  Zr  Zr47  1  0.72304345  0.40170740  0.28423751  1
  Zr  Zr48  1  0.35706206  0.29406423  0.81173013  1
  Zr  Zr49  1  0.26538444  0.91913400  0.19937601  1
  Sc  Sc50  1  0.50990765  0.57466709  0.91618825  1
  Sc  Sc51  1  0.56905401  0.35300630  0.90242611  1
  Sc  Sc52  1  0.48038420  0.89001744  0.26462274  1
  Sc  Sc53  1  0.48587674  0.77876947  0.87659444  1
  Sc  Sc54  1  0.71607015  0.55048821  0.91470834  1
  Sc  Sc55  1  0.04867703  0.43061692  0.47555246  1
  Sc  Sc56  1  0.71991321  0.26647073  0.69407749  1
  Sc  Sc57  1  0.11937040  0.74384380  0.31151050  1
  Sc  Sc58  1  0.08386852  0.83472460  0.51065238  1
  Sc  Sc59  1  0.11769483  0.23802767  0.86818187  1
  Sc  Sc60  1  0.80205974  0.64424997  0.10241276  1
  Sc  Sc61  1  0.74505384  0.72058401  0.49534140  1
  Sc  Sc62  1  0.33640605  0.32007831  0.35566989  1
  Sc  Sc63  1  0.11568361  0.95301682  0.90923808  1
  Sc  Sc64  1  0.98958088  0.52814711  0.65832134  1
  Sc  Sc65  1  0.68486030  0.37991599  0.51010998  1
  Sc  Sc66  1  0.41763756  0.18859630  -0.01532283  1
  Sc  Sc67  1  0.33328311  0.67701348  0.72877468  1
  Sc  Sc68  1  0.90481209  0.32479133  0.18578663  1
  Sc  Sc69  1  0.36968031  0.10775081  0.66843732  1
  Sc  Sc70  1  0.27856402  0.28985543  0.59939022  1
  Sc  Sc71  1  0.11692235  0.82774866  0.08618845  1
  Sc  Sc72  1  0.41734539  0.47821387  0.72754637  1
  Sc  Sc73  1  0.55177466  0.28399759  0.36815907  1
  Sc  Sc74  1  0.11383297  0.53628129  0.30667614  1
  Sc  Sc75  1  0.59122310  0.89357298  0.02831232  1
  Sc  Sc76  1  0.17723018  0.65546467  0.51320502  1
  Sc  Sc77  1  0.23880689  0.74587373  0.91808771  1
  Sc  Sc78  1  0.70578977  0.61021182  0.29251119  1
  Sc  Sc79  1  0.50739979  0.46480252  0.29156114  1
  Sc  Sc80  1  0.12060715  0.30689450  0.29809664  1
  Sc  Sc81  1  0.78501846  0.57440926  0.64794936  1
  Sc  Sc82  1  0.76647303  0.17800347  0.88725069  1
  Sc  Sc83  1  0.84007738  0.40750960  0.80610502  1
  Sc  Sc84  1  0.07437073  0.21931345  0.09672860  1
  Sc  Sc85  1  0.77884300  0.06494756  0.69150544  1
  Sc  Sc86  1  0.62936341  0.45747288  0.71834043  1
  Sc  Sc87  1  0.31203583  0.52898978  0.97746627  1
  Sc  Sc88  1  0.00299462  0.66048366  0.12800375  1
  Sc  Sc89  1  0.39946996  0.76913248  0.10123171  1
  Sc  Sc90  1  0.04689260  0.20810655  0.53864043  1
  Sc  Sc91  1  0.60328542  0.56493560  0.47295333  1
  Sc  Sc92  1  0.26824286  0.09469084  0.84711491  1
  Sc  Sc93  1  0.10497112  0.59208625  0.96367243  1
  Sc  Sc94  1  0.92919176  0.21170738  0.73965891  1
  Sc  Sc95  1  0.96677766  0.14840369  0.29299320  1
  Sc  Sc96  1  0.71530000  0.31337613  0.06339819  1
  Sc  Sc97  1  0.31648326  0.89931497  0.75601003  1
  Sc  Sc98  1  0.51884891  0.84756949  0.66906536  1
  Sc  Sc99  1  0.00571015  0.01525263  0.10065414  1
  Nb  Nb100  1  0.88009351  0.35864362  0.59145832  1
  Nb  Nb101  1  0.96357340  0.97936303  0.62343359  1
  Nb  Nb102  1  0.37111637  0.08877696  0.29313946  1
  Nb  Nb103  1  0.50646693  0.67491974  0.29304887  1
  Nb  Nb104  1  0.16225049  0.08834238  0.25706192  1
  Nb  Nb105  1  1.03181479  0.42890982  0.88196387  1
  Nb  Nb106  1  0.61536196  0.10453999  0.00107993  1
  Nb  Nb107  1  0.88281832  0.31743958  0.40150638  1
  Nb  Nb108  1  0.82948174  0.99398498  0.30331038  1
  Nb  Nb109  1  0.08220668  0.07306114  0.73729361  1
  Nb  Nb110  1  0.83383257  0.50908715  0.45142275  1
  Nb  Nb111  1  0.27442819  0.43655471  0.18490175  1
  Nb  Nb112  1  0.30553265  0.81714500  0.55916779  1
  Nb  Nb113  1  0.92538543  0.29224659  0.96901483  1
  Nb  Nb114  1  0.79474377  -0.01024593  0.98413260  1
  Nb  Nb115  1  0.30560411  0.22594939  0.17412988  1
  Nb  Nb116  1  0.22770557  0.93758924  0.39079468  1
  Nb  Nb117  1  0.44406757  1.03224050  0.11401501  1
  Nb  Nb118  1  0.43851984  0.17315915  0.48447533  1
  Nb  Nb119  1  0.88578988  0.47479063  0.03044709  1
  Nb  Nb120  1  0.75306415  0.87019747  0.64823785  1
  Nb  Nb121  1  0.04715844  0.02847951  0.44241509  1
  Nb  Nb122  1  0.42945170  0.57496011  0.14243063  1
  Nb  Nb123  1  0.00579765  0.77428836  0.91055583  1
  Nb  Nb124  1  0.96460174  0.10221448  0.91688544  1
