# generated using pymatgen
data_Zr2Sc2Nb
_symmetry_space_group_name_H-M   'P 1'
_cell_length_a   14.34740738
_cell_length_b   14.10326765
_cell_length_c   14.27713888
_cell_angle_alpha   92.90460125
_cell_angle_beta   87.19322077
_cell_angle_gamma   92.35933439
_symmetry_Int_Tables_number   1
_chemical_formula_structural   Zr2Sc2Nb
_chemical_formula_sum   'Zr50 Sc50 Nb25'
_cell_volume   2879.57180118
_cell_formula_units_Z   25
loop_
 _symmetry_equiv_pos_site_id
 _symmetry_equiv_pos_as_xyz
  1  'x, y, z'
loop_
 _atom_site_type_symbol
 _atom_site_label
 _atom_site_symmetry_multiplicity
 _atom_site_fract_x
 _atom_site_fract_y
 _atom_site_fract_z
 _atom_site_occupancy
  Zr  Zr0  1  0.41824528  0.04945517  0.19106179  1
  Zr  Zr1  1  0.68708544  0.14910698  0.95801769  1
  Zr  Zr2  1  0.09201033  0.66417410  0.49600978  1
  Zr  Zr3  1  0.12883466  0.48471494  0.35131777  1
  Zr  Zr4  1  0.85831180  0.67619365  0.45680262  1
  Zr  Zr5  1  0.88717098  0.98262084  0.73871380  1
  Zr  Zr6  1  0.69050511  0.65969449  0.86593035  1
  Zr  Zr7  1  0.06305065  0.08619860  0.65718829  1
  Zr  Zr8  1  0.22716983  0.32032994  0.43061635  1
  Zr  Zr9  1  0.45542755  0.08511389  0.67176403  1
  Zr  Zr10  1  0.81298816  0.92654798  0.20600115  1
  Zr  Zr11  1  0.82874096  0.26094379  0.46024001  1
  Zr  Zr12  1  0.77999810  0.77314464  0.03906769  1
  Zr  Zr13  1  0.01680927  0.84798153  0.16395686  1
  Zr  Zr14  1  0.66459673  0.35117895  0.07416859  1
  Zr  Zr15  1  0.58656934  0.97891861  0.28857327  1
  Zr  Zr16  1  0.92929987  0.59970862  0.82779563  1
  Zr  Zr17  1  0.32601823  0.27452465  0.95738394  1
  Zr  Zr18  1  0.34725085  0.77703065  0.89626163  1
  Zr  Zr19  1  0.54006849  0.54164647  0.47350296  1
  Zr  Zr20  1  0.20942528  0.77877276  0.66653486  1
  Zr  Zr21  1  0.41945006  0.22187412  0.53361785  1
  Zr  Zr22  1  0.45930022  0.81860014  0.15672203  1
  Zr  Zr23  1  0.42893823  0.37739867  0.40380683  1
  Zr  Zr24  1  0.63433361  0.32899440  0.44560346  1
  Zr  Zr25  1  0.72467425  0.88169153  0.40585657  1
  Zr  Zr26  1  0.76550636  0.29316974  0.25671660  1
  Zr  Zr27  1  0.86015084  0.80515737  0.83956552  1
  Zr  Zr28  1  0.92434374  0.38621148  0.63362879  1
  Zr  Zr29  1  0.14947370  0.02190245  0.23710293  1
  Zr  Zr30  1  0.03264126  0.24347329  0.48522280  1
  Zr  Zr31  1  0.57133228  0.56970626  0.69714106  1
  Zr  Zr32  1  0.40592722  0.94558010  1.00256159  1
  Zr  Zr33  1  0.29951734  0.13316587  0.36072886  1
  Zr  Zr34  1  0.54871386  -0.01509147  0.84319412  1
  Zr  Zr35  1  0.25911578  0.96698446  0.53075451  1
  Zr  Zr36  1  0.14981146  0.68516016  0.06289754  1
  Zr  Zr37  1  0.53431094  0.36692629  0.63780831  1
  Zr  Zr38  1  0.01784057  0.66512192  0.29047620  1
  Zr  Zr39  1  0.50732869  0.79757695  0.38431486  1
  Zr  Zr40  1  0.23543689  0.67032095  0.26949467  1
  Zr  Zr41  1  0.94154170  0.87889705  0.37047501  1
  Zr  Zr42  1  0.25850567  0.44252621  0.05297849  1
  Zr  Zr43  1  0.93759289  0.09085773  0.30006795  1
  Zr  Zr44  1  0.89479402  0.19755449  0.67902971  1
  Zr  Zr45  1  0.09468307  0.49642987  0.16164500  1
  Zr  Zr46  1  0.09569072  0.04828866  0.43287735  1
  Zr  Zr47  1  0.63792359  0.12950714  0.52434928  1
  Zr  Zr48  1  0.22937751  0.00480092  0.73320207  1
  Zr  Zr49  1  0.58363691  0.63265780  0.05122268  1
  Sc  Sc50  1  0.59367015  0.91819103  0.59441426  1
  Sc  Sc51  1  0.76706344  0.47674230  0.75036153  1
  Sc  Sc52  1  0.47139432  0.44430315  0.06630922  1
  Sc  Sc53  1  0.45661105  0.00489576  0.46549734  1
  Sc  Sc54  1  0.73493537  0.49752230  0.34786660  1
  Sc  Sc55  1  0.30198920  0.55295748  0.47372151  1
  Sc  Sc56  1  0.64569185  0.78116787  0.20322867  1
  Sc  Sc57  1  0.17662018  0.92520546  0.95588445  1
  Sc  Sc58  1  0.26374579  0.56898188  0.89992946  1
  Sc  Sc59  1  0.49709771  0.60132888  0.26297092  1
  Sc  Sc60  1  0.86362357  0.05415866  0.50920710  1
  Sc  Sc61  1  0.39452610  0.88683025  0.71334606  1
  Sc  Sc62  1  0.99173181  0.30123116  0.26757026  1
  Sc  Sc63  1  0.76785637  0.29704204  0.84565311  1
  Sc  Sc64  1  0.19436766  0.27446959  0.21112422  1
  Sc  Sc65  1  0.32334216  0.46709436  0.25348142  1
  Sc  Sc66  1  0.80723214  0.10891524  0.11820322  1
  Sc  Sc67  1  0.06173674  0.52061881  0.95205895  1
  Sc  Sc68  1  0.79683963  0.50130237  -0.01979857  1
  Sc  Sc69  1  0.97903912  0.35080393  0.83815685  1
  Sc  Sc70  1  0.61578809  0.97727386  0.08166835  1
  Sc  Sc71  1  0.48722372  0.15787149  0.01129580  1
  Sc  Sc72  1  0.03254644  0.12212212  0.10023070  1
  Sc  Sc73  1  0.13661323  0.15075282  0.86888471  1
  Sc  Sc74  1  0.28729907  0.76384299  0.46123618  1
  Sc  Sc75  1  0.05740867  0.88198177  0.56348882  1
  Sc  Sc76  1  0.40386862  0.42373479  0.81957826  1
  Sc  Sc77  1  0.92804276  0.64065399  0.08773724  1
  Sc  Sc78  1  0.73676827  0.50188191  0.55212937  1
  Sc  Sc79  1  0.93074955  0.46193604  0.42363511  1
  Sc  Sc80  1  0.70257564  0.08914857  0.72975203  1
  Sc  Sc81  1  0.32887074  0.90971890  0.32026558  1
  Sc  Sc82  1  0.84035203  0.84541011  0.58419586  1
  Sc  Sc83  1  0.30149633  0.40249454  0.62450373  1
  Sc  Sc84  1  0.87691937  0.30396400  0.04969850  1
  Sc  Sc85  1  0.45438436  0.72342800  0.56913492  1
  Sc  Sc86  1  0.93723199  0.95469391  0.99688241  1
  Sc  Sc87  1  0.25793316  0.10751052  0.06487270  1
  Sc  Sc88  1  0.91111142  0.13548655  0.89373221  1
  Sc  Sc89  1  0.52290805  0.18228457  0.34613771  1
  Sc  Sc90  1  0.31055954  0.22702022  0.74239202  1
  Sc  Sc91  1  0.34697934  0.62015523  0.71598148  1
  Sc  Sc92  1  0.09431711  0.30998564  0.02173434  1
  Sc  Sc93  1  0.53927794  0.23211455  0.81072347  1
  Sc  Sc94  1  0.88529010  0.47761674  0.20161564  1
  Sc  Sc95  1  0.24830967  0.85471240  0.13787339  1
  Sc  Sc96  1  0.60085236  0.44430019  0.88547229  1
  Sc  Sc97  1  0.41028245  0.27098114  0.18803531  1
  Sc  Sc98  1  0.12099857  0.53921702  0.72441323  1
  Sc  Sc99  1  0.36150640  0.64275937  0.08374846  1
  Nb  Nb100  1  0.65730787  0.72192830  0.56517491  1
  Nb  Nb101  1  0.69659723  0.85666797  0.75256307  1
  Nb  Nb102  1  0.94075113  0.57829378  0.61077008  1
  Nb  Nb103  1  0.70476752  0.56857104  0.17103086  1
  Nb  Nb104  1  0.35711326  0.07265170  0.86595835  1
  Nb  Nb105  1  0.05620380  0.90928110  0.79801352  1
  Nb  Nb106  1  0.11406481  0.29699427  0.67399731  1
  Nb  Nb107  1  0.10571833  0.44907087  0.54241442  1
  Nb  Nb108  1  0.22765407  0.16572766  0.56437056  1
  Nb  Nb109  1  0.57448480  0.39812331  0.25537176  1
  Nb  Nb110  1  0.78416805  0.67536501  0.68565259  1
  Nb  Nb111  1  0.74773385  0.96138353  0.91824837  1
  Nb  Nb112  1  0.14725668  0.72079486  0.84203391  1
  Nb  Nb113  1  0.82794201  0.71802546  0.25728423  1
  Nb  Nb114  1  0.73503212  0.10557229  0.33471086  1
  Nb  Nb115  1  0.47421694  0.61690126  0.89232329  1
  Nb  Nb116  1  0.13363839  0.84146648  0.35140035  1
  Nb  Nb117  1  0.57486106  0.81244269  0.95188795  1
  Nb  Nb118  1  0.19301790  0.37550927  0.84125532  1
  Nb  Nb119  1  0.71624787  0.29030111  0.64110840  1
  Nb  Nb120  1  1.00664186  0.76695578  0.95130762  1
  Nb  Nb121  1  -0.00002057  0.74235109  0.70124490  1
  Nb  Nb122  1  0.66441382  0.67817002  0.37496472  1
  Nb  Nb123  1  0.61473793  0.17841254  0.17281051  1
  Nb  Nb124  1  0.53639950  0.75677628  0.75989395  1
