# generated using pymatgen
data_Zr2Sc2Nb
_symmetry_space_group_name_H-M   'P 1'
_cell_length_a   13.83752826
_cell_length_b   14.54843763
_cell_length_c   14.28557824
_cell_angle_alpha   90.10301676
_cell_angle_beta   89.65913113
_cell_angle_gamma   89.37984841
_symmetry_Int_Tables_number   1
_chemical_formula_structural   Zr2Sc2Nb
_chemical_formula_sum   'Zr50 Sc50 Nb25'
_cell_volume   2875.66851600
_cell_formula_units_Z   25
loop_
 _symmetry_equiv_pos_site_id
 _symmetry_equiv_pos_as_xyz
  1  'x, y, z'
loop_
 _atom_site_type_symbol
 _atom_site_label
 _atom_site_symmetry_multiplicity
 _atom_site_fract_x
 _atom_site_fract_y
 _atom_site_fract_z
 _atom_site_occupancy
  Zr  Zr0  1  0.03233611  0.49763528  0.82051372  1
  Zr  Zr1  1  0.71930718  0.14457793  0.48028210  1
  Zr  Zr2  1  0.01927011  1.00471646  0.91524306  1
  Zr  Zr3  1  0.91832526  0.68688735  0.30154226  1
  Zr  Zr4  1  0.75037646  0.44466254  0.15418757  1
  Zr  Zr5  1  0.49931141  0.85400291  0.14105865  1
  Zr  Zr6  1  0.19315076  0.52855821  0.47559519  1
  Zr  Zr7  1  0.66821755  0.84780398  0.99493492  1
  Zr  Zr8  1  0.78911491  0.76541230  0.44351109  1
  Zr  Zr9  1  0.77924886  0.24889285  0.13494319  1
  Zr  Zr10  1  0.65602231  0.93880706  0.39065626  1
  Zr  Zr11  1  0.62102681  0.50709088  0.51731717  1
  Zr  Zr12  1  0.50770613  0.07389922  0.44644192  1
  Zr  Zr13  1  0.33272448  0.01725217  0.58742141  1
  Zr  Zr14  1  0.70113994  0.00825217  0.82874573  1
  Zr  Zr15  1  0.45413464  0.21699390  0.69851729  1
  Zr  Zr16  1  0.41751336  0.53180991  0.87672749  1
  Zr  Zr17  1  0.17081176  0.18899711  0.45270839  1
  Zr  Zr18  1  0.33682278  0.36714368  0.73473980  1
  Zr  Zr19  1  0.92127483  0.96746041  0.71877025  1
  Zr  Zr20  1  0.88886988  0.32704015  0.74721304  1
  Zr  Zr21  1  0.01803662  0.16497203  0.68228736  1
  Zr  Zr22  1  0.07651906  0.82471610  0.01872966  1
  Zr  Zr23  1  0.38724950  0.45835736  0.53879003  1
  Zr  Zr24  1  0.79203562  0.34530566  0.54408165  1
  Zr  Zr25  1  0.07471767  0.66159470  0.70137292  1
  Zr  Zr26  1  0.70688630  0.96432072  0.17747341  1
  Zr  Zr27  1  0.57405807  0.70872303  0.42932349  1
  Zr  Zr28  1  0.10298407  0.85256477  0.60571570  1
  Zr  Zr29  1  0.37127215  0.72829375  0.84292429  1
  Zr  Zr30  1  0.24158618  0.42078909  0.92894936  1
  Zr  Zr31  1  0.29324029  0.55643999  0.27578704  1
  Zr  Zr32  1  0.09467201  0.01959345  0.32845229  1
  Zr  Zr33  1  0.47748424  0.05102987  0.22872089  1
  Zr  Zr34  1  0.57078115  0.29889468  0.52168907  1
  Zr  Zr35  1  0.46565828  0.90365512  0.92586910  1
  Zr  Zr36  1  0.30660505  0.78944808  0.04816420  1
  Zr  Zr37  1  0.73288196  0.81417093  0.78072600  1
  Zr  Zr38  1  0.56877927  0.06685346  0.65043919  1
  Zr  Zr39  1  0.57068966  0.22127074  0.08980803  1
  Zr  Zr40  1  0.33910365  0.57278554  0.06817814  1
  Zr  Zr41  1  0.66594243  0.37003838  0.33684487  1
  Zr  Zr42  1  0.96117819  0.16480746  0.05777129  1
  Zr  Zr43  1  0.86764033  0.63395240  0.75314384  1
  Zr  Zr44  1  0.24409342  0.70829181  0.56408900  1
  Zr  Zr45  1  0.12532695  0.32500381  0.77786285  1
  Zr  Zr46  1  0.23882904  0.92904016  0.91037398  1
  Zr  Zr47  1  0.58708484  0.66223107  0.81750667  1
  Zr  Zr48  1  0.81091843  0.57251598  0.53672097  1
  Zr  Zr49  1  0.37076033  0.23245894  0.50543856  1
  Sc  Sc50  1  0.51582648  0.86826313  0.73061165  1
  Sc  Sc51  1  0.68039721  0.64204532  0.12232896  1
  Sc  Sc52  1  0.96691508  0.37483151  0.15296422  1
  Sc  Sc53  1  0.71205235  0.92769459  0.60073605  1
  Sc  Sc54  1  0.44557725  0.85037074  0.53534061  1
  Sc  Sc55  1  0.47031690  0.26349798  0.30248198  1
  Sc  Sc56  1  0.62894880  0.49703456  0.95499243  1
  Sc  Sc57  1  0.08951924  0.84559424  0.22263819  1
  Sc  Sc58  1  0.37614415  0.32346604  0.07719436  1
  Sc  Sc59  1  0.89629809  0.78633511  0.62126071  1
  Sc  Sc60  1  0.28151258  0.17264712  0.22132110  1
  Sc  Sc61  1  0.87757199  0.86128824  0.91437094  1
  Sc  Sc62  1  0.73807706  0.29033558  0.93590893  1
  Sc  Sc63  1  1.04899754  0.37035196  0.41198165  1
  Sc  Sc64  1  0.67023323  0.26015454  0.72654893  1
  Sc  Sc65  1  0.25104342  0.54523057  0.71194708  1
  Sc  Sc66  1  0.88043466  0.09280451  0.26296331  1
  Sc  Sc67  1  0.16471640  0.25397134  0.04299274  1
  Sc  Sc68  1  0.87821994  0.14658961  0.85233195  1
  Sc  Sc69  1  0.85599450  0.78259208  0.11164959  1
  Sc  Sc70  1  0.24544665  0.87157382  0.42221888  1
  Sc  Sc71  1  0.94959038  0.18481344  0.48663760  1
  Sc  Sc72  1  0.53151734  0.45863847  0.14763403  1
  Sc  Sc73  1  0.76718012  0.66448393  0.93799330  1
  Sc  Sc74  1  0.13560834  0.65215957  0.13337140  1
  Sc  Sc75  1  0.13961416  0.03575059  0.09841303  1
  Sc  Sc76  1  0.27260208  0.36007298  0.36139082  1
  Sc  Sc77  1  0.73727162  0.47987225  0.73729162  1
  Sc  Sc78  1  0.35652973  0.07919308  0.02798223  1
  Sc  Sc79  1  0.53259826  0.44759288  0.70665665  1
  Sc  Sc80  1  0.53688779  0.13245581  0.88169959  1
  Sc  Sc81  1  0.19179465  0.41155739  0.16818662  1
  Sc  Sc82  1  0.48510426  0.48905283  0.35748898  1
  Sc  Sc83  1  0.06849612  0.21755791  0.25344476  1
  Sc  Sc84  1  0.66121845  0.14883891  0.27850755  1
  Sc  Sc85  1  0.99580765  0.45358879  0.61035742  1
  Sc  Sc86  1  0.89453696  0.98586496  0.49553170  1
  Sc  Sc87  1  0.87524463  0.89464695  0.29668925  1
  Sc  Sc88  1  0.91617506  0.58208165  0.12229102  1
  Sc  Sc89  1  0.15159836  1.00062999  0.73480285  1
  Sc  Sc90  1  0.49268114  0.66265034  0.22827968  1
  Sc  Sc91  1  0.85388934  0.28317644  0.33104062  1
  Sc  Sc92  1  0.44605520  0.64896453  0.63778011  1
  Sc  Sc93  1  0.18740332  0.64721352  0.90661057  1
  Sc  Sc94  1  0.23690209  0.17754868  0.67393078  1
  Sc  Sc95  1  0.50462180  0.33596043  0.89646552  1
  Sc  Sc96  1  0.00705580  0.63860183  0.49375245  1
  Sc  Sc97  1  0.86972135  0.48443884  0.35194686  1
  Sc  Sc98  1  0.66531568  0.70301022  0.62230738  1
  Sc  Sc99  1  0.85813502  0.47074879  0.94555646  1
  Nb  Nb100  1  0.29547625  0.94793464  0.21248837  1
  Nb  Nb101  1  0.07351320  0.81852262  0.81143510  1
  Nb  Nb102  1  0.50943130  0.68827571  0.00428444  1
  Nb  Nb103  1  0.30535019  0.75869235  0.24204659  1
  Nb  Nb104  1  0.06986699  0.53184324  0.28619818  1
  Nb  Nb105  1  0.76313376  0.07749150  0.01929187  1
  Nb  Nb106  1  0.11007010  0.02738769  0.52949275  1
  Nb  Nb107  1  0.14421564  0.14545049  0.87735206  1
  Nb  Nb108  1  0.31370471  0.05213610  0.38404913  1
  Nb  Nb109  1  0.15323597  0.69523705  0.35688148  1
  Nb  Nb110  1  0.80480634  0.12584634  0.65346347  1
  Nb  Nb111  1  0.98067039  0.66670450  0.93137993  1
  Nb  Nb112  1  0.07600983  0.48957573  1.01540984  1
  Nb  Nb113  1  0.36389354  0.04130649  0.79226125  1
  Nb  Nb114  1  0.29268573  0.84701411  0.71445502  1
  Nb  Nb115  1  0.92488421  0.97107595  0.10022684  1
  Nb  Nb116  1  0.37149267  0.67364764  0.41797833  1
  Nb  Nb117  1  0.19459775  0.35532902  0.57729979  1
  Nb  Nb118  1  0.69407901  0.58557959  0.32382206  1
  Nb  Nb119  1  0.67919893  0.78352043  0.26357255  1
  Nb  Nb120  1  0.99412100  0.31297232  0.93164842  1
  Nb  Nb121  1  0.02413944  0.83566392  0.42933446  1
  Nb  Nb122  1  0.32142442  0.22340532  0.87928447  1
  Nb  Nb123  1  0.57444732  0.02837942  0.04499630  1
  Nb  Nb124  1  0.45643073  0.86915362  0.33421786  1
