# generated using pymatgen
data_Zr2Sc2Nb
_symmetry_space_group_name_H-M   'P 1'
_cell_length_a   14.25002795
_cell_length_b   14.41618163
_cell_length_c   14.00925279
_cell_angle_alpha   91.19747257
_cell_angle_beta   88.53976742
_cell_angle_gamma   90.43693429
_symmetry_Int_Tables_number   1
_chemical_formula_structural   Zr2Sc2Nb
_chemical_formula_sum   'Zr50 Sc50 Nb25'
_cell_volume   2876.29932465
_cell_formula_units_Z   25
loop_
 _symmetry_equiv_pos_site_id
 _symmetry_equiv_pos_as_xyz
  1  'x, y, z'
loop_
 _atom_site_type_symbol
 _atom_site_label
 _atom_site_symmetry_multiplicity
 _atom_site_fract_x
 _atom_site_fract_y
 _atom_site_fract_z
 _atom_site_occupancy
  Zr  Zr0  1  0.62209411  0.59685173  0.07391438  1
  Zr  Zr1  1  0.52353480  0.77369721  0.07054860  1
  Zr  Zr2  1  0.83624649  0.73243546  0.57000217  1
  Zr  Zr3  1  0.20877240  0.39016319  0.67903739  1
  Zr  Zr4  1  0.28606002  0.32134899  0.88200481  1
  Zr  Zr5  1  0.36645485  0.67713738  0.32504530  1
  Zr  Zr6  1  0.50284372  0.90355250  0.38658662  1
  Zr  Zr7  1  0.71546830  0.23013495  0.84873267  1
  Zr  Zr8  1  0.55924726  0.51143345  0.57615266  1
  Zr  Zr9  1  0.66433099  0.02180691  0.81928005  1
  Zr  Zr10  1  0.86637665  0.35366504  0.53427839  1
  Zr  Zr11  1  0.75755356  0.29454832  0.12531418  1
  Zr  Zr12  1  0.68686211  0.41004199  0.97038377  1
  Zr  Zr13  1  0.27056666  0.92341463  0.91605485  1
  Zr  Zr14  1  0.83304400  0.25755867  0.31281648  1
  Zr  Zr15  1  0.94615136  0.88933318  0.69896518  1
  Zr  Zr16  1  0.89601622  0.31241570  0.95693194  1
  Zr  Zr17  1  0.16239362  0.28049641  0.07405348  1
  Zr  Zr18  1  0.97000603  0.37479801  0.14358720  1
  Zr  Zr19  1  0.94775044  0.16770552  0.12940905  1
  Zr  Zr20  1  0.00558926  0.48989867  0.69072901  1
  Zr  Zr21  1  0.29931595  0.72218012  0.85011685  1
  Zr  Zr22  1  0.30695731  0.25054758  0.23141594  1
  Zr  Zr23  1  0.80729686  0.10977426  0.98346165  1
  Zr  Zr24  1  0.25268756  0.88517497  0.13755459  1
  Zr  Zr25  1  0.24583364  0.47415939  0.28530158  1
  Zr  Zr26  1  0.14864232  1.00303314  0.74904617  1
  Zr  Zr27  1  0.20735053  0.59661654  0.66671893  1
  Zr  Zr28  1  0.10082256  0.60844468  0.84522825  1
  Zr  Zr29  1  0.01267649  0.08092569  0.61833208  1
  Zr  Zr30  1  0.12841053  0.45746725  0.48138959  1
  Zr  Zr31  1  0.43496594  0.38418551  0.31975021  1
  Zr  Zr32  1  0.64737195  0.34068699  0.66140755  1
  Zr  Zr33  1  0.41909143  0.40037410  0.71501623  1
  Zr  Zr34  1  0.35407083  0.92119197  0.52727391  1
  Zr  Zr35  1  0.77432020  0.52672578  0.62981834  1
  Zr  Zr36  1  0.05093084  0.70970333  0.61427517  1
  Zr  Zr37  1  0.45881319  0.80507346  0.68740247  1
  Zr  Zr38  1  0.48856178  0.31749822  0.51573654  1
  Zr  Zr39  1  0.71602315  0.85061368  0.70561736  1
  Zr  Zr40  1  0.09421279  0.06131054  0.40503339  1
  Zr  Zr41  1  0.74914262  0.66770337  0.25969864  1
  Zr  Zr42  1  0.73619415  0.09043538  0.19302235  1
  Zr  Zr43  1  0.88815389  0.68725296  0.76478289  1
  Zr  Zr44  1  0.14120956  0.75229172  0.00166895  1
  Zr  Zr45  1  0.81167853  0.41023156  0.78390136  1
  Zr  Zr46  1  0.68298981  0.19856836  0.49671475  1
  Zr  Zr47  1  0.64234999  0.89367788  0.21171991  1
  Zr  Zr48  1  0.50097313  0.06965406  0.22808117  1
  Zr  Zr49  1  0.57294328  0.95152108  0.58529852  1
  Sc  Sc50  1  0.04055028  0.53306020  0.27866837  1
  Sc  Sc51  1  0.78009283  0.01853875  0.61055262  1
  Sc  Sc52  1  0.13001083  0.89271328  0.54032032  1
  Sc  Sc53  1  0.93729127  0.51797952  0.93024317  1
  Sc  Sc54  1  0.05516379  0.17899795  0.92286879  1
  Sc  Sc55  1  0.70992269  0.81696589  0.43064158  1
  Sc  Sc56  1  0.31769194  0.71663139  0.53111048  1
  Sc  Sc57  1  0.03804254  0.89826944  0.13455910  1
  Sc  Sc58  1  0.45971240  0.11314587  0.47662249  1
  Sc  Sc59  1  0.63756095  0.67024773  0.70106091  1
  Sc  Sc60  1  0.23663673  0.09787707  0.55958079  1
  Sc  Sc61  1  0.30740229  0.04245234  0.32484297  1
  Sc  Sc62  1  0.37120293  0.00889660  0.72056469  1
  Sc  Sc63  1  0.45956685  0.46878690  0.95855080  1
  Sc  Sc64  1  0.52805095  0.34970364  0.12190511  1
  Sc  Sc65  1  0.12827525  0.08621780  0.19576227  1
  Sc  Sc66  1  0.93035659  0.75203798  0.96032974  1
  Sc  Sc67  1  0.71646627  0.02008692  0.38800692  1
  Sc  Sc68  1  0.50623954  0.65763933  0.88536622  1
  Sc  Sc69  1  0.56104939  0.14868498  0.68096840  1
  Sc  Sc70  1  0.45430411  0.09346936  0.89373041  1
  Sc  Sc71  1  0.06144167  0.85212917  0.32767102  1
  Sc  Sc72  1  0.95772393  0.69764453  0.16450624  1
  Sc  Sc73  1  0.84820342  0.47167452  0.32992935  1
  Sc  Sc74  1  0.82555346  0.52806787  0.10845714  1
  Sc  Sc75  1  0.91485240  0.91632041  0.46995914  1
  Sc  Sc76  1  0.49029094  0.88173557  0.87183651  1
  Sc  Sc77  1  0.08182298  0.28517735  0.31006450  1
  Sc  Sc78  1  1.03758441  0.96535527  0.93496632  1
  Sc  Sc79  1  0.53529193  0.72235704  0.50232291  1
  Sc  Sc80  1  0.41244991  0.60132583  0.70372354  1
  Sc  Sc81  1  0.60295614  0.24531739  0.30490428  1
  Sc  Sc82  1  0.74340934  0.60551683  0.89439423  1
  Sc  Sc83  1  0.94653025  0.55450421  0.49745567  1
  Sc  Sc84  1  0.65697361  0.46193226  0.24452227  1
  Sc  Sc85  1  0.27928249  0.28359565  0.45948087  1
  Sc  Sc86  1  0.34390820  0.49740749  0.49779594  1
  Sc  Sc87  1  0.33010893  0.65116583  0.05483927  1
  Sc  Sc88  1  0.45150548  0.54840238  0.18414726  1
  Sc  Sc89  1  0.89896054  0.08364834  0.79674905  1
  Sc  Sc90  1  0.30657122  0.08012517  0.08835637  1
  Sc  Sc91  1  0.14346355  0.66359121  0.42090098  1
  Sc  Sc92  1  0.89644675  0.14374664  0.46416394  1
  Sc  Sc93  1  0.59117502  0.15849064  0.04099801  1
  Sc  Sc94  1  0.85090821  0.94161304  0.08372553  1
  Sc  Sc95  1  0.07305583  0.26332191  0.53855020  1
  Sc  Sc96  1  0.51522620  0.28980903  0.86082050  1
  Sc  Sc97  1  -0.02450814  0.28454509  0.73853772  1
  Sc  Sc98  1  0.18087561  0.69682074  0.21079951  1
  Sc  Sc99  1  0.12956112  0.51893479  0.05606717  1
  Nb  Nb100  1  0.74955330  0.76293074  0.07775364  1
  Nb  Nb101  1  0.24793961  0.82489082  0.69691313  1
  Nb  Nb102  1  0.53235715  0.54729684  0.38332513  1
  Nb  Nb103  1  0.41534868  0.85692869  0.22505308  1
  Nb  Nb104  1  0.35688626  0.21256698  0.69542855  1
  Nb  Nb105  1  0.91490475  0.70524275  0.37865229  1
  Nb  Nb106  1  0.25373067  0.12860136  0.89003178  1
  Nb  Nb107  1  0.09884675  0.38927189  0.87667225  1
  Nb  Nb108  1  0.92590041  0.03509501  0.28024026  1
  Nb  Nb109  1  0.60099622  0.48455911  0.79331484  1
  Nb  Nb110  1  0.65376534  0.95535320  0.01599792  1
  Nb  Nb111  1  0.71741693  0.60233243  0.44887418  1
  Nb  Nb112  1  0.68024050  0.39861402  0.44586670  1
  Nb  Nb113  1  0.27909139  0.51740704  0.87236628  1
  Nb  Nb114  1  0.46025637  0.96326525  0.06230493  1
  Nb  Nb115  1  0.31000430  0.42091625  0.09341936  1
  Nb  Nb116  1  0.56415390  0.71364339  0.27724724  1
  Nb  Nb117  1  0.38432500  0.24641345  0.03235598  1
  Nb  Nb118  1  0.84622977  0.85778490  0.26709163  1
  Nb  Nb119  1  0.26305600  0.84768199  0.35995900  1
  Nb  Nb120  1  0.82809474  0.90322280  0.87817174  1
  Nb  Nb121  1  0.16275773  0.20674817  0.73485381  1
  Nb  Nb122  1  0.80158332  0.20892386  0.66208139  1
  Nb  Nb123  1  0.08954481  0.80208707  0.80637577  1
  Nb  Nb124  1  0.67444651  0.79208151  0.90013400  1
