# generated using pymatgen
data_Zr2Sc2Nb
_symmetry_space_group_name_H-M   'P 1'
_cell_length_a   14.25179231
_cell_length_b   14.13585167
_cell_length_c   14.34425919
_cell_angle_alpha   90.01077939
_cell_angle_beta   89.88909124
_cell_angle_gamma   89.44078599
_symmetry_Int_Tables_number   1
_chemical_formula_structural   Zr2Sc2Nb
_chemical_formula_sum   'Zr50 Sc50 Nb25'
_cell_volume   2889.66887190
_cell_formula_units_Z   25
loop_
 _symmetry_equiv_pos_site_id
 _symmetry_equiv_pos_as_xyz
  1  'x, y, z'
loop_
 _atom_site_type_symbol
 _atom_site_label
 _atom_site_symmetry_multiplicity
 _atom_site_fract_x
 _atom_site_fract_y
 _atom_site_fract_z
 _atom_site_occupancy
  Zr  Zr0  1  0.64319632  0.03807444  0.96121530  1
  Zr  Zr1  1  0.04825697  0.95703811  0.05052581  1
  Zr  Zr2  1  0.80462164  0.69442034  0.95820145  1
  Zr  Zr3  1  0.84175973  0.67837964  0.54516057  1
  Zr  Zr4  1  0.43268822  0.08620229  0.29311546  1
  Zr  Zr5  1  0.02362977  0.09080139  0.88037894  1
  Zr  Zr6  1  0.73756989  0.48302296  0.30349994  1
  Zr  Zr7  1  0.73479440  0.21524106  0.51105875  1
  Zr  Zr8  1  0.93654341  0.54548126  0.18226360  1
  Zr  Zr9  1  0.35327025  0.87892343  0.28122588  1
  Zr  Zr10  1  0.98590885  0.85812424  0.64021742  1
  Zr  Zr11  1  0.29755344  0.36141889  0.30197964  1
  Zr  Zr12  1  0.38956303  0.24245128  0.43670927  1
  Zr  Zr13  1  0.11944703  0.46127586  0.78693982  1
  Zr  Zr14  1  0.51184062  0.29722094  0.24461015  1
  Zr  Zr15  1  0.32997616  0.43472497  0.50940328  1
  Zr  Zr16  1  0.05472166  0.10783497  0.46402107  1
  Zr  Zr17  1  0.54439540  0.89011752  0.58609089  1
  Zr  Zr18  1  0.08148757  0.03287302  0.25825626  1
  Zr  Zr19  1  0.13348913  0.67434743  0.82062104  1
  Zr  Zr20  1  0.77814384  0.37650459  0.11839445  1
  Zr  Zr21  1  0.73280939  0.08809929  0.15197373  1
  Zr  Zr22  1  0.96001468  0.33942023  0.85574164  1
  Zr  Zr23  1  0.94883026  0.77224606  0.11698229  1
  Zr  Zr24  1  0.04568952  0.27426000  0.66141582  1
  Zr  Zr25  1  0.24815867  0.30735286  0.67376439  1
  Zr  Zr26  1  0.73714783  0.87943701  0.87132985  1
  Zr  Zr27  1  0.17269311  0.27356129  0.48040500  1
  Zr  Zr28  1  0.62311934  0.11432961  0.32094561  1
  Zr  Zr29  1  0.56783593  0.72667332  0.04074724  1
  Zr  Zr30  1  0.10843253  0.45815183  0.39352341  1
  Zr  Zr31  1  0.90278486  0.45379778  0.66795096  1
  Zr  Zr32  1  0.71709165  -0.00094791  0.47113794  1
  Zr  Zr33  1  0.46574916  0.55725004  -0.03047013  1
  Zr  Zr34  1  0.73311994  0.27664373  0.29958988  1
  Zr  Zr35  1  0.23356636  0.35299233  0.05727700  1
  Zr  Zr36  1  0.50870341  0.52567842  0.75009967  1
  Zr  Zr37  1  0.92912782  0.30242897  0.49135208  1
  Zr  Zr38  1  0.35003990  0.36623193  0.85241128  1
  Zr  Zr39  1  0.63272323  0.67320112  0.62112972  1
  Zr  Zr40  1  0.11208270  0.24062440  0.27370372  1
  Zr  Zr41  1  0.27348786  0.11534642  0.79865296  1
  Zr  Zr42  1  0.26543149  0.63903051  0.51306287  1
  Zr  Zr43  1  0.12620722  0.15265493  0.06873367  1
  Zr  Zr44  1  0.74760194  0.62287216  0.14011119  1
  Zr  Zr45  1  0.84648236  0.22658066  0.71701566  1
  Zr  Zr46  1  0.41641881  0.67264026  0.20444072  1
  Zr  Zr47  1  0.57716369  0.34448160  0.45285986  1
  Zr  Zr48  1  0.60854843  0.73239711  0.26171933  1
  Zr  Zr49  1  0.95860203  0.82516402  0.87447818  1
  Sc  Sc50  1  0.05611492  0.67485623  0.29427254  1
  Sc  Sc51  1  0.43052402  0.98118059  0.94595480  1
  Sc  Sc52  1  0.09123079  0.06672617  0.67417592  1
  Sc  Sc53  1  0.86936519  0.11359423  0.35300109  1
  Sc  Sc54  1  0.54410043  0.88895127  0.79009151  1
  Sc  Sc55  1  0.19876524  0.64953124  0.13156983  1
  Sc  Sc56  1  0.41970133  0.71998113  0.65539150  1
  Sc  Sc57  1  0.44760392  0.33745475  0.04604381  1
  Sc  Sc58  1  0.15280623  0.26660768  0.87580906  1
  Sc  Sc59  1  0.84038611  0.18743871  0.96535427  1
  Sc  Sc60  1  0.76431312  0.87749586  0.64491883  1
  Sc  Sc61  1  0.48293714  0.50210282  0.34156078  1
  Sc  Sc62  1  0.83167564  0.71479303  0.31704572  1
  Sc  Sc63  1  0.90214537  0.88101643  0.43906065  1
  Sc  Sc64  1  0.34761676  0.75463766  0.86554573  1
  Sc  Sc65  1  0.29605869  0.10410678  0.58257508  1
  Sc  Sc66  1  0.11321026  0.49282970  0.58866634  1
  Sc  Sc67  1  0.91686780  0.53005299  0.42205249  1
  Sc  Sc68  1  0.90254690  0.94195268  0.22043926  1
  Sc  Sc69  1  0.32177479  0.16898420  0.99001026  1
  Sc  Sc70  1  0.32925383  0.87786516  0.50482202  1
  Sc  Sc71  1  0.30000519  0.54686109  0.70987508  1
  Sc  Sc72  1  0.13540912  0.89650138  0.79502140  1
  Sc  Sc73  1  0.81723224  0.71128028  0.74904427  1
  Sc  Sc74  1  0.27374278  0.56112337  0.32223304  1
  Sc  Sc75  1  0.12025292  0.88752650  0.43528878  1
  Sc  Sc76  1  0.12479227  0.45708151  0.19089772  1
  Sc  Sc77  1  0.56857499  0.37552598  0.86795339  1
  Sc  Sc78  1  0.66190552  0.34246285  0.67869336  1
  Sc  Sc79  1  -0.00730333  0.32041790  0.07333850  1
  Sc  Sc80  1  0.74087099  0.46040188  0.52992365  1
  Sc  Sc81  1  0.73406175  0.85228537  0.09767916  1
  Sc  Sc82  1  0.60348850  0.69176343  0.83833603  1
  Sc  Sc83  1  0.46207197  0.70666713  0.43328452  1
  Sc  Sc84  1  0.27899973  1.01305859  0.14011472  1
  Sc  Sc85  1  0.34447499  0.81612602  0.07116890  1
  Sc  Sc86  1  0.53616529  0.92687437  0.15504758  1
  Sc  Sc87  1  0.26358344  0.56082481  0.94869161  1
  Sc  Sc88  1  0.57530831  0.49614951  0.14783007  1
  Sc  Sc89  1  0.52816868  0.10881697  0.51502920  1
  Sc  Sc90  1  0.64278413  0.25548621  0.03488575  1
  Sc  Sc91  1  0.53038803  0.91304366  0.38254060  1
  Sc  Sc92  1  0.87539973  0.49567994  -0.00409805  1
  Sc  Sc93  1  0.47504496  0.08933454  0.72590594  1
  Sc  Sc94  1  0.32964750  0.91870853  0.72216698  1
  Sc  Sc95  1  0.93246976  0.34665186  0.28218610  1
  Sc  Sc96  1  0.24774927  0.07106580  0.37398602  1
  Sc  Sc97  1  0.67836574  0.06536970  0.67559907  1
  Sc  Sc98  1  0.88950394  0.06644629  0.58545748  1
  Sc  Sc99  1  0.45776240  0.30718975  0.65571090  1
  Nb  Nb100  1  0.22301115  0.98249856  0.94508366  1
  Nb  Nb101  1  0.51278040  0.51725507  0.55552924  1
  Nb  Nb102  1  0.65589444  0.60858276  0.42262451  1
  Nb  Nb103  1  0.23960817  0.74669701  0.34629086  1
  Nb  Nb104  1  0.08334627  0.47545150  0.97913763  1
  Nb  Nb105  1  0.49545201  0.12850624  0.10607890  1
  Nb  Nb106  1  0.67255949  0.52885588  0.96058996  1
  Nb  Nb107  1  0.85224492  0.02710639  0.79663442  1
  Nb  Nb108  1  0.14890501  0.84738465  0.19590234  1
  Nb  Nb109  1  0.18473642  0.76617501  0.63570826  1
  Nb  Nb110  1  0.67776700  0.18671144  0.83005947  1
  Nb  Nb111  1  0.77031757  0.37043197  0.87239821  1
  Nb  Nb112  1  0.71812700  0.91449337  0.29361214  1
  Nb  Nb113  1  0.31001285  0.21002355  0.19246811  1
  Nb  Nb114  1  1.02650010  0.64992297  0.99773416  1
  Nb  Nb115  1  0.06148695  0.68938608  0.49260639  1
  Nb  Nb116  1  0.86056357  0.98484819  0.00234566  1
  Nb  Nb117  1  0.93561416  0.56465831  0.83299155  1
  Nb  Nb118  1  0.72737263  0.52738585  0.76309228  1
  Nb  Nb119  1  0.49138261  0.18671423  0.89486481  1
  Nb  Nb120  1  0.15784108  0.79652354  0.98563933  1
  Nb  Nb121  1  0.35414391  0.48729382  0.14622357  1
  Nb  Nb122  1  0.68838994  0.79498890  0.45769725  1
  Nb  Nb123  1  0.00796759  0.65517153  0.67455883  1
  Nb  Nb124  1  0.93153403  0.14296996  0.15200074  1
