# generated using pymatgen
data_Zr2Sc2Nb
_symmetry_space_group_name_H-M   'P 1'
_cell_length_a   13.89414092
_cell_length_b   14.54691631
_cell_length_c   14.16958784
_cell_angle_alpha   88.83944863
_cell_angle_beta   90.01493000
_cell_angle_gamma   88.62811749
_symmetry_Int_Tables_number   1
_chemical_formula_structural   Zr2Sc2Nb
_chemical_formula_sum   'Zr50 Sc50 Nb25'
_cell_volume   2862.50421278
_cell_formula_units_Z   25
loop_
 _symmetry_equiv_pos_site_id
 _symmetry_equiv_pos_as_xyz
  1  'x, y, z'
loop_
 _atom_site_type_symbol
 _atom_site_label
 _atom_site_symmetry_multiplicity
 _atom_site_fract_x
 _atom_site_fract_y
 _atom_site_fract_z
 _atom_site_occupancy
  Zr  Zr0  1  0.52340232  0.58584531  0.80174876  1
  Zr  Zr1  1  0.45000980  1.05416023  0.76211407  1
  Zr  Zr2  1  0.70270031  0.70705722  0.32148424  1
  Zr  Zr3  1  0.07770866  0.33654943  0.06857944  1
  Zr  Zr4  1  0.88071846  0.52268728  0.58609634  1
  Zr  Zr5  1  0.49090809  0.21790703  0.23414133  1
  Zr  Zr6  1  0.69100109  0.42971399  0.69647605  1
  Zr  Zr7  1  0.05248219  0.23453632  0.33512589  1
  Zr  Zr8  1  0.25357163  0.29663676  0.23898217  1
  Zr  Zr9  1  0.32719329  0.02199294  0.52956947  1
  Zr  Zr10  1  0.49760259  0.76389302  0.94535691  1
  Zr  Zr11  1  0.46913374  0.37938573  0.72117102  1
  Zr  Zr12  1  0.39889984  0.69616097  0.40188487  1
  Zr  Zr13  1  0.98861627  0.62228751  0.74750094  1
  Zr  Zr14  1  0.29315526  0.70737879  0.02222400  1
  Zr  Zr15  1  0.95265825  0.16338307  0.04633347  1
  Zr  Zr16  1  0.01427707  0.71403120  0.51599259  1
  Zr  Zr17  1  0.72464707  0.07760138  1.00045416  1
  Zr  Zr18  1  0.33928494  0.50363229  0.52455581  1
  Zr  Zr19  1  0.32275858  0.89462573  0.33115940  1
  Zr  Zr20  1  0.40439680  0.20893263  0.58489373  1
  Zr  Zr21  1  0.70435465  0.64899099  0.69563646  1
  Zr  Zr22  1  0.07458787  0.24157731  0.70008194  1
  Zr  Zr23  1  0.67724998  0.04951840  0.77831920  1
  Zr  Zr24  1  0.73081204  0.51304833  0.25333861  1
  Zr  Zr25  1  0.19745246  0.65751897  0.42223426  1
  Zr  Zr26  1  0.68657283  0.67696143  0.92340551  1
  Zr  Zr27  1  0.66768838  0.85417485  0.05310253  1
  Zr  Zr28  1  0.87729432  0.31585156  0.19893912  1
  Zr  Zr29  1  0.19552614  0.65314086  0.65140776  1
  Zr  Zr30  1  0.42108010  0.34688454  0.37698492  1
  Zr  Zr31  1  0.91369343  0.51040701  0.12624515  1
  Zr  Zr32  1  0.88583589  0.59300799  0.36211854  1
  Zr  Zr33  1  0.49044647  1.02833167  0.37026552  1
  Zr  Zr34  1  0.83944030  0.21358968  0.38915849  1
  Zr  Zr35  1  0.68280488  0.09645110  0.30801113  1
  Zr  Zr36  1  0.84638867  0.20253793  0.68670267  1
  Zr  Zr37  1  0.73821370  0.86360162  0.84834159  1
  Zr  Zr38  1  0.33479024  0.06919621  0.97256550  1
  Zr  Zr39  1  0.83466291  0.70860117  0.13678041  1
  Zr  Zr40  1  0.75710551  0.91943352  0.22063317  1
  Zr  Zr41  1  0.10138848  0.85223729  0.33687833  1
  Zr  Zr42  1  0.15237225  0.17079028  0.91316986  1
  Zr  Zr43  1  0.34838070  0.07699103  0.19789817  1
  Zr  Zr44  1  0.07089136  0.43330148  0.25829532  1
  Zr  Zr45  1  0.75217100  0.25647692  0.86524363  1
  Zr  Zr46  1  0.69274946  0.87351649  0.62376629  1
  Zr  Zr47  1  0.24886467  0.81599467  0.51847762  1
  Zr  Zr48  1  0.15365432  0.13951176  0.13176229  1
  Zr  Zr49  1  0.53483495  0.18639470  0.93553025  1
  Sc  Sc50  1  0.60874344  0.67675287  0.13551387  1
  Sc  Sc51  1  0.90258113  0.80746116  0.31944271  1
  Sc  Sc52  1  0.10589590  0.96677833  0.52679289  1
  Sc  Sc53  1  0.26115603  0.48896182  0.09470415  1
  Sc  Sc54  1  0.56438912  0.03729100  0.13973446  1
  Sc  Sc55  1  0.07184362  0.02699001  0.74501596  1
  Sc  Sc56  1  0.23447352  0.72781520  0.21794701  1
  Sc  Sc57  1  0.29057742  0.88730644  0.71179928  1
  Sc  Sc58  1  0.89831301  0.07974147  0.86752320  1
  Sc  Sc59  1  0.21549771  0.92133332  0.12858867  1
  Sc  Sc60  1  0.66520028  0.33876979  0.32821628  1
  Sc  Sc61  1  0.29025278  0.51000818  0.30256816  1
  Sc  Sc62  1  0.80150416  0.51311039  0.85415740  1
  Sc  Sc63  1  0.47297791  0.86923550  0.51687155  1
  Sc  Sc64  1  0.25530277  0.11292744  0.72192664  1
  Sc  Sc65  1  0.59588161  0.39293441  0.90889992  1
  Sc  Sc66  1  0.04667969  0.64831348  0.25471476  1
  Sc  Sc67  1  0.37547471  0.43024179  0.90969786  1
  Sc  Sc68  1  0.09416731  0.97848634  0.96931419  1
  Sc  Sc69  1  0.54081747  0.83533175  0.28644385  1
  Sc  Sc70  1  0.67673473  0.26424620  0.10576506  1
  Sc  Sc71  1  0.08509834  0.61966365  0.05171812  1
  Sc  Sc72  1  0.80190920  0.71819785  0.51177281  1
  Sc  Sc73  1  0.60617743  0.22082039  0.68953352  1
  Sc  Sc74  1  0.06915180  0.82502048  0.68220619  1
  Sc  Sc75  1  0.47230986  0.57211751  0.01038508  1
  Sc  Sc76  1  0.97039315  0.11916695  0.53939003  1
  Sc  Sc77  1  0.53378686  0.97056924  0.93362708  1
  Sc  Sc78  1  0.51477984  0.83830187  0.74486407  1
  Sc  Sc79  1  0.69926366  0.49710152  0.05255785  1
  Sc  Sc80  1  0.57971797  0.19460456  0.45797031  1
  Sc  Sc81  1  0.55950413  0.37963214  0.52707107  1
  Sc  Sc82  1  0.19358523  0.57176776  0.86888208  1
  Sc  Sc83  1  1.00281842  0.47448979  0.91188317  1
  Sc  Sc84  1  0.06723809  0.50551645  0.46079044  1
  Sc  Sc85  1  0.49413787  0.43107274  0.17211804  1
  Sc  Sc86  1  0.18591440  0.36046811  0.85496029  1
  Sc  Sc87  1  0.20867761  0.34831937  0.45277094  1
  Sc  Sc88  1  0.33738109  0.26524855  0.04738454  1
  Sc  Sc89  1  0.10569850  0.45740831  0.67072517  1
  Sc  Sc90  1  0.13574585  0.77713853  0.88838193  1
  Sc  Sc91  1  0.75198062  0.07083614  0.53135624  1
  Sc  Sc92  1  0.53036615  0.53862496  0.36384855  1
  Sc  Sc93  1  0.91202538  0.01633801  0.36010148  1
  Sc  Sc94  1  0.16393138  0.05303648  0.33523257  1
  Sc  Sc95  1  0.59428142  0.70886545  0.50515165  1
  Sc  Sc96  1  0.87463394  0.92706474  0.03500838  1
  Sc  Sc97  1  0.42212397  0.86362049  0.11438961  1
  Sc  Sc98  1  0.90693056  0.69801189  0.93484824  1
  Sc  Sc99  1  0.86948700  -0.02253626  0.69021909  1
  Nb  Nb100  1  0.32921503  0.51811395  0.72271626  1
  Nb  Nb101  1  0.55105681  0.03197643  0.58887474  1
  Nb  Nb102  1  0.40023561  0.69642882  0.62532109  1
  Nb  Nb103  1  -0.01168832  0.32277873  0.53137036  1
  Nb  Nb104  1  0.52567269  0.55152115  0.60413412  1
  Nb  Nb105  1  0.90214447  0.88939899  0.51995671  1
  Nb  Nb106  1  0.03629262  0.80895370  0.10595521  1
  Nb  Nb107  1  0.90551133  0.38497063  0.72814587  1
  Nb  Nb108  1  0.42109321  0.64953143  0.19949546  1
  Nb  Nb109  1  0.32983746  0.17222634  0.38553939  1
  Nb  Nb110  1  0.17562564  0.17206290  0.52971218  1
  Nb  Nb111  1  0.95221635  0.87346894  0.85146501  1
  Nb  Nb112  1  0.86736177  0.76761783  0.70370922  1
  Nb  Nb113  1  0.77497238  0.32849760  0.54238762  1
  Nb  Nb114  1  0.88256640  0.40623509  0.38242821  1
  Nb  Nb115  1  0.32397769  0.88802371  0.91521462  1
  Nb  Nb116  1  0.00811509  0.98663234  0.18219950  1
  Nb  Nb117  1  0.27046560  0.32690205  0.66138073  1
  Nb  Nb118  1  0.83063088  0.10863944  0.18224699  1
  Nb  Nb119  1  0.84929357  0.35511691  0.00017946  1
  Nb  Nb120  1  0.70990184  0.52153171  0.47906043  1
  Nb  Nb121  1  0.69480834  0.90372196  0.42429864  1
  Nb  Nb122  1  0.36823179  0.23774748  0.82786427  1
  Nb  Nb123  1  0.97377155  0.27462500  0.87190695  1
  Nb  Nb124  1  0.34474198  0.70231356  0.81851175  1
