# generated using pymatgen
data_Zr2Sc2Nb
_symmetry_space_group_name_H-M   'P 1'
_cell_length_a   14.12127781
_cell_length_b   13.99202464
_cell_length_c   14.52294919
_cell_angle_alpha   87.21133374
_cell_angle_beta   87.91979328
_cell_angle_gamma   88.79937887
_symmetry_Int_Tables_number   1
_chemical_formula_structural   Zr2Sc2Nb
_chemical_formula_sum   'Zr50 Sc50 Nb25'
_cell_volume   2863.70462461
_cell_formula_units_Z   25
loop_
 _symmetry_equiv_pos_site_id
 _symmetry_equiv_pos_as_xyz
  1  'x, y, z'
loop_
 _atom_site_type_symbol
 _atom_site_label
 _atom_site_symmetry_multiplicity
 _atom_site_fract_x
 _atom_site_fract_y
 _atom_site_fract_z
 _atom_site_occupancy
  Zr  Zr0  1  0.30957514  0.64711924  0.93425210  1
  Zr  Zr1  1  0.25494815  0.42040879  0.61653974  1
  Zr  Zr2  1  0.35417226  0.07443639  0.43817726  1
  Zr  Zr3  1  0.15230475  0.05013265  0.45745117  1
  Zr  Zr4  1  0.67867562  0.61815837  0.39360787  1
  Zr  Zr5  1  0.36264190  0.93997494  0.11417887  1
  Zr  Zr6  1  0.93265120  0.27532403  0.25600272  1
  Zr  Zr7  1  0.64434205  0.82471821  0.28869681  1
  Zr  Zr8  1  0.65590614  0.07622129  0.97102107  1
  Zr  Zr9  1  0.76899344  0.62046738  0.20170191  1
  Zr  Zr10  1  0.09869262  0.72416829  0.84117670  1
  Zr  Zr11  1  0.13226338  0.94839308  0.83633104  1
  Zr  Zr12  1  0.48432465  0.30957638  0.70430747  1
  Zr  Zr13  1  0.66704412  0.45202755  0.12022622  1
  Zr  Zr14  1  0.86851831  0.17396058  0.89078122  1
  Zr  Zr15  1  0.22814094  0.07861851  0.98882605  1
  Zr  Zr16  1  0.11722452  0.65575629  0.03419296  1
  Zr  Zr17  1  0.46399838  0.62405142  0.43322013  1
  Zr  Zr18  1  0.42565341  0.82547862  0.81019088  1
  Zr  Zr19  1  0.28145170  0.11108795  0.20746795  1
  Zr  Zr20  1  0.11256468  0.35932922  0.15525605  1
  Zr  Zr21  1  0.31842987  0.63017289  0.74668240  1
  Zr  Zr22  1  0.50451102  0.12657905  0.11621702  1
  Zr  Zr23  1  0.47812159  0.22939929  0.92076582  1
  Zr  Zr24  1  0.91144425  0.31780680  0.04308367  1
  Zr  Zr25  1  0.87121785  0.26240523  0.68774262  1
  Zr  Zr26  1  0.25188359  0.47716688  0.05289439  1
  Zr  Zr27  1  0.73895857  0.76957517  0.51107131  1
  Zr  Zr28  1  0.87741661  0.73002891  0.92985962  1
  Zr  Zr29  1  0.63617368  0.44128931  0.50978619  1
  Zr  Zr30  1  0.45888130  0.76138718  1.01894657  1
  Zr  Zr31  1  0.42814488  0.78635391  0.27507823  1
  Zr  Zr32  1  0.90432675  0.58121061  0.37818003  1
  Zr  Zr33  1  0.03227716  0.48406745  0.97654627  1
  Zr  Zr34  1  0.25137423  0.82335687  0.68868029  1
  Zr  Zr35  1  0.24501013  0.92182991  0.30973580  1
  Zr  Zr36  1  0.82244433  0.92462501  0.60730393  1
  Zr  Zr37  1  0.67497153  0.23675284  0.21612201  1
  Zr  Zr38  1  0.69980496  0.42931827  0.70157481  1
  Zr  Zr39  1  0.75685741  0.80764263  0.10569603  1
  Zr  Zr40  1  0.51019337  0.16860632  0.52913769  1
  Zr  Zr41  1  0.91888337  0.94826116  0.17517919  1
  Zr  Zr42  1  0.61970096  0.84009846  0.69343431  1
  Zr  Zr43  1  0.53482345  0.09572522  0.74383449  1
  Zr  Zr44  1  0.25480885  0.84966715  0.95442080  1
  Zr  Zr45  1  0.82751265  0.53335985  0.00057272  1
  Zr  Zr46  1  0.82176756  -0.03951761  -0.01044867  1
  Zr  Zr47  1  0.69057587  0.27447696  0.01677176  1
  Zr  Zr48  1  0.97061338  0.07610906  0.63751503  1
  Zr  Zr49  1  0.33712095  0.84807013  0.47856485  1
  Sc  Sc50  1  0.14270339  0.56311997  0.24611880  1
  Sc  Sc51  1  0.26679588  0.27565944  0.80473531  1
  Sc  Sc52  1  0.11411849  0.24778469  0.61226254  1
  Sc  Sc53  1  0.26339058  0.74178497  0.14893098  1
  Sc  Sc54  1  0.39436880  0.44310159  0.86502094  1
  Sc  Sc55  1  0.01971073  0.44289882  0.61522699  1
  Sc  Sc56  1  0.31180021  0.26815730  0.05358291  1
  Sc  Sc57  1  0.46351387  0.22396434  0.31207746  1
  Sc  Sc58  1  0.07917348  0.14912783  0.80120607  1
  Sc  Sc59  1  0.09053478  0.65028344  0.65301757  1
  Sc  Sc60  1  0.19993394  0.03123097  0.64100946  1
  Sc  Sc61  1  0.76732272  0.42306053  0.30883948  1
  Sc  Sc62  1  0.36767903  0.56272015  0.23260575  1
  Sc  Sc63  1  0.32573397  0.05754556  0.80023748  1
  Sc  Sc64  1  0.74910903  0.05686404  0.75104445  1
  Sc  Sc65  1  0.11520412  0.27323329  0.96611889  1
  Sc  Sc66  1  0.43824674  0.36545846  0.48658877  1
  Sc  Sc67  1  0.94067165  0.55438068  0.79399027  1
  Sc  Sc68  1  0.46057245  0.51550984  0.63859550  1
  Sc  Sc69  1  0.92385246  0.93613465  0.81575626  1
  Sc  Sc70  1  0.54650012  0.86663827  0.46826858  1
  Sc  Sc71  1  0.42523185  0.96793403  0.62606682  1
  Sc  Sc72  1  0.95775869  0.95188759  0.44771706  1
  Sc  Sc73  1  0.84374819  0.35530234  0.49639267  1
  Sc  Sc74  1  0.85169988  0.74353227  0.71405315  1
  Sc  Sc75  1  0.30660642  0.35950572  0.25540920  1
  Sc  Sc76  1  0.56404560  0.64939575  0.19572376  1
  Sc  Sc77  1  0.13722245  0.93405426  0.12785330  1
  Sc  Sc78  1  0.06642008  0.79541774  0.30796069  1
  Sc  Sc79  1  0.83502313  0.10597845  0.31149199  1
  Sc  Sc80  1  0.46608036  0.53427317  0.04080606  1
  Sc  Sc81  1  0.14677064  0.21827248  0.31240300  1
  Sc  Sc82  1  0.83789237  0.56738786  0.58581167  1
  Sc  Sc83  1  0.65298503  0.84685779  0.89532939  1
  Sc  Sc84  1  0.63261881  0.63170942  0.63209901  1
  Sc  Sc85  1  0.54274933  0.43662236  0.30443801  1
  Sc  Sc86  1  0.46547301  -0.00689903  0.93896725  1
  Sc  Sc87  1  0.28152184  0.64191192  0.55046170  1
  Sc  Sc88  1  0.03728041  0.86738276  0.65516740  1
  Sc  Sc89  1  0.60944802  0.44746559  0.90589440  1
  Sc  Sc90  1  0.65119919  0.65608249  0.99815357  1
  Sc  Sc91  1  0.85221155  0.78505339  0.32133498  1
  Sc  Sc92  1  0.94632378  0.49158425  0.18344495  1
  Sc  Sc93  1  0.07334879  0.39703704  0.40040069  1
  Sc  Sc94  1  0.47614945  0.98827537  0.28153104  1
  Sc  Sc95  1  0.17189266  0.48714708  0.82054127  1
  Sc  Sc96  1  0.09477717  0.60550404  0.45452154  1
  Sc  Sc97  1  0.66833243  0.24729542  0.81604047  1
  Sc  Sc98  1  0.95393792  0.71344099  0.14363920  1
  Sc  Sc99  1  -0.01693165  0.18805861  0.45115667  1
  Nb  Nb100  1  0.64028806  1.01589432  0.57205472  1
  Nb  Nb101  1  0.26037825  0.69908896  0.35782245  1
  Nb  Nb102  1  0.33189025  0.19594803  0.62403317  1
  Nb  Nb103  1  0.27764239  0.48780778  0.41698375  1
  Nb  Nb104  1  1.00718930  0.34701233  0.81144579  1
  Nb  Nb105  1  0.73025343  0.60558857  0.81491038  1
  Nb  Nb106  1  0.14220432  0.81994000  0.49283184  1
  Nb  Nb107  1  0.26179635  0.26794487  0.45829516  1
  Nb  Nb108  1  0.79165108  0.12431717  0.51498167  1
  Nb  Nb109  1  0.49431862  0.33780400  0.11549414  1
  Nb  Nb110  1  0.75141948  0.94586276  0.40614766  1
  Nb  Nb111  1  0.94469104  0.74791820  0.51072153  1
  Nb  Nb112  1  0.84170595  0.13545941  0.10270373  1
  Nb  Nb113  1  0.05933057  0.15220411  0.13429219  1
  Nb  Nb114  1  0.45378926  0.73972020  0.62523271  1
  Nb  Nb115  1  0.66562880  0.26344792  0.41504480  1
  Nb  Nb116  1  0.05152359  1.04108714  0.28760714  1
  Nb  Nb117  1  0.67300857  0.23713482  0.61470634  1
  Nb  Nb118  1  0.01092158  0.05701866  0.98688826  1
  Nb  Nb119  1  1.02144773  0.85258312  -0.00761427  1
  Nb  Nb120  1  0.52550363  0.64261251  0.82261774  1
  Nb  Nb121  1  0.62040294  0.07891577  0.37346909  1
  Nb  Nb122  1  0.57175573  0.89812100  0.10130535  1
  Nb  Nb123  1  0.69712186  0.01386014  0.18642119  1
  Nb  Nb124  1  0.81904590  0.39134411  0.86300259  1
