# generated using pymatgen
data_Zr2Sc2Nb
_symmetry_space_group_name_H-M   'P 1'
_cell_length_a   14.39544498
_cell_length_b   14.41982628
_cell_length_c   13.87188270
_cell_angle_alpha   89.94611979
_cell_angle_beta   90.82579328
_cell_angle_gamma   88.80169750
_symmetry_Int_Tables_number   1
_chemical_formula_structural   Zr2Sc2Nb
_chemical_formula_sum   'Zr50 Sc50 Nb25'
_cell_volume   2878.59188444
_cell_formula_units_Z   25
loop_
 _symmetry_equiv_pos_site_id
 _symmetry_equiv_pos_as_xyz
  1  'x, y, z'
loop_
 _atom_site_type_symbol
 _atom_site_label
 _atom_site_symmetry_multiplicity
 _atom_site_fract_x
 _atom_site_fract_y
 _atom_site_fract_z
 _atom_site_occupancy
  Zr  Zr0  1  0.63980208  0.72352444  0.92204620  1
  Zr  Zr1  1  0.23435845  0.41971425  0.09762729  1
  Zr  Zr2  1  0.20623964  0.96926837  0.38587053  1
  Zr  Zr3  1  0.44933545  0.17869476  0.92628903  1
  Zr  Zr4  1  0.57136683  0.65167081  0.72658760  1
  Zr  Zr5  1  0.83060404  0.44177785  0.07512136  1
  Zr  Zr6  1  0.85077815  0.69838460  0.96373732  1
  Zr  Zr7  1  0.98074318  0.65704782  0.57795425  1
  Zr  Zr8  1  0.54927779  0.02644808  0.84755816  1
  Zr  Zr9  1  0.72338757  0.83406127  0.09977260  1
  Zr  Zr10  1  0.64927491  0.33859329  0.42985918  1
  Zr  Zr11  1  0.41146659  1.01656925  0.06505158  1
  Zr  Zr12  1  0.21180004  0.72375584  0.86745960  1
  Zr  Zr13  1  0.35260116  0.10508326  0.28225620  1
  Zr  Zr14  1  0.03156974  0.44591472  0.07851588  1
  Zr  Zr15  1  0.73735278  0.32845097  0.62363300  1
  Zr  Zr16  1  0.93156969  0.26361934  0.18806607  1
  Zr  Zr17  1  0.15439095  0.77850138  0.18906088  1
  Zr  Zr18  1  0.15253950  0.15396560  0.22814971  1
  Zr  Zr19  1  0.78096442  0.34072964  0.84155354  1
  Zr  Zr20  1  0.05915239  0.66823553  1.01674439  1
  Zr  Zr21  1  0.90371308  0.84353801  0.30339854  1
  Zr  Zr22  1  0.08483470  0.52261972  0.45238633  1
  Zr  Zr23  1  0.15033765  0.18870252  0.71341081  1
  Zr  Zr24  1  0.06854869  0.95126976  0.23582248  1
  Zr  Zr25  1  0.74893296  0.97373300  0.26250551  1
  Zr  Zr26  1  0.46711444  0.23029665  0.43072739  1
  Zr  Zr27  1  0.18864468  0.59311394  0.68688770  1
  Zr  Zr28  1  0.92449265  0.49804735  0.89147976  1
  Zr  Zr29  1  0.54074257  0.89272717  0.21183072  1
  Zr  Zr30  1  0.34773896  0.72944640  0.69013185  1
  Zr  Zr31  1  0.44961198  0.44453055  0.39223650  1
  Zr  Zr32  1  0.05342542  0.32211521  0.86662835  1
  Zr  Zr33  1  0.72022771  0.26974238  0.10159914  1
  Zr  Zr34  1  0.36697128  0.26003747  0.63418587  1
  Zr  Zr35  1  0.14682719  1.00713069  0.60456046  1
  Zr  Zr36  1  0.12509292  0.57749335  0.23424123  1
  Zr  Zr37  1  0.72371328  0.62430547  0.13074770  1
  Zr  Zr38  1  0.73347142  0.19102489  0.29006696  1
  Zr  Zr39  1  0.43509009  0.35957979  0.80986707  1
  Zr  Zr40  1  0.60962349  0.45187692  0.74848056  1
  Zr  Zr41  1  0.58590451  0.22351709  0.73814416  1
  Zr  Zr42  1  0.95233147  0.45976395  0.29142553  1
  Zr  Zr43  1  0.51703255  0.20044556  0.13132345  1
  Zr  Zr44  1  0.71363434  0.53518022  0.91604901  1
  Zr  Zr45  1  0.34211110  0.91142336  0.87437210  1
  Zr  Zr46  1  0.59610469  0.56597258  0.30519488  1
  Zr  Zr47  1  0.90357714  0.23847295  0.97494365  1
  Zr  Zr48  1  0.93287843  0.29042985  0.69714260  1
  Zr  Zr49  1  0.34091128  0.88270563  0.25764320  1
  Sc  Sc50  1  0.95287720  0.91708120  0.66678929  1
  Sc  Sc51  1  0.80592272  0.54237292  0.70004098  1
  Sc  Sc52  1  0.10123630  0.32996308  0.54102804  1
  Sc  Sc53  1  0.74809913  0.92632810  0.90057454  1
  Sc  Sc54  1  0.33715607  0.80676743  0.06142622  1
  Sc  Sc55  1  0.96715407  0.86578088  0.87251906  1
  Sc  Sc56  1  0.93064659  0.08431299  0.30028597  1
  Sc  Sc57  1  0.92803263  0.87119928  0.08731278  1
  Sc  Sc58  1  1.00187971  0.08876134  0.82351767  1
  Sc  Sc59  1  0.12009667  0.34669303  0.27956285  1
  Sc  Sc60  1  0.87807209  0.25895116  0.43761563  1
  Sc  Sc61  1  0.63118633  0.03251686  0.07498944  1
  Sc  Sc62  1  0.13743620  0.88104175  -0.00504269  1
  Sc  Sc63  1  0.50023886  0.75753681  0.37157594  1
  Sc  Sc64  1  0.49692663  0.04688932  0.62184912  1
  Sc  Sc65  1  0.30562285  0.80648691  0.47185255  1
  Sc  Sc66  1  0.66092805  0.52198914  0.52254589  1
  Sc  Sc67  1  0.41854699  0.51365859  0.17072222  1
  Sc  Sc68  1  0.84970336  0.81792527  0.50913790  1
  Sc  Sc69  1  0.32424794  0.66612976  0.28704090  1
  Sc  Sc70  1  0.75621849  0.42850893  0.27929051  1
  Sc  Sc71  1  0.30208841  0.44522926  0.54667515  1
  Sc  Sc72  1  0.63449699  0.92219553  0.44668290  1
  Sc  Sc73  1  0.69097439  0.93598940  0.66393583  1
  Sc  Sc74  1  1.00656938  0.67390853  0.79299420  1
  Sc  Sc75  1  0.01967671  0.47488512  0.69247348  1
  Sc  Sc76  1  0.65487496  0.14992131  0.52766626  1
  Sc  Sc77  1  0.51597480  0.68903514  0.10994813  1
  Sc  Sc78  1  0.70754329  0.14930103  0.91992737  1
  Sc  Sc79  1  0.32935610  0.09334364  0.76413744  1
  Sc  Sc80  1  0.79550484  0.75390815  0.74397254  1
  Sc  Sc81  1  0.30566272  0.10483921  0.51906638  1
  Sc  Sc82  1  0.66996551  0.72494682  0.54205321  1
  Sc  Sc83  1  0.96835709  0.12018885  0.58990752  1
  Sc  Sc84  1  0.52047783  0.84669317  0.77074741  1
  Sc  Sc85  1  0.70522745  0.75958984  0.30966765  1
  Sc  Sc86  1  0.13926700  0.79632580  0.62510952  1
  Sc  Sc87  1  0.02651272  0.06738121  0.04967722  1
  Sc  Sc88  1  0.79355388  0.12217416  0.71993515  1
  Sc  Sc89  1  0.31776052  0.51728423  0.90655542  1
  Sc  Sc90  1  0.81766569  0.02713502  0.47653962  1
  Sc  Sc91  1  0.22021568  0.39583573  0.73295790  1
  Sc  Sc92  1  0.08334727  0.75197755  0.39981205  1
  Sc  Sc93  1  0.09874554  0.15094812  0.43079671  1
  Sc  Sc94  1  0.84988365  0.62603721  0.39556456  1
  Sc  Sc95  1  0.88269981  0.45015335  0.51291931  1
  Sc  Sc96  1  0.92536901  0.65600530  0.18452626  1
  Sc  Sc97  1  0.25891935  0.29064153  0.90674380  1
  Sc  Sc98  1  0.45588261  0.61445809  0.52724519  1
  Sc  Sc99  1  0.56447289  0.08256412  0.31258869  1
  Nb  Nb100  1  0.55894112  0.34830297  0.24334794  1
  Nb  Nb101  1  0.01265971  0.94659417  0.45557380  1
  Nb  Nb102  1  0.25642062  0.62513579  0.06733448  1
  Nb  Nb103  1  0.23022104  -0.00099121  0.12648769  1
  Nb  Nb104  1  0.43064225  -0.03558795  0.42995063  1
  Nb  Nb105  1  0.27201619  0.28221941  0.41237237  1
  Nb  Nb106  1  0.51464427  0.53462478  0.93235628  1
  Nb  Nb107  1  0.24074009  0.62758011  0.48995072  1
  Nb  Nb108  1  0.51325415  0.38334348  0.58923169  1
  Nb  Nb109  1  0.10830678  0.25372340  0.05482656  1
  Nb  Nb110  1  0.42148207  0.69999946  0.89444031  1
  Nb  Nb111  1  0.60121563  0.33625912  0.94382027  1
  Nb  Nb112  1  0.43144083  0.36306298  0.03761206  1
  Nb  Nb113  1  0.35627073  0.31339348  0.23922716  1
  Nb  Nb114  1  0.82744697  0.07567903  0.10344251  1
  Nb  Nb115  1  0.26292105  0.47514901  0.33205176  1
  Nb  Nb116  1  0.61375265  0.46410840  0.10064891  1
  Nb  Nb117  1  0.20704192  0.08898518  0.93792816  1
  Nb  Nb118  1  0.32972902  0.92364734  0.64458473  1
  Nb  Nb119  1  0.15874397  0.94235572  0.79167855  1
  Nb  Nb120  1  0.12757716  0.51406821  0.89940430  1
  Nb  Nb121  1  0.49394085  0.83030512  0.57330109  1
  Nb  Nb122  1  0.52986374  0.86921309  0.98771598  1
  Nb  Nb123  1  0.30062110  0.19671208  0.08748641  1
  Nb  Nb124  1  0.40461495  0.53507204  0.71941618  1
