# generated using pymatgen
data_Zr2Sc2Nb
_symmetry_space_group_name_H-M   'P 1'
_cell_length_a   13.72792750
_cell_length_b   13.87307639
_cell_length_c   15.05445229
_cell_angle_alpha   92.05083099
_cell_angle_beta   90.40940079
_cell_angle_gamma   90.47346931
_symmetry_Int_Tables_number   1
_chemical_formula_structural   Zr2Sc2Nb
_chemical_formula_sum   'Zr50 Sc50 Nb25'
_cell_volume   2865.08544812
_cell_formula_units_Z   25
loop_
 _symmetry_equiv_pos_site_id
 _symmetry_equiv_pos_as_xyz
  1  'x, y, z'
loop_
 _atom_site_type_symbol
 _atom_site_label
 _atom_site_symmetry_multiplicity
 _atom_site_fract_x
 _atom_site_fract_y
 _atom_site_fract_z
 _atom_site_occupancy
  Zr  Zr0  1  0.30922264  0.08103266  0.03786847  1
  Zr  Zr1  1  0.54386244  0.07250226  0.31953631  1
  Zr  Zr2  1  0.91716441  0.75420116  0.65455814  1
  Zr  Zr3  1  0.42166420  -0.03617497  0.44372733  1
  Zr  Zr4  1  0.03392336  0.29349413  0.17844796  1
  Zr  Zr5  1  0.58920060  0.61250948  0.55805903  1
  Zr  Zr6  1  0.50703295  0.18467210  0.54431988  1
  Zr  Zr7  1  1.00692346  0.59273549  0.97641888  1
  Zr  Zr8  1  0.37533302  0.37351858  0.42640660  1
  Zr  Zr9  1  0.47212551  0.37906929  0.72058208  1
  Zr  Zr10  1  0.93625164  0.56380362  0.15560585  1
  Zr  Zr11  1  0.50719918  0.68984845  0.04675246  1
  Zr  Zr12  1  0.92410467  0.96624907  0.59251400  1
  Zr  Zr13  1  0.55938090  0.02996064  0.68494234  1
  Zr  Zr14  1  0.70389064  0.70553606  0.74024181  1
  Zr  Zr15  1  0.88040934  0.75677345  0.07029459  1
  Zr  Zr16  1  0.75398313  0.10672727  0.31067695  1
  Zr  Zr17  1  0.19475308  0.02723100  0.38181093  1
  Zr  Zr18  1  0.09257457  1.02842517  0.88854247  1
  Zr  Zr19  1  0.79940363  0.51287912  0.95029953  1
  Zr  Zr20  1  0.44858049  0.41850418  0.22219053  1
  Zr  Zr21  1  0.63663761  0.23780548  0.17116235  1
  Zr  Zr22  1  0.47373581  0.18241225  0.78968048  1
  Zr  Zr23  1  0.05134605  0.46185810  0.30856652  1
  Zr  Zr24  1  0.41346690  0.20503516  0.20855772  1
  Zr  Zr25  1  0.12106280  0.63427466  0.82253240  1
  Zr  Zr26  1  0.56349502  0.29526285  0.36025726  1
  Zr  Zr27  1  0.28943430  0.57349382  0.29892576  1
  Zr  Zr28  1  0.13147469  0.22542640  0.97188070  1
  Zr  Zr29  1  0.10623212  0.82912496  0.76074121  1
  Zr  Zr30  1  0.65664874  0.00711608  0.49403151  1
  Zr  Zr31  1  0.34595235  0.16775257  0.40334994  1
  Zr  Zr32  1  0.60191857  0.56892087  0.89406111  1
  Zr  Zr33  1  0.85809633  0.17822717  0.12871903  1
  Zr  Zr34  1  0.73206103  0.90998343  0.69089714  1
  Zr  Zr35  1  0.95305931  0.16630113  0.71028817  1
  Zr  Zr36  1  0.70905527  0.12566493  0.82732249  1
  Zr  Zr37  1  0.72548632  0.80357840  0.52280271  1
  Zr  Zr38  1  0.09289767  0.71341555  0.17981918  1
  Zr  Zr39  1  0.47817964  0.85495516  0.23696674  1
  Zr  Zr40  1  0.11692517  0.12001079  0.55287324  1
  Zr  Zr41  1  0.89242575  0.74681663  0.85369017  1
  Zr  Zr42  1  0.86804940  0.95221715  0.40129443  1
  Zr  Zr43  1  0.91912159  0.16266833  0.48515462  1
  Zr  Zr44  1  0.05337374  0.33909505  0.60879012  1
  Zr  Zr45  1  0.08999536  0.67548559  0.37049149  1
  Zr  Zr46  1  0.52348682  0.79544514  0.85707971  1
  Zr  Zr47  1  0.91289114  0.96351488  0.78785851  1
  Zr  Zr48  1  0.69483535  0.65737062  0.37750672  1
  Zr  Zr49  1  0.97550855  0.37733795  1.00366459  1
  Sc  Sc50  1  0.03717594  1.05384491  0.09597633  1
  Sc  Sc51  1  0.92081881  0.54368883  0.73630842  1
  Sc  Sc52  1  0.49093497  0.60427173  0.73210649  1
  Sc  Sc53  1  0.83250850  0.33099186  0.81389944  1
  Sc  Sc54  1  0.26863677  0.87297301  0.90964673  1
  Sc  Sc55  1  0.31654470  0.68840270  0.47400137  1
  Sc  Sc56  1  0.11658880  0.71429131  0.57588810  1
  Sc  Sc57  1  0.50724312  0.63374335  0.23973944  1
  Sc  Sc58  1  0.86754811  0.95082453  0.98201315  1
  Sc  Sc59  1  0.87021577  0.54960957  0.35209223  1
  Sc  Sc60  1  0.51302796  0.81495726  0.62646870  1
  Sc  Sc61  1  0.07191485  0.88873501  0.47218825  1
  Sc  Sc62  1  0.80997971  0.40113340  0.13469375  1
  Sc  Sc63  1  0.36809429  0.52032866  0.58062508  1
  Sc  Sc64  1  0.67939663  0.87689514  0.31413645  1
  Sc  Sc65  1  0.21483069  0.68593255  0.01736179  1
  Sc  Sc66  1  0.06568132  0.39247821  0.81355320  1
  Sc  Sc67  1  0.71161690  0.63228871  0.13453820  1
  Sc  Sc68  1  0.43010015  0.43845931  0.92836961  1
  Sc  Sc69  1  0.49357367  0.00664436  0.91304791  1
  Sc  Sc70  1  0.28203204  0.48208973  0.76973030  1
  Sc  Sc71  1  0.05698804  0.82836746  0.97375568  1
  Sc  Sc72  1  0.12036179  0.25943807  0.40104872  1
  Sc  Sc73  1  0.84154637  0.96182102  0.18423169  1
  Sc  Sc74  1  0.59323232  0.44172857  0.06358934  1
  Sc  Sc75  1  0.26408639  0.89394851  0.56074606  1
  Sc  Sc76  1  0.29728738  0.70963051  0.69910908  1
  Sc  Sc77  1  0.83136872  0.35742558  0.61554121  1
  Sc  Sc78  1  0.29646292  0.29261757  0.85589925  1
  Sc  Sc79  1  0.15219979  0.50125118  0.13263862  1
  Sc  Sc80  1  0.83294204  0.30419532  0.30555575  1
  Sc  Sc81  1  0.17707934  0.47730672  0.46800321  1
  Sc  Sc82  1  0.19129665  0.14386512  0.21238916  1
  Sc  Sc83  1  0.87433181  0.75450292  0.27153911  1
  Sc  Sc84  1  0.20758273  0.90363694  0.12486369  1
  Sc  Sc85  1  0.29944294  0.32529307  0.06853504  1
  Sc  Sc86  1  0.50285643  0.22338253  -0.00321584  1
  Sc  Sc87  1  0.04609507  0.90719489  0.26748110  1
  Sc  Sc88  1  0.68678526  0.48199901  0.71185944  1
  Sc  Sc89  1  0.24418470  0.35520988  0.26470393  1
  Sc  Sc90  1  0.50926102  0.76455220  0.42030415  1
  Sc  Sc91  1  0.68971539  0.07780457  0.02449335  1
  Sc  Sc92  1  0.64661419  0.86943520  0.08246255  1
  Sc  Sc93  1  0.91513729  0.16427830  0.92510054  1
  Sc  Sc94  1  0.36327558  0.92463304  0.74470295  1
  Sc  Sc95  1  0.36261409  0.64697597  0.89467742  1
  Sc  Sc96  1  0.27623680  0.31470602  0.61148406  1
  Sc  Sc97  1  0.66233799  0.46445517  0.26878266  1
  Sc  Sc98  1  0.71613135  0.23282191  0.48203424  1
  Sc  Sc99  1  0.32507365  0.10217807  0.63431292  1
  Nb  Nb100  1  0.91050891  0.74141662  0.46322227  1
  Nb  Nb101  1  0.28163139  0.08482112  0.84404198  1
  Nb  Nb102  1  0.20153425  0.47130883  0.95110080  1
  Nb  Nb103  1  0.56093072  0.39520998  0.55058633  1
  Nb  Nb104  1  0.14763910  0.19735697  0.75117727  1
  Nb  Nb105  1  0.25957936  0.82797624  0.33288997  1
  Nb  Nb106  1  0.36082535  0.54344599  0.09239344  1
  Nb  Nb107  1  0.64615506  0.25939544  0.68418225  1
  Nb  Nb108  1  0.79724931  0.59503198  0.56338947  1
  Nb  Nb109  1  0.71672805  0.72668655  0.94857450  1
  Nb  Nb110  1  0.76836973  0.11220689  0.63686158  1
  Nb  Nb111  1  0.69829290  0.90828752  0.87191512  1
  Nb  Nb112  1  0.62077197  0.34796187  0.86260196  1
  Nb  Nb113  1  0.34653940  -0.00076872  0.24253150  1
  Nb  Nb114  1  0.98030320  0.55009880  0.52817656  1
  Nb  Nb115  1  0.32119411  0.73085064  0.17830780  1
  Nb  Nb116  1  0.74008619  0.28497284  -0.01268836  1
  Nb  Nb117  1  0.71973498  0.44858076  0.45877417  1
  Nb  Nb118  1  0.13603793  0.52994180  0.65393595  1
  Nb  Nb119  1  0.98277440  0.11739428  0.30102065  1
  Nb  Nb120  1  0.41009054  0.87149037  0.05392554  1
  Nb  Nb121  1  0.50732197  0.04009101  0.12462883  1
  Nb  Nb122  1  0.13074091  1.00281685  0.69556549  1
  Nb  Nb123  1  -0.06303919  0.37449685  0.45247867  1
  Nb  Nb124  1  0.50317047  0.52761980  0.40463018  1
