# generated using pymatgen
data_Zr2Sc2Nb
_symmetry_space_group_name_H-M   'P 1'
_cell_length_a   14.24441458
_cell_length_b   14.07887263
_cell_length_c   14.32799250
_cell_angle_alpha   88.34399527
_cell_angle_beta   89.20111048
_cell_angle_gamma   90.13186995
_symmetry_Int_Tables_number   1
_chemical_formula_structural   Zr2Sc2Nb
_chemical_formula_sum   'Zr50 Sc50 Nb25'
_cell_volume   2871.92172858
_cell_formula_units_Z   25
loop_
 _symmetry_equiv_pos_site_id
 _symmetry_equiv_pos_as_xyz
  1  'x, y, z'
loop_
 _atom_site_type_symbol
 _atom_site_label
 _atom_site_symmetry_multiplicity
 _atom_site_fract_x
 _atom_site_fract_y
 _atom_site_fract_z
 _atom_site_occupancy
  Zr  Zr0  1  0.49743458  0.92994428  0.10088879  1
  Zr  Zr1  1  0.87651782  0.79123496  0.18582853  1
  Zr  Zr2  1  0.78177146  0.49080395  0.41638458  1
  Zr  Zr3  1  0.14115326  0.33056368  0.79016278  1
  Zr  Zr4  1  0.66254928  0.18709319  0.55461791  1
  Zr  Zr5  1  0.80970277  0.48002460  0.63542594  1
  Zr  Zr6  1  0.53192008  0.73367149  0.24405526  1
  Zr  Zr7  1  0.23320731  0.25741186  0.42598493  1
  Zr  Zr8  1  0.01305649  0.92926772  0.28819092  1
  Zr  Zr9  1  0.50593968  0.25613728  0.89412241  1
  Zr  Zr10  1  0.09446260  0.12115560  0.09279581  1
  Zr  Zr11  1  0.15009839  0.71088061  0.98391912  1
  Zr  Zr12  1  0.67210233  0.87765018  0.76378659  1
  Zr  Zr13  1  0.49039543  0.50188353  0.18767094  1
  Zr  Zr14  1  0.43410767  0.28270584  0.25955302  1
  Zr  Zr15  1  0.33614886  0.18647456  0.76414685  1
  Zr  Zr16  1  0.47289906  0.86921253  0.83592060  1
  Zr  Zr17  1  0.09186700  0.75946785  0.18509618  1
  Zr  Zr18  1  0.34353507  0.77476198  0.67489014  1
  Zr  Zr19  1  0.87783380  0.17722713  0.09095042  1
  Zr  Zr20  1  0.96220814  0.05112223  0.89280960  1
  Zr  Zr21  1  0.06150908  0.35988394  0.35787167  1
  Zr  Zr22  1  0.46586975  0.49363005  0.90892936  1
  Zr  Zr23  1  0.72749877  0.69559221  0.33463266  1
  Zr  Zr24  1  0.78360950  0.76108034  0.94561035  1
  Zr  Zr25  1  0.97704362  0.68025464  0.85818304  1
  Zr  Zr26  1  0.94024079  0.19021674  0.69843275  1
  Zr  Zr27  1  0.37383960  0.55616860  0.72943752  1
  Zr  Zr28  1  0.46963384  0.25222583  0.48333293  1
  Zr  Zr29  1  0.02839095  0.32782695  0.15253189  1
  Zr  Zr30  1  0.06105877  0.35645007  0.59983340  1
  Zr  Zr31  1  0.33338537  0.09169959  0.35974278  1
  Zr  Zr32  1  0.59772963  0.67646622  0.87037180  1
  Zr  Zr33  1  0.53684020  0.70953366  0.67673281  1
  Zr  Zr34  1  0.28740455  0.20389373  0.97398925  1
  Zr  Zr35  1  0.78020751  0.69777962  0.72002717  1
  Zr  Zr36  1  0.60464739  0.05746168  0.89975420  1
  Zr  Zr37  1  -0.00098580  0.54604433  0.70499875  1
  Zr  Zr38  1  0.12051161  0.92550848  0.06051148  1
  Zr  Zr39  1  0.78212173  0.19403769  0.90611305  1
  Zr  Zr40  1  0.65986983  0.61737885  0.54254512  1
  Zr  Zr41  1  0.48786745  0.92247022  0.63130906  1
  Zr  Zr42  1  0.48363843  0.75615240  0.46210468  1
  Zr  Zr43  1  0.83292237  0.03923821  0.25419641  1
  Zr  Zr44  1  0.82188093  0.87566640  0.38765134  1
  Zr  Zr45  1  0.71278259  0.28603755  0.71712005  1
  Zr  Zr46  1  0.35635510  0.68741556  0.88635868  1
  Zr  Zr47  1  0.24794246  0.21239265  0.19800329  1
  Zr  Zr48  1  0.63037878  0.51253873  0.01931720  1
  Zr  Zr49  1  0.50079182  0.33518960  0.69473254  1
  Sc  Sc50  1  0.48205248  0.69611355  0.04930192  1
  Sc  Sc51  1  0.14049806  0.59464803  0.33007933  1
  Sc  Sc52  1  0.69045203  0.68403231  0.11769384  1
  Sc  Sc53  1  0.14820711  1.02828117  0.46798406  1
  Sc  Sc54  1  0.79660918  0.54568942  0.87502708  1
  Sc  Sc55  1  0.87629964  0.06735440  0.48430725  1
  Sc  Sc56  1  0.86134032  0.68676719  0.52763269  1
  Sc  Sc57  1  0.61669672  0.50760247  0.73581075  1
  Sc  Sc58  1  0.17031571  0.68823651  0.74480382  1
  Sc  Sc59  1  0.38988917  0.88710561  0.30560540  1
  Sc  Sc60  1  0.20721262  0.53072107  0.88109318  1
  Sc  Sc61  1  0.25329702  0.42494342  0.23865451  1
  Sc  Sc62  1  1.01048993  0.47310540  0.94109513  1
  Sc  Sc63  1  0.29082273  0.97508749  0.72308624  1
  Sc  Sc64  1  0.10192869  0.87640020  0.81715062  1
  Sc  Sc65  1  0.51702484  0.03191328  0.46315224  1
  Sc  Sc66  1  0.62020698  0.30360554  0.10620598  1
  Sc  Sc67  1  0.34851870  0.62586941  0.29725812  1
  Sc  Sc68  1  0.15491125  0.15059871  0.65454717  1
  Sc  Sc69  1  0.62481507  0.33289332  0.34762680  1
  Sc  Sc70  1  0.04377481  0.14544015  0.29790463  1
  Sc  Sc71  1  0.77266427  0.06275971  0.72050458  1
  Sc  Sc72  1  0.69369007  0.12528524  0.36472005  1
  Sc  Sc73  1  0.29578550  0.66077200  0.50833216  1
  Sc  Sc74  1  0.10954982  0.54576245  0.12265349  1
  Sc  Sc75  1  0.30003802  0.78574924  0.14271765  1
  Sc  Sc76  1  0.67717852  0.08852267  0.09956349  1
  Sc  Sc77  1  0.56436641  0.54906014  0.37345560  1
  Sc  Sc78  1  0.16866022  0.07544141  0.87306177  1
  Sc  Sc79  1  0.85385286  0.28041629  0.29189287  1
  Sc  Sc80  1  0.40299079  0.36390180  0.06091090  1
  Sc  Sc81  1  0.71787596  0.48656619  0.21472917  1
  Sc  Sc82  1  0.66223790  0.84280475  0.53134906  1
  Sc  Sc83  1  0.19220948  0.37421806  0.02505810  1
  Sc  Sc84  1  0.01749026  0.25064387  0.94010533  1
  Sc  Sc85  1  0.98442204  0.50705200  0.48202297  1
  Sc  Sc86  1  0.45274956  0.51081177  0.55390218  1
  Sc  Sc87  1  0.30179234  0.33532402  0.60864563  1
  Sc  Sc88  1  0.89192405  0.36637141  0.80288733  1
  Sc  Sc89  1  0.93171380  0.50790311  0.25279172  1
  Sc  Sc90  1  0.90788071  0.61951835  0.06390220  1
  Sc  Sc91  1  0.51697987  0.09056847  0.24899885  1
  Sc  Sc92  1  0.31321633  0.02486068  0.10861657  1
  Sc  Sc93  1  0.62077969  0.90850566  0.31723690  1
  Sc  Sc94  1  0.28890695  0.88244694  0.93807565  1
  Sc  Sc95  1  0.52748741  0.11203334  0.70638390  1
  Sc  Sc96  1  0.82790319  0.38761845  0.04490505  1
  Sc  Sc97  1  0.96793391  0.70382035  0.35648386  1
  Sc  Sc98  1  0.84573739  0.30079297  0.51296791  1
  Sc  Sc99  1  0.88749549  0.88366346  0.79881550  1
  Nb  Nb100  1  0.18396255  0.80892099  0.38413744  1
  Nb  Nb101  1  -0.03684192  0.83176035  -0.00726437  1
  Nb  Nb102  1  1.00572731  0.86542901  0.48803351  1
  Nb  Nb103  1  0.99031212  0.76896978  0.66631581  1
  Nb  Nb104  1  0.46945161  0.15557587  0.06645162  1
  Nb  Nb105  1  0.09722374  0.66703544  0.53381813  1
  Nb  Nb106  1  0.31425402  0.56779942  0.07078489  1
  Nb  Nb107  1  0.66938318  0.37026863  0.89089676  1
  Nb  Nb108  1  0.84221419  0.88962466  0.60473833  1
  Nb  Nb109  1  0.21101275  0.46798307  0.46736619  1
  Nb  Nb110  1  0.91878358  -0.01818758  0.09523580  1
  Nb  Nb111  1  1.00694206  -0.00338191  0.64963142  1
  Nb  Nb112  1  0.61664176  0.85886604  0.97403327  1
  Nb  Nb113  1  0.32889493  0.37389141  0.83028403  1
  Nb  Nb114  1  0.03063519  0.19687610  0.49896402  1
  Nb  Nb115  1  0.32665932  0.91084639  0.50035878  1
  Nb  Nb116  1  0.40769639  0.05012146  0.90776521  1
  Nb  Nb117  1  0.39101544  0.42332622  0.39056248  1
  Nb  Nb118  1  0.78424096  0.97651929  0.95189496  1
  Nb  Nb119  1  0.19586826  0.50678099  0.65680316  1
  Nb  Nb120  1  0.19598777  0.97492012  0.26217183  1
  Nb  Nb121  1  0.63621331  0.39922709  0.54205898  1
  Nb  Nb122  1  0.71829255  0.88937501  0.13789716  1
  Nb  Nb123  1  0.34663412  0.10679618  0.56654577  1
  Nb  Nb124  1  0.16402129  0.85212286  0.59722709  1
