# generated using pymatgen
data_Zr2Sc2Nb
_symmetry_space_group_name_H-M   'P 1'
_cell_length_a   13.93906897
_cell_length_b   14.31987460
_cell_length_c   14.39084366
_cell_angle_alpha   90.19091810
_cell_angle_beta   91.45522650
_cell_angle_gamma   90.43874892
_symmetry_Int_Tables_number   1
_chemical_formula_structural   Zr2Sc2Nb
_chemical_formula_sum   'Zr50 Sc50 Nb25'
_cell_volume   2871.46619363
_cell_formula_units_Z   25
loop_
 _symmetry_equiv_pos_site_id
 _symmetry_equiv_pos_as_xyz
  1  'x, y, z'
loop_
 _atom_site_type_symbol
 _atom_site_label
 _atom_site_symmetry_multiplicity
 _atom_site_fract_x
 _atom_site_fract_y
 _atom_site_fract_z
 _atom_site_occupancy
  Zr  Zr0  1  0.44021174  0.09165417  0.16399926  1
  Zr  Zr1  1  0.49627483  0.27167085  0.84837279  1
  Zr  Zr2  1  0.90077322  0.41174250  0.34032464  1
  Zr  Zr3  1  0.20858429  0.85022077  0.56876761  1
  Zr  Zr4  1  0.24398392  0.44660486  0.55170509  1
  Zr  Zr5  1  0.95450462  0.61683856  0.75786546  1
  Zr  Zr6  1  0.45414239  0.19000015  0.41753178  1
  Zr  Zr7  1  0.73001884  0.52384145  0.65627038  1
  Zr  Zr8  1  0.25192701  0.70517878  0.07166137  1
  Zr  Zr9  1  -0.00800064  0.18079544  0.56613940  1
  Zr  Zr10  1  0.07551962  0.58780998  0.11270464  1
  Zr  Zr11  1  0.30087266  0.08284023  0.30146515  1
  Zr  Zr12  1  0.25530687  0.31242490  0.34937522  1
  Zr  Zr13  1  0.56067241  0.89764744  0.21867615  1
  Zr  Zr14  1  0.31710955  0.02492867  0.50738571  1
  Zr  Zr15  1  0.14792850  0.86855303  0.76536921  1
  Zr  Zr16  1  0.93099978  0.24587290  1.00662395  1
  Zr  Zr17  1  0.18954469  0.66306472  0.28408753  1
  Zr  Zr18  1  0.79628317  0.90699790  0.69793134  1
  Zr  Zr19  1  0.66485956  0.71795116  0.55151160  1
  Zr  Zr20  1  0.21207035  0.02061590  0.10046811  1
  Zr  Zr21  1  0.91268465  0.45100583  0.13238741  1
  Zr  Zr22  1  0.31579319  0.88822741  0.94633834  1
  Zr  Zr23  1  0.36702961  0.65519282  0.89384350  1
  Zr  Zr24  1  0.11053861  0.36879082  0.07606470  1
  Zr  Zr25  1  0.98300722  1.00622386  0.70249340  1
  Zr  Zr26  1  0.75148530  0.51963184  0.23663624  1
  Zr  Zr27  1  0.43537870  0.54975802  0.06700637  1
  Zr  Zr28  1  0.04237609  0.24815223  0.23717671  1
  Zr  Zr29  1  0.90081516  0.61488278  0.53937297  1
  Zr  Zr30  1  0.15331970  0.64647366  0.64549637  1
  Zr  Zr31  1  0.64487561  0.13298094  0.47972651  1
  Zr  Zr32  1  0.16827289  0.06284965  0.84105787  1
  Zr  Zr33  1  0.93520774  0.02676740  0.91488401  1
  Zr  Zr34  1  0.71472745  0.95484710  0.89941381  1
  Zr  Zr35  1  0.34394565  0.88684977  0.17581307  1
  Zr  Zr36  1  0.26602633  0.29316195  0.89064016  1
  Zr  Zr37  1  0.64273805  0.91586676  0.51055195  1
  Zr  Zr38  1  0.11297094  0.16822338  -0.00380689  1
  Zr  Zr39  1  0.97652676  0.19095570  0.78898010  1
  Zr  Zr40  1  0.04129602  0.96380105  0.49697643  1
  Zr  Zr41  1  0.56511342  0.64706058  0.74860495  1
  Zr  Zr42  1  0.28066114  0.47467100  0.17865436  1
  Zr  Zr43  1  0.05643618  0.79065499  0.15892450  1
  Zr  Zr44  1  0.74275391  0.75418036  0.88018284  1
  Zr  Zr45  1  0.04487030  0.45264955  0.65999625  1
  Zr  Zr46  1  0.07004487  0.77202102  0.41455420  1
  Zr  Zr47  1  0.72404637  0.97792097  0.33558416  1
  Zr  Zr48  1  0.25802986  0.23082123  0.14785896  1
  Zr  Zr49  1  0.29994746  0.66540171  0.48525896  1
  Sc  Sc50  1  0.87308767  0.39229627  0.55159172  1
  Sc  Sc51  1  0.88098554  0.38181902  0.77724748  1
  Sc  Sc52  1  0.59238880  0.46160178  0.89972863  1
  Sc  Sc53  1  0.51469088  0.51663327  0.31005284  1
  Sc  Sc54  1  0.65430103  0.34980534  0.53855295  1
  Sc  Sc55  1  0.30561089  0.84811648  0.37148114  1
  Sc  Sc56  1  0.14287460  0.67911931  0.87242648  1
  Sc  Sc57  1  0.74809652  1.02767764  0.10858790  1
  Sc  Sc58  1  0.76877047  0.36816078  0.97213605  1
  Sc  Sc59  1  0.59937544  0.65415608  0.17348615  1
  Sc  Sc60  1  0.68583517  0.81256686  0.07445171  1
  Sc  Sc61  1  0.82232364  0.22838067  0.41569179  1
  Sc  Sc62  1  0.09335528  0.88198775  -0.02469463  1
  Sc  Sc63  1  0.44275624  0.31926181  0.25044340  1
  Sc  Sc64  1  0.67998682  0.32567382  0.75782072  1
  Sc  Sc65  1  0.35184639  0.35258875  0.69831546  1
  Sc  Sc66  1  0.35503267  0.94772719  0.73040212  1
  Sc  Sc67  1  0.52735270  0.05075653  0.83400548  1
  Sc  Sc68  1  0.73030884  0.73926583  0.32148911  1
  Sc  Sc69  1  0.76360495  0.16462391  0.87055504  1
  Sc  Sc70  1  0.93129584  0.07589706  0.33283351  1
  Sc  Sc71  1  0.67402911  0.07650252  0.69104380  1
  Sc  Sc72  1  0.44467742  0.82704364  0.55675233  1
  Sc  Sc73  1  0.97922256  0.49423273  0.93472195  1
  Sc  Sc74  1  0.62078486  0.14153301  0.25816418  1
  Sc  Sc75  1  0.60066156  0.18346838  0.02803594  1
  Sc  Sc76  1  0.51304624  0.23103617  0.63071962  1
  Sc  Sc77  1  0.41410891  0.33528953  0.03627042  1
  Sc  Sc78  1  0.89034842  0.87442121  0.25084519  1
  Sc  Sc79  1  0.51227224  0.83025113  0.87571541  1
  Sc  Sc80  1  0.07312921  0.33873861  0.45765769  1
  Sc  Sc81  1  0.80663827  0.25901098  0.18638300  1
  Sc  Sc82  1  0.83340879  0.03699493  0.52838572  1
  Sc  Sc83  1  0.98411836  0.04313941  0.12603540  1
  Sc  Sc84  1  0.13793636  0.13571956  0.41727192  1
  Sc  Sc85  1  0.51741421  0.75621094  0.37435259  1
  Sc  Sc86  1  0.15306973  0.27056931  0.68723526  1
  Sc  Sc87  1  0.34345160  0.14689056  0.73043266  1
  Sc  Sc88  1  -0.00797922  0.79293722  0.63015747  1
  Sc  Sc89  1  0.64988151  0.34260238  0.33389123  1
  Sc  Sc90  1  0.12098456  0.94977205  0.28989900  1
  Sc  Sc91  1  0.09286478  0.55667749  0.45402940  1
  Sc  Sc92  1  0.36188792  0.11122325  0.96473872  1
  Sc  Sc93  1  0.71665554  0.53800264  0.43784833  1
  Sc  Sc94  1  0.50098665  0.57862414  0.52009649  1
  Sc  Sc95  1  0.93919151  0.68925478  0.96872090  1
  Sc  Sc96  1  0.94724637  0.62467357  0.30955560  1
  Sc  Sc97  1  0.34010210  0.74916531  0.71959194  1
  Sc  Sc98  1  0.85095244  0.82665000  0.47562342  1
  Sc  Sc99  1  0.61145381  0.41026732  0.11736221  1
  Nb  Nb100  1  0.58079591  0.64796317  0.95868291  1
  Nb  Nb101  1  0.08017080  0.34492035  0.86862416  1
  Nb  Nb102  1  0.85029917  0.69022823  0.14573169  1
  Nb  Nb103  1  0.59853124  0.86363361  0.70664118  1
  Nb  Nb104  1  0.43532147  0.38530701  0.48846794  1
  Nb  Nb105  1  0.88193633  0.87178447  0.03212716  1
  Nb  Nb106  1  0.48924802  -0.01102508  0.37738346  1
  Nb  Nb107  1  0.22727773  0.49663714  0.97462051  1
  Nb  Nb108  1  0.52440034  0.96720299  0.03196390  1
  Nb  Nb109  1  0.31173828  0.50738797  0.37042898  1
  Nb  Nb110  1  0.36308247  0.55909537  0.67667343  1
  Nb  Nb111  1  0.10197699  0.45427361  0.27544162  1
  Nb  Nb112  1  0.49380420  0.03057645  0.59528097  1
  Nb  Nb113  1  0.45963522  0.76983162  0.06595700  1
  Nb  Nb114  1  0.20252037  0.48850783  0.78449809  1
  Nb  Nb115  1  0.29154431  0.22953284  0.53593836  1
  Nb  Nb116  1  0.16776920  0.06358870  0.63521541  1
  Nb  Nb117  1  0.78937960  0.71510687  0.69623195  1
  Nb  Nb118  1  0.93818162  0.83315673  0.82903825  1
  Nb  Nb119  1  0.52858152  0.44791526  0.68681320  1
  Nb  Nb120  1  0.75296203  0.57281921  0.03231728  1
  Nb  Nb121  1  0.77007802  0.55634607  0.84573525  1
  Nb  Nb122  1  0.39751132  0.47009084  0.86000907  1
  Nb  Nb123  1  0.38321376  0.67371408  0.23745478  1
  Nb  Nb124  1  0.80910730  0.21510698  0.64167206  1
