# generated using pymatgen
data_Zr2Sc2Nb
_symmetry_space_group_name_H-M   'P 1'
_cell_length_a   14.26607221
_cell_length_b   14.17668622
_cell_length_c   14.22975828
_cell_angle_alpha   89.69779933
_cell_angle_beta   86.65060365
_cell_angle_gamma   88.25841936
_symmetry_Int_Tables_number   1
_chemical_formula_structural   Zr2Sc2Nb
_chemical_formula_sum   'Zr50 Sc50 Nb25'
_cell_volume   2871.64565087
_cell_formula_units_Z   25
loop_
 _symmetry_equiv_pos_site_id
 _symmetry_equiv_pos_as_xyz
  1  'x, y, z'
loop_
 _atom_site_type_symbol
 _atom_site_label
 _atom_site_symmetry_multiplicity
 _atom_site_fract_x
 _atom_site_fract_y
 _atom_site_fract_z
 _atom_site_occupancy
  Zr  Zr0  1  0.47488711  0.91555236  0.44636929  1
  Zr  Zr1  1  0.39533825  0.25839934  0.92311032  1
  Zr  Zr2  1  0.32713181  0.21483253  0.72964438  1
  Zr  Zr3  1  0.06128762  0.78535753  0.27953099  1
  Zr  Zr4  1  0.57401680  0.38605295  0.92134905  1
  Zr  Zr5  1  0.86530565  0.60403869  0.08072484  1
  Zr  Zr6  1  0.57907564  0.38367531  0.45936616  1
  Zr  Zr7  1  1.01067845  0.10769069  0.54654353  1
  Zr  Zr8  1  0.91119156  0.10600539  0.74441468  1
  Zr  Zr9  1  0.39271337  0.47589919  0.33246724  1
  Zr  Zr10  1  0.73924546  0.53752805  0.41116972  1
  Zr  Zr11  1  1.00364489  0.54107973  0.87542732  1
  Zr  Zr12  1  0.19646834  0.22782790  0.54654620  1
  Zr  Zr13  1  0.48856149  0.62864891  0.17879125  1
  Zr  Zr14  1  0.07618424  0.60722374  0.41480010  1
  Zr  Zr15  1  0.09186368  0.33967367  0.20678119  1
  Zr  Zr16  1  0.79244093  0.60968196  0.66762458  1
  Zr  Zr17  1  0.97970111  0.30918762  0.84604283  1
  Zr  Zr18  1  0.29345054  0.54676181  0.13388821  1
  Zr  Zr19  1  0.38930047  0.06955578  0.58981698  1
  Zr  Zr20  1  0.87949687  0.94263406  0.57074438  1
  Zr  Zr21  1  0.51429324  0.61968588  0.95303233  1
  Zr  Zr22  1  0.95939031  0.39862232  0.05868801  1
  Zr  Zr23  1  0.61376149  0.84546074  0.25746943  1
  Zr  Zr24  1  0.29929889  0.65442013  0.42590345  1
  Zr  Zr25  1  0.78614555  0.05220284  0.89909031  1
  Zr  Zr26  1  0.85597532  0.09073957  0.41118902  1
  Zr  Zr27  1  0.90001051  0.48793618  0.51860588  1
  Zr  Zr28  1  0.61135208  0.72833051  0.79540032  1
  Zr  Zr29  1  0.78789239  0.84722943  0.92498458  1
  Zr  Zr30  1  0.24439324  0.29650288  0.35120681  1
  Zr  Zr31  1  0.79376771  0.63117842  0.88059498  1
  Zr  Zr32  1  0.04169498  0.08876221  0.92357753  1
  Zr  Zr33  1  0.44016849  0.06707631  0.82594348  1
  Zr  Zr34  1  0.41136880  0.86592461  0.90289599  1
  Zr  Zr35  1  0.45256148  0.27702840  0.30262455  1
  Zr  Zr36  1  0.39941335  0.29085461  0.52761181  1
  Zr  Zr37  1  0.48175905  0.42371702  0.11688111  1
  Zr  Zr38  1  0.05474217  0.56739422  0.18318580  1
  Zr  Zr39  1  0.83782751  0.86067884  0.36850515  1
  Zr  Zr40  1  0.94363197  0.29594048  0.61985053  1
  Zr  Zr41  1  0.06495263  0.93954959  0.67996511  1
  Zr  Zr42  1  0.77633194  0.16238065  0.58992465  1
  Zr  Zr43  1  0.88005131  1.00266704  1.06471546  1
  Zr  Zr44  1  0.31296733  0.11265412  0.17149399  1
  Zr  Zr45  1  0.61363427  0.57569743  0.59259171  1
  Zr  Zr46  1  0.26508021  0.07598857  0.95405477  1
  Zr  Zr47  1  0.83035309  0.81585237  0.15415769  1
  Zr  Zr48  1  0.36424479  0.47166484  0.94142117  1
  Zr  Zr49  1  0.06276064  0.90861160  0.07555796  1
  Sc  Sc50  1  0.26453423  -0.01397875  0.75058915  1
  Sc  Sc51  1  0.10153597  0.13343677  0.12093272  1
  Sc  Sc52  1  0.14360209  0.69669883  0.04571394  1
  Sc  Sc53  1  0.60102685  0.16224217  0.91025040  1
  Sc  Sc54  1  0.88353430  0.22171914  0.20478672  1
  Sc  Sc55  1  0.69715596  0.12833943  0.09366373  1
  Sc  Sc56  1  0.24915893  0.45407765  0.51709323  1
  Sc  Sc57  1  0.34501065  0.08819931  0.38592683  1
  Sc  Sc58  1  0.31295625  0.42400494  0.74118033  1
  Sc  Sc59  1  0.99542425  0.25313121  0.38831679  1
  Sc  Sc60  1  0.66845427  0.24152039  0.27755600  1
  Sc  Sc61  1  0.65949157  0.73669382  0.04478142  1
  Sc  Sc62  1  0.17769548  0.27558631  0.91956771  1
  Sc  Sc63  1  0.67673036  0.97355445  0.48538560  1
  Sc  Sc64  1  0.66803061  0.52820206  0.06199818  1
  Sc  Sc65  1  0.09521538  0.73588993  0.76797602  1
  Sc  Sc66  1  0.59902022  0.93099630  0.89146536  1
  Sc  Sc67  1  0.80509454  0.43920091  0.21010327  1
  Sc  Sc68  1  0.03105254  0.58073981  0.63957653  1
  Sc  Sc69  1  0.49588260  0.89833464  0.68766869  1
  Sc  Sc70  1  0.79698914  0.31867320  0.41941943  1
  Sc  Sc71  1  0.71836304  0.97988477  0.71646899  1
  Sc  Sc72  1  0.88416778  0.65411081  0.30049358  1
  Sc  Sc73  1  0.57135359  0.15118546  0.67525524  1
  Sc  Sc74  1  0.56199308  0.15297108  0.45507213  1
  Sc  Sc75  1  0.27423841  0.73875708  0.21881859  1
  Sc  Sc76  1  -0.02851066  0.00040134  0.25262201  1
  Sc  Sc77  1  0.88308543  0.79237740  0.73066956  1
  Sc  Sc78  1  -0.03201666  0.74655471  0.96236441  1
  Sc  Sc79  1  0.28119332  0.90147011  0.07223804  1
  Sc  Sc80  1  0.18023657  0.85957266  0.89719022  1
  Sc  Sc81  1  0.29913590  0.84510475  0.59461731  1
  Sc  Sc82  1  0.69351419  0.79564893  0.60704695  1
  Sc  Sc83  1  0.15266973  0.46787142  1.00701333  1
  Sc  Sc84  1  0.46617563  0.72017456  0.56026358  1
  Sc  Sc85  1  0.29073931  0.32502897  0.12395195  1
  Sc  Sc86  1  0.53537582  0.06036592  0.24916690  1
  Sc  Sc87  1  0.45241893  0.58015853  0.75778594  1
  Sc  Sc88  1  0.50188091  0.21873317  0.10093372  1
  Sc  Sc89  1  0.86425080  0.22155478  -0.00940436  1
  Sc  Sc90  1  0.52183011  0.36452657  0.70317328  1
  Sc  Sc91  1  0.25507028  0.62235913  0.64280054  1
  Sc  Sc92  1  0.74608111  0.01564173  0.25992923  1
  Sc  Sc93  1  0.72711119  0.38750966  0.61991841  1
  Sc  Sc94  1  0.13893780  0.10861942  0.35137697  1
  Sc  Sc95  1  0.89574375  0.72219265  0.50859253  1
  Sc  Sc96  1  0.11467354  0.39407382  0.70382297  1
  Sc  Sc97  1  0.11176307  0.77640863  0.53857066  1
  Sc  Sc98  1  0.75522804  0.27837565  0.80341787  1
  Sc  Sc99  1  0.12062464  0.15544858  0.73283081  1
  Nb  Nb100  1  0.97051978  0.92667949  0.86368941  1
  Nb  Nb101  1  0.69272309  0.32740783  0.07662315  1
  Nb  Nb102  1  0.65353911  0.94192421  0.08098311  1
  Nb  Nb103  1  0.96368822  0.45168201  0.32356899  1
  Nb  Nb104  1  0.47340621  0.81755345  0.09948783  1
  Nb  Nb105  1  0.07809104  0.40043536  0.47630462  1
  Nb  Nb106  1  0.53646587  0.59393449  0.39187303  1
  Nb  Nb107  1  0.18065977  0.94979976  0.24359683  1
  Nb  Nb108  1  0.80749053  0.43232846  0.93706779  1
  Nb  Nb109  1  0.04157039  0.93118520  0.43045478  1
  Nb  Nb110  1  0.46578976  0.02153685  0.04462279  1
  Nb  Nb111  1  0.33707720  0.69711217  -0.01142022  1
  Nb  Nb112  1  0.68639401  0.64698795  0.23962043  1
  Nb  Nb113  1  0.88005494  0.45309543  0.74620084  1
  Nb  Nb114  1  0.65902162  0.74280489  0.42066498  1
  Nb  Nb115  1  0.25737242  0.87180577  0.39465872  1
  Nb  Nb116  1  0.19626892  0.01328883  0.53510696  1
  Nb  Nb117  1  0.38982564  0.92614479  0.24358901  1
  Nb  Nb118  1  0.19031040  0.48775219  0.30565081  1
  Nb  Nb119  1  0.43181929  0.50591701  0.55303293  1
  Nb  Nb120  1  0.45106674  0.75718054  0.33176245  1
  Nb  Nb121  1  0.66347248  0.50731343  0.79805406  1
  Nb  Nb122  1  0.22642218  0.60213247  0.85820965  1
  Nb  Nb123  1  0.60503230  0.44566582  0.26228723  1
  Nb  Nb124  1  0.33518408  0.75192787  0.77707950  1
