# generated using pymatgen
data_Zr2Sc2Nb
_symmetry_space_group_name_H-M   'P 1'
_cell_length_a   14.22073323
_cell_length_b   14.12127766
_cell_length_c   14.31002011
_cell_angle_alpha   90.42144686
_cell_angle_beta   91.69484994
_cell_angle_gamma   90.54457177
_symmetry_Int_Tables_number   1
_chemical_formula_structural   Zr2Sc2Nb
_chemical_formula_sum   'Zr50 Sc50 Nb25'
_cell_volume   2872.19483818
_cell_formula_units_Z   25
loop_
 _symmetry_equiv_pos_site_id
 _symmetry_equiv_pos_as_xyz
  1  'x, y, z'
loop_
 _atom_site_type_symbol
 _atom_site_label
 _atom_site_symmetry_multiplicity
 _atom_site_fract_x
 _atom_site_fract_y
 _atom_site_fract_z
 _atom_site_occupancy
  Zr  Zr0  1  0.95714010  0.24824238  0.64520118  1
  Zr  Zr1  1  0.70204502  0.94568153  0.85337444  1
  Zr  Zr2  1  0.92127456  0.47002142  0.90111749  1
  Zr  Zr3  1  0.38497696  0.68069101  0.03102126  1
  Zr  Zr4  1  0.15414828  0.16854223  0.17893214  1
  Zr  Zr5  1  0.89884172  0.66570407  0.70231328  1
  Zr  Zr6  1  0.57553268  0.20057012  0.07049993  1
  Zr  Zr7  1  0.93407554  1.05187348  0.54625198  1
  Zr  Zr8  1  0.47800204  0.79255975  0.19351714  1
  Zr  Zr9  1  0.13726930  0.60908361  0.29246646  1
  Zr  Zr10  1  0.15048728  0.64345610  0.96838999  1
  Zr  Zr11  1  0.19448062  0.75549007  0.51943505  1
  Zr  Zr12  1  0.76822245  0.35048173  0.29799946  1
  Zr  Zr13  1  0.32157135  0.61431674  0.83768484  1
  Zr  Zr14  1  0.51075067  0.07912004  0.48241259  1
  Zr  Zr15  1  0.40572969  0.72673893  0.52639003  1
  Zr  Zr16  1  0.87102069  0.05954417  0.19764238  1
  Zr  Zr17  1  0.96981295  0.47097308  0.60722586  1
  Zr  Zr18  1  0.59334097  0.63889948  0.09419791  1
  Zr  Zr19  1  0.79451137  0.33312602  0.52970352  1
  Zr  Zr20  1  0.86195262  0.44563308  0.10986790  1
  Zr  Zr21  1  0.41427896  0.33776556  0.04774032  1
  Zr  Zr22  1  0.51688231  0.26659692  0.60138235  1
  Zr  Zr23  1  0.06135055  0.88756608  0.95433761  1
  Zr  Zr24  1  -0.01844333  0.26344045  0.03940263  1
  Zr  Zr25  1  0.38124566  0.40827864  0.74808846  1
  Zr  Zr26  1  0.63369548  0.42267914  0.06581256  1
  Zr  Zr27  1  0.47864312  0.60293370  0.69170418  1
  Zr  Zr28  1  0.10362064  0.40364133  0.21076476  1
  Zr  Zr29  1  0.74111604  0.57109624  0.93023548  1
  Zr  Zr30  1  0.88146127  0.70790510  0.30440461  1
  Zr  Zr31  1  0.46790860  0.50173293  0.18058794  1
  Zr  Zr32  1  0.81019984  0.45400255  0.72738719  1
  Zr  Zr33  1  0.59771553  0.03667698  0.70375279  1
  Zr  Zr34  1  0.29409206  0.75580225  0.32587954  1
  Zr  Zr35  1  0.11933675  0.16415801  0.52667427  1
  Zr  Zr36  1  0.66013232  0.75310410  0.32570867  1
  Zr  Zr37  1  0.84537959  0.16596949  0.38846249  1
  Zr  Zr38  1  0.35645986  0.92009862  0.43794110  1
  Zr  Zr39  1  0.77817474  0.24168255  0.10327632  1
  Zr  Zr40  1  0.62825748  0.24422281  0.41618138  1
  Zr  Zr41  1  0.89310281  0.25609036  0.83502983  1
  Zr  Zr42  1  0.33646033  0.77759334  0.70729037  1
  Zr  Zr43  1  0.09265459  0.31494447  0.85564305  1
  Zr  Zr44  1  0.31312616  0.48682568  0.32659851  1
  Zr  Zr45  1  0.89789745  0.06855192  0.94210739  1
  Zr  Zr46  1  0.47177976  0.87405849  0.84024327  1
  Zr  Zr47  1  0.12639773  0.12173821  0.94799684  1
  Zr  Zr48  1  0.28072665  0.11150863  0.34932414  1
  Zr  Zr49  1  0.72975299  0.88566528  0.20177159  1
  Sc  Sc50  1  0.94285438  0.69360119  0.92338967  1
  Sc  Sc51  1  0.93318807  0.92346356  0.35748554  1
  Sc  Sc52  1  0.66998330  0.11302997  0.25636127  1
  Sc  Sc53  1  0.57551114  0.45371931  0.38780187  1
  Sc  Sc54  1  0.18572917  0.29538800  0.36860540  1
  Sc  Sc55  1  0.29394585  0.01282269  0.85794656  1
  Sc  Sc56  1  0.24398106  0.58170822  0.64105266  1
  Sc  Sc57  1  0.71120923  0.55337515  0.25337968  1
  Sc  Sc58  1  0.20479369  0.94891432  0.66004641  1
  Sc  Sc59  1  0.60188436  0.46405217  0.80966933  1
  Sc  Sc60  1  -0.01042070  0.32106375  0.43977116  1
  Sc  Sc61  1  0.80116470  0.75743191  0.49964276  1
  Sc  Sc62  1  0.79887700  0.70293586  0.09594631  1
  Sc  Sc63  1  0.76310306  0.88814362  0.65238389  1
  Sc  Sc64  1  0.41657782  0.13782921  0.72468161  1
  Sc  Sc65  1  0.15059574  0.48692833  0.46942954  1
  Sc  Sc66  1  0.98959115  0.83210730  0.15685860  1
  Sc  Sc67  1  0.79373979  0.54280811  0.48527173  1
  Sc  Sc68  1  0.02835247  0.06517811  0.75675043  1
  Sc  Sc69  1  0.08544253  0.53890509  0.79386167  1
  Sc  Sc70  1  0.26300382  0.51542853  0.11268157  1
  Sc  Sc71  1  0.14886197  0.94886168  0.25584949  1
  Sc  Sc72  1  0.61429621  0.83536738  0.01560381  1
  Sc  Sc73  1  0.14037444  0.96291716  0.45892188  1
  Sc  Sc74  1  0.41813320  0.29093744  0.40065975  1
  Sc  Sc75  1  0.57840847  0.86616342  0.50864083  1
  Sc  Sc76  1  0.91765273  0.88080594  0.79650937  1
  Sc  Sc77  1  -0.00670384  0.84733150  0.57685068  1
  Sc  Sc78  1  0.73706333  0.96577433  0.41195469  1
  Sc  Sc79  1  0.69947902  0.26556002  0.71938679  1
  Sc  Sc80  1  0.60630754  0.64939960  0.51733839  1
  Sc  Sc81  1  0.62282449  0.44905860  0.59873188  1
  Sc  Sc82  1  0.55050083  0.67503002  0.87688411  1
  Sc  Sc83  1  0.94054206  0.49604866  0.32341744  1
  Sc  Sc84  1  0.15315246  0.37746635  0.66923727  1
  Sc  Sc85  1  0.40556996  0.49178081  0.52191224  1
  Sc  Sc86  1  0.25374346  0.81521367  0.90305654  1
  Sc  Sc87  1  0.35068329  0.12533818  0.08048175  1
  Sc  Sc88  1  1.00176899  0.61429842  0.13108796  1
  Sc  Sc89  1  0.00045537  0.64679117  0.48881474  1
  Sc  Sc90  1  0.71239474  0.03272606  0.05076953  1
  Sc  Sc91  1  0.72586470  0.12066489  0.56301068  1
  Sc  Sc92  1  0.11021920  0.75025405  0.74372139  1
  Sc  Sc93  1  0.53122565  0.27953577  0.86571170  1
  Sc  Sc94  1  0.30337094  0.29955931  0.56484710  1
  Sc  Sc95  1  0.31067443  0.24180049  0.88354997  1
  Sc  Sc96  1  0.20267552  0.17008073  0.71724799  1
  Sc  Sc97  1  0.21098813  0.77358422  0.13343593  1
  Sc  Sc98  1  0.50721510  0.06229000  0.92320293  1
  Sc  Sc99  1  0.47714378  0.64123600  0.33986239  1
  Nb  Nb100  1  0.85205119  0.88535633  1.00797158  1
  Nb  Nb101  1  0.53836986  0.94391240  0.31876485  1
  Nb  Nb102  1  0.42390212  0.93981783  0.63609411  1
  Nb  Nb103  1  0.52933189  -0.00290620  0.13355527  1
  Nb  Nb104  1  0.07822314  0.77994316  0.35020516  1
  Nb  Nb105  1  0.39262534  0.89911441  0.03253525  1
  Nb  Nb106  1  1.02352906  0.03650524  0.10172358  1
  Nb  Nb107  1  0.25371548  0.44638045  0.91192419  1
  Nb  Nb108  1  0.45616714  0.50076710  0.95296206  1
  Nb  Nb109  1  0.21143755  0.97336015  0.06232834  1
  Nb  Nb110  1  0.46488662  0.14022559  0.26442770  1
  Nb  Nb111  1  0.57785158  0.79402111  0.69828310  1
  Nb  Nb112  1  0.82169809  0.08148937  0.73963611  1
  Nb  Nb113  1  0.70573501  0.15649407  0.89189727  1
  Nb  Nb114  1  0.74954937  0.75761396  0.85169532  1
  Nb  Nb115  1  0.55480676  0.31754901  0.22972058  1
  Nb  Nb116  1  0.32725285  0.30879840  0.21574401  1
  Nb  Nb117  1  0.07620130  0.45755581  1.01400421  1
  Nb  Nb118  1  0.03937343  0.11495058  0.33728984  1
  Nb  Nb119  1  0.95515476  0.26532153  0.23614779  1
  Nb  Nb120  1  0.74680003  0.35001693  0.92652074  1
  Nb  Nb121  1  0.20227075  0.30698484  0.04887452  1
  Nb  Nb122  1  0.31951581  0.09545798  0.54564271  1
  Nb  Nb123  1  0.70075327  0.63457620  0.70370591  1
  Nb  Nb124  1  0.35221101  0.95490480  0.22325448  1
