# generated using pymatgen
data_Zr2Sc2Nb
_symmetry_space_group_name_H-M   'P 1'
_cell_length_a   14.23330946
_cell_length_b   14.05017875
_cell_length_c   14.38664814
_cell_angle_alpha   91.92457017
_cell_angle_beta   90.59904944
_cell_angle_gamma   84.62599584
_symmetry_Int_Tables_number   1
_chemical_formula_structural   Zr2Sc2Nb
_chemical_formula_sum   'Zr50 Sc50 Nb25'
_cell_volume   2862.71075330
_cell_formula_units_Z   25
loop_
 _symmetry_equiv_pos_site_id
 _symmetry_equiv_pos_as_xyz
  1  'x, y, z'
loop_
 _atom_site_type_symbol
 _atom_site_label
 _atom_site_symmetry_multiplicity
 _atom_site_fract_x
 _atom_site_fract_y
 _atom_site_fract_z
 _atom_site_occupancy
  Zr  Zr0  1  0.52993625  0.69966754  0.00108389  1
  Zr  Zr1  1  0.50587645  0.37758756  0.89529223  1
  Zr  Zr2  1  0.15253066  0.33244163  0.87200375  1
  Zr  Zr3  1  0.98462023  0.64290468  0.08679429  1
  Zr  Zr4  1  0.83639549  0.53876880  0.78944913  1
  Zr  Zr5  1  0.06590653  0.53931411  0.50887664  1
  Zr  Zr6  1  0.95446809  0.17129745  0.66278666  1
  Zr  Zr7  1  0.45692236  0.16393848  0.92414449  1
  Zr  Zr8  1  0.20548673  0.48939854  0.35287899  1
  Zr  Zr9  1  0.99115567  0.61690590  0.32100347  1
  Zr  Zr10  1  0.04193641  0.86357033  0.24869998  1
  Zr  Zr11  1  0.49850956  0.77760816  0.71786075  1
  Zr  Zr12  1  0.04157367  0.28881971  1.03669229  1
  Zr  Zr13  1  0.15521136  0.24685167  0.67407994  1
  Zr  Zr14  1  0.88550174  0.94149140  0.38724563  1
  Zr  Zr15  1  0.26213027  0.83221894  0.27419344  1
  Zr  Zr16  1  0.94199785  0.32323060  0.82704539  1
  Zr  Zr17  1  0.12808710  0.94701128  0.41534227  1
  Zr  Zr18  1  0.66333046  0.88398696  0.71769667  1
  Zr  Zr19  1  0.78885641  0.06806358  0.05010597  1
  Zr  Zr20  1  0.22847752  0.28005111  0.16099516  1
  Zr  Zr21  1  0.00699116  0.11957681  0.44209298  1
  Zr  Zr22  1  0.14554660  1.03693546  0.62655268  1
  Zr  Zr23  1  0.84786078  0.50959734  0.19976203  1
  Zr  Zr24  1  0.14880466  0.70563051  0.87677200  1
  Zr  Zr25  1  0.00662848  0.30951048  0.51874290  1
  Zr  Zr26  1  0.80846879  0.25158945  0.41913971  1
  Zr  Zr27  1  1.01451619  0.05786367  0.05849650  1
  Zr  Zr28  1  0.15946289  0.50119979  0.02355541  1
  Zr  Zr29  1  0.89493706  0.47302164  0.99096448  1
  Zr  Zr30  1  0.67805951  0.72789908  0.85647454  1
  Zr  Zr31  1  0.34947391  0.27972000  0.34083389  1
  Zr  Zr32  1  0.30298989  0.90493929  0.69658819  1
  Zr  Zr33  1  0.84697398  0.76943080  0.69641513  1
  Zr  Zr34  1  0.84580827  0.99599281  0.73238982  1
  Zr  Zr35  1  0.29279718  0.70133529  1.05678429  1
  Zr  Zr36  1  0.55477935  0.26497737  0.36038622  1
  Zr  Zr37  1  0.73955565  0.33879618  0.87212138  1
  Zr  Zr38  1  0.72667642  -0.02042800  0.22701919  1
  Zr  Zr39  1  0.09247743  0.81455247  0.04974107  1
  Zr  Zr40  1  0.86483662  0.14487240  0.89026917  1
  Zr  Zr41  1  0.23554081  0.36968030  0.54033476  1
  Zr  Zr42  1  0.52399519  0.06934470  0.24931939  1
  Zr  Zr43  1  0.31001360  0.47314010  0.16995367  1
  Zr  Zr44  1  0.89019227  0.45636562  0.42020482  1
  Zr  Zr45  1  0.26379333  0.59041374  0.53952643  1
  Zr  Zr46  1  0.45989664  0.51292139  0.04366455  1
  Zr  Zr47  1  0.49301817  0.59268398  0.81414159  1
  Zr  Zr48  1  0.61617491  0.07909678  0.60515189  1
  Zr  Zr49  1  0.65893512  0.41589952  0.09911317  1
  Sc  Sc50  1  0.43854765  0.45395918  0.45664700  1
  Sc  Sc51  1  0.33519865  0.30315952  0.76526777  1
  Sc  Sc52  1  0.63524206  0.84133728  0.11450308  1
  Sc  Sc53  1  0.83617741  0.28182319  0.06955422  1
  Sc  Sc54  1  0.66465811  0.84045479  0.36245650  1
  Sc  Sc55  1  0.93536493  0.74565247  0.49439439  1
  Sc  Sc56  1  0.29776906  0.68243089  0.71676291  1
  Sc  Sc57  1  0.45390521  0.69064688  0.19344592  1
  Sc  Sc58  1  0.53568951  0.91311924  0.92215945  1
  Sc  Sc59  1  0.19001842  0.93253404  0.91329342  1
  Sc  Sc60  1  0.66826318  0.50051495  0.51105875  1
  Sc  Sc61  1  0.53679750  0.23591671  0.73442325  1
  Sc  Sc62  1  0.40737702  0.45864310  0.66776045  1
  Sc  Sc63  1  0.77575450  0.67074727  1.04226869  1
  Sc  Sc64  1  0.30689197  0.52470987  0.88673219  1
  Sc  Sc65  1  0.15093413  0.80739606  0.58178759  1
  Sc  Sc66  1  0.04350986  0.65982935  0.69249511  1
  Sc  Sc67  1  0.10852217  0.11804039  0.23728951  1
  Sc  Sc68  1  0.41370454  0.88991960  0.10628141  1
  Sc  Sc69  1  0.70574657  0.41630559  0.31453598  1
  Sc  Sc70  1  0.12623229  0.30530440  0.35538227  1
  Sc  Sc71  1  0.27829798  0.10675210  0.82414295  1
  Sc  Sc72  1  0.00843035  0.43886869  0.68077647  1
  Sc  Sc73  1  0.47527123  0.01264178  0.74811063  1
  Sc  Sc74  1  0.34268130  0.63232786  0.34631298  1
  Sc  Sc75  1  0.46447862  0.08535456  0.44636717  1
  Sc  Sc76  1  0.36435497  0.79126817  0.88884021  1
  Sc  Sc77  1  0.06577811  0.10262650  0.83506192  1
  Sc  Sc78  1  0.51544647  0.88901106  0.54559943  1
  Sc  Sc79  1  0.65915311  0.08296169  0.84687423  1
  Sc  Sc80  1  0.06177763  0.44895311  0.19109322  1
  Sc  Sc81  1  0.83819391  0.75541532  0.25019094  1
  Sc  Sc82  1  0.16328108  0.65259298  0.20312273  1
  Sc  Sc83  1  0.93660631  0.29700645  0.25924371  1
  Sc  Sc84  1  0.47709521  0.27954067  0.13333473  1
  Sc  Sc85  1  0.63784038  0.28093770  0.54387970  1
  Sc  Sc86  1  0.54554130  0.66388379  0.39973252  1
  Sc  Sc87  1  0.65776287  0.62410289  0.20980655  1
  Sc  Sc88  1  0.88749363  0.87151357  0.09588710  1
  Sc  Sc89  1  0.30545700  0.05418606  0.29442296  1
  Sc  Sc90  1  0.75903119  0.90107528  0.92418034  1
  Sc  Sc91  1  0.89225816  0.09117633  0.24988696  1
  Sc  Sc92  1  0.45333553  0.87373645  0.33571292  1
  Sc  Sc93  1  0.69004847  0.20765135  0.20726520  1
  Sc  Sc94  1  0.62959731  0.43080082  0.70925057  1
  Sc  Sc95  1  0.92698384  0.72741873  0.89125095  1
  Sc  Sc96  1  0.50234143  0.47255060  0.25829875  1
  Sc  Sc97  1  0.36469926  0.10013593  0.09209671  1
  Sc  Sc98  1  0.66424890  0.52977789  0.92787536  1
  Sc  Sc99  1  0.75948664  0.91058700  0.53831195  1
  Nb  Nb100  1  0.04308021  0.53056157  0.86792428  1
  Nb  Nb101  1  0.34817259  0.77032954  0.50674065  1
  Nb  Nb102  1  0.96357034  0.93659507  0.90998302  1
  Nb  Nb103  1  0.14655205  0.72080925  0.40132347  1
  Nb  Nb104  1  0.67272195  0.62667616  0.69409330  1
  Nb  Nb105  1  0.20584018  0.95856286  0.12253101  1
  Nb  Nb106  1  0.22941417  0.15993779  0.47266695  1
  Nb  Nb107  1  0.58535226  0.05740113  0.06494432  1
  Nb  Nb108  1  0.05385716  0.87696229  0.75260998  1
  Nb  Nb109  1  0.77487516  0.62962553  0.39271556  1
  Nb  Nb110  1  0.67837782  0.72636633  0.54698239  1
  Nb  Nb111  1  0.85193037  0.57820125  0.58661136  1
  Nb  Nb112  1  0.75395281  0.21140234  0.71239793  1
  Nb  Nb113  1  0.30719851  0.95981506  0.49045506  1
  Nb  Nb114  1  0.18789940  0.14488763  0.00740362  1
  Nb  Nb115  1  0.31767613  0.32125763  -0.01030777  1
  Nb  Nb116  1  0.19332986  0.49086372  0.72036512  1
  Nb  Nb117  1  0.42225295  0.26515228  0.54917814  1
  Nb  Nb118  1  0.82259514  0.36682613  0.62362031  1
  Nb  Nb119  1  0.81844611  0.10782421  0.54364523  1
  Nb  Nb120  1  0.34805578  0.11552538  0.62474555  1
  Nb  Nb121  1  0.48650501  0.62748264  0.58874613  1
  Nb  Nb122  1  0.68510960  0.07953358  0.40166475  1
  Nb  Nb123  1  0.97089320  0.94788269  0.57832557  1
  Nb  Nb124  1  0.64094870  0.23053025  -0.00557835  1
