# generated using pymatgen
data_Zr2Sc2Nb
_symmetry_space_group_name_H-M   'P 1'
_cell_length_a   14.17488254
_cell_length_b   14.24700631
_cell_length_c   14.25362608
_cell_angle_alpha   90.63297030
_cell_angle_beta   88.64272125
_cell_angle_gamma   89.58481005
_symmetry_Int_Tables_number   1
_chemical_formula_structural   Zr2Sc2Nb
_chemical_formula_sum   'Zr50 Sc50 Nb25'
_cell_volume   2877.45027581
_cell_formula_units_Z   25
loop_
 _symmetry_equiv_pos_site_id
 _symmetry_equiv_pos_as_xyz
  1  'x, y, z'
loop_
 _atom_site_type_symbol
 _atom_site_label
 _atom_site_symmetry_multiplicity
 _atom_site_fract_x
 _atom_site_fract_y
 _atom_site_fract_z
 _atom_site_occupancy
  Zr  Zr0  1  0.49723775  0.19478015  0.52976132  1
  Zr  Zr1  1  0.12257656  0.27213610  0.13005632  1
  Zr  Zr2  1  0.04829666  0.52138260  0.84874323  1
  Zr  Zr3  1  0.50354811  0.97834446  0.48596168  1
  Zr  Zr4  1  0.94324851  0.70006734  0.90435204  1
  Zr  Zr5  1  0.75268365  0.16146829  0.73078196  1
  Zr  Zr6  1  0.61069284  0.48253085  0.90113113  1
  Zr  Zr7  1  0.36422750  0.81343576  0.88620588  1
  Zr  Zr8  1  1.00553613  0.89316799  1.00460817  1
  Zr  Zr9  1  0.67777253  0.77566617  0.72895109  1
  Zr  Zr10  1  0.57285429  0.11770069  0.30897954  1
  Zr  Zr11  1  0.83966561  0.23268801  0.93818908  1
  Zr  Zr12  1  0.36492354  0.88588045  0.31599020  1
  Zr  Zr13  1  0.97366827  0.24665583  0.77381548  1
  Zr  Zr14  1  0.44871334  0.86363558  0.07892189  1
  Zr  Zr15  1  0.10219397  0.68883566  0.10351224  1
  Zr  Zr16  1  0.36420098  0.68892577  0.41693778  1
  Zr  Zr17  1  0.04212851  0.27587292  0.50697248  1
  Zr  Zr18  1  0.84006373  0.48567670  0.92371917  1
  Zr  Zr19  1  0.53368446  0.40774210  0.52711901  1
  Zr  Zr20  1  0.57334618  0.35030503  0.72466743  1
  Zr  Zr21  1  0.73147343  0.67271503  0.89923130  1
  Zr  Zr22  1  0.05860750  0.39522537  0.31056255  1
  Zr  Zr23  1  0.49555434  0.67418795  0.81147129  1
  Zr  Zr24  1  0.88513369  0.10620452  0.46863327  1
  Zr  Zr25  1  0.05205559  0.04500309  0.13788831  1
  Zr  Zr26  1  0.16754305  0.24493397  0.66891535  1
  Zr  Zr27  1  0.68833950  0.07233380  0.54274350  1
  Zr  Zr28  1  0.77765413  0.37060205  0.77628555  1
  Zr  Zr29  1  0.25785017  0.11970241  0.06352361  1
  Zr  Zr30  1  0.84279855  0.41116658  0.15724146  1
  Zr  Zr31  1  0.18979878  0.70609816  0.50760776  1
  Zr  Zr32  1  0.80777682  0.96169704  0.70345810  1
  Zr  Zr33  1  0.91585377  0.77045036  0.33162460  1
  Zr  Zr34  1  0.56829016  0.90494110  0.25620849  1
  Zr  Zr35  1  0.67956108  0.25958069  0.44266451  1
  Zr  Zr36  1  0.28086840  0.25183841  0.24576670  1
  Zr  Zr37  1  0.26389251  0.48262809  0.33134718  1
  Zr  Zr38  1  0.30630220  0.33659321  0.03956255  1
  Zr  Zr39  1  0.59317890  0.98532726  0.72320453  1
  Zr  Zr40  1  0.57947077  0.86604921  0.90258744  1
  Zr  Zr41  1  0.81319306  0.87389320  0.91474408  1
  Zr  Zr42  1  0.19952280  0.51724912  0.98383630  1
  Zr  Zr43  1  0.66907626  0.30673382  0.23647493  1
  Zr  Zr44  1  0.98245528  0.97968978  0.34199522  1
  Zr  Zr45  1  0.29831631  0.91516080  0.53468498  1
  Zr  Zr46  1  0.47253874  0.82539167  0.64335359  1
  Zr  Zr47  1  0.25806066  0.70231775  0.23850929  1
  Zr  Zr48  1  0.49610574  0.24660593  0.11921003  1
  Zr  Zr49  1  0.15242768  0.85359569  0.37528179  1
  Sc  Sc50  1  0.50032343  0.53062637  0.34405732  1
  Sc  Sc51  1  0.73435843  0.44479212  0.56401671  1
  Sc  Sc52  1  0.05934575  0.17868911  0.31624437  1
  Sc  Sc53  1  0.33649364  0.66888870  0.64395070  1
  Sc  Sc54  1  0.35727065  0.51611736  0.15306466  1
  Sc  Sc55  1  0.75959604  0.67314158  0.50816670  1
  Sc  Sc56  1  0.12465032  0.49624095  0.49613095  1
  Sc  Sc57  1  0.56237770  0.46814949  0.12883373  1
  Sc  Sc58  1  0.71758494  0.48272191  0.34732591  1
  Sc  Sc59  1  0.15198965  0.32747132  0.87394424  1
  Sc  Sc60  1  0.65469071  0.56130483  0.71390508  1
  Sc  Sc61  1  0.46277927  0.31491507  0.34029799  1
  Sc  Sc62  1  0.87475716  0.88831995  0.51708366  1
  Sc  Sc63  1  0.19611924  0.97113908  0.90994250  1
  Sc  Sc64  1  0.91565705  0.48503367  0.45966893  1
  Sc  Sc65  1  0.48296669  0.08158977  0.95619802  1
  Sc  Sc66  1  0.71566217  0.69496282  0.27221515  1
  Sc  Sc67  1  -0.00435712  0.42208650  0.66261099  1
  Sc  Sc68  1  0.84208205  0.91529547  0.18216370  1
  Sc  Sc69  1  0.30273240  0.17988086  0.84346486  1
  Sc  Sc70  1  0.07069144  0.89291191  0.58394552  1
  Sc  Sc71  1  0.23673328  0.88643567  0.10649733  1
  Sc  Sc72  1  0.54193937  0.62778068  0.55625334  1
  Sc  Sc73  1  0.14425778  0.07745832  0.49187710  1
  Sc  Sc74  1  0.90856701  0.21521430  0.14577423  1
  Sc  Sc75  1  0.86748475  0.30026462  0.35523136  1
  Sc  Sc76  1  0.63614726  -0.00510842  0.08772718  1
  Sc  Sc77  1  0.14939432  0.74795970  0.90692877  1
  Sc  Sc78  1  0.06225553  0.14103384  0.94742523  1
  Sc  Sc79  1  0.09196259  0.66565229  0.70352377  1
  Sc  Sc80  1  0.21123609  0.46711253  0.69236979  1
  Sc  Sc81  1  0.98054308  0.68235877  0.51360200  1
  Sc  Sc82  1  0.68689934  0.79236826  0.08626120  1
  Sc  Sc83  1  0.86309353  0.57499891  0.71221155  1
  Sc  Sc84  1  0.26317332  0.29068173  0.46741407  1
  Sc  Sc85  1  0.35403174  0.10010513  0.39254624  1
  Sc  Sc86  1  0.49719030  0.16697834  0.74753261  1
  Sc  Sc87  1  0.37256586  0.98556301  0.75903945  1
  Sc  Sc88  1  0.55748804  0.77467249  0.41439762  1
  Sc  Sc89  1  0.73199950  0.92588740  0.37644372  1
  Sc  Sc90  1  0.48094022  0.70246793  0.21765904  1
  Sc  Sc91  1  0.89369875  0.77476388  0.70310720  1
  Sc  Sc92  1  0.22462227  0.83577616  0.72087393  1
  Sc  Sc93  1  0.84959286  0.27357998  0.58576679  1
  Sc  Sc94  1  0.41240972  0.05316431  0.18097592  1
  Sc  Sc95  1  0.78178218  0.10684785  0.27099748  1
  Sc  Sc96  1  -0.00152666  0.36632725  0.00578360  1
  Sc  Sc97  1  0.34683490  0.49325992  0.52162998  1
  Sc  Sc98  1  0.54042017  0.66473284  0.01982114  1
  Sc  Sc99  1  0.91976503  0.57465220  0.25375131  1
  Nb  Nb100  1  0.70474741  0.04715848  0.89536497  1
  Nb  Nb101  1  0.13656315  0.49209219  0.16753995  1
  Nb  Nb102  1  0.74955629  0.57766766  0.08631584  1
  Nb  Nb103  1  0.97194510  0.55749710  0.05206952  1
  Nb  Nb104  1  0.32276330  0.68748748  0.03357223  1
  Nb  Nb105  1  0.63891946  0.23025370  0.89219989  1
  Nb  Nb106  1  0.20307478  0.02914389  0.26539803  1
  Nb  Nb107  1  0.05545920  0.84399133  0.20955762  1
  Nb  Nb108  1  0.91985176  0.05054572  0.84078491  1
  Nb  Nb109  1  0.69167751  0.17752045  0.08296699  1
  Nb  Nb110  1  0.97620260  0.08595931  0.64523859  1
  Nb  Nb111  1  0.66621995  0.86218369  0.56317476  1
  Nb  Nb112  1  0.15079460  0.05010977  0.72372600  1
  Nb  Nb113  1  0.44370566  0.50453561  0.71722453  1
  Nb  Nb114  1  0.09571178  0.63558962  0.32942685  1
  Nb  Nb115  1  0.85198494  0.05016606  0.03298087  1
  Nb  Nb116  1  0.02542672  0.90167693  0.79255879  1
  Nb  Nb117  1  0.69955610  0.36054577  0.02402283  1
  Nb  Nb118  1  0.28398211  0.61152854  0.82878853  1
  Nb  Nb119  1  0.37047387  0.31265795  0.65083538  1
  Nb  Nb120  1  0.41453229  0.52099454  0.94854848  1
  Nb  Nb121  1  0.48362896  0.32070250  0.93345018  1
  Nb  Nb122  1  0.32534316  0.11564973  0.60951045  1
  Nb  Nb123  1  0.34152874  0.39203245  0.82952772  1
  Nb  Nb124  1  0.88811384  0.73022629  0.10656613  1
