# generated using pymatgen
data_Zr2Sc2Nb
_symmetry_space_group_name_H-M   'P 1'
_cell_length_a   14.59308972
_cell_length_b   14.07746811
_cell_length_c   14.08461214
_cell_angle_alpha   90.68616398
_cell_angle_beta   91.31375580
_cell_angle_gamma   89.44293362
_symmetry_Int_Tables_number   1
_chemical_formula_structural   Zr2Sc2Nb
_chemical_formula_sum   'Zr50 Sc50 Nb25'
_cell_volume   2892.35755082
_cell_formula_units_Z   25
loop_
 _symmetry_equiv_pos_site_id
 _symmetry_equiv_pos_as_xyz
  1  'x, y, z'
loop_
 _atom_site_type_symbol
 _atom_site_label
 _atom_site_symmetry_multiplicity
 _atom_site_fract_x
 _atom_site_fract_y
 _atom_site_fract_z
 _atom_site_occupancy
  Zr  Zr0  1  0.76263346  0.53412006  0.59713924  1
  Zr  Zr1  1  0.07552206  0.59201308  0.90988838  1
  Zr  Zr2  1  0.39328998  0.52112257  0.45070625  1
  Zr  Zr3  1  0.08953761  0.11472377  0.18286517  1
  Zr  Zr4  1  0.29065601  0.51273007  0.82118942  1
  Zr  Zr5  1  0.64579349  0.46807298  0.11818099  1
  Zr  Zr6  1  0.43844489  0.29602867  0.73501747  1
  Zr  Zr7  1  0.17954088  0.95513907  0.51106125  1
  Zr  Zr8  1  0.81385029  0.66521385  0.76717732  1
  Zr  Zr9  1  0.02736184  0.07203352  0.79225586  1
  Zr  Zr10  1  0.75009864  0.92987785  0.20328767  1
  Zr  Zr11  1  0.26883861  0.27709152  0.20631177  1
  Zr  Zr12  1  0.88677484  0.10870361  0.14936542  1
  Zr  Zr13  1  0.12130929  0.46699244  0.69375419  1
  Zr  Zr14  1  0.23756038  0.04072112  0.73436505  1
  Zr  Zr15  1  0.23857144  0.64630579  0.36106016  1
  Zr  Zr16  1  0.97569354  0.61537031  0.63544815  1
  Zr  Zr17  1  0.46775592  0.34357620  0.31044122  1
  Zr  Zr18  1  0.50148677  0.08248344  0.55047178  1
  Zr  Zr19  1  0.46492584  0.69085542  0.88794927  1
  Zr  Zr20  1  0.90207787  0.00074271  0.57649175  1
  Zr  Zr21  1  0.57166443  0.79505481  0.07259412  1
  Zr  Zr22  1  0.64606690  0.03419905  0.78891537  1
  Zr  Zr23  1  0.58893366  0.85740485  0.29007287  1
  Zr  Zr24  1  0.04171967  0.69235695  0.29908571  1
  Zr  Zr25  1  0.50556373  0.45436676  0.90464497  1
  Zr  Zr26  1  0.63521129  0.25700898  0.84400447  1
  Zr  Zr27  1  0.11916697  0.90764817  0.09216986  1
  Zr  Zr28  1  0.55761926  0.88126887  0.49526475  1
  Zr  Zr29  1  0.80409040  0.07194008  0.34470093  1
  Zr  Zr30  1  0.44773350  0.08427904  0.76847686  1
  Zr  Zr31  1  0.49046141  0.68571454  0.55124934  1
  Zr  Zr32  1  0.51164089  0.98904352  0.14100996  1
  Zr  Zr33  1  0.78265369  0.13551106  0.95793615  1
  Zr  Zr34  1  0.34798561  0.06376223  0.96579233  1
  Zr  Zr35  1  0.50930084  0.91623672  0.91922403  1
  Zr  Zr36  1  0.08777621  0.10935592  0.59722572  1
  Zr  Zr37  1  0.89292199  0.90546234  0.02950388  1
  Zr  Zr38  1  0.44905746  0.70780810  0.31966582  1
  Zr  Zr39  1  0.15977194  0.15153136  0.97198998  1
  Zr  Zr40  1  0.11411987  0.38871265  0.90109005  1
  Zr  Zr41  1  0.69709722  0.96039944  0.00679529  1
  Zr  Zr42  1  0.27153335  0.34988738  0.40136864  1
  Zr  Zr43  1  0.04738999  0.88658223  0.67696976  1
  Zr  Zr44  1  0.14430339  0.67668784  0.73767429  1
  Zr  Zr45  1  0.92393091  0.44585872  0.99683908  1
  Zr  Zr46  1  0.34784825  0.51054640  0.23775443  1
  Zr  Zr47  1  0.28916354  0.31586035  -0.00306052  1
  Zr  Zr48  1  0.15939339  0.47225406  0.25824156  1
  Zr  Zr49  1  0.96861770  0.91910499  0.23669287  1
  Sc  Sc50  1  0.01143432  0.28121539  0.71740704  1
  Sc  Sc51  1  0.70838495  0.08491569  0.52704662  1
  Sc  Sc52  1  0.81977066  0.13320640  0.73459661  1
  Sc  Sc53  1  0.25663786  0.52010453  0.03927380  1
  Sc  Sc54  1  0.76393660  0.87143006  0.43865206  1
  Sc  Sc55  1  0.30759599  0.16447982  0.57006368  1
  Sc  Sc56  1  0.20402035  0.70578730  0.14996259  1
  Sc  Sc57  1  0.17381298  0.87620711  0.31010031  1
  Sc  Sc58  1  0.28659165  0.39026063  0.60896910  1
  Sc  Sc59  1  0.83928622  0.74338314  0.27179056  1
  Sc  Sc60  1  0.04820462  0.55367272  0.11048096  1
  Sc  Sc61  1  0.23230688  0.25342344  0.78143144  1
  Sc  Sc62  1  0.16897706  0.93178277  0.89339835  1
  Sc  Sc63  1  0.25179793  0.72325882  0.91837936  1
  Sc  Sc64  1  0.65941934  0.62039353  0.96528652  1
  Sc  Sc65  1  0.00854108  0.79443369  0.88091270  1
  Sc  Sc66  1  0.58131163  0.08721942  0.33675996  1
  Sc  Sc67  1  0.07278387  0.32095697  0.10606844  1
  Sc  Sc68  1  0.65527531  0.66224040  0.20635594  1
  Sc  Sc69  1  0.29232012  0.04726100  0.18308361  1
  Sc  Sc70  1  0.48164404  0.31310620  0.52234619  1
  Sc  Sc71  1  0.10255258  0.51454830  0.46515174  1
  Sc  Sc72  1  0.87414882  0.27325363  0.32086902  1
  Sc  Sc73  1  0.74487099  0.49420958  0.34354940  1
  Sc  Sc74  1  0.32031866  0.78578398  0.48806587  1
  Sc  Sc75  1  0.79716956  0.33574362  0.69568553  1
  Sc  Sc76  1  0.94851414  0.48000735  0.28491992  1
  Sc  Sc77  1  0.61205040  0.41850237  0.69542871  1
  Sc  Sc78  1  0.85917898  0.93044465  0.80871669  1
  Sc  Sc79  1  0.69082148  0.72682391  0.60010913  1
  Sc  Sc80  1  0.81280802  0.31791633  0.11032439  1
  Sc  Sc81  1  0.43862769  0.51614427  0.67703027  1
  Sc  Sc82  1  0.10240505  0.30156780  0.52111162  1
  Sc  Sc83  1  0.65780540  0.29835794  0.26519141  1
  Sc  Sc84  1  0.35345530  0.85237883  0.06378648  1
  Sc  Sc85  1  0.45895616  0.19102216  0.14660448  1
  Sc  Sc86  1  0.89345106  0.20839525  0.53221234  1
  Sc  Sc87  1  0.92945900  0.47804071  0.78664237  1
  Sc  Sc88  1  0.69123931  0.80264651  0.85704442  1
  Sc  Sc89  1  0.39137339  0.95636787  0.36980761  1
  Sc  Sc90  1  1.00775239  0.08407791  0.38678517  1
  Sc  Sc91  1  0.95237960  0.24376191  0.92230538  1
  Sc  Sc92  1  0.91760154  0.42022311  0.50818926  1
  Sc  Sc93  1  0.53470483  0.84435156  0.71190289  1
  Sc  Sc94  1  0.46019861  0.61410791  0.09474987  1
  Sc  Sc95  1  0.69879441  0.31827456  0.48875186  1
  Sc  Sc96  1  0.73755784  0.44501834  0.89472675  1
  Sc  Sc97  1  0.20431592  0.13103464  0.37714869  1
  Sc  Sc98  1  0.10390856  0.73799163  0.51608937  1
  Sc  Sc99  1  0.87350430  0.65189724  0.45368985  1
  Nb  Nb100  1  0.36915599  0.71065335  0.71533914  1
  Nb  Nb101  1  -0.01916755  0.73743489  0.09990737  1
  Nb  Nb102  1  0.59790126  0.62155881  0.74838281  1
  Nb  Nb103  1  0.65016868  0.67942477  0.40835956  1
  Nb  Nb104  1  0.61470202  0.28842164  0.04059132  1
  Nb  Nb105  1  0.23080563  0.83491029  0.67897594  1
  Nb  Nb106  1  0.35383107  0.88443199  0.82324998  1
  Nb  Nb107  1  0.61805704  0.20599103  0.65918030  1
  Nb  Nb108  1  0.83086085  0.57155989  0.12949052  1
  Nb  Nb109  1  0.37797008  0.93751009  0.61224162  1
  Nb  Nb110  1  0.68244334  0.12566693  0.15061145  1
  Nb  Nb111  1  0.88323386  0.79726253  0.61558402  1
  Nb  Nb112  1  0.25965820  0.60661055  0.58849028  1
  Nb  Nb113  1  0.54309971  0.52157655  0.29427574  1
  Nb  Nb114  1  0.56253255  0.10688504  0.97300329  1
  Nb  Nb115  1  1.00087004  0.04810939  0.98805411  1
  Nb  Nb116  1  0.45170411  0.39692180  0.10187667  1
  Nb  Nb117  1  0.97302321  0.86802836  0.43597458  1
  Nb  Nb118  1  0.77526400  0.76031939  0.06750667  1
  Nb  Nb119  1  0.87814516  0.63995953  -0.04860424  1
  Nb  Nb120  1  0.39499757  0.16952497  0.36529187  1
  Nb  Nb121  1  0.72251693  0.92087939  0.64877773  1
  Nb  Nb122  1  0.07605699  0.29530227  0.31825835  1
  Nb  Nb123  1  0.58835955  0.51115093  0.50020220  1
  Nb  Nb124  1  0.44537115  0.24850717  0.92770198  1
