# generated using pymatgen
data_Zr2Sc2Nb
_symmetry_space_group_name_H-M   'P 1'
_cell_length_a   14.53098727
_cell_length_b   14.26323236
_cell_length_c   13.87037515
_cell_angle_alpha   90.82412425
_cell_angle_beta   88.55836810
_cell_angle_gamma   90.78673156
_symmetry_Int_Tables_number   1
_chemical_formula_structural   Zr2Sc2Nb
_chemical_formula_sum   'Zr50 Sc50 Nb25'
_cell_volume   2873.29374150
_cell_formula_units_Z   25
loop_
 _symmetry_equiv_pos_site_id
 _symmetry_equiv_pos_as_xyz
  1  'x, y, z'
loop_
 _atom_site_type_symbol
 _atom_site_label
 _atom_site_symmetry_multiplicity
 _atom_site_fract_x
 _atom_site_fract_y
 _atom_site_fract_z
 _atom_site_occupancy
  Zr  Zr0  1  0.58843680  0.51007167  0.52668740  1
  Zr  Zr1  1  0.55636904  0.54762625  0.31243129  1
  Zr  Zr2  1  0.86576476  0.62464680  0.07526998  1
  Zr  Zr3  1  0.11949418  0.63789039  0.96001459  1
  Zr  Zr4  1  0.88167276  0.23870006  0.59358313  1
  Zr  Zr5  1  0.85977784  0.34352379  0.95334330  1
  Zr  Zr6  1  0.68724457  0.24403151  0.12109596  1
  Zr  Zr7  1  0.68211270  0.70992423  0.98419152  1
  Zr  Zr8  1  0.18932217  0.50164061  0.28361215  1
  Zr  Zr9  1  0.45696260  0.10036372  0.61910357  1
  Zr  Zr10  1  0.22568933  0.13603848  0.63921628  1
  Zr  Zr11  1  0.26993396  0.32800825  0.56782372  1
  Zr  Zr12  1  0.71648981  0.77378322  0.35748461  1
  Zr  Zr13  1  0.92595746  0.73571988  0.67617658  1
  Zr  Zr14  1  0.64854282  0.46297814  0.74560095  1
  Zr  Zr15  1  0.12350106  0.00444862  0.49858061  1
  Zr  Zr16  1  0.27111074  0.30107317  0.15439376  1
  Zr  Zr17  1  0.48841431  0.30193165  0.51765693  1
  Zr  Zr18  1  0.64545544  0.95960675  0.26916038  1
  Zr  Zr19  1  0.73780237  0.66299846  0.78197454  1
  Zr  Zr20  1  0.06988520  0.90909269  0.28213121  1
  Zr  Zr21  1  0.29093020  0.26470953  0.94828560  1
  Zr  Zr22  1  0.72043507  0.73976541  0.56199731  1
  Zr  Zr23  1  0.06389862  0.82938634  0.87030781  1
  Zr  Zr24  1  0.16520402  0.94334534  0.71915883  1
  Zr  Zr25  1  0.77736321  0.44987473  0.16556363  1
  Zr  Zr26  1  0.74575222  0.87106454  0.72218361  1
  Zr  Zr27  1  0.51923687  0.78059808  0.28003104  1
  Zr  Zr28  1  0.06198814  0.34072578  0.64793225  1
  Zr  Zr29  1  0.16710527  0.73242602  0.32040574  1
  Zr  Zr30  1  0.68353212  0.64902416  0.18755436  1
  Zr  Zr31  1  0.47481831  0.95404367  0.42061069  1
  Zr  Zr32  1  0.75034576  0.13069836  0.30661417  1
  Zr  Zr33  1  0.53094915  0.18021400  0.90064846  1
  Zr  Zr34  1  0.81147880  0.05538862  0.10933046  1
  Zr  Zr35  1  0.35563127  0.66387691  0.87035715  1
  Zr  Zr36  1  0.96966958  0.92770979  0.66560578  1
  Zr  Zr37  1  0.54054816  0.57718617  0.90203293  1
  Zr  Zr38  1  0.17149620  0.69586971  0.74297766  1
  Zr  Zr39  1  0.98319501  0.78581590  0.08034282  1
  Zr  Zr40  1  0.13882995  0.80299773  0.54591058  1
  Zr  Zr41  1  0.54797359  0.79622111  0.85725902  1
  Zr  Zr42  1  0.49222063  0.97935314  0.91746443  1
  Zr  Zr43  1  0.48574751  0.66744157  0.09715467  1
  Zr  Zr44  1  0.15706809  0.13968942  0.10135401  1
  Zr  Zr45  1  0.75824256  0.14851949  0.92077689  1
  Zr  Zr46  1  0.92786659  0.42889144  0.50744239  1
  Zr  Zr47  1  0.27401564  0.64029792  0.09883558  1
  Zr  Zr48  1  0.07336272  0.30570471  0.22719743  1
  Zr  Zr49  1  0.82069068  0.06999561  0.68611469  1
  Sc  Sc50  1  0.35112365  0.86159678  0.77750174  1
  Sc  Sc51  1  0.33331764  0.12797653  0.45464877  1
  Sc  Sc52  1  0.22525783  0.95205210  0.94693840  1
  Sc  Sc53  1  0.37595771  0.28210799  0.73486982  1
  Sc  Sc54  1  0.72445713  0.95240061  0.49669782  1
  Sc  Sc55  1  0.37419055  0.83342002  0.01950163  1
  Sc  Sc56  1  0.46216205  0.38720692  0.90550855  1
  Sc  Sc57  1  0.91805371  0.83457254  0.47571372  1
  Sc  Sc58  1  0.52483356  0.70638913  0.47537898  1
  Sc  Sc59  1  0.96301114  0.48281924  0.29095845  1
  Sc  Sc60  1  0.43379574  0.48174749  0.70158451  1
  Sc  Sc61  1  0.90961010  0.71338279  0.27821331  1
  Sc  Sc62  1  0.77617149  0.83852556  0.12760843  1
  Sc  Sc63  1  0.76696755  0.55461802  0.37939701  1
  Sc  Sc64  1  0.38569301  0.46986757  0.10894687  1
  Sc  Sc65  1  0.65473619  0.34927853  0.33672654  1
  Sc  Sc66  1  0.52813940  0.87927663  0.62771034  1
  Sc  Sc67  1  0.03517006  0.56009064  0.65260967  1
  Sc  Sc68  1  0.03236357  -0.01942395  0.06642849  1
  Sc  Sc69  1  0.43685965  0.36406921  0.30905391  1
  Sc  Sc70  1  0.65606431  0.34115469  0.92235645  1
  Sc  Sc71  1  0.70172832  0.94623552  0.93601955  1
  Sc  Sc72  1  -0.01687274  0.45948437  0.06982708  1
  Sc  Sc73  1  0.66196152  0.15464828  0.53342699  1
  Sc  Sc74  1  0.26782011  0.47368506  0.88192620  1
  Sc  Sc75  1  0.92371920  0.06388555  0.46037277  1
  Sc  Sc76  1  0.37219289  0.50127986  0.48708195  1
  Sc  Sc77  1  0.55471152  0.66236321  0.69149356  1
  Sc  Sc78  1  0.36177352  0.61417415  0.30711707  1
  Sc  Sc79  1  0.53542540  0.15342863  0.32057734  1
  Sc  Sc80  1  0.80107758  0.56143340  0.60014516  1
  Sc  Sc81  1  0.86576737  0.42680290  0.74869698  1
  Sc  Sc82  1  0.37003252  0.09160944  0.04413050  1
  Sc  Sc83  1  0.48081567  0.25707050  0.11358421  1
  Sc  Sc84  1  0.88208156  0.27506211  0.16332336  1
  Sc  Sc85  1  0.59050731  0.46219872  0.09699709  1
  Sc  Sc86  1  0.62061408  0.05639630  0.74450080  1
  Sc  Sc87  1  1.00513649  0.63165596  0.45238757  1
  Sc  Sc88  1  0.86656619  0.28460593  0.37194259  1
  Sc  Sc89  1  0.06161426  0.44726444  0.84905062  1
  Sc  Sc90  1  0.11742887  0.11102092  0.86995273  1
  Sc  Sc91  1  0.24534193  0.30259247  0.36305123  1
  Sc  Sc92  1  0.06530426  0.23023607  0.45825122  1
  Sc  Sc93  1  0.92510726  1.01273570  0.86714147  1
  Sc  Sc94  1  0.33907836  0.08481156  0.80801870  1
  Sc  Sc95  1  0.85953058  0.80735003  0.89860263  1
  Sc  Sc96  1  0.35412234  0.69049158  0.63535011  1
  Sc  Sc97  1  0.86199936  0.93757007  0.29160309  1
  Sc  Sc98  1  0.71536986  0.35720914  0.55489424  1
  Sc  Sc99  1  0.93275714  0.61357395  0.86140595  1
  Nb  Nb100  1  0.17732763  0.45758767  0.07268235  1
  Nb  Nb101  1  0.33992840  0.13401419  0.25047257  1
  Nb  Nb102  1  0.56978430  0.86087275  0.08677027  1
  Nb  Nb103  1  0.20608274  0.61652805  0.50682186  1
  Nb  Nb104  1  0.24023983  -0.03060083  0.16856704  1
  Nb  Nb105  1  0.59368082  0.06742907  0.09396066  1
  Nb  Nb106  1  0.27273480  0.94189857  0.36514245  1
  Nb  Nb107  1  0.12542559  0.44687057  0.47285700  1
  Nb  Nb108  1  0.74865691  0.52058980  0.94304230  1
  Nb  Nb109  1  0.95441755  0.23091133  0.81200685  1
  Nb  Nb110  1  0.15446483  0.10671622  0.31121197  1
  Nb  Nb111  1  0.17832963  0.28747560  0.78242058  1
  Nb  Nb112  1  0.07420609  0.62567779  0.16999291  1
  Nb  Nb113  1  0.44392926  0.97370795  0.20438893  1
  Nb  Nb114  1  0.56911272  0.27472333  0.70818695  1
  Nb  Nb115  1  0.33551790  0.80603325  0.22600455  1
  Nb  Nb116  1  0.16959966  0.80553894  0.09567556  1
  Nb  Nb117  1  0.03263291  0.12267149  0.66918537  1
  Nb  Nb118  1  0.74589587  0.25338905  0.74945646  1
  Nb  Nb119  1  0.97405508  0.11238865  0.24338026  1
  Nb  Nb120  1  0.22503599  0.49340251  0.67390657  1
  Nb  Nb121  1  0.33734253  0.78004656  0.44379781  1
  Nb  Nb122  1  0.32088116  0.93601865  0.57438219  1
  Nb  Nb123  1  0.09081749  0.29962357  -0.01150966  1
  Nb  Nb124  1  0.95971560  0.16754693  1.01698745  1
