# generated using pymatgen
data_Zr2Sc2Nb
_symmetry_space_group_name_H-M   'P 1'
_cell_length_a   14.19293199
_cell_length_b   14.40782722
_cell_length_c   14.05137573
_cell_angle_alpha   89.45508795
_cell_angle_beta   90.68115124
_cell_angle_gamma   89.80865950
_symmetry_Int_Tables_number   1
_chemical_formula_structural   Zr2Sc2Nb
_chemical_formula_sum   'Zr50 Sc50 Nb25'
_cell_volume   2873.00604252
_cell_formula_units_Z   25
loop_
 _symmetry_equiv_pos_site_id
 _symmetry_equiv_pos_as_xyz
  1  'x, y, z'
loop_
 _atom_site_type_symbol
 _atom_site_label
 _atom_site_symmetry_multiplicity
 _atom_site_fract_x
 _atom_site_fract_y
 _atom_site_fract_z
 _atom_site_occupancy
  Zr  Zr0  1  0.79813050  0.38615693  0.94314040  1
  Zr  Zr1  1  0.46240204  0.13747173  0.98097905  1
  Zr  Zr2  1  0.19446229  0.27925551  0.66687836  1
  Zr  Zr3  1  0.94945448  0.65704312  0.65923407  1
  Zr  Zr4  1  0.24885889  0.90288724  0.11222463  1
  Zr  Zr5  1  -0.00663575  0.34438078  0.94953783  1
  Zr  Zr6  1  0.85260297  0.10981651  0.26606184  1
  Zr  Zr7  1  0.56089465  0.30584055  0.48135097  1
  Zr  Zr8  1  0.45680557  0.76848706  0.88789412  1
  Zr  Zr9  1  0.24482281  0.82314050  0.90956808  1
  Zr  Zr10  1  0.92403955  0.55563817  0.89007937  1
  Zr  Zr11  1  0.74442317  0.75296858  0.61139362  1
  Zr  Zr12  1  0.03570089  0.74656918  0.93178894  1
  Zr  Zr13  1  0.79246280  0.74552152  0.21029574  1
  Zr  Zr14  1  0.21966035  0.08296727  0.41077180  1
  Zr  Zr15  1  0.64915570  0.22697063  0.30066514  1
  Zr  Zr16  1  0.86732402  0.11743308  0.66102155  1
  Zr  Zr17  1  0.26749440  0.12067595  0.09671232  1
  Zr  Zr18  1  0.06274440  0.14373466  0.98566592  1
  Zr  Zr19  1  0.13021749  0.33014864  0.10992839  1
  Zr  Zr20  1  0.52100978  0.39819668  0.28860225  1
  Zr  Zr21  1  0.69991033  0.07885127  0.78243585  1
  Zr  Zr22  1  0.09860487  0.51170623  0.21323878  1
  Zr  Zr23  1  0.06775000  0.12299172  0.57354632  1
  Zr  Zr24  1  0.49580941  0.03174669  0.63473435  1
  Zr  Zr25  1  0.62633414  0.66639718  0.82173440  1
  Zr  Zr26  1  0.26182711  0.48254230  0.53504731  1
  Zr  Zr27  1  0.75781195  0.61159261  0.01562844  1
  Zr  Zr28  1  0.91635747  0.42905063  0.72835115  1
  Zr  Zr29  1  0.90400818  0.88221216  0.65826410  1
  Zr  Zr30  1  0.53730049  0.90850342  0.31122450  1
  Zr  Zr31  1  0.89641707  0.02230517  0.07436603  1
  Zr  Zr32  1  0.14222351  0.68440563  0.54994489  1
  Zr  Zr33  1  0.33903196  0.30995015  0.10421052  1
  Zr  Zr34  1  0.50569632  0.80841409  0.68310229  1
  Zr  Zr35  1  0.69639657  0.38368108  0.12291485  1
  Zr  Zr36  1  0.66723995  0.16761839  0.57780717  1
  Zr  Zr37  1  0.08673439  0.95030022  0.96307790  1
  Zr  Zr38  1  0.39501542  0.31974575  0.64592074  1
  Zr  Zr39  1  0.84315985  0.73582413  0.82715522  1
  Zr  Zr40  1  0.10851084  0.61323541  0.77705004  1
  Zr  Zr41  1  0.87212486  0.52454883  0.51740750  1
  Zr  Zr42  1  0.92137148  0.75705750  0.47320141  1
  Zr  Zr43  1  0.90526147  0.45322125  0.12074266  1
  Zr  Zr44  1  0.55448841  0.07763227  0.18099196  1
  Zr  Zr45  1  0.74842332  0.54859111  0.69902578  1
  Zr  Zr46  1  0.34970432  1.01678347  0.26076955  1
  Zr  Zr47  1  1.00483418  0.22487601  0.77121510  1
  Zr  Zr48  1  0.24243949  0.63223860  0.93514184  1
  Zr  Zr49  1  0.91750645  0.24401670  0.12331808  1
  Sc  Sc50  1  0.78335266  0.38569340  0.33652160  1
  Sc  Sc51  1  0.37909967  0.70328710  0.51876071  1
  Sc  Sc52  1  0.75475475  0.29130941  0.75477297  1
  Sc  Sc53  1  0.88790189  0.99895321  0.48244866  1
  Sc  Sc54  1  0.54876847  0.21613451  0.75014546  1
  Sc  Sc55  1  0.17419662  0.70391489  0.13286708  1
  Sc  Sc56  1  0.31228560  0.92760559  0.70955694  1
  Sc  Sc57  1  0.43123472  0.33045673  0.88596184  1
  Sc  Sc58  1  0.29158956  0.41191146  0.30086318  1
  Sc  Sc59  1  0.11617899  0.41106814  0.81470599  1
  Sc  Sc60  1  0.68576219  0.04074688  0.39228248  1
  Sc  Sc61  1  0.04856743  0.71109572  0.31578023  1
  Sc  Sc62  1  0.83414215  0.20576093  0.44914756  1
  Sc  Sc63  1  0.61297575  0.45971940  0.88703647  1
  Sc  Sc64  1  0.29733162  0.70993247  0.72401776  1
  Sc  Sc65  1  0.22658865  0.23486651  0.89736905  1
  Sc  Sc66  1  0.66687404  0.56198228  0.23330093  1
  Sc  Sc67  1  0.09860859  0.91782186  0.52376732  1
  Sc  Sc68  1  0.90270062  0.97229410  0.84815076  1
  Sc  Sc69  1  0.09735672  0.83098026  0.73549415  1
  Sc  Sc70  1  0.02084689  0.85018053  0.13396802  1
  Sc  Sc71  1  0.08505538  0.05333779  0.19583323  1
  Sc  Sc72  1  0.88776193  0.56790395  0.30220756  1
  Sc  Sc73  1  0.99704488  0.33032620  0.30405522  1
  Sc  Sc74  1  0.68115099  0.01257622  0.98461283  1
  Sc  Sc75  1  0.42594409  0.55918482  0.90370192  1
  Sc  Sc76  1  0.70101357  0.95769340  0.59700079  1
  Sc  Sc77  1  0.47927215  0.09237758  0.43132855  1
  Sc  Sc78  1  0.93182007  0.91055559  0.30681629  1
  Sc  Sc79  1  0.95276416  0.65506058  0.10328044  1
  Sc  Sc80  1  0.25673478  0.61925211  0.34192989  1
  Sc  Sc81  1  0.84696117  0.17084036  0.91940885  1
  Sc  Sc82  1  0.14198383  0.05585921  0.76494570  1
  Sc  Sc83  1  0.69168622  0.87130891  0.80514746  1
  Sc  Sc84  1  0.72461841  0.93897922  0.18407036  1
  Sc  Sc85  1  0.17410692  0.88326583  0.32026939  1
  Sc  Sc86  1  0.07077045  0.51803971  0.42406859  1
  Sc  Sc87  1  0.96983564  0.31664783  0.55728704  1
  Sc  Sc88  1  0.48098190  0.45589754  0.07837021  1
  Sc  Sc89  1  0.50325018  0.97835297  0.84383626  1
  Sc  Sc90  1  0.35003208  0.26623261  0.44955691  1
  Sc  Sc91  1  0.29663778  0.01492900  0.91978314  1
  Sc  Sc92  1  0.14985961  0.30415347  0.45587391  1
  Sc  Sc93  1  0.29325766  0.48470412  0.74450735  1
  Sc  Sc94  1  0.34968272  0.91973465  0.48521206  1
  Sc  Sc95  1  0.58099159  0.42727877  0.66127741  1
  Sc  Sc96  1  0.37422495  0.78765972  0.29532565  1
  Sc  Sc97  1  0.45220630  0.50443265  0.47374788  1
  Sc  Sc98  1  0.38590800  0.71853917  0.08762720  1
  Sc  Sc99  1  0.47249267  0.91358087  0.06950617  1
  Nb  Nb100  1  0.64225536  0.24081493  0.94104552  1
  Nb  Nb101  1  0.84223930  0.83300004  0.01002572  1
  Nb  Nb102  1  0.65592475  0.49677891  0.45339701  1
  Nb  Nb103  1  0.44928240  0.58663468  0.24279391  1
  Nb  Nb104  1  0.55793994  0.84416261  0.49800540  1
  Nb  Nb105  1  0.02523548  0.13216297  0.37873325  1
  Nb  Nb106  1  0.72918773  0.84358485  0.39236510  1
  Nb  Nb107  1  0.65180209  0.79995819  0.00741750  1
  Nb  Nb108  1  0.75838439  0.36344543  0.56300277  1
  Nb  Nb109  1  0.58541293  0.75602752  0.19800957  1
  Nb  Nb110  1  0.54140783  0.26615175  0.11005287  1
  Nb  Nb111  1  0.46585296  0.59149897  0.70117297  1
  Nb  Nb112  1  0.59178506  0.64280905  0.57512244  1
  Nb  Nb113  1  0.08950829  0.52637261  0.00621874  1
  Nb  Nb114  1  0.28780948  0.52833315  0.12428582  1
  Nb  Nb115  1  0.74054409  0.66259205  0.41779672  1
  Nb  Nb116  1  0.25906299  0.43216092  0.96116409  1
  Nb  Nb117  1  0.55079663  0.68598463  0.38032497  1
  Nb  Nb118  1  0.72853712  0.17303996  0.10758522  1
  Nb  Nb119  1  0.56541994  0.63064411  0.04400279  1
  Nb  Nb120  1  0.29566943  0.11298972  0.59392912  1
  Nb  Nb121  1  0.20556725  0.21771305  0.26765195  1
  Nb  Nb122  1  0.08624456  0.48042042  0.62143536  1
  Nb  Nb123  1  0.41693501  0.21124807  0.26237281  1
  Nb  Nb124  1  0.35970262  0.14170687  0.76921790  1
