# generated using pymatgen
data_Zr2Sc2Nb
_symmetry_space_group_name_H-M   'P 1'
_cell_length_a   14.10443769
_cell_length_b   13.97971383
_cell_length_c   14.54858749
_cell_angle_alpha   89.72039544
_cell_angle_beta   90.86921395
_cell_angle_gamma   90.52005807
_symmetry_Int_Tables_number   1
_chemical_formula_structural   Zr2Sc2Nb
_chemical_formula_sum   'Zr50 Sc50 Nb25'
_cell_volume   2868.15181040
_cell_formula_units_Z   25
loop_
 _symmetry_equiv_pos_site_id
 _symmetry_equiv_pos_as_xyz
  1  'x, y, z'
loop_
 _atom_site_type_symbol
 _atom_site_label
 _atom_site_symmetry_multiplicity
 _atom_site_fract_x
 _atom_site_fract_y
 _atom_site_fract_z
 _atom_site_occupancy
  Zr  Zr0  1  0.83867568  0.26897508  0.09328525  1
  Zr  Zr1  1  0.80396001  0.09652519  0.59264629  1
  Zr  Zr2  1  0.39229555  0.78226030  0.80267154  1
  Zr  Zr3  1  0.44141105  0.68905438  0.33676923  1
  Zr  Zr4  1  0.72764120  0.10735218  0.17365055  1
  Zr  Zr5  1  0.11232928  -0.01906120  0.56699416  1
  Zr  Zr6  1  0.91430788  0.67018344  0.49984031  1
  Zr  Zr7  1  0.50019775  0.98718142  0.86553589  1
  Zr  Zr8  1  0.08552215  0.89017280  0.08769748  1
  Zr  Zr9  1  0.53007602  0.39464509  0.51218025  1
  Zr  Zr10  1  0.02519666  0.77424841  0.69502928  1
  Zr  Zr11  1  0.63337656  0.70723473  0.17416610  1
  Zr  Zr12  1  0.44426053  0.29531797  0.10784378  1
  Zr  Zr13  1  0.96495350  0.06535923  0.43822780  1
  Zr  Zr14  1  0.37931997  0.07308597  0.18531814  1
  Zr  Zr15  1  0.69408099  0.90189213  0.85677558  1
  Zr  Zr16  1  0.10672440  0.16315879  0.89483006  1
  Zr  Zr17  1  0.91199761  0.26640870  0.49591469  1
  Zr  Zr18  1  0.51983597  0.91145314  0.14489179  1
  Zr  Zr19  1  0.71713475  0.73757999  0.55990627  1
  Zr  Zr20  1  0.92323516  0.30996803  0.71533164  1
  Zr  Zr21  1  0.33398652  0.12562273  0.99302318  1
  Zr  Zr22  1  0.54795059  0.50929135  0.32330580  1
  Zr  Zr23  1  0.72904508  0.30508827  0.83023278  1
  Zr  Zr24  1  0.30366523  0.89775711  0.47162086  1
  Zr  Zr25  1  0.67625533  0.52649264  0.67387326  1
  Zr  Zr26  1  0.53181679  0.60719425  0.52850211  1
  Zr  Zr27  1  0.58954391  0.72538193  0.74228328  1
  Zr  Zr28  1  0.50897369  0.80602817  0.52085821  1
  Zr  Zr29  1  0.76401956  0.46873494  0.03258991  1
  Zr  Zr30  1  0.24524953  0.48503271  0.64830630  1
  Zr  Zr31  1  0.66172615  0.32613983  0.20808803  1
  Zr  Zr32  1  0.48959081  0.89887576  0.33399356  1
  Zr  Zr33  1  0.90908960  0.84065121  0.94870904  1
  Zr  Zr34  1  0.73205173  0.10482427  0.95474237  1
  Zr  Zr35  1  0.73068942  0.32006536  0.61243291  1
  Zr  Zr36  1  0.64047353  0.30173234  0.01119464  1
  Zr  Zr37  1  0.12805777  0.20513844  0.51507935  1
  Zr  Zr38  1  0.34180388  0.52440145  0.46232006  1
  Zr  Zr39  1  0.87637137  0.49439718  0.60673726  1
  Zr  Zr40  1  0.33132623  0.90230216  0.02129972  1
  Zr  Zr41  1  0.07242319  0.41306468  0.53778090  1
  Zr  Zr42  1  0.04828819  0.28888500  0.11620003  1
  Zr  Zr43  1  0.46134431  0.39683681  0.92423442  1
  Zr  Zr44  1  0.28733451  -0.00613401  0.83107922  1
  Zr  Zr45  1  0.69799987  0.31165274  0.40301323  1
  Zr  Zr46  1  0.09876893  0.38860260  0.88418798  1
  Zr  Zr47  1  0.97780414  0.66120376  0.88475195  1
  Zr  Zr48  1  0.33279707  0.52361411  0.06063056  1
  Zr  Zr49  1  0.12321569  0.63401586  0.56986751  1
  Sc  Sc50  1  0.06889982  0.81194342  0.46903495  1
  Sc  Sc51  1  0.84572168  0.48968695  0.82998943  1
  Sc  Sc52  1  0.15634227  0.08907560  0.11694977  1
  Sc  Sc53  1  0.05462408  0.97048481  0.80982274  1
  Sc  Sc54  1  0.93768047  0.05270839  0.01188504  1
  Sc  Sc55  1  0.88858493  0.88946150  0.55501217  1
  Sc  Sc56  1  0.26423191  0.32791180  0.41904956  1
  Sc  Sc57  1  0.99686464  0.12037767  0.66361741  1
  Sc  Sc58  1  0.90160893  0.46357994  0.39499690  1
  Sc  Sc59  1  0.24785533  0.71680247  0.41223845  1
  Sc  Sc60  1  0.71729865  0.67551448  0.91407814  1
  Sc  Sc61  1  0.93140216  0.47657147  0.19579253  1
  Sc  Sc62  1  0.85182874  0.92364695  0.74485379  1
  Sc  Sc63  1  0.25246310  0.26128962  0.21524390  1
  Sc  Sc64  1  0.10758751  0.95139537  0.30989789  1
  Sc  Sc65  1  0.11970561  0.54321080  0.36827481  1
  Sc  Sc66  1  0.73027143  0.89881601  0.05830276  1
  Sc  Sc67  1  0.82761109  0.66498404  0.08921955  1
  Sc  Sc68  1  0.14975210  0.80765864  0.90158366  1
  Sc  Sc69  1  0.29973365  0.09614413  0.36679846  1
  Sc  Sc70  1  0.82591282  0.69460936  0.72911107  1
  Sc  Sc71  1  0.06227063  0.73480794  0.26910373  1
  Sc  Sc72  1  0.53374507  0.32772756  0.70810439  1
  Sc  Sc73  1  0.29208267  0.86269559  0.23464257  1
  Sc  Sc74  1  0.33608253  0.45698631  0.25658342  1
  Sc  Sc75  1  0.24207875  0.33039695  1.02133858  1
  Sc  Sc76  1  0.45711303  0.54444419  0.72237799  1
  Sc  Sc77  1  0.71893050  0.53575234  0.45745411  1
  Sc  Sc78  1  0.30601865  0.25725383  0.82471271  1
  Sc  Sc79  1  0.04498386  0.52286194  0.73602177  1
  Sc  Sc80  1  0.55691172  0.50570669  0.10027773  1
  Sc  Sc81  1  0.40815820  0.92648989  0.66612917  1
  Sc  Sc82  1  0.93251708  0.05697669  0.21975991  1
  Sc  Sc83  1  0.46790065  0.29825028  0.31383709  1
  Sc  Sc84  1  0.88602771  0.26097743  0.28889138  1
  Sc  Sc85  1  0.33813710  0.69904420  0.60869200  1
  Sc  Sc86  1  0.92209006  0.28431042  0.92301372  1
  Sc  Sc87  1  0.84201402  0.68933436  0.29873978  1
  Sc  Sc88  1  0.32187386  0.29594767  0.62299229  1
  Sc  Sc89  1  0.42485656  0.70983880  0.12759336  1
  Sc  Sc90  1  0.62604164  0.94168465  0.65593154  1
  Sc  Sc91  1  0.30202423  0.08186108  0.56623075  1
  Sc  Sc92  1  0.56710671  0.10928960  0.32120930  1
  Sc  Sc93  1  0.51307957  0.19746476  0.87860822  1
  Sc  Sc94  1  0.68774194  0.93597783  0.45831234  1
  Sc  Sc95  1  0.66573712  0.12049650  0.74979036  1
  Sc  Sc96  1  0.54559795  0.09977786  0.06279193  1
  Sc  Sc97  1  0.29431993  0.48909433  0.84688718  1
  Sc  Sc98  1  0.71302618  0.90239416  0.26038909  1
  Sc  Sc99  1  0.53825697  0.80204891  0.96932847  1
  Nb  Nb100  1  0.14893150  0.57770707  0.95831839  1
  Nb  Nb101  1  0.91058083  0.85181287  0.16437710  1
  Nb  Nb102  1  0.20218939  0.66404016  0.76938479  1
  Nb  Nb103  1  0.77743185  0.10076661  0.37737394  1
  Nb  Nb104  1  0.07503193  0.35340098  0.31977811  1
  Nb  Nb105  1  0.09489469  0.16850485  0.31299455  1
  Nb  Nb106  1  0.64508111  0.71983081  0.37082129  1
  Nb  Nb107  1  0.48721040  1.01763159  0.49947994  1
  Nb  Nb108  1  0.19861056  0.11294083  0.71399182  1
  Nb  Nb109  1  0.62260142  0.15814196  0.53678171  1
  Nb  Nb110  1  0.13718484  0.49463486  0.14612865  1
  Nb  Nb111  1  0.72871241  0.51997461  0.24596026  1
  Nb  Nb112  1  0.49506101  0.60814655  0.92073278  1
  Nb  Nb113  1  0.44831137  0.21155132  0.49167236  1
  Nb  Nb114  1  0.89429532  0.88692128  0.35689738  1
  Nb  Nb115  1  0.45347191  0.12623377  0.69005272  1
  Nb  Nb116  1  0.02383416  0.67181693  0.08328879  1
  Nb  Nb117  1  0.62932903  0.48388199  0.86188997  1
  Nb  Nb118  1  0.32264490  0.68921917  0.94487996  1
  Nb  Nb119  1  0.97230895  0.48137924  0.00621745  1
  Nb  Nb120  1  0.20644512  0.72535806  0.08838585  1
  Nb  Nb121  1  0.87262990  0.11554345  0.81766677  1
  Nb  Nb122  1  0.12641015  0.30229145  0.70908090  1
  Nb  Nb123  1  0.21098971  0.85851299  0.68196375  1
  Nb  Nb124  1  0.25490653  0.63410098  0.23593852  1
