# generated using pymatgen
data_Zr2Sc2Nb
_symmetry_space_group_name_H-M   'P 1'
_cell_length_a   14.11968960
_cell_length_b   14.23384814
_cell_length_c   14.30975153
_cell_angle_alpha   90.41958626
_cell_angle_beta   89.45612925
_cell_angle_gamma   90.00740968
_symmetry_Int_Tables_number   1
_chemical_formula_structural   Zr2Sc2Nb
_chemical_formula_sum   'Zr50 Sc50 Nb25'
_cell_volume   2875.73165444
_cell_formula_units_Z   25
loop_
 _symmetry_equiv_pos_site_id
 _symmetry_equiv_pos_as_xyz
  1  'x, y, z'
loop_
 _atom_site_type_symbol
 _atom_site_label
 _atom_site_symmetry_multiplicity
 _atom_site_fract_x
 _atom_site_fract_y
 _atom_site_fract_z
 _atom_site_occupancy
  Zr  Zr0  1  0.36065323  0.84939926  0.40510972  1
  Zr  Zr1  1  0.39906678  0.71235876  0.07370427  1
  Zr  Zr2  1  0.49637642  0.22294970  0.76877601  1
  Zr  Zr3  1  0.25020575  0.35646519  0.22068128  1
  Zr  Zr4  1  0.60573048  0.70924542  0.06651335  1
  Zr  Zr5  1  0.36008700  0.49891208  0.33625472  1
  Zr  Zr6  1  0.26306627  0.11109482  0.51989157  1
  Zr  Zr7  1  0.95534002  0.90132158  0.43848378  1
  Zr  Zr8  1  0.63901922  0.52887438  0.84099965  1
  Zr  Zr9  1  0.66453558  0.27685372  0.62224867  1
  Zr  Zr10  1  0.83937682  0.27549623  0.30983089  1
  Zr  Zr11  1  0.28542788  0.46928812  0.04766016  1
  Zr  Zr12  1  0.86387484  0.70016217  0.32628157  1
  Zr  Zr13  1  0.33993988  0.90767306  0.59551963  1
  Zr  Zr14  1  0.63887608  0.19801376  0.43384450  1
  Zr  Zr15  1  0.46988544  0.92586139  0.81095930  1
  Zr  Zr16  1  1.04927119  0.72034990  0.19958246  1
  Zr  Zr17  1  0.12667954  0.85887811  1.01816676  1
  Zr  Zr18  1  0.97609851  0.68778564  0.99850388  1
  Zr  Zr19  1  0.45555648  0.25923309  0.54589094  1
  Zr  Zr20  1  0.11849410  0.32180084  0.01731428  1
  Zr  Zr21  1  0.63322323  0.09500878  0.90019055  1
  Zr  Zr22  1  0.56382473  0.73708901  0.86192971  1
  Zr  Zr23  1  0.04997839  0.29859188  0.40728150  1
  Zr  Zr24  1  0.75189263  0.07227278  0.09643729  1
  Zr  Zr25  1  0.57346592  0.81025676  0.41941845  1
  Zr  Zr26  1  0.06316811  0.09883345  0.93265404  1
  Zr  Zr27  1  0.77022023  0.65946029  0.94747017  1
  Zr  Zr28  1  0.92373557  0.62171298  0.78695311  1
  Zr  Zr29  1  0.34774943  0.03014200  0.12595742  1
  Zr  Zr30  1  0.34084284  0.25250057  0.06091133  1
  Zr  Zr31  1  0.93444986  0.15475727  0.11633038  1
  Zr  Zr32  1  -0.02162707  0.76555143  0.64397118  1
  Zr  Zr33  1  0.27233718  0.82612086  0.19080162  1
  Zr  Zr34  1  0.19073213  0.66527528  0.02126377  1
  Zr  Zr35  1  0.04650150  0.31109542  0.21195109  1
  Zr  Zr36  1  0.88463164  0.38178752  0.11169855  1
  Zr  Zr37  1  0.78109565  0.06807757  0.31001506  1
  Zr  Zr38  1  0.67293789  0.41900598  0.47293233  1
  Zr  Zr39  1  0.98561621  0.44788856  0.69993135  1
  Zr  Zr40  1  0.33795709  0.36128503  0.86137163  1
  Zr  Zr41  1  0.96988253  0.12731650  0.71936351  1
  Zr  Zr42  1  0.87781955  0.81564269  0.84409002  1
  Zr  Zr43  1  0.77767508  0.78267596  0.52549726  1
  Zr  Zr44  1  0.71325880  0.27106016  0.04706693  1
  Zr  Zr45  1  0.69607613  0.30639870  0.83618393  1
  Zr  Zr46  1  0.11665928  0.60996740  0.66702440  1
  Zr  Zr47  1  0.49079424  0.54612672  0.17156012  1
  Zr  Zr48  1  0.91192838  0.90774057  0.23333784  1
  Zr  Zr49  1  0.43108808  0.11741346  0.92750638  1
  Sc  Sc50  1  0.85569102  0.15232811  0.51632107  1
  Sc  Sc51  1  0.16394962  0.13551691  0.10846727  1
  Sc  Sc52  1  0.03497609  0.68268910  0.44365022  1
  Sc  Sc53  1  0.56709753  0.03188388  0.29798413  1
  Sc  Sc54  1  0.91900929  0.48033869  0.32426484  1
  Sc  Sc55  1  0.69611110  -0.00973213  0.50547576  1
  Sc  Sc56  1  0.69406993  0.90975552  0.74957661  1
  Sc  Sc57  1  0.04117059  0.92903019  0.81957899  1
  Sc  Sc58  1  0.53240110  0.80410618  0.64360695  1
  Sc  Sc59  1  0.50963893  0.41429763  0.71760865  1
  Sc  Sc60  1  0.75093179  0.11947807  0.71537660  1
  Sc  Sc61  1  0.92978233  0.93100170  0.03301851  1
  Sc  Sc62  1  0.41835428  0.67577395  0.50647671  1
  Sc  Sc63  1  0.86938529  0.58364870  0.54427674  1
  Sc  Sc64  1  0.98978542  0.10160931  0.31814043  1
  Sc  Sc65  1  0.26597013  0.97974454  0.92708669  1
  Sc  Sc66  1  0.88002454  0.95504984  0.63557921  1
  Sc  Sc67  1  0.09614245  0.27813361  0.60472227  1
  Sc  Sc68  1  0.87704406  0.36221385  0.52019336  1
  Sc  Sc69  1  0.67097057  0.48344562  0.04625106  1
  Sc  Sc70  1  0.41650513  0.20050247  0.29579660  1
  Sc  Sc71  1  0.66079276  0.68820934  0.25936783  1
  Sc  Sc72  1  0.46271936  0.04032429  0.47438349  1
  Sc  Sc73  1  0.54075889  0.13169739  0.10315117  1
  Sc  Sc74  1  0.70914780  0.88205240  0.96387233  1
  Sc  Sc75  1  0.07306554  0.50766790  0.90811237  1
  Sc  Sc76  1  0.75690108  0.46682998  0.68400518  1
  Sc  Sc77  1  0.34438557  0.76446021  0.88111957  1
  Sc  Sc78  1  0.46030298  0.54531357  0.94179660  1
  Sc  Sc79  1  0.26845787  0.57034935  0.83711748  1
  Sc  Sc80  1  0.19475941  0.16047253  0.32360937  1
  Sc  Sc81  1  0.84571209  0.04569630  0.88528972  1
  Sc  Sc82  1  0.73278993  0.69587995  0.72453535  1
  Sc  Sc83  1  0.35802196  0.07011957  0.72381188  1
  Sc  Sc84  1  0.28643314  0.46175588  0.65866354  1
  Sc  Sc85  1  0.12733980  0.50964100  0.32108944  1
  Sc  Sc86  1  0.50480015  0.34774826  0.15196557  1
  Sc  Sc87  1  0.49818584  0.91372497  0.01986400  1
  Sc  Sc88  1  0.70159693  0.44958246  0.25418445  1
  Sc  Sc89  1  0.85132507  0.45452454  0.90371878  1
  Sc  Sc90  1  0.16383058  0.09542508  0.72414947  1
  Sc  Sc91  1  0.12079645  0.95950536  0.21864100  1
  Sc  Sc92  1  0.10293126  0.30251770  0.80768162  1
  Sc  Sc93  1  0.67487156  0.89849870  0.17326390  1
  Sc  Sc94  1  0.26784030  0.34406453  0.46614166  1
  Sc  Sc95  1  0.09969639  0.93832261  0.61014098  1
  Sc  Sc96  1  0.62406255  0.61180652  0.56834355  1
  Sc  Sc97  1  0.55874512  0.05877975  0.65617606  1
  Sc  Sc98  1  0.90866620  0.25022595  0.92169326  1
  Sc  Sc99  1  0.24303210  0.57540157  0.49355305  1
  Nb  Nb100  1  0.06349379  0.47285759  0.51484776  1
  Nb  Nb101  1  0.85256788  0.58025357  0.13983682  1
  Nb  Nb102  1  0.26008049  0.60240723  0.19378468  1
  Nb  Nb103  1  0.06545160  0.51440105  0.12444029  1
  Nb  Nb104  1  0.23150297  0.87536797  0.75193974  1
  Nb  Nb105  1  0.55484750  0.56468469  0.37780607  1
  Nb  Nb106  1  0.45753451  0.47148629  0.52772082  1
  Nb  Nb107  1  0.51906787  0.36680045  0.36077425  1
  Nb  Nb108  1  0.65501524  0.23339900  0.24202893  1
  Nb  Nb109  1  0.87075576  0.29163401  0.71741844  1
  Nb  Nb110  1  0.46540600  0.61029088  0.72248326  1
  Nb  Nb111  1  0.30651626  0.70508384  0.68069388  1
  Nb  Nb112  1  0.11583969  0.73113186  0.82998198  1
  Nb  Nb113  1  0.47674554  0.86173696  0.22256098  1
  Nb  Nb114  1  0.32760286  1.00835857  0.31199071  1
  Nb  Nb115  1  0.82083825  0.76469210  0.12672788  1
  Nb  Nb116  1  0.16823585  0.93110480  0.41406646  1
  Nb  Nb117  1  0.21814514  0.71688145  0.34735753  1
  Nb  Nb118  1  0.42716871  0.69422404  0.28977682  1
  Nb  Nb119  1  0.24793997  0.18533645  0.89171954  1
  Nb  Nb120  1  0.29798713  0.26087610  0.68696955  1
  Nb  Nb121  1  0.75462158  0.86515554  0.34677225  1
  Nb  Nb122  1  0.05855180  0.09634062  0.50724142  1
  Nb  Nb123  1  0.52572594  0.32683392  0.94704485  1
  Nb  Nb124  1  0.19190103  0.77417477  0.54380134  1
