# generated using pymatgen
data_Zr2Sc2Nb
_symmetry_space_group_name_H-M   'P 1'
_cell_length_a   13.94667953
_cell_length_b   14.37386993
_cell_length_c   14.37582598
_cell_angle_alpha   89.68540676
_cell_angle_beta   90.38612434
_cell_angle_gamma   89.97019274
_symmetry_Int_Tables_number   1
_chemical_formula_structural   Zr2Sc2Nb
_chemical_formula_sum   'Zr50 Sc50 Nb25'
_cell_volume   2881.78026691
_cell_formula_units_Z   25
loop_
 _symmetry_equiv_pos_site_id
 _symmetry_equiv_pos_as_xyz
  1  'x, y, z'
loop_
 _atom_site_type_symbol
 _atom_site_label
 _atom_site_symmetry_multiplicity
 _atom_site_fract_x
 _atom_site_fract_y
 _atom_site_fract_z
 _atom_site_occupancy
  Zr  Zr0  1  0.41261101  0.47827103  0.68678800  1
  Zr  Zr1  1  0.70280388  0.06136554  0.70116241  1
  Zr  Zr2  1  0.91326907  0.83677136  0.29645625  1
  Zr  Zr3  1  0.14821738  0.87391262  0.59119001  1
  Zr  Zr4  1  0.93264773  0.54656886  0.58589276  1
  Zr  Zr5  1  0.68542371  0.27426510  0.07082344  1
  Zr  Zr6  1  0.57336428  0.91345003  0.26514816  1
  Zr  Zr7  1  0.76698073  0.63947908  0.71097474  1
  Zr  Zr8  1  0.54338756  0.67637636  0.77616243  1
  Zr  Zr9  1  0.44361458  0.04902577  0.35028537  1
  Zr  Zr10  1  0.85105972  0.42741352  0.75208888  1
  Zr  Zr11  1  0.34719202  0.84808362  0.84687521  1
  Zr  Zr12  1  0.55918851  0.65097848  0.59003388  1
  Zr  Zr13  1  0.04617242  0.33956007  0.85199681  1
  Zr  Zr14  1  0.22935575  0.99035575  0.01686082  1
  Zr  Zr15  1  0.72719747  0.68290177  0.45930545  1
  Zr  Zr16  1  0.94272525  0.92868765  0.49753040  1
  Zr  Zr17  1  0.21753874  0.26672293  0.70986906  1
  Zr  Zr18  1  0.60731268  0.29746471  0.86766581  1
  Zr  Zr19  1  0.34701041  0.57171456  0.49532072  1
  Zr  Zr20  1  0.55845524  0.93179224  0.90456154  1
  Zr  Zr21  1  0.01799224  0.65178246  0.10701606  1
  Zr  Zr22  1  0.13044365  0.57586062  0.94230401  1
  Zr  Zr23  1  0.67491198  0.27967255  0.48357400  1
  Zr  Zr24  1  0.13723778  0.93304988  0.80545319  1
  Zr  Zr25  1  0.09580008  0.12506736  0.84807526  1
  Zr  Zr26  1  0.45894497  0.32133838  0.03286225  1
  Zr  Zr27  1  0.35394088  0.74266155  0.63603721  1
  Zr  Zr28  1  0.31152384  0.08007167  0.82568960  1
  Zr  Zr29  1  0.51796032  0.68724067  0.17936408  1
  Zr  Zr30  1  0.54099317  0.27951804  0.64558162  1
  Zr  Zr31  1  0.45763187  0.12399892  0.97200968  1
  Zr  Zr32  1  0.03318944  0.54350864  0.76275775  1
  Zr  Zr33  1  0.33552918  0.34054870  0.53133409  1
  Zr  Zr34  1  0.66051906  0.10928412  0.33327582  1
  Zr  Zr35  1  0.55138999  0.87659528  0.70777717  1
  Zr  Zr36  1  0.88110119  0.07611461  0.86498453  1
  Zr  Zr37  1  0.20253060  0.49683550  0.62761685  1
  Zr  Zr38  1  0.38233394  0.83697010  0.27725192  1
  Zr  Zr39  1  0.70739686  0.75565010  0.26716214  1
  Zr  Zr40  1  0.75075016  0.65264089  0.08299487  1
  Zr  Zr41  1  0.30048821  0.67116877  0.04110010  1
  Zr  Zr42  1  0.94181042  0.98753191  0.68655980  1
  Zr  Zr43  1  0.04963727  0.35921195  0.63671078  1
  Zr  Zr44  1  0.63754923  0.84086120  0.07999284  1
  Zr  Zr45  1  0.93589251  0.20147249  0.71239923  1
  Zr  Zr46  1  0.68097671  0.11191228  0.90718796  1
  Zr  Zr47  1  0.28460408  0.16598605  0.12711114  1
  Zr  Zr48  1  0.92339540  0.29749557  0.14471797  1
  Zr  Zr49  1  0.60102425  0.47404577  0.09531582  1
  Sc  Sc50  1  0.92879923  0.28137505  0.35425736  1
  Sc  Sc51  1  0.88036586  0.63789582  0.26343575  1
  Sc  Sc52  1  0.15196087  0.72686971  0.76693541  1
  Sc  Sc53  1  0.73091613  0.91711216  0.41627936  1
  Sc  Sc54  1  0.07230807  0.16927889  0.05385133  1
  Sc  Sc55  1  0.47264130  0.41042754  0.29076783  1
  Sc  Sc56  1  0.89313952  0.06528574  0.33280865  1
  Sc  Sc57  1  0.11048506  0.63535158  0.32575582  1
  Sc  Sc58  1  0.15587614  0.08114299  0.63756888  1
  Sc  Sc59  1  0.93506359  0.71382534  0.46474037  1
  Sc  Sc60  1  0.71766177  0.51821575  0.91246851  1
  Sc  Sc61  1  0.06174817  0.45599326  0.43635956  1
  Sc  Sc62  1  0.95094673  0.76305829  0.67939027  1
  Sc  Sc63  1  0.11971931  0.79835897  0.97516961  1
  Sc  Sc64  1  0.18786451  0.78761267  0.18329961  1
  Sc  Sc65  1  0.52680662  0.44904988  0.49168775  1
  Sc  Sc66  1  0.65366250  0.54058437  0.29890616  1
  Sc  Sc67  1  0.54183426  0.06243392  0.54577365  1
  Sc  Sc68  1  0.83927234  0.28320100  0.91922801  1
  Sc  Sc69  1  0.85688613  0.10702013  0.09356339  1
  Sc  Sc70  1  0.13164560  0.66974578  0.54799688  1
  Sc  Sc71  1  0.30692581  0.23363864  0.32069710  1
  Sc  Sc72  1  0.80320609  0.46172768  0.15640146  1
  Sc  Sc73  1  0.35621669  0.96169727  0.65744775  1
  Sc  Sc74  1  0.84573675  0.47466584  0.38251451  1
  Sc  Sc75  1  0.40737094  0.85054086  0.05674973  1
  Sc  Sc76  1  0.69867408  0.31740152  0.27765823  1
  Sc  Sc77  1  0.78854328  0.10628945  0.52467095  1
  Sc  Sc78  1  0.71911119  0.75123310  0.89632192  1
  Sc  Sc79  1  0.50774318  0.84991178  0.48721201  1
  Sc  Sc80  1  0.63099734  0.06282614  0.10978323  1
  Sc  Sc81  1  0.50518817  0.66831690  0.38440208  1
  Sc  Sc82  1  0.08569116  0.14912963  0.27025852  1
  Sc  Sc83  1  0.33014503  0.62553896  0.82675391  1
  Sc  Sc84  1  0.52043847  0.67364921  0.97767927  1
  Sc  Sc85  1  0.11131674  0.38258427  0.04815244  1
  Sc  Sc86  1  0.48780395  0.48304363  0.89500902  1
  Sc  Sc87  1  0.62535848  0.46210300  0.72506016  1
  Sc  Sc88  1  0.24339661  -0.00013783  0.26735421  1
  Sc  Sc89  1  0.74666833  0.83469494  0.61130218  1
  Sc  Sc90  1  0.11572348  0.84168975  0.37816836  1
  Sc  Sc91  1  0.92752937  0.47594591  0.98951706  1
  Sc  Sc92  1  0.72446515  0.49131630  0.55234588  1
  Sc  Sc93  1  0.26023117  0.45273609  0.34649581  1
  Sc  Sc94  1  0.91708214  0.66523611  0.90101771  1
  Sc  Sc95  1  0.25263947  0.25626170  0.94112964  1
  Sc  Sc96  1  0.86566064  0.32735506  0.55169676  1
  Sc  Sc97  1  0.50151592  0.21208086  0.20939194  1
  Sc  Sc98  1  0.14490934  0.25822632  0.46269823  1
  Sc  Sc99  1  1.03216085  0.95984592  0.18292045  1
  Nb  Nb100  1  0.75730429  0.90981360  0.79794418  1
  Nb  Nb101  1  0.41398917  0.52401584  0.12351454  1
  Nb  Nb102  1  0.78067570  0.94526026  0.20018093  1
  Nb  Nb103  1  0.98622417  0.14774855  0.52179723  1
  Nb  Nb104  1  0.29303798  0.74340152  0.42975933  1
  Nb  Nb105  1  0.73567009  0.25721374  0.71153468  1
  Nb  Nb106  1  0.37805794  0.16984419  0.64044717  1
  Nb  Nb107  1  0.89073030  0.81379119  0.07786485  1
  Nb  Nb108  1  0.00907131  0.97945192  0.98652152  1
  Nb  Nb109  1  0.93805821  0.86021916  0.86454880  1
  Nb  Nb110  1  0.42654838  0.01895286  0.14804008  1
  Nb  Nb111  1  0.30145810  0.11369022  0.48247704  1
  Nb  Nb112  1  0.12492981  0.33436119  0.24582071  1
  Nb  Nb113  1  0.30138616  0.46153172  -0.02032558  1
  Nb  Nb114  1  0.40576986  0.29698436  0.81091718  1
  Nb  Nb115  1  0.22899064  0.43498840  0.81169909  1
  Nb  Nb116  1  0.51526002  0.10426181  0.77042591  1
  Nb  Nb117  1  0.78449572  0.94278974  0.98920161  1
  Nb  Nb118  1  0.30443541  0.36272259  0.15528163  1
  Nb  Nb119  1  0.48501402  0.23290802  0.43564602  1
  Nb  Nb120  1  0.11369121  0.03336680  0.43604526  1
  Nb  Nb121  1  0.32778634  0.63149507  0.26658810  1
  Nb  Nb122  1  0.19376525  0.53509374  0.15605903  1
  Nb  Nb123  1  0.30326174  0.92574200  0.46338391  1
  Nb  Nb124  1  0.00530721  0.47370665  0.22236220  1
