# generated using pymatgen
data_Zr2Sc2Nb
_symmetry_space_group_name_H-M   'P 1'
_cell_length_a   14.25348248
_cell_length_b   13.97540629
_cell_length_c   14.51253269
_cell_angle_alpha   90.10592065
_cell_angle_beta   89.64337374
_cell_angle_gamma   90.19014896
_symmetry_Int_Tables_number   1
_chemical_formula_structural   Zr2Sc2Nb
_chemical_formula_sum   'Zr50 Sc50 Nb25'
_cell_volume   2890.79376825
_cell_formula_units_Z   25
loop_
 _symmetry_equiv_pos_site_id
 _symmetry_equiv_pos_as_xyz
  1  'x, y, z'
loop_
 _atom_site_type_symbol
 _atom_site_label
 _atom_site_symmetry_multiplicity
 _atom_site_fract_x
 _atom_site_fract_y
 _atom_site_fract_z
 _atom_site_occupancy
  Zr  Zr0  1  0.05219456  0.51673657  0.13918852  1
  Zr  Zr1  1  0.43274831  0.64596562  0.18540916  1
  Zr  Zr2  1  0.95005430  0.88616771  0.33576925  1
  Zr  Zr3  1  0.31342669  0.06719577  0.03263030  1
  Zr  Zr4  1  0.64615395  0.88629947  0.89338367  1
  Zr  Zr5  1  0.50198957  0.68096664  0.63738802  1
  Zr  Zr6  1  0.77058573  0.32494500  0.50120924  1
  Zr  Zr7  1  0.73979598  0.70430603  0.94310955  1
  Zr  Zr8  1  0.31782453  0.26962569  0.16449762  1
  Zr  Zr9  1  0.65791224  0.49095040  0.96212200  1
  Zr  Zr10  1  0.39522011  0.83430743  0.31559725  1
  Zr  Zr11  1  0.65053314  0.11516114  0.18584830  1
  Zr  Zr12  1  0.97603110  0.47574103  0.53095475  1
  Zr  Zr13  1  0.55730339  0.90221926  0.20452432  1
  Zr  Zr14  1  0.54234463  0.49817942  0.77568424  1
  Zr  Zr15  1  0.29573461  0.27091974  0.96472458  1
  Zr  Zr16  1  0.28677411  0.11098313  0.62000533  1
  Zr  Zr17  1  0.72982475  0.88672615  0.34035729  1
  Zr  Zr18  1  0.70305508  0.33260143  0.30290914  1
  Zr  Zr19  1  0.98043067  0.29864168  0.03433355  1
  Zr  Zr20  1  0.01683570  0.71260303  0.24575857  1
  Zr  Zr21  1  0.59430570  0.71063433  0.31503528  1
  Zr  Zr22  1  0.22612130  0.89015193  0.93976353  1
  Zr  Zr23  1  0.86854823  0.51212748  0.92386194  1
  Zr  Zr24  1  0.67901096  0.52482816  0.17816820  1
  Zr  Zr25  1  0.00850909  0.08841639  0.30905334  1
  Zr  Zr26  1  0.87740699  0.62793739  0.09489765  1
  Zr  Zr27  1  0.81888835  0.04004921  0.73383642  1
  Zr  Zr28  1  0.77675209  0.51478540  0.58718943  1
  Zr  Zr29  1  0.52950331  0.71803534  0.84130270  1
  Zr  Zr30  1  0.08023752  0.55179529  0.35644139  1
  Zr  Zr31  1  0.68197611  0.73204882  0.13239413  1
  Zr  Zr32  1  0.25859860  0.04747669  0.80937136  1
  Zr  Zr33  1  0.29559305  0.50087080  0.06884614  1
  Zr  Zr34  1  0.28708002  0.48422415  0.87657311  1
  Zr  Zr35  1  0.19018393  0.53362179  0.54799691  1
  Zr  Zr36  1  0.12440724  0.13753656  0.93638796  1
  Zr  Zr37  1  0.70901777  0.63402479  0.74768419  1
  Zr  Zr38  1  0.07811822  0.97790995  0.49542810  1
  Zr  Zr39  1  0.13045411  0.16322367  0.13332499  1
  Zr  Zr40  1  0.93871985  0.13870541  0.85659755  1
  Zr  Zr41  1  0.49723216  0.06022304  0.59608565  1
  Zr  Zr42  1  0.05555767  0.75488252  0.01789879  1
  Zr  Zr43  1  0.42466020  0.06936725  0.21385179  1
  Zr  Zr44  1  0.30531364  0.72044718  0.55943059  1
  Zr  Zr45  1  0.43333002  0.14320231  0.85533809  1
  Zr  Zr46  1  0.14666626  0.72233309  0.83447656  1
  Zr  Zr47  1  0.33836215  0.87973047  0.12454428  1
  Zr  Zr48  1  0.70658350  0.54174806  0.38705500  1
  Zr  Zr49  1  0.31286221  0.70343329  0.97618433  1
  Sc  Sc50  1  0.86514939  0.91321596  0.91546568  1
  Sc  Sc51  1  0.50748217  0.85397827  0.49554987  1
  Sc  Sc52  1  0.86675792  0.23226491  0.20302697  1
  Sc  Sc53  1  0.37832965  0.46511533  0.66221749  1
  Sc  Sc54  1  0.08692370  0.32870033  0.24613894  1
  Sc  Sc55  1  0.48688247  0.41370467  0.10863710  1
  Sc  Sc56  1  0.08030157  0.67036918  0.65578506  1
  Sc  Sc57  1  0.29796099  0.94299935  0.48355845  1
  Sc  Sc58  1  0.51177977  0.24755055  0.28327100  1
  Sc  Sc59  1  0.26207133  0.47170797  0.26166175  1
  Sc  Sc60  1  0.50900935  0.78371062  0.03529466  1
  Sc  Sc61  1  0.87917581  0.28286656  0.68806267  1
  Sc  Sc62  1  0.48417760  0.33337574  0.48160429  1
  Sc  Sc63  1  0.23749271  0.07657621  0.29955170  1
  Sc  Sc64  1  0.26921180  0.28608945  0.76102550  1
  Sc  Sc65  1  0.15002413  0.17408918  0.46474587  1
  Sc  Sc66  1  0.10521532  0.94307734  0.12134477  1
  Sc  Sc67  1  0.69119086  0.72833159  0.52292357  1
  Sc  Sc68  1  0.08432789  0.76173692  0.47772698  1
  Sc  Sc69  1  0.89407276  0.10904261  0.53614349  1
  Sc  Sc70  1  0.09260312  0.31691661  0.62541678  1
  Sc  Sc71  1  0.86957470  0.87279955  0.52340665  1
  Sc  Sc72  1  0.08341900  0.54015151  0.93613951  1
  Sc  Sc73  1  0.95321450  0.28223631  0.40802143  1
  Sc  Sc74  1  0.17289320  0.86934923  0.31066589  1
  Sc  Sc75  1  0.06455271  0.33663548  0.84370899  1
  Sc  Sc76  1  0.93301796  0.71231273  0.83931461  1
  Sc  Sc77  1  0.88782389  0.47428636  0.29679709  1
  Sc  Sc78  1  0.21017842  0.69530214  0.16152378  1
  Sc  Sc79  1  0.50138143  0.47595323  0.31277704  1
  Sc  Sc80  1  0.59185761  0.04305854  0.77701371  1
  Sc  Sc81  1  0.89928170  0.65954914  0.43977499  1
  Sc  Sc82  1  0.61381458  0.27446343  0.84350949  1
  Sc  Sc83  1  0.06805579  0.09044877  0.69238094  1
  Sc  Sc84  1  0.69554210  0.99289744  0.55396428  1
  Sc  Sc85  1  0.25910528  0.66666058  0.36464320  1
  Sc  Sc86  1  0.33382929  0.66590596  0.76576403  1
  Sc  Sc87  1  0.56619709  0.02923668  0.37434023  1
  Sc  Sc88  1  0.98272299  0.87921330  0.69434183  1
  Sc  Sc89  1  0.18633670  0.88137036  0.68117036  1
  Sc  Sc90  1  0.81714499  0.30576402  0.91142119  1
  Sc  Sc91  1  0.95123730  0.50234146  0.73518064  1
  Sc  Sc92  1  0.56419309  0.51897176  0.53482651  1
  Sc  Sc93  1  0.67534731  0.30026426  0.07862079  1
  Sc  Sc94  1  0.89091359  0.84443572  0.13093121  1
  Sc  Sc95  1  0.71891953  0.94152339  0.07871590  1
  Sc  Sc96  1  0.93476135  0.06887750  0.05701606  1
  Sc  Sc97  1  0.39135240  0.89048439  0.69368815  1
  Sc  Sc98  1  0.71828583  0.10791777  0.94344150  1
  Sc  Sc99  1  0.77699345  0.83245090  0.72783490  1
  Nb  Nb100  1  0.45580264  0.65578179  0.42900400  1
  Nb  Nb101  1  0.83000285  0.02168802  0.23338270  1
  Nb  Nb102  1  0.39523622  0.14176743  0.44294617  1
  Nb  Nb103  1  0.49164517  0.20516531  0.04692910  1
  Nb  Nb104  1  0.42653074  0.91166307  0.88942201  1
  Nb  Nb105  1  0.45281495  0.37090312  0.90267106  1
  Nb  Nb106  1  0.58773932  0.85445331  0.69089332  1
  Nb  Nb107  1  0.16496203  0.49640894  0.73402642  1
  Nb  Nb108  1  0.31039129  0.29023954  0.35803751  1
  Nb  Nb109  1  0.34808478  0.48791258  0.45212745  1
  Nb  Nb110  1  0.83852088  0.42573519  0.10382272  1
  Nb  Nb111  1  0.74566660  0.42758528  0.76713502  1
  Nb  Nb112  1  0.46801289  0.24746006  0.67563363  1
  Nb  Nb113  1  0.76918367  0.13204813  0.37326795  1
  Nb  Nb114  1  0.05753185  0.94536252  0.87215033  1
  Nb  Nb115  1  0.29324840  0.31010707  0.55378597  1
  Nb  Nb116  1  0.69230853  0.18518846  0.66545507  1
  Nb  Nb117  1  0.52399769  1.01396214  0.02170669  1
  Nb  Nb118  1  0.15631521  0.36590814  0.04864100  1
  Nb  Nb119  1  0.88419090  0.68228460  0.63393881  1
  Nb  Nb120  1  0.62292763  0.35809685  0.63937526  1
  Nb  Nb121  1  0.80684642  0.69767202  0.27667625  1
  Nb  Nb122  1  0.46672097  0.57204275  0.96688138  1
  Nb  Nb123  1  0.15114325  0.38200443  0.43070932  1
  Nb  Nb124  1  0.61731367  0.19326485  0.48686936  1
