# generated using pymatgen
data_Zr2Sc2Nb
_symmetry_space_group_name_H-M   'P 1'
_cell_length_a   14.52291443
_cell_length_b   13.93846844
_cell_length_c   14.22225028
_cell_angle_alpha   92.42746975
_cell_angle_beta   89.98919495
_cell_angle_gamma   89.25392729
_symmetry_Int_Tables_number   1
_chemical_formula_structural   Zr2Sc2Nb
_chemical_formula_sum   'Zr50 Sc50 Nb25'
_cell_volume   2876.14196146
_cell_formula_units_Z   25
loop_
 _symmetry_equiv_pos_site_id
 _symmetry_equiv_pos_as_xyz
  1  'x, y, z'
loop_
 _atom_site_type_symbol
 _atom_site_label
 _atom_site_symmetry_multiplicity
 _atom_site_fract_x
 _atom_site_fract_y
 _atom_site_fract_z
 _atom_site_occupancy
  Zr  Zr0  1  0.41445297  0.23893430  0.68473953  1
  Zr  Zr1  1  0.18854544  0.22943801  0.39825095  1
  Zr  Zr2  1  0.63911461  0.90097623  0.87928198  1
  Zr  Zr3  1  0.09885449  0.45342264  0.78694900  1
  Zr  Zr4  1  0.97041296  0.63481303  0.75759493  1
  Zr  Zr5  1  0.34472589  0.10971119  0.50607914  1
  Zr  Zr6  1  0.31970272  0.59537267  0.27602068  1
  Zr  Zr7  1  0.92350627  0.44753090  0.87147090  1
  Zr  Zr8  1  0.66314439  0.73430819  0.28134218  1
  Zr  Zr9  1  0.89306831  0.67252093  0.94870948  1
  Zr  Zr10  1  0.28728128  0.52172404  0.69005006  1
  Zr  Zr11  1  0.22118548  0.87254594  0.76801632  1
  Zr  Zr12  1  0.32933704  0.34175946  0.53412439  1
  Zr  Zr13  1  0.98592123  0.30066475  0.45770155  1
  Zr  Zr14  1  0.87531003  0.11439365  0.51113219  1
  Zr  Zr15  1  0.32057722  0.97536078  0.32539030  1
  Zr  Zr16  1  0.81168937  0.73062470  0.14732102  1
  Zr  Zr17  1  0.24134053  0.92219648  0.10454825  1
  Zr  Zr18  1  0.66948268  0.30936297  0.15979878  1
  Zr  Zr19  1  0.16074193  0.67172698  0.79380544  1
  Zr  Zr20  1  0.16289371  0.47646253  0.15631584  1
  Zr  Zr21  1  0.48432699  0.48595084  0.47380237  1
  Zr  Zr22  1  0.54848626  0.09339211  0.20372105  1
  Zr  Zr23  1  0.86425388  0.65939393  0.34993060  1
  Zr  Zr24  1  0.37067614  0.94377283  0.91889714  1
  Zr  Zr25  1  0.59699799  0.69365577  0.76763295  1
  Zr  Zr26  1  0.17570070  0.18510124  0.60591285  1
  Zr  Zr27  1  0.74994479  0.05771976  0.89779936  1
  Zr  Zr28  1  0.41635942  0.88891085  0.50229471  1
  Zr  Zr29  1  0.26010058  0.76655164  0.40832525  1
  Zr  Zr30  1  0.76609463  0.29666216  0.53750303  1
  Zr  Zr31  1  0.27524455  0.53690788  0.92593606  1
  Zr  Zr32  1  0.34152268  0.10283316  0.10340381  1
  Zr  Zr33  1  0.96041968  0.46078846  0.27928153  1
  Zr  Zr34  1  0.26906299  0.73709951  0.61252115  1
  Zr  Zr35  1  0.67840218  0.49856453  0.60940045  1
  Zr  Zr36  1  0.01419932  0.53960303  0.46559120  1
  Zr  Zr37  1  0.96273809  0.05631829  0.92439748  1
  Zr  Zr38  1  0.53255507  0.25172034  0.48492856  1
  Zr  Zr39  1  0.57874601  0.46348602  0.06974700  1
  Zr  Zr40  1  0.05404861  0.76740299  0.47091474  1
  Zr  Zr41  1  0.59654547  0.31127087  0.69041753  1
  Zr  Zr42  1  0.51688297  0.32755447  0.26878120  1
  Zr  Zr43  1  0.92535215  0.09764076  0.29950534  1
  Zr  Zr44  1  0.66052785  0.61838624  0.44424857  1
  Zr  Zr45  1  0.33353410  0.16672798  0.90652763  1
  Zr  Zr46  1  0.03167584  0.82396755  0.66092378  1
  Zr  Zr47  1  0.46241273  0.26399405  0.06628809  1
  Zr  Zr48  1  0.48240918  0.49720640  0.70281041  1
  Zr  Zr49  1  0.00751429  0.85443803  0.86834625  1
  Sc  Sc50  1  0.65050322  0.27331889  0.92853688  1
  Sc  Sc51  1  0.46875086  0.87876968  0.72795462  1
  Sc  Sc52  1  0.37288313  0.70547646  0.80458166  1
  Sc  Sc53  1  0.81331123  0.79902833  0.77361756  1
  Sc  Sc54  1  0.08193166  0.64476248  0.28814219  1
  Sc  Sc55  1  0.84951939  0.89198678  0.52546061  1
  Sc  Sc56  1  0.83836046  0.29584090  0.30898714  1
  Sc  Sc57  1  0.08162159  0.03910148  0.71860066  1
  Sc  Sc58  1  0.86295809  0.34629778  0.10463969  1
  Sc  Sc59  1  0.76641366  0.49315282  -0.00237460  1
  Sc  Sc60  1  0.74585999  0.51640536  0.23031274  1
  Sc  Sc61  1  0.92273205  0.86337393  0.32366610  1
  Sc  Sc62  1  0.95872647  0.24980404  0.68284200  1
  Sc  Sc63  1  0.37616962  0.47604611  0.10840679  1
  Sc  Sc64  1  0.52329704  0.06312005  0.61188957  1
  Sc  Sc65  1  0.09773293  0.22298834  0.85400396  1
  Sc  Sc66  1  0.72278707  0.96128223  0.31922921  1
  Sc  Sc67  1  0.53727678  0.10708568  0.81698620  1
  Sc  Sc68  1  0.48584432  0.58636149  0.93084894  1
  Sc  Sc69  1  0.62586270  0.84826465  0.48141971  1
  Sc  Sc70  1  0.88219758  0.00091332  0.72162071  1
  Sc  Sc71  1  0.68498275  0.17830577  0.34423882  1
  Sc  Sc72  1  0.08182564  0.58030346  0.97682778  1
  Sc  Sc73  1  0.25743080  0.32607204  0.77010158  1
  Sc  Sc74  1  0.86994675  0.95593908  0.14671972  1
  Sc  Sc75  1  0.85838428  0.66708352  0.57404733  1
  Sc  Sc76  1  0.48034015  0.68525832  0.58506999  1
  Sc  Sc77  1  0.12899750  0.39378952  0.57970644  1
  Sc  Sc78  1  0.77811059  0.58126394  0.77725586  1
  Sc  Sc79  1  0.45038364  0.91232529  0.11579199  1
  Sc  Sc80  1  0.05501666  0.27810065  0.22964486  1
  Sc  Sc81  1  0.17259159  0.79397685  -0.03832798  1
  Sc  Sc82  1  0.37949938  0.17860085  0.31143456  1
  Sc  Sc83  1  0.12683418  0.86607523  0.27330294  1
  Sc  Sc84  1  0.68022122  0.93447871  0.67671315  1
  Sc  Sc85  1  0.74585944  0.11732091  0.10262939  1
  Sc  Sc86  1  0.44367055  0.36982359  0.87807016  1
  Sc  Sc87  1  0.86695078  0.24454394  0.90409145  1
  Sc  Sc88  1  0.14279689  0.08354868  0.23794553  1
  Sc  Sc89  1  0.68082972  0.69200493  0.97086162  1
  Sc  Sc90  1  0.65746760  0.89326801  0.10508878  1
  Sc  Sc91  1  0.20827736  0.93759038  0.55353271  1
  Sc  Sc92  1  0.06269234  1.03328006  0.45068042  1
  Sc  Sc93  1  0.73954545  0.15634948  0.70410594  1
  Sc  Sc94  1  0.31378955  0.05315371  0.71988120  1
  Sc  Sc95  1  0.34321742  0.39784126  0.32925355  1
  Sc  Sc96  1  0.26138877  0.55614494  0.48023757  1
  Sc  Sc97  1  0.04829169  0.35675032  0.02407214  1
  Sc  Sc98  1  1.00874081  0.76882604  0.10803617  1
  Sc  Sc99  1  0.50913732  0.68740454  0.14388539  1
  Nb  Nb100  1  0.34831792  0.72692113  0.02643177  1
  Nb  Nb101  1  0.20374417  0.68337449  0.13051925  1
  Nb  Nb102  1  0.15189450  0.42626707  0.35311207  1
  Nb  Nb103  1  0.10169571  0.61131519  0.61650323  1
  Nb  Nb104  1  0.14783976  0.15899291  0.04629524  1
  Nb  Nb105  1  0.77967009  0.36761611  0.75116411  1
  Nb  Nb106  1  0.83521953  0.87668926  0.97300975  1
  Nb  Nb107  1  0.54551484  1.05892588  1.00552480  1
  Nb  Nb108  1  0.93895101  0.55943731  0.12025609  1
  Nb  Nb109  1  0.51668308  0.87974471  0.29995052  1
  Nb  Nb110  1  0.05207708  -0.03139172  0.07332744  1
  Nb  Nb111  1  0.69414296  0.06616128  0.51254122  1
  Nb  Nb112  1  0.91842749  0.45845813  0.63607953  1
  Nb  Nb113  1  0.50483067  0.79965063  0.94834294  1
  Nb  Nb114  1  0.52547018  0.04490391  0.40375573  1
  Nb  Nb115  1  0.34110507  0.79048529  0.23236700  1
  Nb  Nb116  1  0.25446645  0.28617463  0.17692158  1
  Nb  Nb117  1  0.62951422  0.47150789  0.83985906  1
  Nb  Nb118  1  0.95519294  0.15356013  0.10163248  1
  Nb  Nb119  1  0.46867250  0.70309530  0.37838653  1
  Nb  Nb120  1  0.25071693  0.33825515  0.98808378  1
  Nb  Nb121  1  0.53588159  0.53289130  0.27832130  1
  Nb  Nb122  1  0.82599828  0.47558607  0.45108949  1
  Nb  Nb123  1  0.66007551  0.40266206  0.38999385  1
  Nb  Nb124  1  0.17391334  0.01503908  0.91382698  1
