# generated using pymatgen
data_Zr2Sc2Nb
_symmetry_space_group_name_H-M   'P 1'
_cell_length_a   14.24934128
_cell_length_b   14.29911216
_cell_length_c   14.17634526
_cell_angle_alpha   91.09953483
_cell_angle_beta   87.77173240
_cell_angle_gamma   89.04316376
_symmetry_Int_Tables_number   1
_chemical_formula_structural   Zr2Sc2Nb
_chemical_formula_sum   'Zr50 Sc50 Nb25'
_cell_volume   2885.31633084
_cell_formula_units_Z   25
loop_
 _symmetry_equiv_pos_site_id
 _symmetry_equiv_pos_as_xyz
  1  'x, y, z'
loop_
 _atom_site_type_symbol
 _atom_site_label
 _atom_site_symmetry_multiplicity
 _atom_site_fract_x
 _atom_site_fract_y
 _atom_site_fract_z
 _atom_site_occupancy
  Zr  Zr0  1  0.87738108  0.24739873  0.89925938  1
  Zr  Zr1  1  0.21137717  0.56674286  0.47213836  1
  Zr  Zr2  1  0.45727268  0.14498010  0.45191250  1
  Zr  Zr3  1  0.41427416  0.50035155  0.01402321  1
  Zr  Zr4  1  0.87160126  0.17520212  0.29472502  1
  Zr  Zr5  1  0.53985342  0.14779854  0.85899496  1
  Zr  Zr6  1  -0.01501697  0.49870645  0.39850688  1
  Zr  Zr7  1  0.26878704  0.12139413  0.52045812  1
  Zr  Zr8  1  0.52829676  0.63485880  0.69511897  1
  Zr  Zr9  1  0.89920383  0.70205637  0.28165239  1
  Zr  Zr10  1  0.76481372  0.54177278  0.19239353  1
  Zr  Zr11  1  0.21243188  0.54886966  0.10852766  1
  Zr  Zr12  1  0.79855015  0.46179720  0.95351687  1
  Zr  Zr13  1  0.89295481  0.25813227  0.66128345  1
  Zr  Zr14  1  0.71702055  0.73102092  0.57551583  1
  Zr  Zr15  1  0.17192852  0.95226041  0.50591966  1
  Zr  Zr16  1  0.11881104  0.64776198  0.31015340  1
  Zr  Zr17  1  0.66513084  0.22734802  0.33489454  1
  Zr  Zr18  1  0.34368091  0.55235716  0.82397711  1
  Zr  Zr19  1  0.18028879  0.44531610  0.29097026  1
  Zr  Zr20  1  0.20516296  0.10974011  0.72543647  1
  Zr  Zr21  1  0.51365247  0.83868897  0.65790510  1
  Zr  Zr22  1  0.95506726  0.68706964  0.48440896  1
  Zr  Zr23  1  0.90418200  0.74365400  0.68999951  1
  Zr  Zr24  1  0.31365781  0.17982190  0.91617689  1
  Zr  Zr25  1  0.89457814  0.63631390  0.05064420  1
  Zr  Zr26  1  0.35010593  0.59474778  0.29122872  1
  Zr  Zr27  1  0.60308104  0.43653378  0.36449955  1
  Zr  Zr28  1  0.12543438  0.34317380  0.08937984  1
  Zr  Zr29  1  0.95619576  0.29740524  0.46185876  1
  Zr  Zr30  1  0.47126755  0.25451098  0.26472796  1
  Zr  Zr31  1  0.53261822  0.86695360  -0.04496074  1
  Zr  Zr32  1  0.59437321  0.27338361  0.68260784  1
  Zr  Zr33  1  0.33396458  0.68742950  0.62562213  1
  Zr  Zr34  1  0.74468425  0.31291412  0.50875630  1
  Zr  Zr35  1  0.45563665  0.67581886  0.12327876  1
  Zr  Zr36  1  0.40547012  0.19123173  0.68616125  1
  Zr  Zr37  1  0.92034234  0.95274892  0.28477967  1
  Zr  Zr38  1  0.98530990  0.10402985  0.76500859  1
  Zr  Zr39  1  0.14646965  0.05263898  0.91862787  1
  Zr  Zr40  1  0.74189658  0.66645069  0.92296945  1
  Zr  Zr41  1  0.47422770  0.80329660  0.31164641  1
  Zr  Zr42  1  0.69367409  0.79072384  0.30590904  1
  Zr  Zr43  1  0.25120497  0.23311921  0.33884753  1
  Zr  Zr44  1  0.84423512  0.93407609  0.77195942  1
  Zr  Zr45  1  0.83871208  0.06257344  0.12233989  1
  Zr  Zr46  1  0.12237377  0.75450972  0.58001022  1
  Zr  Zr47  1  0.94415462  -0.01223832  0.95042676  1
  Zr  Zr48  1  0.28417114  0.90282223  0.66105058  1
  Zr  Zr49  1  0.72866300  0.01454100  0.32665003  1
  Sc  Sc50  1  0.61981750  0.96531449  0.79842475  1
  Sc  Sc51  1  0.75949291  0.58315151  0.41088018  1
  Sc  Sc52  1  0.07457510  0.84366540  0.35875150  1
  Sc  Sc53  1  0.74273647  0.12816149  0.72259032  1
  Sc  Sc54  1  0.07623418  0.90615366  0.75355811  1
  Sc  Sc55  1  0.43261822  0.52911039  0.50147663  1
  Sc  Sc56  1  0.86534515  0.47146141  0.58072905  1
  Sc  Sc57  1  0.09580082  0.26469270  0.87815597  1
  Sc  Sc58  1  0.03814632  0.29593541  0.27192159  1
  Sc  Sc59  1  0.05994193  0.75692833  0.14156837  1
  Sc  Sc60  1  0.39158198  1.00108782  0.81965464  1
  Sc  Sc61  1  0.08458667  0.08614711  0.34141797  1
  Sc  Sc62  1  0.52260023  0.66891981  0.90841290  1
  Sc  Sc63  1  0.99524469  0.51013330  0.18120808  1
  Sc  Sc64  1  0.86142140  0.31643329  0.11625916  1
  Sc  Sc65  1  0.10211974  0.32241656  0.66575883  1
  Sc  Sc66  1  0.32061985  0.32212464  0.55130199  1
  Sc  Sc67  1  0.13777756  0.47813748  0.83537714  1
  Sc  Sc68  1  0.29805542  0.93830270  1.02225021  1
  Sc  Sc69  1  0.05181647  0.54329039  0.63166636  1
  Sc  Sc70  1  0.12083065  0.83791922  0.94892952  1
  Sc  Sc71  1  0.28109464  0.76870775  0.42605624  1
  Sc  Sc72  1  0.45427877  0.33870158  0.85587998  1
  Sc  Sc73  1  0.59610953  0.48226498  0.83895720  1
  Sc  Sc74  1  0.40182280  0.93624078  0.48544600  1
  Sc  Sc75  1  0.65445028  0.11913116  0.51772641  1
  Sc  Sc76  1  0.65391942  0.94558691  0.12865193  1
  Sc  Sc77  1  0.86253246  0.84241295  0.11025817  1
  Sc  Sc78  1  0.15322974  0.68915990  0.77926099  1
  Sc  Sc79  1  0.82696305  0.85661364  0.44671103  1
  Sc  Sc80  1  0.26516252  0.79384458  0.20450002  1
  Sc  Sc81  1  0.63808752  0.48561749  0.58382763  1
  Sc  Sc82  1  0.25447318  0.15629354  0.12554888  1
  Sc  Sc83  1  0.65522999  0.73749717  0.10528753  1
  Sc  Sc84  1  0.53959721  0.70286927  0.47415229  1
  Sc  Sc85  1  0.06365973  0.14236367  0.55578559  1
  Sc  Sc86  1  0.47282177  0.28699306  0.05372820  1
  Sc  Sc87  1  0.46732954  0.06694616  0.05668296  1
  Sc  Sc88  1  0.30015512  -0.00257006  0.29771341  1
  Sc  Sc89  1  0.01790825  0.16419806  0.07411447  1
  Sc  Sc90  1  -0.03257791  0.92732554  0.57549689  1
  Sc  Sc91  1  0.86023242  0.09090732  0.49555150  1
  Sc  Sc92  1  0.52073962  0.02168907  0.28617568  1
  Sc  Sc93  1  0.66528782  0.30443531  0.95427337  1
  Sc  Sc94  1  0.29136637  0.70960648  -0.00025296  1
  Sc  Sc95  1  0.76313973  0.57856505  0.73406140  1
  Sc  Sc96  1  0.36337120  0.78686579  0.82039638  1
  Sc  Sc97  1  0.09095472  0.97187723  0.13640295  1
  Sc  Sc98  1  0.73151079  0.08119950  0.93974082  1
  Sc  Sc99  1  0.64780805  0.16520323  0.13452364  1
  Nb  Nb100  1  0.58175313  0.61199202  0.27120987  1
  Nb  Nb101  1  0.68644694  0.77924955  0.77220082  1
  Nb  Nb102  1  0.93042579  0.77864470  0.89749977  1
  Nb  Nb103  1  0.75134768  0.36658587  0.75337458  1
  Nb  Nb104  1  0.44743113  0.43229907  0.67767649  1
  Nb  Nb105  1  0.60582015  0.91302588  0.46611024  1
  Nb  Nb106  1  0.08408918  0.62701127  0.97614238  1
  Nb  Nb107  1  0.61673894  0.53005451  0.05545229  1
  Nb  Nb108  1  0.93872422  0.41455244  0.78325531  1
  Nb  Nb109  1  0.26990993  0.37763635  0.96342429  1
  Nb  Nb110  1  0.51839459  0.03756256  0.63777093  1
  Nb  Nb111  1  0.99322587  0.43885647  -0.02125259  1
  Nb  Nb112  1  0.45184140  0.87604050  0.14026529  1
  Nb  Nb113  1  0.52138585  0.31957706  0.50012861  1
  Nb  Nb114  1  0.27732405  0.33165288  0.76553567  1
  Nb  Nb115  1  0.94682220  0.59440985  0.83665734  1
  Nb  Nb116  1  0.25444290  0.49587032  0.64895517  1
  Nb  Nb117  1  0.36539559  0.39822929  0.36926066  1
  Nb  Nb118  1  0.65666226  0.37276139  0.16997745  1
  Nb  Nb119  1  0.82229171  0.38612356  0.31743804  1
  Nb  Nb120  1  0.31520963  0.36392279  0.16676968  1
  Nb  Nb121  1  0.48173353  0.46161606  0.19982321  1
  Nb  Nb122  1  0.74903495  0.87200283  0.94562497  1
  Nb  Nb123  1  0.14701368  0.36991729  0.47348648  1
  Nb  Nb124  1  0.72130407  0.93556142  0.61436222  1
