# generated using pymatgen
data_Zr2Sc2Nb
_symmetry_space_group_name_H-M   'P 1'
_cell_length_a   14.15137628
_cell_length_b   14.14684295
_cell_length_c   14.37838681
_cell_angle_alpha   89.27419100
_cell_angle_beta   89.92314032
_cell_angle_gamma   90.46277789
_symmetry_Int_Tables_number   1
_chemical_formula_structural   Zr2Sc2Nb
_chemical_formula_sum   'Zr50 Sc50 Nb25'
_cell_volume   2878.18634150
_cell_formula_units_Z   25
loop_
 _symmetry_equiv_pos_site_id
 _symmetry_equiv_pos_as_xyz
  1  'x, y, z'
loop_
 _atom_site_type_symbol
 _atom_site_label
 _atom_site_symmetry_multiplicity
 _atom_site_fract_x
 _atom_site_fract_y
 _atom_site_fract_z
 _atom_site_occupancy
  Zr  Zr0  1  0.48494440  0.49994011  0.82003406  1
  Zr  Zr1  1  0.28408779  0.81787175  0.69581697  1
  Zr  Zr2  1  0.16450033  0.50253826  0.60378477  1
  Zr  Zr3  1  0.33399033  0.38678542  0.70431196  1
  Zr  Zr4  1  -0.00491919  0.23844052  0.08728461  1
  Zr  Zr5  1  0.19811584  0.28272067  0.55522011  1
  Zr  Zr6  1  0.33856659  0.86316662  0.92587531  1
  Zr  Zr7  1  0.61718720  0.93655008  0.75170031  1
  Zr  Zr8  1  0.91901755  0.12152759  0.35471421  1
  Zr  Zr9  1  0.52891823  0.30824018  0.67002622  1
  Zr  Zr10  1  0.51002166  0.71915390  0.04562929  1
  Zr  Zr11  1  0.32152353  0.64478840  0.93718654  1
  Zr  Zr12  1  0.91119401  0.49740540  0.31197438  1
  Zr  Zr13  1  0.10106589  0.71233020  0.63288625  1
  Zr  Zr14  1  0.45681129  0.37094185  0.31956721  1
  Zr  Zr15  1  0.88096192  0.64936601  0.13927062  1
  Zr  Zr16  1  0.12040821  0.36340554  0.77687449  1
  Zr  Zr17  1  0.40107847  0.08689574  0.99574495  1
  Zr  Zr18  1  0.20680803  0.76814347  0.29799240  1
  Zr  Zr19  1  0.68707385  0.73769937  0.75975743  1
  Zr  Zr20  1  0.05402793  0.17346019  0.89190669  1
  Zr  Zr21  1  0.46408964  0.50130468  0.02663824  1
  Zr  Zr22  1  0.09691214  0.15117416  0.69777882  1
  Zr  Zr23  1  0.78862508  0.28284457  0.41484820  1
  Zr  Zr24  1  0.52499872  0.29764042  0.14855024  1
  Zr  Zr25  1  0.58263174  0.18685472  0.35584904  1
  Zr  Zr26  1  0.24891330  0.03190999  0.82363861  1
  Zr  Zr27  1  0.02579885  0.00251417  0.12794736  1
  Zr  Zr28  1  0.94464646  0.37523610  0.91351372  1
  Zr  Zr29  1  0.42694661  0.90855683  0.12465373  1
  Zr  Zr30  1  0.69737965  0.13354918  0.64804714  1
  Zr  Zr31  1  0.28888367  0.09559899  0.42769919  1
  Zr  Zr32  1  0.67346916  0.57983704  0.10281380  1
  Zr  Zr33  1  0.55143298  0.07091408  0.16305899  1
  Zr  Zr34  1  0.14688588  0.34369129  1.00423423  1
  Zr  Zr35  1  0.90474027  0.05041363  0.96342335  1
  Zr  Zr36  1  0.08188420  0.60089268  0.23878112  1
  Zr  Zr37  1  1.01309721  0.56171715  0.74128960  1
  Zr  Zr38  1  0.56132845  0.93473554  0.95625272  1
  Zr  Zr39  1  0.31748956  0.94180351  0.29363632  1
  Zr  Zr40  1  0.67885650  0.42088814  0.27713290  1
  Zr  Zr41  1  0.09029474  0.95482560  0.91741907  1
  Zr  Zr42  1  0.71316666  0.74660938  0.98986567  1
  Zr  Zr43  1  0.42033725  0.95935008  0.73152003  1
  Zr  Zr44  1  0.12238282  0.46044299  0.41168872  1
  Zr  Zr45  1  0.34391990  0.45469985  0.49410770  1
  Zr  Zr46  1  0.98929035  0.33640728  0.61368420  1
  Zr  Zr47  1  0.29260583  0.54939493  0.31243819  1
  Zr  Zr48  1  0.60283308  0.91275066  0.55488814  1
  Zr  Zr49  1  0.49298645  0.73104429  0.83795589  1
  Sc  Sc50  1  0.20984261  0.90065145  0.10146640  1
  Sc  Sc51  1  0.08247969  0.67153516  0.43409923  1
  Sc  Sc52  1  0.94865476  0.52310612  0.53746362  1
  Sc  Sc53  1  0.82525909  0.42531213  0.09956792  1
  Sc  Sc54  1  0.28724064  0.60446158  0.73976936  1
  Sc  Sc55  1  0.75381189  0.50312776  0.47643395  1
  Sc  Sc56  1  0.47132862  0.57693332  0.62074860  1
  Sc  Sc57  1  0.71903541  0.22987558  0.18238547  1
  Sc  Sc58  1  0.70083140  0.64965048  0.30788978  1
  Sc  Sc59  1  0.83066904  0.87035379  0.13685034  1
  Sc  Sc60  1  0.43365330  0.75401626  0.29299006  1
  Sc  Sc61  1  0.65386655  0.48721320  0.66763387  1
  Sc  Sc62  1  0.73487931  0.84132851  0.40231043  1
  Sc  Sc63  1  0.68580028  0.55272506  0.87512885  1
  Sc  Sc64  1  0.51080829  0.13252200  0.80493004  1
  Sc  Sc65  1  0.68600899  0.31055940  0.81534776  1
  Sc  Sc66  1  0.38292073  0.89867635  0.50407407  1
  Sc  Sc67  1  0.08887097  0.92455005  0.69430198  1
  Sc  Sc68  1  0.72450534  0.09841764  0.85073020  1
  Sc  Sc69  1  0.94483375  0.94540459  0.51389699  1
  Sc  Sc70  1  0.90498743  0.02319282  0.73637089  1
  Sc  Sc71  1  0.52928404  0.96148107  0.35237952  1
  Sc  Sc72  1  0.32265044  0.32320741  0.11518796  1
  Sc  Sc73  1  0.89290550  0.73596161  0.53748880  1
  Sc  Sc74  1  0.62736478  0.83670426  0.19052555  1
  Sc  Sc75  1  0.11648594  0.69556612  0.05152258  1
  Sc  Sc76  1  0.31196290  0.68397282  0.50158186  1
  Sc  Sc77  1  0.53697893  0.54630192  0.42450668  1
  Sc  Sc78  1  0.27115770  0.23171665  0.87177685  1
  Sc  Sc79  1  0.46144938  0.30574543  0.91798959  1
  Sc  Sc80  1  0.08873545  0.10868070  0.48824761  1
  Sc  Sc81  1  0.89013429  0.59263012  0.92426864  1
  Sc  Sc82  1  0.31814339  0.70943644  0.13361257  1
  Sc  Sc83  1  0.64930741  0.38291461  0.00599549  1
  Sc  Sc84  1  0.24032698  0.51472833  0.10439627  1
  Sc  Sc85  1  0.74716463  0.05168862  0.46599705  1
  Sc  Sc86  1  0.25170731  0.30201350  0.34297394  1
  Sc  Sc87  1  0.49368175  0.09096020  0.56510891  1
  Sc  Sc88  1  0.19907427  0.12674856  0.06688998  1
  Sc  Sc89  1  0.11853312  0.53881509  0.91256495  1
  Sc  Sc90  1  0.13978297  0.75476624  0.84350811  1
  Sc  Sc91  1  0.16917711  0.87532835  0.49327983  1
  Sc  Sc92  1  0.10607735  0.97277745  0.31925183  1
  Sc  Sc93  1  0.67706693  0.69162117  0.55978400  1
  Sc  Sc94  1  0.36612298  0.14626020  0.23293184  1
  Sc  Sc95  1  0.40889122  0.26012695  0.49598331  1
  Sc  Sc96  1  0.95143945  0.80659930  0.98387993  1
  Sc  Sc97  1  0.92563860  0.77938345  0.76099956  1
  Sc  Sc98  1  0.78480579  0.89848899  0.87670962  1
  Sc  Sc99  1  0.49440586  0.56021380  0.21834015  1
  Nb  Nb100  1  0.88269053  0.22795425  0.76943988  1
  Nb  Nb101  1  0.91260860  0.30917995  0.24472382  1
  Nb  Nb102  1  0.60041437  0.35109716  0.48712209  1
  Nb  Nb103  1  0.72310962  0.02259336  0.26668422  1
  Nb  Nb104  1  0.76854486  0.32290188  0.60923021  1
  Nb  Nb105  1  0.01383160  0.48090018  0.09295323  1
  Nb  Nb106  1  0.90085702  0.92977972  0.30900367  1
  Nb  Nb107  1  0.90851650  0.72654186  0.32587499  1
  Nb  Nb108  1  0.78064392  0.88580464  0.63687343  1
  Nb  Nb109  1  0.82225849  0.60859086  0.69046193  1
  Nb  Nb110  1  0.02807755  0.80683672  0.19997882  1
  Nb  Nb111  1  0.89881525  0.16256384  0.56926082  1
  Nb  Nb112  1  0.30164254  0.44145309  0.90406989  1
  Nb  Nb113  1  0.48796570  0.77628986  0.64829422  1
  Nb  Nb114  1  0.80858033  0.22845782  -0.01108649  1
  Nb  Nb115  1  0.60386235  0.17344275  -0.00445086  1
  Nb  Nb116  1  0.01396646  0.29871067  0.41310190  1
  Nb  Nb117  1  0.25566246  1.03118066  0.61198291  1
  Nb  Nb118  1  0.71938059  0.02485183  0.05644511  1
  Nb  Nb119  1  0.10619965  0.37825833  0.22269592  1
  Nb  Nb120  1  0.87030139  0.10312133  0.16753408  1
  Nb  Nb121  1  0.52802585  0.75200829  0.45401372  1
  Nb  Nb122  1  0.33861139  0.18069968  0.68389386  1
  Nb  Nb123  1  0.09909018  0.17690415  0.26105078  1
  Nb  Nb124  1  0.85338721  0.43245141  0.74786129  1
