# generated using pymatgen
data_Zr2Sc2Nb
_symmetry_space_group_name_H-M   'P 1'
_cell_length_a   14.16825224
_cell_length_b   14.82039810
_cell_length_c   13.64060108
_cell_angle_alpha   91.46708923
_cell_angle_beta   90.85950789
_cell_angle_gamma   90.12058743
_symmetry_Int_Tables_number   1
_chemical_formula_structural   Zr2Sc2Nb
_chemical_formula_sum   'Zr50 Sc50 Nb25'
_cell_volume   2862.97171193
_cell_formula_units_Z   25
loop_
 _symmetry_equiv_pos_site_id
 _symmetry_equiv_pos_as_xyz
  1  'x, y, z'
loop_
 _atom_site_type_symbol
 _atom_site_label
 _atom_site_symmetry_multiplicity
 _atom_site_fract_x
 _atom_site_fract_y
 _atom_site_fract_z
 _atom_site_occupancy
  Zr  Zr0  1  0.93913917  0.88115675  0.74417796  1
  Zr  Zr1  1  0.16195064  0.56628075  0.69854907  1
  Zr  Zr2  1  0.85995018  0.71037918  0.45086020  1
  Zr  Zr3  1  0.64484059  0.12035861  0.89734068  1
  Zr  Zr4  1  0.38178430  1.03884599  0.50417155  1
  Zr  Zr5  1  0.54296862  0.25114931  0.49929558  1
  Zr  Zr6  1  0.47323591  0.48047501  -0.01128262  1
  Zr  Zr7  1  0.01318508  0.26000604  -0.03594182  1
  Zr  Zr8  1  0.03993481  0.26068694  0.26736116  1
  Zr  Zr9  1  0.02337199  0.67509981  0.32101954  1
  Zr  Zr10  1  0.63444177  0.91271872  -0.03798093  1
  Zr  Zr11  1  0.16509274  0.63952574  0.13880091  1
  Zr  Zr12  1  0.66843704  0.79331473  0.35272687  1
  Zr  Zr13  1  0.11129307  0.83583730  0.40865450  1
  Zr  Zr14  1  0.28306038  0.73678806  0.30213565  1
  Zr  Zr15  1  0.25912882  0.06991109  0.70137611  1
  Zr  Zr16  1  0.31305595  0.80909373  0.11039675  1
  Zr  Zr17  1  0.73996853  0.71679290  1.01767905  1
  Zr  Zr18  1  0.59557790  0.05904232  0.53298413  1
  Zr  Zr19  1  0.12241844  0.18483392  0.80652975  1
  Zr  Zr20  1  0.83440138  0.27123406  0.30857215  1
  Zr  Zr21  1  0.98499009  0.97106398  0.09340789  1
  Zr  Zr22  1  0.31566802  0.14054753  0.16574144  1
  Zr  Zr23  1  0.61472186  0.34594235  1.04422220  1
  Zr  Zr24  1  0.06288145  0.03730833  0.27714040  1
  Zr  Zr25  1  0.27329162  0.89482121  0.87978834  1
  Zr  Zr26  1  0.67082090  0.57921104  0.37149063  1
  Zr  Zr27  1  0.27158063  0.96088680  0.29387572  1
  Zr  Zr28  1  0.68457239  0.38440485  0.39860026  1
  Zr  Zr29  1  0.09208193  0.57694597  0.93704512  1
  Zr  Zr30  1  0.63887933  0.44419999  0.60561628  1
  Zr  Zr31  1  0.12585921  0.40103039  0.84504251  1
  Zr  Zr32  1  0.89876970  0.65342152  0.88851257  1
  Zr  Zr33  1  0.32226711  0.23825855  0.54785545  1
  Zr  Zr34  1  0.88805253  0.68262478  0.66166714  1
  Zr  Zr35  1  0.02380306  0.54145422  0.51471101  1
  Zr  Zr36  1  0.24723856  0.29241727  0.98352284  1
  Zr  Zr37  1  0.08602385  0.41225006  0.08406884  1
  Zr  Zr38  1  0.32018854  0.46632684  0.59248294  1
  Zr  Zr39  1  0.53624003  0.86312303  0.51816714  1
  Zr  Zr40  1  0.47142649  0.35099233  0.67939521  1
  Zr  Zr41  1  0.49382020  0.56308897  0.71331384  1
  Zr  Zr42  1  0.51441798  0.46997780  0.22712030  1
  Zr  Zr43  1  0.09773928  -0.00256209  0.88953958  1
  Zr  Zr44  1  0.77363228  0.87597438  0.16454731  1
  Zr  Zr45  1  0.29639006  0.10240234  0.93903737  1
  Zr  Zr46  1  0.40770529  0.32659548  0.12174756  1
  Zr  Zr47  1  0.29072975  0.27348502  0.75187376  1
  Zr  Zr48  1  0.46454414  0.01400042  0.87641039  1
  Zr  Zr49  1  0.01359188  0.05926894  0.67152079  1
  Sc  Sc50  1  0.93591108  0.12560552  0.44850869  1
  Sc  Sc51  1  0.56451043  0.64087466  0.91593791  1
  Sc  Sc52  1  0.92218907  0.55197730  0.11069936  1
  Sc  Sc53  1  0.96762970  0.34610974  0.49798872  1
  Sc  Sc54  1  0.65949796  0.66966266  0.56741137  1
  Sc  Sc55  1  0.73078958  0.78685552  0.80127463  1
  Sc  Sc56  1  0.92260044  0.44146114  0.90808423  1
  Sc  Sc57  1  0.48930824  0.67620749  0.30547944  1
  Sc  Sc58  1  0.94498477  0.90394189  0.52312162  1
  Sc  Sc59  1  0.95127134  0.27435327  0.71773743  1
  Sc  Sc60  1  0.38707878  0.31737700  0.34784606  1
  Sc  Sc61  1  0.72146816  0.19980787  0.13450747  1
  Sc  Sc62  1  0.55694079  0.79734893  0.13121278  1
  Sc  Sc63  1  0.74169677  0.86456560  0.60100507  1
  Sc  Sc64  1  0.09036618  0.48373974  0.28836231  1
  Sc  Sc65  1  0.46752951  0.26075394  0.88891762  1
  Sc  Sc66  1  0.39757660  0.92052780  0.68841922  1
  Sc  Sc67  1  0.28881015  0.65785317  0.92564722  1
  Sc  Sc68  1  0.65232782  0.22848258  0.71517794  1
  Sc  Sc69  1  0.75863412  0.96582137  0.40826099  1
  Sc  Sc70  1  0.62749601  0.01538563  0.20709615  1
  Sc  Sc71  1  0.87820213  0.49082502  0.33843909  1
  Sc  Sc72  1  0.46575185  0.89465107  0.30968124  1
  Sc  Sc73  1  0.78624117  0.27304967  0.91192603  1
  Sc  Sc74  1  0.30490959  0.83821788  0.50254834  1
  Sc  Sc75  1  0.46999014  0.11312431  0.32522181  1
  Sc  Sc76  1  0.51499757  0.14418150  0.07445818  1
  Sc  Sc77  1  0.30695154  0.71976622  0.70565924  1
  Sc  Sc78  1  0.43477536  0.66870507  0.52290558  1
  Sc  Sc79  1  0.30890558  0.51801725  0.27492145  1
  Sc  Sc80  1  0.73456458  0.50375260  0.97559078  1
  Sc  Sc81  1  0.48614856  0.47587797  0.45376901  1
  Sc  Sc82  1  0.87377919  0.86836962  0.94830162  1
  Sc  Sc83  1  0.72198575  0.58401723  0.76376133  1
  Sc  Sc84  1  0.87508924  0.35426151  0.11254746  1
  Sc  Sc85  1  0.22146886  0.16979793  0.35846355  1
  Sc  Sc86  1  0.79768322  0.07317811  0.62512842  1
  Sc  Sc87  1  0.32998731  0.47083411  0.82284549  1
  Sc  Sc88  1  0.15827441  0.02202263  0.49454862  1
  Sc  Sc89  1  0.79729055  0.67162843  0.23373461  1
  Sc  Sc90  1  0.77785579  0.27126019  0.54823843  1
  Sc  Sc91  1  0.44728869  0.80487702  0.93271558  1
  Sc  Sc92  1  0.95390230  0.74904405  0.11042565  1
  Sc  Sc93  1  0.15299265  0.88908299  0.66774900  1
  Sc  Sc94  1  0.11266751  0.80361697  0.98724818  1
  Sc  Sc95  1  0.21648451  0.61973114  0.46953691  1
  Sc  Sc96  1  0.18553157  0.37135424  0.43474543  1
  Sc  Sc97  1  0.91609208  0.09624829  0.88209413  1
  Sc  Sc98  1  0.08050904  0.72938121  0.78787161  1
  Sc  Sc99  1  0.53394210  0.77218791  0.72508764  1
  Nb  Nb100  1  0.79356104  0.40405660  0.73392725  1
  Nb  Nb101  1  0.12594886  0.15187399  0.08996058  1
  Nb  Nb102  1  0.60716385  0.41627045  0.82752638  1
  Nb  Nb103  1  0.06368050  0.72526072  0.57154139  1
  Nb  Nb104  1  0.59984511  0.97539053  0.72214985  1
  Nb  Nb105  1  0.61574117  0.60047585  0.13326737  1
  Nb  Nb106  1  0.41905466  0.96834729  0.08996486  1
  Nb  Nb107  1  0.69317685  0.15618852  0.37349893  1
  Nb  Nb108  1  0.92613752  0.15968014  0.11504329  1
  Nb  Nb109  1  0.76768493  0.98484681  0.81008173  1
  Nb  Nb110  1  0.81912812  0.50951335  0.55234169  1
  Nb  Nb111  1  0.96845758  0.50580426  0.71603932  1
  Nb  Nb112  1  0.27174001  0.48341714  0.05358156  1
  Nb  Nb113  1  0.71771927  0.44412640  0.19916966  1
  Nb  Nb114  1  0.92417602  0.86620461  0.29980318  1
  Nb  Nb115  1  0.20535287  0.97731386  0.08702495  1
  Nb  Nb116  1  0.12007538  0.20483882  0.57508027  1
  Nb  Nb117  1  0.84538379  0.05963976  0.24959712  1
  Nb  Nb118  1  0.58111124  0.27711943  0.26065125  1
  Nb  Nb119  1  0.22083458  0.32580474  0.20502909  1
  Nb  Nb120  1  0.78028283  0.03696332  0.03448503  1
  Nb  Nb121  1  0.13600904  0.37684395  0.64322876  1
  Nb  Nb122  1  0.40558239  0.63290271  0.10898544  1
  Nb  Nb123  1  0.46263356  0.13422664  0.69468777  1
  Nb  Nb124  1  0.11747315  0.84012202  0.20558165  1
