# generated using pymatgen
data_Zr2Sc2Nb
_symmetry_space_group_name_H-M   'P 1'
_cell_length_a   14.04540211
_cell_length_b   14.61270579
_cell_length_c   13.93424814
_cell_angle_alpha   89.98265387
_cell_angle_beta   89.03209204
_cell_angle_gamma   86.33939043
_symmetry_Int_Tables_number   1
_chemical_formula_structural   Zr2Sc2Nb
_chemical_formula_sum   'Zr50 Sc50 Nb25'
_cell_volume   2853.64062331
_cell_formula_units_Z   25
loop_
 _symmetry_equiv_pos_site_id
 _symmetry_equiv_pos_as_xyz
  1  'x, y, z'
loop_
 _atom_site_type_symbol
 _atom_site_label
 _atom_site_symmetry_multiplicity
 _atom_site_fract_x
 _atom_site_fract_y
 _atom_site_fract_z
 _atom_site_occupancy
  Zr  Zr0  1  0.22926358  0.47546421  0.72893998  1
  Zr  Zr1  1  0.05382898  0.75723172  0.29730848  1
  Zr  Zr2  1  0.92246905  0.20775327  0.91676366  1
  Zr  Zr3  1  0.04018099  0.95045298  0.31924977  1
  Zr  Zr4  1  0.84326751  0.90790312  0.64093724  1
  Zr  Zr5  1  0.25634349  0.43866392  0.48912830  1
  Zr  Zr6  1  0.70233622  0.56743420  0.14249072  1
  Zr  Zr7  1  0.24097293  0.05011377  0.76439636  1
  Zr  Zr8  1  0.61625778  0.49209227  0.33338637  1
  Zr  Zr9  1  0.46403914  0.86287352  0.09012434  1
  Zr  Zr10  1  0.66658771  0.51910687  0.93563861  1
  Zr  Zr11  1  0.92411348  1.05223911  0.51484993  1
  Zr  Zr12  1  0.41794003  0.92558316  0.28455476  1
  Zr  Zr13  1  0.92102572  0.70315947  0.60239934  1
  Zr  Zr14  1  0.73998992  0.40071917  0.52311647  1
  Zr  Zr15  1  0.53697122  0.14768347  0.55601134  1
  Zr  Zr16  1  0.02174542  0.56637521  0.77908361  1
  Zr  Zr17  1  0.72155399  0.31950248  0.96825362  1
  Zr  Zr18  1  0.68207066  0.12775612  0.20727779  1
  Zr  Zr19  1  0.51249239  0.70564593  0.23939365  1
  Zr  Zr20  1  0.03803486  0.16812837  0.71509748  1
  Zr  Zr21  1  0.74471034  0.68118373  0.32125603  1
  Zr  Zr22  1  0.03759423  0.86308200  0.11331845  1
  Zr  Zr23  1  0.94491610  -0.01171362  0.91339686  1
  Zr  Zr24  1  0.68802873  0.41589066  0.74835727  1
  Zr  Zr25  1  1.04002426  0.41446613  0.42324751  1
  Zr  Zr26  1  0.78603153  0.60534369  0.74226159  1
  Zr  Zr27  1  0.34833719  0.65799745  0.81535783  1
  Zr  Zr28  1  0.37448641  0.60411925  0.36454406  1
  Zr  Zr29  1  0.78879731  0.24857106  0.36345484  1
  Zr  Zr30  1  0.18017966  0.55309967  0.31041092  1
  Zr  Zr31  1  0.88235071  0.07955584  0.29911770  1
  Zr  Zr32  1  0.05685985  0.93948797  0.73846610  1
  Zr  Zr33  1  0.39257182  0.26697439  0.42722860  1
  Zr  Zr34  1  0.88243599  0.84041419  0.43223418  1
  Zr  Zr35  1  0.51471166  0.66207181  0.02539344  1
  Zr  Zr36  1  0.23231845  0.93328867  0.40030095  1
  Zr  Zr37  1  0.52461637  0.08660947  0.35179480  1
  Zr  Zr38  1  0.39316498  0.42582720  0.27557092  1
  Zr  Zr39  1  0.83191308  0.46500825  0.32137111  1
  Zr  Zr40  1  0.06108396  0.35262849  0.83518960  1
  Zr  Zr41  1  0.60954570  0.56973561  0.62059298  1
  Zr  Zr42  1  0.87099712  0.62308905  -0.04046257  1
  Zr  Zr43  1  0.44553019  0.08333504  0.11908242  1
  Zr  Zr44  1  0.35047328  0.58699171  0.13691558  1
  Zr  Zr45  1  0.40663309  0.50319163  0.94561519  1
  Zr  Zr46  1  0.05600188  0.30933922  0.05659306  1
  Zr  Zr47  1  0.69282292  0.73465309  0.92972482  1
  Zr  Zr48  1  0.67047427  0.78264390  0.72093414  1
  Zr  Zr49  1  0.95465455  0.25849709  0.51304141  1
  Sc  Sc50  1  0.33654675  0.09076063  0.55171974  1
  Sc  Sc51  1  0.49960631  0.93183341  0.50964730  1
  Sc  Sc52  1  0.85679865  0.00993860  0.10068610  1
  Sc  Sc53  1  0.43513449  0.96860001  0.72502417  1
  Sc  Sc54  1  0.09671194  0.56664268  0.56335228  1
  Sc  Sc55  1  0.14527095  0.95618565  0.95374321  1
  Sc  Sc56  1  0.19322177  0.72236338  0.45626564  1
  Sc  Sc57  1  0.27163352  0.85021087  0.80719090  1
  Sc  Sc58  1  0.90493667  0.65762115  0.16477847  1
  Sc  Sc59  1  0.21765388  0.44140374  0.10891617  1
  Sc  Sc60  1  0.24114484  0.18248724  0.10310880  1
  Sc  Sc61  1  0.14981140  0.72137062  0.70252527  1
  Sc  Sc62  1  0.69793933  0.80121380  0.51848921  1
  Sc  Sc63  1  0.96756165  0.29383070  0.25765315  1
  Sc  Sc64  1  0.04207880  0.09742180  0.11630235  1
  Sc  Sc65  1  0.28574986  0.76550791  0.01131951  1
  Sc  Sc66  1  0.05998673  0.86364846  0.53888996  1
  Sc  Sc67  1  0.25279775  0.35474325  0.91770290  1
  Sc  Sc68  1  0.83819691  0.86152904  0.23407376  1
  Sc  Sc69  1  0.55903376  0.67303633  0.44931061  1
  Sc  Sc70  1  0.95643692  0.61325102  0.39599967  1
  Sc  Sc71  1  0.73920940  0.93219758  0.87165650  1
  Sc  Sc72  1  0.62261048  0.87397374  0.31167271  1
  Sc  Sc73  1  0.65949090  0.20151252  0.78920414  1
  Sc  Sc74  1  0.44622242  0.47792782  0.72337600  1
  Sc  Sc75  1  0.08948325  0.14586638  0.35575097  1
  Sc  Sc76  1  0.54419012  0.43672042  0.10244191  1
  Sc  Sc77  1  0.23705088  -0.03283643  0.15658188  1
  Sc  Sc78  1  0.30632413  0.11936164  0.31371957  1
  Sc  Sc79  1  0.71828941  0.01980964  0.44560787  1
  Sc  Sc80  1  0.07011295  0.74487087  0.92215452  1
  Sc  Sc81  1  0.23321140  0.24524269  0.73298607  1
  Sc  Sc82  1  0.84717074  0.08770485  0.74685774  1
  Sc  Sc83  1  0.74665685  0.19331264  0.57601855  1
  Sc  Sc84  1  0.86360264  0.42704817  0.08972069  1
  Sc  Sc85  1  0.87226941  0.43653404  0.86112940  1
  Sc  Sc86  1  0.64361094  1.00647364  0.68109091  1
  Sc  Sc87  1  0.47734489  0.45507916  0.49456368  1
  Sc  Sc88  1  0.12466232  0.64805821  0.11477893  1
  Sc  Sc89  1  0.20266592  0.32298409  0.28847036  1
  Sc  Sc90  1  0.49159048  0.82601006  0.87598747  1
  Sc  Sc91  1  0.64900454  0.95860072  0.08396292  1
  Sc  Sc92  1  0.33613499  0.62283646  0.58586161  1
  Sc  Sc93  1  0.46581494  0.76344082  0.64954274  1
  Sc  Sc94  1  0.27382973  0.76970991  0.24191336  1
  Sc  Sc95  1  0.49701716  0.32672991  0.86501081  1
  Sc  Sc96  1  0.54390703  0.04741136  0.90333139  1
  Sc  Sc97  1  0.50368427  0.25560551  0.23159194  1
  Sc  Sc98  1  0.89669731  0.78498152  0.80561477  1
  Sc  Sc99  1  0.13113103  0.05776150  0.55743537  1
  Nb  Nb100  1  0.18836425  0.25281674  0.51088826  1
  Nb  Nb101  1  0.90595674  0.47606063  0.61212855  1
  Nb  Nb102  1  0.04023596  0.50287748  0.99188687  1
  Nb  Nb103  1  0.14509149  0.15643986  0.91633107  1
  Nb  Nb104  1  0.36342482  0.17103478  0.92124261  1
  Nb  Nb105  1  0.74518244  0.11514726  0.96691574  1
  Nb  Nb106  1  0.44483051  0.16818431  0.73898262  1
  Nb  Nb107  1  0.56780147  0.32180801  0.63002390  1
  Nb  Nb108  1  0.55659261  0.62711498  0.81119844  1
  Nb  Nb109  1  0.87071240  0.30197624  0.70644114  1
  Nb  Nb110  1  0.84259975  0.21556899  0.11736975  1
  Nb  Nb111  1  0.85995600  0.82007625  0.01968774  1
  Nb  Nb112  1  0.34339473  0.99096566  0.95374339  1
  Nb  Nb113  1  0.20415290  0.57006543  0.92272043  1
  Nb  Nb114  1  1.02653092  0.48313607  0.21008077  1
  Nb  Nb115  1  0.37198453  0.31541504  0.62127082  1
  Nb  Nb116  1  0.68867522  0.76183377  0.12731677  1
  Nb  Nb117  1  0.77437016  0.59806026  0.50553299  1
  Nb  Nb118  1  0.57496818  0.21195362  0.03431490  1
  Nb  Nb119  1  0.39157407  0.31340608  0.07063696  1
  Nb  Nb120  1  0.07809926  0.37089454  0.63355671  1
  Nb  Nb121  1  0.59889534  0.28880760  0.41028387  1
  Nb  Nb122  1  0.69963628  0.33682996  0.19941454  1
  Nb  Nb123  1  0.27540339  0.87914520  0.59743610  1
  Nb  Nb124  1  0.38657243  0.79058679  0.43314958  1
