# generated using pymatgen
data_Zr2Sc2Nb
_symmetry_space_group_name_H-M   'P 1'
_cell_length_a   14.36383455
_cell_length_b   14.04834478
_cell_length_c   14.27868515
_cell_angle_alpha   89.38654722
_cell_angle_beta   89.78140689
_cell_angle_gamma   89.70294988
_symmetry_Int_Tables_number   1
_chemical_formula_structural   Zr2Sc2Nb
_chemical_formula_sum   'Zr50 Sc50 Nb25'
_cell_volume   2881.04451704
_cell_formula_units_Z   25
loop_
 _symmetry_equiv_pos_site_id
 _symmetry_equiv_pos_as_xyz
  1  'x, y, z'
loop_
 _atom_site_type_symbol
 _atom_site_label
 _atom_site_symmetry_multiplicity
 _atom_site_fract_x
 _atom_site_fract_y
 _atom_site_fract_z
 _atom_site_occupancy
  Zr  Zr0  1  0.05338361  0.61400205  0.40344197  1
  Zr  Zr1  1  0.24351181  0.31103596  0.78523805  1
  Zr  Zr2  1  0.18489841  0.06252246  0.39330992  1
  Zr  Zr3  1  0.64020588  0.70041960  0.55647544  1
  Zr  Zr4  1  0.50385022  0.79086012  0.76661900  1
  Zr  Zr5  1  0.94676744  0.47741697  0.51150360  1
  Zr  Zr6  1  0.59607720  0.07693538  0.30758400  1
  Zr  Zr7  1  0.95088364  0.48569208  0.93036603  1
  Zr  Zr8  1  0.55923025  0.51478603  0.63875776  1
  Zr  Zr9  1  0.50838721  0.95137667  0.48659526  1
  Zr  Zr10  1  0.95612003  0.55207185  0.72775396  1
  Zr  Zr11  1  0.83953186  0.66285078  0.87444599  1
  Zr  Zr12  1  0.20615406  0.52419463  0.28297832  1
  Zr  Zr13  1  0.49589484  0.67488788  0.14661992  1
  Zr  Zr14  1  0.22994940  -0.03619198  0.21646282  1
  Zr  Zr15  1  0.55087580  0.50463940  0.85479547  1
  Zr  Zr16  1  0.70717662  0.38509390  0.16574620  1
  Zr  Zr17  1  0.74071454  0.51786396  -0.00254218  1
  Zr  Zr18  1  0.11922192  0.81767689  0.11086688  1
  Zr  Zr19  1  0.83796057  0.09802560  0.30314460  1
  Zr  Zr20  1  0.16537588  0.12792094  0.91388706  1
  Zr  Zr21  1  0.66565023  0.64861777  0.75954896  1
  Zr  Zr22  1  0.43706087  0.74530695  0.58083606  1
  Zr  Zr23  1  0.05083303  0.26336667  0.07649813  1
  Zr  Zr24  1  0.03952800  0.31741504  0.87026835  1
  Zr  Zr25  1  0.13108973  0.59585798  0.62227892  1
  Zr  Zr26  1  0.26798088  0.15937271  0.14820628  1
  Zr  Zr27  1  0.05556783  0.25403732  0.49672430  1
  Zr  Zr28  1  0.88344576  0.13988809  0.61355240  1
  Zr  Zr29  1  0.47173255  0.01784347  0.69320823  1
  Zr  Zr30  1  0.04156879  0.67618393  0.97427795  1
  Zr  Zr31  1  0.13446107  0.47610608  0.06173117  1
  Zr  Zr32  1  0.59013467  0.13985466  0.86942636  1
  Zr  Zr33  1  0.96222709  0.75160662  0.27757031  1
  Zr  Zr34  1  0.74057335  1.01776714  -0.02528674  1
  Zr  Zr35  1  0.39159692  0.02676749  0.31962330  1
  Zr  Zr36  1  0.06795397  0.17620955  0.72262337  1
  Zr  Zr37  1  0.04151896  0.39722005  0.29326380  1
  Zr  Zr38  1  0.87112228  0.51937301  0.29750630  1
  Zr  Zr39  1  0.46092770  0.04021553  0.12225395  1
  Zr  Zr40  1  0.34526719  0.42413868  0.17229432  1
  Zr  Zr41  1  0.65011480  0.13181027  0.66567876  1
  Zr  Zr42  1  0.86994159  0.28460823  0.21534885  1
  Zr  Zr43  1  0.27866942  0.10352228  0.72205114  1
  Zr  Zr44  1  0.78436683  0.00648070  0.76161816  1
  Zr  Zr45  1  0.73118157  0.96423152  0.18822731  1
  Zr  Zr46  1  0.52933851  0.47493220  0.06673173  1
  Zr  Zr47  1  0.66834184  0.27127029  0.34659091  1
  Zr  Zr48  1  0.77007380  0.45110663  0.80149039  1
  Zr  Zr49  1  0.98067235  0.96162532  0.68831414  1
  Sc  Sc50  1  0.44106181  0.24481534  0.31319686  1
  Sc  Sc51  1  0.26483292  0.65960158  0.10745137  1
  Sc  Sc52  1  0.86858073  0.28655994  0.42683303  1
  Sc  Sc53  1  0.57642676  0.69376805  0.35224619  1
  Sc  Sc54  1  0.79591031  0.21942243  0.81835825  1
  Sc  Sc55  1  0.26926135  0.63895369  0.47448826  1
  Sc  Sc56  1  0.64967454  0.90260300  0.63783880  1
  Sc  Sc57  1  0.24632376  0.27778330  0.56565140  1
  Sc  Sc58  1  0.44054082  0.24153018  0.67897367  1
  Sc  Sc59  1  0.50272791  0.95521329  0.90633192  1
  Sc  Sc60  1  0.22366600  0.73915105  0.88482655  1
  Sc  Sc61  1  0.89421136  0.87204714  0.88957252  1
  Sc  Sc62  1  0.08735026  0.86949456  0.49542373  1
  Sc  Sc63  1  0.64911672  0.32360217  0.95980047  1
  Sc  Sc64  1  0.88049617  0.64739084  0.10671356  1
  Sc  Sc65  1  0.61171146  0.32907464  0.74448462  1
  Sc  Sc66  1  0.73953159  0.07527143  0.47969045  1
  Sc  Sc67  1  0.25599614  0.31434342  0.99935671  1
  Sc  Sc68  1  0.80503886  0.68709600  0.42156421  1
  Sc  Sc69  1  0.43800090  0.33443406  0.88480017  1
  Sc  Sc70  1  0.68475140  0.87740552  0.41372199  1
  Sc  Sc71  1  0.38056240  0.80952808  0.38128044  1
  Sc  Sc72  1  0.32566083  0.47330111  0.62096527  1
  Sc  Sc73  1  0.04300775  0.75483572  0.75912520  1
  Sc  Sc74  1  0.95152618  0.09755142  0.90934098  1
  Sc  Sc75  1  0.16295482  0.52320375  0.83263852  1
  Sc  Sc76  1  0.35970413  0.12471121  0.50542312  1
  Sc  Sc77  1  0.90719650  0.34443084  0.67455610  1
  Sc  Sc78  1  0.71557945  0.32487775  0.56651752  1
  Sc  Sc79  1  0.47743727  0.25797514  0.09248944  1
  Sc  Sc80  1  0.68758601  0.58967723  0.19642783  1
  Sc  Sc81  1  0.50736460  0.35690858  0.49905928  1
  Sc  Sc82  1  0.28687384  0.94722401  1.00456076  1
  Sc  Sc83  1  0.58658865  0.67915605  0.95421866  1
  Sc  Sc84  1  0.37885588  0.62521663  0.76840286  1
  Sc  Sc85  1  0.95180869  0.71248319  0.55893448  1
  Sc  Sc86  1  0.68726210  0.17184596  0.12075186  1
  Sc  Sc87  1  0.09305976  0.91565752  0.91849665  1
  Sc  Sc88  1  0.37545171  0.12940582  0.91667454  1
  Sc  Sc89  1  0.57443876  0.86590986  0.07123243  1
  Sc  Sc90  1  0.81804469  0.77723249  0.69957529  1
  Sc  Sc91  1  0.35105380  0.53357598  0.96461999  1
  Sc  Sc92  1  0.68214157  0.49795268  0.43116884  1
  Sc  Sc93  1  0.18619466  0.76058354  0.30256338  1
  Sc  Sc94  1  0.04825622  0.16699515  0.27025166  1
  Sc  Sc95  1  0.22496069  0.28168410  0.33056771  1
  Sc  Sc96  1  0.30075197  0.92839788  0.56423706  1
  Sc  Sc97  1  0.91883042  0.89144727  0.11086571  1
  Sc  Sc98  1  0.52600204  0.45883925  0.28747405  1
  Sc  Sc99  1  0.75276131  0.78454475  0.03157131  1
  Nb  Nb100  1  0.10279132  0.39509957  0.66499357  1
  Nb  Nb101  1  0.34379383  0.43475956  0.40141233  1
  Nb  Nb102  1  0.15593494  0.44517948  0.47439910  1
  Nb  Nb103  1  0.08614785  0.04394736  0.08991124  1
  Nb  Nb104  1  0.78398366  0.55262764  0.61451645  1
  Nb  Nb105  1  0.40463679  0.76723203  0.96597444  1
  Nb  Nb106  1  0.03318347  0.95986933  0.27218783  1
  Nb  Nb107  1  0.37882407  0.62115314  0.29001451  1
  Nb  Nb108  1  0.85122181  0.29560903  0.00493261  1
  Nb  Nb109  1  0.67998397  0.85155788  0.85238275  1
  Nb  Nb110  1  0.74528367  0.77705290  0.23790291  1
  Nb  Nb111  1  0.54168722  0.87994388  0.26519203  1
  Nb  Nb112  1  0.24424622  0.75752526  0.66953372  1
  Nb  Nb113  1  0.92707215  0.44667295  0.11644117  1
  Nb  Nb114  1  0.13479480  0.07132422  0.57660459  1
  Nb  Nb115  1  0.37329519  0.83388590  0.16941756  1
  Nb  Nb116  1  0.16501586  0.93757720  0.73074881  1
  Nb  Nb117  1  0.46682485  0.57230472  0.47041158  1
  Nb  Nb118  1  0.05856698  0.60613430  0.18324888  1
  Nb  Nb119  1  0.89904807  0.10363693  0.11159327  1
  Nb  Nb120  1  0.87303645  0.90263166  0.35784721  1
  Nb  Nb121  1  0.55353648  0.15624304  0.49604794  1
  Nb  Nb122  1  0.33314359  0.89493058  0.79761623  1
  Nb  Nb123  1  0.85333448  0.91338507  0.54858716  1
  Nb  Nb124  1  0.97437105  0.05418446  0.45625922  1
