# generated using pymatgen
data_Zr2Sc2Nb
_symmetry_space_group_name_H-M   'P 1'
_cell_length_a   14.00198675
_cell_length_b   14.09488279
_cell_length_c   14.54425312
_cell_angle_alpha   88.29327925
_cell_angle_beta   91.38995548
_cell_angle_gamma   90.39596893
_symmetry_Int_Tables_number   1
_chemical_formula_structural   Zr2Sc2Nb
_chemical_formula_sum   'Zr50 Sc50 Nb25'
_cell_volume   2868.22827471
_cell_formula_units_Z   25
loop_
 _symmetry_equiv_pos_site_id
 _symmetry_equiv_pos_as_xyz
  1  'x, y, z'
loop_
 _atom_site_type_symbol
 _atom_site_label
 _atom_site_symmetry_multiplicity
 _atom_site_fract_x
 _atom_site_fract_y
 _atom_site_fract_z
 _atom_site_occupancy
  Zr  Zr0  1  0.76262147  0.26567116  0.97390331  1
  Zr  Zr1  1  0.63815024  0.85262930  0.03632313  1
  Zr  Zr2  1  0.64545175  0.25041519  0.17530193  1
  Zr  Zr3  1  0.70597232  0.09509636  0.49367940  1
  Zr  Zr4  1  0.21088822  0.89344207  0.32146321  1
  Zr  Zr5  1  0.27283580  0.29714571  0.24323194  1
  Zr  Zr6  1  0.12371575  0.66217337  0.86502721  1
  Zr  Zr7  1  0.03831670  0.30382919  0.26356776  1
  Zr  Zr8  1  0.69927801  0.45003595  0.07390687  1
  Zr  Zr9  1  0.14533199  0.30124150  0.66803208  1
  Zr  Zr10  1  0.18609020  0.48670476  0.77437726  1
  Zr  Zr11  1  0.78104372  0.72157194  0.72505338  1
  Zr  Zr12  1  0.33672792  0.58359020  0.47943223  1
  Zr  Zr13  1  0.93751535  0.34107079  0.06592799  1
  Zr  Zr14  1  0.89072730  0.21929781  0.45702263  1
  Zr  Zr15  1  0.22547189  0.69172967  0.04625832  1
  Zr  Zr16  1  0.26640544  0.98737547  0.51396078  1
  Zr  Zr17  1  0.08912909  0.68646471  0.64794663  1
  Zr  Zr18  1  0.45208199  0.75646784  0.00838038  1
  Zr  Zr19  1  0.60100024  0.62760552  0.13837422  1
  Zr  Zr20  1  0.55555100  0.12386782  0.34373812  1
  Zr  Zr21  1  0.61923237  0.90913321  0.38337164  1
  Zr  Zr22  1  -0.03236448  0.87396586  0.24078000  1
  Zr  Zr23  1  0.64691355  0.06304222  0.01410490  1
  Zr  Zr24  1  0.65551101  0.95235376  0.81005968  1
  Zr  Zr25  1  0.70946645  0.52938157  0.45563940  1
  Zr  Zr26  1  0.53613744  0.63575353  0.35255421  1
  Zr  Zr27  1  0.40771836  0.40450978  0.85676392  1
  Zr  Zr28  1  0.91848276  0.97342166  0.04795003  1
  Zr  Zr29  1  0.35327880  0.64803079  0.86547948  1
  Zr  Zr30  1  0.28706402  0.01654919  0.76931398  1
  Zr  Zr31  1  0.51575257  0.22232518  0.52545333  1
  Zr  Zr32  1  0.72813121  0.72417476  0.49689533  1
  Zr  Zr33  1  0.82430481  0.74932622  0.10691146  1
  Zr  Zr34  1  0.08103893  0.11720530  0.54736801  1
  Zr  Zr35  1  0.45432545  0.16427543  0.15571009  1
  Zr  Zr36  1  0.68207717  0.30918570  0.39100845  1
  Zr  Zr37  1  0.60045376  0.17715091  0.84246830  1
  Zr  Zr38  1  0.13475462  0.91775808  0.11086637  1
  Zr  Zr39  1  0.77094232  0.30559322  0.76788457  1
  Zr  Zr40  1  0.98515131  0.32320079  0.83085736  1
  Zr  Zr41  1  0.06098513  0.48193427  0.94993141  1
  Zr  Zr42  1  0.14447066  0.30200843  0.07219820  1
  Zr  Zr43  1  0.29747431  0.16800714  0.58914260  1
  Zr  Zr44  1  0.84551035  0.14737082  0.12641064  1
  Zr  Zr45  1  0.95618295  0.06333232  0.33496494  1
  Zr  Zr46  1  0.70900853  0.11615319  0.67813479  1
  Zr  Zr47  1  0.31843775  0.63232307  0.67103640  1
  Zr  Zr48  1  0.10795239  0.13287900  0.77476406  1
  Zr  Zr49  1  0.82742747  0.34766230  0.24143430  1
  Sc  Sc50  1  0.90585164  0.70428419  0.37557999  1
  Sc  Sc51  1  0.27902886  0.48322817  -0.01110743  1
  Sc  Sc52  1  0.11430107  0.67104274  0.42704148  1
  Sc  Sc53  1  0.38969647  0.48695929  0.30368174  1
  Sc  Sc54  1  0.54197783  0.29135092  0.99329882  1
  Sc  Sc55  1  0.44889661  0.40912011  0.12524385  1
  Sc  Sc56  1  0.20777364  0.09779077  0.96862649  1
  Sc  Sc57  1  0.08170179  0.93719198  0.66208586  1
  Sc  Sc58  1  0.52030126  0.44344315  0.49365684  1
  Sc  Sc59  1  0.88660196  0.42973600  0.43357349  1
  Sc  Sc60  1  0.51961612  0.54877134  0.74057844  1
  Sc  Sc61  1  0.05189959  0.89859168  0.45241133  1
  Sc  Sc62  1  0.50641012  0.80248755  0.21708992  1
  Sc  Sc63  1  0.10056031  0.70795843  0.21557157  1
  Sc  Sc64  1  0.05531828  0.95170494  0.88139842  1
  Sc  Sc65  1  0.48448926  0.07363369  0.70553388  1
  Sc  Sc66  1  0.53093928  0.68326553  0.56922793  1
  Sc  Sc67  1  0.09296033  0.31878466  0.45833198  1
  Sc  Sc68  1  0.41282514  0.80805419  0.41740654  1
  Sc  Sc69  1  0.18634877  0.50386653  0.16872907  1
  Sc  Sc70  1  0.34414430  0.22250693  0.78620965  1
  Sc  Sc71  1  0.91750241  0.17293521  0.67556429  1
  Sc  Sc72  1  0.68743199  0.89956165  0.60288634  1
  Sc  Sc73  1  0.31491357  0.33600182  0.45493590  1
  Sc  Sc74  1  0.48200583  0.00209350  0.51065607  1
  Sc  Sc75  1  0.22936828  0.81224885  0.76363912  1
  Sc  Sc76  1  0.12769298  0.50110157  0.56380943  1
  Sc  Sc77  1  0.05828238  0.11480853  0.15582116  1
  Sc  Sc78  1  0.89868024  0.65355425  0.90952924  1
  Sc  Sc79  1  0.01895649  0.77610871  0.01667039  1
  Sc  Sc80  1  0.27710886  0.88865026  0.95463148  1
  Sc  Sc81  1  1.00619194  0.51696588  0.29845929  1
  Sc  Sc82  1  0.83167150  0.09191650  0.87134238  1
  Sc  Sc83  1  0.75998086  0.11187470  0.30587017  1
  Sc  Sc84  1  0.34658460  0.41074982  0.64467003  1
  Sc  Sc85  1  0.91138893  0.80545163  0.57868655  1
  Sc  Sc86  1  0.78540234  0.56241309  0.25502578  1
  Sc  Sc87  1  0.93954937  0.55890240  0.10229883  1
  Sc  Sc88  1  0.93621806  0.38908437  0.62855766  1
  Sc  Sc89  1  0.24810053  0.78516206  0.53905865  1
  Sc  Sc90  1  0.68839606  0.64060701  0.94185722  1
  Sc  Sc91  1  0.83495334  0.46323477  0.89979254  1
  Sc  Sc92  1  0.71381262  0.76256837  0.27997045  1
  Sc  Sc93  1  0.73772803  0.51179765  0.67615410  1
  Sc  Sc94  1  0.27148837  0.07431311  0.17166659  1
  Sc  Sc95  1  0.55659592  0.33055575  0.69599169  1
  Sc  Sc96  1  0.55848378  0.74824702  0.81046458  1
  Sc  Sc97  1  0.81648899  0.85164695  0.90658073  1
  Sc  Sc98  1  0.42521915  0.85685940  0.67194415  1
  Sc  Sc99  1  0.16190767  0.12403745  0.35732394  1
  Nb  Nb100  1  0.41293104  -0.02407449  0.29208596  1
  Nb  Nb101  1  0.73404110  0.31516082  0.57206833  1
  Nb  Nb102  1  0.39254470  0.61745027  0.14162669  1
  Nb  Nb103  1  0.31138960  0.82971945  0.16731378  1
  Nb  Nb104  1  0.82242663  0.90892565  0.40094528  1
  Nb  Nb105  1  0.47783367  0.30437698  0.31931117  1
  Nb  Nb106  1  0.60565837  0.45447512  0.26838145  1
  Nb  Nb107  1  0.42505127  0.10386334  0.94058758  1
  Nb  Nb108  1  0.33185349  0.26500429  1.01552821  1
  Nb  Nb109  1  0.63243098  0.42519291  0.86948434  1
  Nb  Nb110  1  0.29453039  0.67747480  0.29841131  1
  Nb  Nb111  1  0.44041859  0.96342287  0.07816614  1
  Nb  Nb112  1  0.19382053  0.48270257  0.36334840  1
  Nb  Nb113  1  0.18366845  0.30480955  0.88165377  1
  Nb  Nb114  1  0.97906530  0.78435157  0.77848709  1
  Nb  Nb115  1  0.86542842  0.94923497  0.72586764  1
  Nb  Nb116  1  0.90618703  0.59804860  0.56324964  1
  Nb  Nb117  1  0.89137861  1.01722904  0.54355613  1
  Nb  Nb118  1  0.60080185  0.00196617  0.19562303  1
  Nb  Nb119  1  0.00419086  0.17147760  0.96265496  1
  Nb  Nb120  1  0.47191649  0.93198427  0.87873340  1
  Nb  Nb121  1  0.78040836  0.94368692  0.19263258  1
  Nb  Nb122  1  0.96308546  0.55688062  0.74785073  1
  Nb  Nb123  1  0.36015929  0.14057343  0.38058340  1
  Nb  Nb124  1  0.50490356  0.54340355  0.96945381  1
