# generated using pymatgen
data_Zr2Sc2Nb
_symmetry_space_group_name_H-M   'P 1'
_cell_length_a   14.36510723
_cell_length_b   13.97236889
_cell_length_c   14.27729294
_cell_angle_alpha   90.56557532
_cell_angle_beta   91.74280439
_cell_angle_gamma   89.35564706
_symmetry_Int_Tables_number   1
_chemical_formula_structural   Zr2Sc2Nb
_chemical_formula_sum   'Zr50 Sc50 Nb25'
_cell_volume   2864.02390881
_cell_formula_units_Z   25
loop_
 _symmetry_equiv_pos_site_id
 _symmetry_equiv_pos_as_xyz
  1  'x, y, z'
loop_
 _atom_site_type_symbol
 _atom_site_label
 _atom_site_symmetry_multiplicity
 _atom_site_fract_x
 _atom_site_fract_y
 _atom_site_fract_z
 _atom_site_occupancy
  Zr  Zr0  1  0.31630168  0.66405101  0.45706098  1
  Zr  Zr1  1  0.99000447  0.60244091  0.66721220  1
  Zr  Zr2  1  0.19690229  0.13317117  0.68167260  1
  Zr  Zr3  1  0.07703421  0.49470860  0.22516745  1
  Zr  Zr4  1  0.66767383  0.22790989  0.87481059  1
  Zr  Zr5  1  0.92914261  0.91047502  0.86293655  1
  Zr  Zr6  1  0.01656665  0.58753860  0.04610038  1
  Zr  Zr7  1  0.14006436  0.07919108  0.45725136  1
  Zr  Zr8  1  0.30906617  0.67225806  0.73270316  1
  Zr  Zr9  1  0.84861209  0.95649524  0.05641597  1
  Zr  Zr10  1  0.28786087  0.32330492  0.79153003  1
  Zr  Zr11  1  0.45114156  0.18219594  0.90417350  1
  Zr  Zr12  1  0.58697173  0.80480462  0.54714024  1
  Zr  Zr13  1  0.67217366  0.47426027  0.11765641  1
  Zr  Zr14  1  0.42913944  0.44736725  0.45986468  1
  Zr  Zr15  1  0.55509798  0.31974328  0.71857711  1
  Zr  Zr16  1  0.11509988  0.76215124  0.79035805  1
  Zr  Zr17  1  0.55355940  0.49791686  0.29434944  1
  Zr  Zr18  1  0.80224299  0.51783670  0.75550604  1
  Zr  Zr19  1  0.75173365  0.44515713  0.32761293  1
  Zr  Zr20  1  1.00238673  0.91646788  0.45795915  1
  Zr  Zr21  1  0.14574745  0.40822993  0.97027868  1
  Zr  Zr22  1  0.13538442  0.93827860  0.64378118  1
  Zr  Zr23  1  0.31989011  0.51893824  0.90843957  1
  Zr  Zr24  1  0.95329623  0.32346750  0.24916234  1
  Zr  Zr25  1  0.04682180  0.28593162  0.82650195  1
  Zr  Zr26  1  0.71246331  0.89654393  0.71056813  1
  Zr  Zr27  1  0.01962394  0.08017881  0.80231079  1
  Zr  Zr28  1  0.23537885  0.43491362  0.36923845  1
  Zr  Zr29  1  0.24520026  0.52137534  0.57029078  1
  Zr  Zr30  1  0.87562449  0.01495509  0.64466473  1
  Zr  Zr31  1  0.05603539  1.01818694  0.04120007  1
  Zr  Zr32  1  0.93914894  0.71269535  0.46518189  1
  Zr  Zr33  1  0.35771356  0.82996006  0.58978184  1
  Zr  Zr34  1  0.09517504  0.28124797  0.40920127  1
  Zr  Zr35  1  0.14316460  0.72260219  0.58138108  1
  Zr  Zr36  1  0.61351933  0.32214144  0.42603428  1
  Zr  Zr37  1  0.73700490  0.67821101  0.41761409  1
  Zr  Zr38  1  0.29149675  0.00120717  0.28157146  1
  Zr  Zr39  1  0.31010295  0.78577477  0.90858922  1
  Zr  Zr40  1  0.35276456  0.56706858  0.26483531  1
  Zr  Zr41  1  -0.00138045  0.17218650  0.58904380  1
  Zr  Zr42  1  0.93013857  0.10112496  0.38396663  1
  Zr  Zr43  1  0.09486974  0.12536214  0.24780954  1
  Zr  Zr44  1  0.47083105  0.49536586  0.07863773  1
  Zr  Zr45  1  0.84634395  0.90088006  0.27365210  1
  Zr  Zr46  1  0.89800216  0.33212899  0.46248135  1
  Zr  Zr47  1  0.68508165  0.04024344  0.24256116  1
  Zr  Zr48  1  0.84097053  0.35160211  0.88217931  1
  Zr  Zr49  1  0.34235245  0.95379409  0.76327340  1
  Sc  Sc50  1  0.12453940  0.65738101  0.36874983  1
  Sc  Sc51  1  0.31332983  0.28992324  0.55568367  1
  Sc  Sc52  1  0.62201992  0.01957174  0.46554868  1
  Sc  Sc53  1  0.24988275  0.10798681  0.10452842  1
  Sc  Sc54  1  0.40977250  0.15060316  0.71010316  1
  Sc  Sc55  1  0.79239912  0.88963371  0.48713950  1
  Sc  Sc56  1  0.89903646  0.12567382  0.16295898  1
  Sc  Sc57  1  0.07992150  0.90790892  0.23832895  1
  Sc  Sc58  1  0.51149160  0.19762372  0.53813108  1
  Sc  Sc59  1  0.33805500  0.05162577  0.51753382  1
  Sc  Sc60  1  0.76898959  0.22355015  0.30722682  1
  Sc  Sc61  1  0.75588369  0.69685465  0.64154549  1
  Sc  Sc62  1  0.29258921  0.20976985  0.34769356  1
  Sc  Sc63  1  0.72809454  0.35612382  0.62180901  1
  Sc  Sc64  1  0.94717742  0.82032030  0.65732432  1
  Sc  Sc65  1  0.77019521  0.16598503  0.51438454  1
  Sc  Sc66  1  0.84516090  0.20752320  0.73409684  1
  Sc  Sc67  1  0.48972909  0.62035814  0.87990600  1
  Sc  Sc68  1  0.63112833  0.84793008  0.32735432  1
  Sc  Sc69  1  0.65284321  0.11077141  0.68343307  1
  Sc  Sc70  1  0.05819801  0.80724372  1.01385721  1
  Sc  Sc71  1  0.12718357  0.33978261  0.62503006  1
  Sc  Sc72  1  0.17342008  0.95077410  0.88513981  1
  Sc  Sc73  1  0.62136440  0.52871787  0.51852689  1
  Sc  Sc74  1  0.47762367  0.93659857  0.18045383  1
  Sc  Sc75  1  0.91709064  0.69516125  0.85232025  1
  Sc  Sc76  1  0.22561331  0.15575650  0.89867729  1
  Sc  Sc77  1  0.50262171  0.82214786  0.99269307  1
  Sc  Sc78  1  0.77368348  0.29154998  0.08267303  1
  Sc  Sc79  1  0.33825244  0.31793745  0.02646526  1
  Sc  Sc80  1  0.96037589  0.71538610  0.23023504  1
  Sc  Sc81  1  0.45336330  0.14698797  0.12244421  1
  Sc  Sc82  1  0.48724069  0.12362895  0.33261581  1
  Sc  Sc83  1  0.52527485  0.78607093  0.75574793  1
  Sc  Sc84  1  0.17660545  0.69858656  0.16073405  1
  Sc  Sc85  1  0.83585077  0.52286748  0.53359269  1
  Sc  Sc86  1  0.74368125  0.66637123  0.21888764  1
  Sc  Sc87  1  0.40172083  0.46552434  0.69212260  1
  Sc  Sc88  1  0.21222182  0.86883792  0.42887928  1
  Sc  Sc89  1  0.65691578  0.07836930  0.03448316  1
  Sc  Sc90  1  0.83875857  0.73867104  0.04583295  1
  Sc  Sc91  1  0.04941280  0.49275948  0.48882442  1
  Sc  Sc92  1  0.15760814  0.51228638  0.76141685  1
  Sc  Sc93  1  0.70189942  0.86208743  0.92462953  1
  Sc  Sc94  1  0.50582534  0.68290942  0.39868034  1
  Sc  Sc95  1  0.18355597  0.31343556  0.18364766  1
  Sc  Sc96  1  0.34019988  0.78758161  0.26614512  1
  Sc  Sc97  1  0.55035815  1.00068514  0.84278652  1
  Sc  Sc98  1  0.52865654  0.70228964  0.18716191  1
  Sc  Sc99  1  0.59222293  0.28577750  0.21983905  1
  Nb  Nb100  1  0.35667067  0.67490937  0.06581206  1
  Nb  Nb101  1  0.06768221  0.21362336  0.03569580  1
  Nb  Nb102  1  0.59900137  0.53745750  0.72553592  1
  Nb  Nb103  1  0.67711350  0.85765818  0.12826203  1
  Nb  Nb104  1  0.56202398  0.30487128  0.02696495  1
  Nb  Nb105  1  0.94134907  0.39015061  0.67506802  1
  Nb  Nb106  1  0.96508127  0.37226524  0.04636671  1
  Nb  Nb107  1  0.16977698  0.63597901  0.94365285  1
  Nb  Nb108  1  0.50382914  0.97266986  0.62741416  1
  Nb  Nb109  1  0.37265720  -0.00434234  0.97438210  1
  Nb  Nb110  1  0.69941799  0.67036527  0.84894706  1
  Nb  Nb111  1  0.86906436  0.50726976  0.15892982  1
  Nb  Nb112  1  0.64136496  0.65566228  0.02462854  1
  Nb  Nb113  1  0.46267001  0.63741073  0.60428354  1
  Nb  Nb114  1  0.65265367  0.45833137  0.90612110  1
  Nb  Nb115  1  0.89494272  0.15735700  0.95331456  1
  Nb  Nb116  1  -0.01071222  0.49599411  0.86208956  1
  Nb  Nb117  1  0.44371407  0.90383400  0.41473433  1
  Nb  Nb118  1  0.91498614  0.54567282  0.34292035  1
  Nb  Nb119  1  0.25190883  0.50364332  0.11180720  1
  Nb  Nb120  1  0.81834726  0.53905702  0.97565901  1
  Nb  Nb121  1  0.25964463  0.88622921  0.08686122  1
  Nb  Nb122  1  0.39759614  0.35543113  0.23460164  1
  Nb  Nb123  1  0.77998881  0.04384807  0.84954769  1
  Nb  Nb124  1  0.47864551  0.39670739  0.87808536  1
