# generated using pymatgen
data_Zr2Sc2Nb
_symmetry_space_group_name_H-M   'P 1'
_cell_length_a   14.06448064
_cell_length_b   14.61580974
_cell_length_c   13.97407658
_cell_angle_alpha   87.78409510
_cell_angle_beta   89.49958059
_cell_angle_gamma   88.91111621
_symmetry_Int_Tables_number   1
_chemical_formula_structural   Zr2Sc2Nb
_chemical_formula_sum   'Zr50 Sc50 Nb25'
_cell_volume   2869.80553358
_cell_formula_units_Z   25
loop_
 _symmetry_equiv_pos_site_id
 _symmetry_equiv_pos_as_xyz
  1  'x, y, z'
loop_
 _atom_site_type_symbol
 _atom_site_label
 _atom_site_symmetry_multiplicity
 _atom_site_fract_x
 _atom_site_fract_y
 _atom_site_fract_z
 _atom_site_occupancy
  Zr  Zr0  1  0.48641618  0.89106961  0.10748297  1
  Zr  Zr1  1  0.71325484  0.07550014  0.33005033  1
  Zr  Zr2  1  0.45891368  0.84732381  0.52119780  1
  Zr  Zr3  1  0.68927322  0.91809275  0.47826518  1
  Zr  Zr4  1  0.89504409  0.88644794  0.88636658  1
  Zr  Zr5  1  0.98440021  0.05428881  0.62086470  1
  Zr  Zr6  1  0.64290535  0.74052980  0.60920959  1
  Zr  Zr7  1  0.87964205  0.86980894  0.11125145  1
  Zr  Zr8  1  -0.02188161  0.53130894  0.99561369  1
  Zr  Zr9  1  0.25084911  0.74385746  0.78258295  1
  Zr  Zr10  1  0.74137932  0.09720920  0.55847161  1
  Zr  Zr11  1  0.47996583  0.72945602  0.76638237  1
  Zr  Zr12  1  0.61746653  0.77562966  0.36406459  1
  Zr  Zr13  1  0.49393434  0.30308069  0.87096714  1
  Zr  Zr14  1  0.72806806  0.27529107  0.41320153  1
  Zr  Zr15  1  0.78356740  0.69769703  0.20458240  1
  Zr  Zr16  1  0.47530802  0.44946260  0.33095434  1
  Zr  Zr17  1  0.96667790  0.82502784  0.51291476  1
  Zr  Zr18  1  0.04664821  0.36935444  0.88926149  1
  Zr  Zr19  1  0.17725623  0.75045851  0.44394491  1
  Zr  Zr20  1  0.33915097  0.15128263  0.36735437  1
  Zr  Zr21  1  0.86090206  0.73174674  0.70215192  1
  Zr  Zr22  1  0.87838507  0.04180994  0.20542107  1
  Zr  Zr23  1  0.46765893  0.35260389  0.67445432  1
  Zr  Zr24  1  0.49567618  0.53379958  0.13021589  1
  Zr  Zr25  1  0.18015102  0.69727096  0.24052795  1
  Zr  Zr26  1  0.70099535  0.22405981  0.90625073  1
  Zr  Zr27  1  0.15800237  0.16731863  0.49288634  1
  Zr  Zr28  1  0.04421743  0.44097822  0.66772980  1
  Zr  Zr29  1  0.51683770  0.10389754  0.93608638  1
  Zr  Zr30  1  0.50472875  0.29309313  0.47438921  1
  Zr  Zr31  1  0.77965220  0.24051391  0.11442017  1
  Zr  Zr32  1  0.26328927  0.35303965  0.85156567  1
  Zr  Zr33  1  0.86910762  0.33765036  0.74828131  1
  Zr  Zr34  1  0.83368214  0.69385808  0.95117784  1
  Zr  Zr35  1  0.15042558  0.54568567  0.81603825  1
  Zr  Zr36  1  0.97751500  0.68512684  0.33527438  1
  Zr  Zr37  1  0.83148417  0.13921568  0.75250462  1
  Zr  Zr38  1  0.34081798  0.61777305  0.93107920  1
  Zr  Zr39  1  0.38406544  0.41186168  0.01905457  1
  Zr  Zr40  1  0.82072466  0.48276002  0.14560289  1
  Zr  Zr41  1  0.12639407  0.29412669  0.27046009  1
  Zr  Zr42  1  0.37027042  0.93203110  0.74212199  1
  Zr  Zr43  1  0.28093266  0.36408529  0.42039132  1
  Zr  Zr44  1  0.05463832  0.97667699  0.05505628  1
  Zr  Zr45  1  0.43345543  0.08715054  0.15383379  1
  Zr  Zr46  1  0.05482567  0.87703039  0.28518089  1
  Zr  Zr47  1  0.65357882  0.38355231  0.22490474  1
  Zr  Zr48  1  0.66677318  0.41988156  0.78024487  1
  Zr  Zr49  1  0.67976268  0.59080566  0.04189650  1
  Sc  Sc50  1  0.08746956  0.08311548  0.30460731  1
  Sc  Sc51  1  0.03600332  0.49579333  0.21826377  1
  Sc  Sc52  1  0.26975971  0.94653674  0.36109258  1
  Sc  Sc53  1  0.25659258  0.89739571  0.14933262  1
  Sc  Sc54  1  0.04359856  0.87892256  0.70865493  1
  Sc  Sc55  1  0.96440034  0.58593336  0.53026353  1
  Sc  Sc56  1  0.27669610  0.48819448  0.22085020  1
  Sc  Sc57  1  0.75583603  0.55865932  0.63677270  1
  Sc  Sc58  1  0.54856019  0.14627058  0.70503333  1
  Sc  Sc59  1  0.34323619  0.15917261  0.78960916  1
  Sc  Sc60  1  0.84129768  0.85563704  0.33976043  1
  Sc  Sc61  1  0.35961632  0.69428199  0.12818870  1
  Sc  Sc62  1  0.91070151  0.24766508  0.29818907  1
  Sc  Sc63  1  0.14783582  0.15935088  0.93218026  1
  Sc  Sc64  1  0.70744888  0.00919168  0.85686085  1
  Sc  Sc65  1  0.34721350  0.52101648  0.73577922  1
  Sc  Sc66  1  0.35225060  0.68180660  0.58378591  1
  Sc  Sc67  1  0.91181378  0.03650083  0.42487071  1
  Sc  Sc68  1  0.52469627  0.90739100  0.88557667  1
  Sc  Sc69  1  0.05041921  0.37214087  0.46454952  1
  Sc  Sc70  1  0.13784973  0.54282157  0.39054770  1
  Sc  Sc71  1  0.66059820  0.06296654  0.09665956  1
  Sc  Sc72  1  0.77659842  0.65980258  0.44306823  1
  Sc  Sc73  1  0.90325705  0.54600567  0.79065267  1
  Sc  Sc74  1  0.68940633  0.28936504  0.62594021  1
  Sc  Sc75  1  0.99330232  0.69514644  0.11875354  1
  Sc  Sc76  1  0.17895768  0.54246257  0.04032076  1
  Sc  Sc77  1  0.23672122  0.34333894  0.63559383  1
  Sc  Sc78  1  0.32773032  1.01423404  0.97307437  1
  Sc  Sc79  1  0.84779285  0.46988826  0.35542464  1
  Sc  Sc80  1  0.09481519  0.68870107  0.64715753  1
  Sc  Sc81  1  0.69150408  0.84237338  0.02072046  1
  Sc  Sc82  1  0.17213924  0.92546063  0.86791129  1
  Sc  Sc83  1  0.03173750  0.71645273  0.86514015  1
  Sc  Sc84  1  0.50114439  -0.03063727  0.32623643  1
  Sc  Sc85  1  0.81689256  0.92902853  0.67328186  1
  Sc  Sc86  1  0.91310644  0.23042965  0.54187326  1
  Sc  Sc87  1  0.51427997  0.52373174  0.87682550  1
  Sc  Sc88  1  0.81733381  0.40567237  0.94616133  1
  Sc  Sc89  1  0.55400981  0.20496480  0.28579715  1
  Sc  Sc90  1  0.19095609  1.05511715  0.68459924  1
  Sc  Sc91  1  0.58332686  0.94232284  0.66974795  1
  Sc  Sc92  1  0.17114321  0.75893528  0.01379546  1
  Sc  Sc93  1  0.64271617  0.46162401  0.48282938  1
  Sc  Sc94  1  0.53652080  0.08816990  0.48983409  1
  Sc  Sc95  1  0.22123154  0.12292895  0.14860968  1
  Sc  Sc96  1  0.39833075  0.77845370  0.31760414  1
  Sc  Sc97  1  0.06256143  0.22678851  0.72596126  1
  Sc  Sc98  1  0.17534721  0.32975570  0.06486223  1
  Sc  Sc99  1  0.36136161  0.29468141  0.20801979  1
  Nb  Nb100  1  0.54311078  0.56094022  0.65316693  1
  Nb  Nb101  1  0.40395721  0.47822572  0.52940708  1
  Nb  Nb102  1  0.57000953  0.72137324  0.17722691  1
  Nb  Nb103  1  0.35682766  0.19456149  0.57463624  1
  Nb  Nb104  1  0.33445751  0.59781218  0.38414810  1
  Nb  Nb105  1  0.20757986  0.53639976  0.57205963  1
  Nb  Nb106  1  0.54358827  0.25384484  0.07893520  1
  Nb  Nb107  1  0.92601987  0.21790488  0.93041069  1
  Nb  Nb108  1  0.52279784  0.63068770  0.45364616  1
  Nb  Nb109  1  0.34268525  0.01548155  0.54085078  1
  Nb  Nb110  1  0.11577588  0.96304363  0.49374174  1
  Nb  Nb111  1  0.85595415  0.05943573  0.99569605  1
  Nb  Nb112  1  0.64950422  0.57118894  0.28616702  1
  Nb  Nb113  1  0.99619135  0.04949068  0.83975789  1
  Nb  Nb114  1  0.84928762  0.41282880  0.55801163  1
  Nb  Nb115  1  0.35759973  0.81674089  0.94459296  1
  Nb  Nb116  1  0.68243839  0.90112127  0.22172039  1
  Nb  Nb117  1  0.23595188  0.86062825  0.60465229  1
  Nb  Nb118  1  0.53421161  0.71292226  0.97072649  1
  Nb  Nb119  1  0.96691451  0.34339355  0.09964434  1
  Nb  Nb120  1  0.69348921  0.80397181  0.81099171  1
  Nb  Nb121  1  0.00940069  0.16661952  0.11006786  1
  Nb  Nb122  1  0.68166272  0.62487391  0.81908089  1
  Nb  Nb123  1  0.35072697  0.21622951  0.00330375  1
  Nb  Nb124  1  0.62454826  0.40273444  0.01194432  1
