# generated using pymatgen
data_Zr2Sc2Nb
_symmetry_space_group_name_H-M   'P 1'
_cell_length_a   14.47315691
_cell_length_b   14.01817949
_cell_length_c   14.24028711
_cell_angle_alpha   89.98951829
_cell_angle_beta   89.36987809
_cell_angle_gamma   90.24649452
_symmetry_Int_Tables_number   1
_chemical_formula_structural   Zr2Sc2Nb
_chemical_formula_sum   'Zr50 Sc50 Nb25'
_cell_volume   2888.97203147
_cell_formula_units_Z   25
loop_
 _symmetry_equiv_pos_site_id
 _symmetry_equiv_pos_as_xyz
  1  'x, y, z'
loop_
 _atom_site_type_symbol
 _atom_site_label
 _atom_site_symmetry_multiplicity
 _atom_site_fract_x
 _atom_site_fract_y
 _atom_site_fract_z
 _atom_site_occupancy
  Zr  Zr0  1  0.10996114  0.98779460  0.44373403  1
  Zr  Zr1  1  0.71228549  0.67359075  0.36140753  1
  Zr  Zr2  1  0.35274109  0.30698671  0.71772433  1
  Zr  Zr3  1  0.41637245  0.88268067  0.25977944  1
  Zr  Zr4  1  0.83280890  0.71571443  0.74055627  1
  Zr  Zr5  1  0.05726134  0.07640577  0.84279339  1
  Zr  Zr6  1  0.77008417  0.07845040  0.42584942  1
  Zr  Zr7  1  0.09523206  0.87973222  0.62932487  1
  Zr  Zr8  1  0.93615607  0.91170556  0.75972276  1
  Zr  Zr9  1  0.75300973  0.54877153  0.14248458  1
  Zr  Zr10  1  0.48845128  0.09482181  -0.00983494  1
  Zr  Zr11  1  0.15300030  0.38155883  0.32195920  1
  Zr  Zr12  1  0.00543542  0.50767339  0.44278719  1
  Zr  Zr13  1  0.65743566  0.35987697  0.16969945  1
  Zr  Zr14  1  0.73548110  0.92041753  0.71864337  1
  Zr  Zr15  1  0.28001533  0.89685658  0.56428747  1
  Zr  Zr16  1  0.86187931  0.39284099  0.54632070  1
  Zr  Zr17  1  0.47904553  0.16246368  0.64380379  1
  Zr  Zr18  1  0.13429640  0.49437139  0.08408328  1
  Zr  Zr19  1  0.32738970  0.66765529  0.47206386  1
  Zr  Zr20  1  0.58477690  0.51122187  0.30892548  1
  Zr  Zr21  1  0.48275968  0.28015416  0.46587095  1
  Zr  Zr22  1  0.84234750  0.09204787  0.84234564  1
  Zr  Zr23  1  0.13519895  0.86474293  0.83051473  1
  Zr  Zr24  1  0.96043402  0.24862171  0.93188086  1
  Zr  Zr25  1  0.96928644  0.47083017  0.22479141  1
  Zr  Zr26  1  0.27708699  0.33554222  0.53262374  1
  Zr  Zr27  1  0.65482619  0.09506518  0.58957361  1
  Zr  Zr28  1  0.50771962  0.51760935  0.12171154  1
  Zr  Zr29  1  0.02238568  0.81591669  0.35921400  1
  Zr  Zr30  1  0.71839030  0.23335263  0.93997117  1
  Zr  Zr31  1  0.23561697  0.81469168  0.36924409  1
  Zr  Zr32  1  0.15949142  0.65438010  0.92409826  1
  Zr  Zr33  1  0.61304284  0.75594413  0.79183496  1
  Zr  Zr34  1  0.34403300  0.87815713  0.76982785  1
  Zr  Zr35  1  0.05027659  0.09830483  0.62502803  1
  Zr  Zr36  1  0.39579408  0.66456844  0.83666060  1
  Zr  Zr37  1  0.84743783  0.41169457  0.85665841  1
  Zr  Zr38  1  0.95698324  0.06747375  0.32446084  1
  Zr  Zr39  1  0.33911568  0.94915744  0.08877550  1
  Zr  Zr40  1  0.50218567  0.89302966  0.91091844  1
  Zr  Zr41  1  0.77427844  0.60953584  0.91777455  1
  Zr  Zr42  1  0.15652241  0.93851610  0.21637453  1
  Zr  Zr43  1  0.64616535  0.72552943  0.14837437  1
  Zr  Zr44  1  0.43412243  0.48527984  0.46093714  1
  Zr  Zr45  1  0.83722059  0.35717186  0.07339494  1
  Zr  Zr46  1  0.93895622  0.54529896  0.02682056  1
  Zr  Zr47  1  0.25471107  0.45194060  0.87311361  1
  Zr  Zr48  1  0.45126788  0.44673383  0.86702107  1
  Zr  Zr49  1  0.95905465  0.91162387  0.16663330  1
  Sc  Sc50  1  0.24016363  0.06596815  0.71509209  1
  Sc  Sc51  1  0.13289427  0.15540510  0.25726281  1
  Sc  Sc52  1  0.56872630  0.63256597  0.95415791  1
  Sc  Sc53  1  0.65292612  0.14817505  0.12352009  1
  Sc  Sc54  1  0.28175869  0.16016763  0.10533169  1
  Sc  Sc55  1  0.33443326  0.58098250  0.02783101  1
  Sc  Sc56  1  0.64779173  0.43216353  0.93655772  1
  Sc  Sc57  1  0.96451422  0.74347237  0.92373986  1
  Sc  Sc58  1  0.72578850  0.27328382  0.71909355  1
  Sc  Sc59  1  0.79121495  0.44192137  0.34253023  1
  Sc  Sc60  1  0.70153148  0.28118980  0.49261354  1
  Sc  Sc61  1  0.87560277  0.65692333  0.52655748  1
  Sc  Sc62  1  0.16715819  0.49200445  0.67653346  1
  Sc  Sc63  1  0.25511114  0.02934524  0.92449917  1
  Sc  Sc64  1  0.44907860  0.85942565  0.46087806  1
  Sc  Sc65  1  0.65310357  0.50448859  0.51463370  1
  Sc  Sc66  1  0.67079365  0.88800578  0.49238484  1
  Sc  Sc67  1  0.32490733  0.51705920  0.27217429  1
  Sc  Sc68  1  0.31505030  0.24975650  0.33058698  1
  Sc  Sc69  1  0.81443516  0.86795046  0.32386385  1
  Sc  Sc70  1  0.81205567  0.22802255  0.26867958  1
  Sc  Sc71  1  0.46147473  0.11431453  0.21808915  1
  Sc  Sc72  1  0.52326902  0.93211496  0.66658133  1
  Sc  Sc73  1  0.29690015  0.03042856  0.34780673  1
  Sc  Sc74  1  0.14685681  0.27452276  0.75288627  1
  Sc  Sc75  1  0.94351437  0.27499148  0.71236040  1
  Sc  Sc76  1  0.13400475  0.61760552  0.30800804  1
  Sc  Sc77  1  0.10856363  0.68933656  0.51917925  1
  Sc  Sc78  1  0.75297949  0.51578622  0.70378969  1
  Sc  Sc79  1  0.04896373  0.45615649  0.86245027  1
  Sc  Sc80  1  0.07616776  0.08439039  0.05380504  1
  Sc  Sc81  1  0.54382252  0.38023859  0.65598386  1
  Sc  Sc82  1  0.68928899  0.00936373  0.96141765  1
  Sc  Sc83  1  0.30642518  0.12460319  0.52922164  1
  Sc  Sc84  1  0.75336330  0.81958794  0.93287665  1
  Sc  Sc85  1  0.25638289  0.73926905  0.16096595  1
  Sc  Sc86  1  0.24372798  0.70173379  0.69288236  1
  Sc  Sc87  1  0.86050737  0.11136688  0.08626552  1
  Sc  Sc88  1  0.03609783  0.68197438  0.72915515  1
  Sc  Sc89  1  0.45537155  0.72048267  0.63580943  1
  Sc  Sc90  1  0.33498085  0.24063525  0.90915955  1
  Sc  Sc91  1  0.90112578  0.65674687  0.28457351  1
  Sc  Sc92  1  0.02669123  0.28958676  0.14194254  1
  Sc  Sc93  1  0.04938379  0.70757269  0.13014616  1
  Sc  Sc94  1  0.45361258  0.75664552  0.07929037  1
  Sc  Sc95  1  0.49802944  0.30025110  0.04762587  1
  Sc  Sc96  1  0.67412554  0.70590319  0.59988497  1
  Sc  Sc97  1  0.90321293  0.92528974  0.52973043  1
  Sc  Sc98  1  0.51456250  0.05860921  0.42787144  1
  Sc  Sc99  1  0.30296882  0.37299825  0.10401252  1
  Nb  Nb100  1  0.06947721  0.34717076  0.55047233  1
  Nb  Nb101  1  0.12417335  0.87535333  0.02471378  1
  Nb  Nb102  1  0.65884298  1.02102201  0.27849952  1
  Nb  Nb103  1  0.29600832  0.80139617  0.95251447  1
  Nb  Nb104  1  0.46883901  0.35158183  0.25727742  1
  Nb  Nb105  1  0.56178424  0.56826077  0.74105684  1
  Nb  Nb106  1  0.92251115  0.94059068  0.97351330  1
  Nb  Nb107  1  0.84700359  0.74352724  0.10076100  1
  Nb  Nb108  1  0.53905698  0.67766987  0.44707196  1
  Nb  Nb109  1  0.97560711  0.30429738  0.36205910  1
  Nb  Nb110  1  0.21481269  0.50638409  0.47557811  1
  Nb  Nb111  1  0.56134003  0.93750314  0.11934423  1
  Nb  Nb112  1  0.37028214  0.51846295  0.65987856  1
  Nb  Nb113  1  0.91995286  0.19071861  0.50101280  1
  Nb  Nb114  1  0.53638240  0.25506527  0.83562569  1
  Nb  Nb115  1  0.62693463  0.08585489  0.79044926  1
  Nb  Nb116  1  0.95995941  0.50258740  0.67005269  1
  Nb  Nb117  1  0.60056830  0.83817588  0.30405229  1
  Nb  Nb118  1  0.12467272  0.19372004  0.45034149  1
  Nb  Nb119  1  0.45795557  0.67968078  0.27978462  1
  Nb  Nb120  1  0.61121997  0.22435663  0.32076307  1
  Nb  Nb121  1  0.42706567  0.07347414  0.80751778  1
  Nb  Nb122  1  0.14854813  0.28562391  0.97174604  1
  Nb  Nb123  1  0.75363528  0.91970598  0.13344654  1
  Nb  Nb124  1  0.83812012  0.09252704  0.64760927  1
