# generated using pymatgen
data_Zr2Sc2Nb
_symmetry_space_group_name_H-M   'P 1'
_cell_length_a   14.23750519
_cell_length_b   14.03919048
_cell_length_c   14.35261761
_cell_angle_alpha   89.63785443
_cell_angle_beta   88.97005951
_cell_angle_gamma   90.03196756
_symmetry_Int_Tables_number   1
_chemical_formula_structural   Zr2Sc2Nb
_chemical_formula_sum   'Zr50 Sc50 Nb25'
_cell_volume   2868.32350854
_cell_formula_units_Z   25
loop_
 _symmetry_equiv_pos_site_id
 _symmetry_equiv_pos_as_xyz
  1  'x, y, z'
loop_
 _atom_site_type_symbol
 _atom_site_label
 _atom_site_symmetry_multiplicity
 _atom_site_fract_x
 _atom_site_fract_y
 _atom_site_fract_z
 _atom_site_occupancy
  Zr  Zr0  1  0.44605315  1.01601452  0.74565213  1
  Zr  Zr1  1  0.08317560  0.95544392  0.52151891  1
  Zr  Zr2  1  0.82111762  0.06607350  0.71565217  1
  Zr  Zr3  1  0.44793985  0.35174220  0.45540680  1
  Zr  Zr4  1  0.55587315  0.90743104  0.31701021  1
  Zr  Zr5  1  0.40447770  0.69793614  0.86383675  1
  Zr  Zr6  1  0.11698830  0.57650342  0.16076206  1
  Zr  Zr7  1  0.07165642  0.81236294  0.88739609  1
  Zr  Zr8  1  0.38096092  0.81312624  0.68039932  1
  Zr  Zr9  1  0.69577440  0.06953161  0.27088446  1
  Zr  Zr10  1  0.13710225  0.50505606  0.59048241  1
  Zr  Zr11  1  0.37507938  0.49105797  0.82784900  1
  Zr  Zr12  1  0.76445733  0.85166641  0.69186558  1
  Zr  Zr13  1  0.25708175  0.83526887  0.52340717  1
  Zr  Zr14  1  0.11577190  0.36500829  0.27177230  1
  Zr  Zr15  1  0.60427916  0.46990244  0.29743106  1
  Zr  Zr16  1  0.30470465  0.33593561  0.93857362  1
  Zr  Zr17  1  0.27118428  1.00418072  0.07046403  1
  Zr  Zr18  1  0.49559459  0.75661506  0.49339550  1
  Zr  Zr19  1  0.50393282  0.60699438  0.68431457  1
  Zr  Zr20  1  0.18808714  0.94975851  0.27444893  1
  Zr  Zr21  1  0.56410992  0.53062895  0.91371549  1
  Zr  Zr22  1  0.29722974  0.04343424  0.44440461  1
  Zr  Zr23  1  0.61564190  0.59061408  0.12526995  1
  Zr  Zr24  1  0.85589777  0.76077992  0.45982689  1
  Zr  Zr25  1  0.24437803  0.77244312  0.00694951  1
  Zr  Zr26  1  0.75727093  0.00280104  0.07291655  1
  Zr  Zr27  1  0.26214658  0.63922813  0.70530802  1
  Zr  Zr28  1  0.22664596  0.13036433  0.83876036  1
  Zr  Zr29  1  -0.02677337  0.48153061  0.88140623  1
  Zr  Zr30  1  0.46045697  0.65365100  0.28569198  1
  Zr  Zr31  1  0.05371303  0.63800035  0.75004179  1
  Zr  Zr32  1  0.90732798  0.25589545  0.76143907  1
  Zr  Zr33  1  0.06284537  0.34817772  0.47633964  1
  Zr  Zr34  1  0.53547775  0.54250515  0.48048138  1
  Zr  Zr35  1  0.57115851  0.82032861  0.74958740  1
  Zr  Zr36  1  0.45859839  0.18009723  0.58897147  1
  Zr  Zr37  1  0.69612789  0.91748768  0.45934003  1
  Zr  Zr38  1  0.35289465  0.27023077  0.74651624  1
  Zr  Zr39  1  0.72105160  0.26384729  0.65616394  1
  Zr  Zr40  1  0.93051088  0.45404464  0.11503764  1
  Zr  Zr41  1  0.46341291  0.95457106  0.53100050  1
  Zr  Zr42  1  0.26210162  0.36375101  0.15109585  1
  Zr  Zr43  1  0.16094873  0.84026510  0.70615836  1
  Zr  Zr44  1  0.92098392  0.88043037  0.03784170  1
  Zr  Zr45  1  0.63571999  0.03498914  0.63170044  1
  Zr  Zr46  1  0.08039923  0.81676118  0.14830708  1
  Zr  Zr47  1  0.56558449  0.25968202  0.24364641  1
  Zr  Zr48  1  0.73229787  0.85701795  0.91807260  1
  Zr  Zr49  1  0.67358826  0.70498010  0.56157581  1
  Sc  Sc50  1  0.94840151  0.44107811  0.67424513  1
  Sc  Sc51  1  0.64350987  0.03079250  0.86544596  1
  Sc  Sc52  1  0.96202547  0.15824641  0.55694216  1
  Sc  Sc53  1  0.54102902  0.12173910  0.41088976  1
  Sc  Sc54  1  0.64186441  0.33568513  0.47716942  1
  Sc  Sc55  1  0.39220056  0.05156226  0.26243796  1
  Sc  Sc56  1  0.85678598  0.34757785  0.49545353  1
  Sc  Sc57  1  0.42184773  0.12422271  0.92711745  1
  Sc  Sc58  1  0.11623908  0.26995918  0.68553279  1
  Sc  Sc59  1  0.35884013  0.83838684  0.35038554  1
  Sc  Sc60  1  0.40695843  0.87158338  0.14983907  1
  Sc  Sc61  1  0.88939807  0.11684097  0.94579332  1
  Sc  Sc62  1  0.31828756  0.62211791  0.47510324  1
  Sc  Sc63  1  0.99759761  0.64930745  0.01448404  1
  Sc  Sc64  1  0.06508620  0.26751133  0.89439582  1
  Sc  Sc65  1  0.86384139  0.65209644  0.65301879  1
  Sc  Sc66  1  0.63533885  0.20558943  0.03210502  1
  Sc  Sc67  1  0.75709145  0.14171115  0.47658324  1
  Sc  Sc68  1  0.25761780  0.24669307  0.53825801  1
  Sc  Sc69  1  0.02363894  0.25630041  0.10792466  1
  Sc  Sc70  1  0.53181767  0.32630382  0.88489132  1
  Sc  Sc71  1  0.94045496  0.67118632  0.27839169  1
  Sc  Sc72  1  0.10990507  0.13467780  0.39566757  1
  Sc  Sc73  1  0.73435592  0.42591337  0.81134801  1
  Sc  Sc74  1  0.81549592  0.87504259  0.25456604  1
  Sc  Sc75  1  0.39815988  0.20715065  0.11822778  1
  Sc  Sc76  1  0.80175650  0.71640909  0.09345501  1
  Sc  Sc77  1  0.04481761  0.04383766  0.73475176  1
  Sc  Sc78  1  0.48926782  0.40790928  0.08159607  1
  Sc  Sc79  1  0.28588685  0.91993701  0.86029585  1
  Sc  Sc80  1  0.67074442  0.70922778  0.32701966  1
  Sc  Sc81  1  0.34342513  0.44759982  0.61908149  1
  Sc  Sc82  1  -0.00076423  0.03941994  0.17757314  1
  Sc  Sc83  1  0.32177148  0.24057106  0.33001667  1
  Sc  Sc84  1  0.15821504  0.74371660  0.34790134  1
  Sc  Sc85  1  0.31420635  0.54416997  0.05114154  1
  Sc  Sc86  1  0.84789444  0.32926825  0.96935774  1
  Sc  Sc87  1  0.05762053  0.72561512  0.53821500  1
  Sc  Sc88  1  0.76633300  0.33017881  0.29896419  1
  Sc  Sc89  1  0.10210910  0.55326786  0.38489528  1
  Sc  Sc90  1  0.48916821  0.88944743  0.94594026  1
  Sc  Sc91  1  0.71738891  0.49495239  0.61247545  1
  Sc  Sc92  1  0.62480393  0.82717093  0.12892530  1
  Sc  Sc93  1  0.08477947  1.01846625  0.97005074  1
  Sc  Sc94  1  0.45051474  0.69024413  0.06578860  1
  Sc  Sc95  1  0.25953466  0.03762232  0.64795802  1
  Sc  Sc96  1  0.86915951  0.70977132  0.86045128  1
  Sc  Sc97  1  0.54590950  0.03548746  0.11278064  1
  Sc  Sc98  1  0.81988621  0.19985471  0.15035745  1
  Sc  Sc99  1  0.89937670  0.04810682  0.36151497  1
  Nb  Nb100  1  0.53792803  0.38510686  0.67477987  1
  Nb  Nb101  1  1.00279018  0.87575307  0.35661711  1
  Nb  Nb102  1  0.26015042  0.42230476  0.41866168  1
  Nb  Nb103  1  0.27275335  0.72750199  0.18830247  1
  Nb  Nb104  1  0.78343963  0.54068498  0.21461356  1
  Nb  Nb105  1  0.70045330  0.39786676  0.10031538  1
  Nb  Nb106  1  0.27614176  0.55213688  0.27132407  1
  Nb  Nb107  1  0.90109849  0.93416118  0.84912058  1
  Nb  Nb108  1  0.88051472  0.95166644  0.54371528  1
  Nb  Nb109  1  0.56025930  0.18676124  0.75207818  1
  Nb  Nb110  1  0.12601235  0.42940781  0.00972867  1
  Nb  Nb111  1  0.18349529  0.15279371  0.20802532  1
  Nb  Nb112  1  0.62351830  0.70757233  0.94656033  1
  Nb  Nb113  1  0.17350638  0.43995357  0.79243811  1
  Nb  Nb114  1  0.96310168  0.84228918  0.68707335  1
  Nb  Nb115  1  0.77562882  0.54712297  0.98026353  1
  Nb  Nb116  1  0.76177483  0.54115728  0.41581819  1
  Nb  Nb117  1  0.68920820  0.64494512  0.77757118  1
  Nb  Nb118  1  0.95627364  0.24225395  0.31416686  1
  Nb  Nb119  1  0.41691261  0.42942713  0.27210124  1
  Nb  Nb120  1  0.93312500  0.54954492  0.49209382  1
  Nb  Nb121  1  0.93453513  0.45094462  0.31805140  1
  Nb  Nb122  1  0.20510434  0.19412523  1.02774491  1
  Nb  Nb123  1  0.18145694  0.60147068  0.90519337  1
  Nb  Nb124  1  0.72618206  0.21537113  0.84682664  1
