# generated using pymatgen
data_Zr2Sc2Nb
_symmetry_space_group_name_H-M   'P 1'
_cell_length_a   14.45133722
_cell_length_b   14.22253781
_cell_length_c   13.94888817
_cell_angle_alpha   90.86734950
_cell_angle_beta   88.87336247
_cell_angle_gamma   87.61301209
_symmetry_Int_Tables_number   1
_chemical_formula_structural   Zr2Sc2Nb
_chemical_formula_sum   'Zr50 Sc50 Nb25'
_cell_volume   2863.57361354
_cell_formula_units_Z   25
loop_
 _symmetry_equiv_pos_site_id
 _symmetry_equiv_pos_as_xyz
  1  'x, y, z'
loop_
 _atom_site_type_symbol
 _atom_site_label
 _atom_site_symmetry_multiplicity
 _atom_site_fract_x
 _atom_site_fract_y
 _atom_site_fract_z
 _atom_site_occupancy
  Zr  Zr0  1  0.92476689  0.76251731  0.85737691  1
  Zr  Zr1  1  0.46322923  0.95889757  0.01804657  1
  Zr  Zr2  1  0.71119194  0.94334660  0.48948526  1
  Zr  Zr3  1  0.17605547  0.29542165  0.12464067  1
  Zr  Zr4  1  0.59085463  0.34178103  0.13773254  1
  Zr  Zr5  1  1.00364359  0.98688125  0.96302201  1
  Zr  Zr6  1  0.52213679  0.88405296  0.43583732  1
  Zr  Zr7  1  0.17576423  0.69331460  0.08755636  1
  Zr  Zr8  1  0.77755522  0.51928622  0.48317821  1
  Zr  Zr9  1  0.45113257  0.72232119  0.30431418  1
  Zr  Zr10  1  0.46706307  0.50238632  1.03746650  1
  Zr  Zr11  1  0.47928864  0.17957238  0.73206875  1
  Zr  Zr12  1  0.44974677  0.23143791  0.51919812  1
  Zr  Zr13  1  0.59954187  0.82297892  0.12244663  1
  Zr  Zr14  1  0.63937123  0.15030269  0.55951563  1
  Zr  Zr15  1  0.72236952  0.21187849  0.97882870  1
  Zr  Zr16  1  0.68298361  0.49263919  1.00370258  1
  Zr  Zr17  1  0.04397870  0.42402895  -0.05803849  1
  Zr  Zr18  1  0.36900343  0.82061944  0.87909142  1
  Zr  Zr19  1  0.24942287  0.94607839  0.03765664  1
  Zr  Zr20  1  0.10077321  0.89221956  0.56812313  1
  Zr  Zr21  1  0.91348447  0.24514876  0.59399924  1
  Zr  Zr22  1  0.21657702  0.28483552  0.90845119  1
  Zr  Zr23  1  0.92777110  0.52078242  0.31227325  1
  Zr  Zr24  1  0.43580501  0.26707104  0.29749231  1
  Zr  Zr25  1  0.61889052  0.98495220  0.70208801  1
  Zr  Zr26  1  0.58637967  0.60930270  0.41497753  1
  Zr  Zr27  1  0.86303201  0.33694065  0.38025457  1
  Zr  Zr28  1  0.78533242  0.32572992  0.16798064  1
  Zr  Zr29  1  0.61824754  0.53535777  0.63359937  1
  Zr  Zr30  1  0.70863469  0.40222704  0.81112161  1
  Zr  Zr31  1  0.12756477  0.27128703  0.53429337  1
  Zr  Zr32  1  0.58386029  0.08010490  0.88803553  1
  Zr  Zr33  1  0.27815705  0.69274416  0.71518318  1
  Zr  Zr34  1  0.22889097  0.90201242  0.71804810  1
  Zr  Zr35  1  0.58848333  0.62568331  0.16160922  1
  Zr  Zr36  1  0.38225819  0.38902604  0.85274069  1
  Zr  Zr37  1  0.67515836  0.96463570  0.26514594  1
  Zr  Zr38  1  0.10394352  0.10746013  0.10511765  1
  Zr  Zr39  1  0.02158239  0.49705109  0.71738855  1
  Zr  Zr40  1  0.33471534  0.62228288  0.90689658  1
  Zr  Zr41  1  0.38589562  0.32188396  0.08787439  1
  Zr  Zr42  1  0.39430975  0.50715906  0.65290208  1
  Zr  Zr43  1  0.86520972  0.65652703  0.64922132  1
  Zr  Zr44  1  0.15162140  0.59727356  0.32096966  1
  Zr  Zr45  1  0.05830040  0.83847468  0.37931837  1
  Zr  Zr46  1  0.33646443  0.59367620  0.18375581  1
  Zr  Zr47  1  0.07487522  0.51160165  0.14872528  1
  Zr  Zr48  1  0.20997839  0.48319756  0.78591023  1
  Zr  Zr49  1  0.86361928  0.52283008  0.10472475  1
  Sc  Sc50  1  0.68655948  0.99906219  0.04719531  1
  Sc  Sc51  1  0.71643938  0.33714304  0.56617718  1
  Sc  Sc52  1  0.07057717  0.71296202  0.69639976  1
  Sc  Sc53  1  0.42896615  0.69861292  0.53597920  1
  Sc  Sc54  1  0.51383083  0.42009966  0.47639394  1
  Sc  Sc55  1  0.18133144  0.00315951  0.27831868  1
  Sc  Sc56  1  0.64497887  0.29462000  0.35052379  1
  Sc  Sc57  1  0.65729351  0.74921939  0.56965292  1
  Sc  Sc58  1  0.32076702  0.11813050  0.15954995  1
  Sc  Sc59  1  0.30515753  0.90156696  0.48458634  1
  Sc  Sc60  1  0.17067099  0.07647357  0.85796551  1
  Sc  Sc61  1  0.34898506  0.55059708  0.41317036  1
  Sc  Sc62  1  0.93099967  0.05306728  0.23128856  1
  Sc  Sc63  1  0.18017860  0.49458646  0.55780505  1
  Sc  Sc64  1  0.70110708  0.63754562  0.80363570  1
  Sc  Sc65  1  0.29650031  0.31032109  0.67240620  1
  Sc  Sc66  1  -0.01286010  0.92476460  0.75157064  1
  Sc  Sc67  1  0.54988900  0.30344676  0.91785645  1
  Sc  Sc68  1  0.37903919  0.15791348  0.95002308  1
  Sc  Sc69  1  0.06577097  0.87638641  0.14783407  1
  Sc  Sc70  1  0.43837283  0.93906265  0.24221264  1
  Sc  Sc71  1  0.74726679  0.73134357  -0.01056952  1
  Sc  Sc72  1  0.39792938  0.00707295  0.80472209  1
  Sc  Sc73  1  0.98045355  0.30846800  0.16483836  1
  Sc  Sc74  1  0.85522367  0.88905094  0.09962109  1
  Sc  Sc75  1  0.01199826  0.63739907  0.48687833  1
  Sc  Sc76  1  0.71173176  0.50491341  0.27370763  1
  Sc  Sc77  1  0.78953478  0.13269347  0.39983600  1
  Sc  Sc78  1  0.72425268  0.19869145  0.75420893  1
  Sc  Sc79  1  0.50136178  0.69274408  0.74993841  1
  Sc  Sc80  1  0.53472308  0.13327741  0.13469068  1
  Sc  Sc81  1  0.06334181  0.09651285  0.66125151  1
  Sc  Sc82  1  0.38700313  0.77034609  0.08998380  1
  Sc  Sc83  1  0.24054889  0.47878761  0.01864433  1
  Sc  Sc84  1  0.85732541  0.87854990  0.32668393  1
  Sc  Sc85  1  0.02383046  0.19736289  0.35483498  1
  Sc  Sc86  1  0.35735055  0.08601910  0.39476932  1
  Sc  Sc87  1  0.24464334  0.78936807  0.27711146  1
  Sc  Sc88  1  0.82325932  0.70327149  0.41780729  1
  Sc  Sc89  1  0.21242334  0.71101429  0.50215497  1
  Sc  Sc90  1  0.79976378  0.99066720  0.87382496  1
  Sc  Sc91  1  0.87791594  0.54798735  0.87982237  1
  Sc  Sc92  1  0.76765684  0.83613221  0.73253557  1
  Sc  Sc93  1  0.44499870  0.86587145  0.65973494  1
  Sc  Sc94  1  0.96558266  0.69623561  0.04772511  1
  Sc  Sc95  1  0.14203353  0.81553311  0.89914653  1
  Sc  Sc96  1  0.27703620  0.41658059  0.25663590  1
  Sc  Sc97  1  0.28420676  0.09677220  0.62735677  1
  Sc  Sc98  1  0.95855240  0.02323370  0.46692266  1
  Sc  Sc99  1  0.83386049  0.03746884  0.64464743  1
  Nb  Nb100  1  0.90434388  0.83748045  0.55788977  1
  Nb  Nb101  1  0.82839097  0.46812841  0.66931436  1
  Nb  Nb102  1  0.59066116  0.85958041  0.87886227  1
  Nb  Nb103  1  0.65384844  0.77294149  0.32482499  1
  Nb  Nb104  1  0.10039807  0.61500091  0.89821806  1
  Nb  Nb105  1  0.02992387  0.22364668  0.95349065  1
  Nb  Nb106  1  0.79070771  0.70335020  0.20071961  1
  Nb  Nb107  1  1.09534018  0.39579313  0.35739977  1
  Nb  Nb108  1  0.72976528  0.14528068  0.19785177  1
  Nb  Nb109  1  0.08985365  0.28563077  0.75024707  1
  Nb  Nb110  1  0.29950857  0.34693627  0.45323933  1
  Nb  Nb111  1  0.48072895  0.03514838  0.56153113  1
  Nb  Nb112  1  0.97315604  0.42912880  0.52525137  1
  Nb  Nb113  1  0.92343863  0.14530977  0.82487655  1
  Nb  Nb114  1  0.56824664  0.09657374  0.36773747  1
  Nb  Nb115  1  0.15721601  0.06948555  0.46779657  1
  Nb  Nb116  1  0.53972218  0.68666640  0.95893068  1
  Nb  Nb117  1  0.88186184  0.13358685  0.04830635  1
  Nb  Nb118  1  0.53805441  0.35310752  0.68890244  1
  Nb  Nb119  1  0.48978030  0.47364734  0.26535192  1
  Nb  Nb120  1  0.86062198  0.34226974  0.97298748  1
  Nb  Nb121  1  0.53050532  0.51163200  0.83640923  1
  Nb  Nb122  1  0.90947667  0.33268367  0.78490600  1
  Nb  Nb123  1  0.21827546  0.22200961  0.32301284  1
  Nb  Nb124  1  -0.01310689  0.70364906  0.25058318  1
