# generated using pymatgen
data_Zr2Sc2Nb
_symmetry_space_group_name_H-M   'P 1'
_cell_length_a   14.12588639
_cell_length_b   14.91667590
_cell_length_c   13.63416688
_cell_angle_alpha   93.73621962
_cell_angle_beta   89.07588258
_cell_angle_gamma   90.79013724
_symmetry_Int_Tables_number   1
_chemical_formula_structural   Zr2Sc2Nb
_chemical_formula_sum   'Zr50 Sc50 Nb25'
_cell_volume   2866.16015237
_cell_formula_units_Z   25
loop_
 _symmetry_equiv_pos_site_id
 _symmetry_equiv_pos_as_xyz
  1  'x, y, z'
loop_
 _atom_site_type_symbol
 _atom_site_label
 _atom_site_symmetry_multiplicity
 _atom_site_fract_x
 _atom_site_fract_y
 _atom_site_fract_z
 _atom_site_occupancy
  Zr  Zr0  1  0.51709056  0.66236353  0.39629251  1
  Zr  Zr1  1  0.61106818  0.72061304  0.18177956  1
  Zr  Zr2  1  0.64727657  0.37149542  0.88513826  1
  Zr  Zr3  1  0.98235470  0.69979457  0.90253508  1
  Zr  Zr4  1  0.73852104  0.89174980  0.12467696  1
  Zr  Zr5  1  0.72859313  0.64894552  0.32611994  1
  Zr  Zr6  1  0.19785250  0.73719508  0.93667872  1
  Zr  Zr7  1  0.27616613  0.94268970  0.83611088  1
  Zr  Zr8  1  0.85537239  0.03474609  0.22166478  1
  Zr  Zr9  1  0.35336064  0.40199669  0.20226026  1
  Zr  Zr10  1  0.72511936  0.86072641  0.72259403  1
  Zr  Zr11  1  0.53236112  0.11974014  0.81200926  1
  Zr  Zr12  1  1.00283239  0.18921349  0.30510240  1
  Zr  Zr13  1  0.45315021  0.03914989  0.00658236  1
  Zr  Zr14  1  0.67674286  0.98543444  0.92310798  1
  Zr  Zr15  1  0.32788115  0.15188231  0.87392759  1
  Zr  Zr16  1  0.23997200  0.62708053  0.53210650  1
  Zr  Zr17  1  0.61665438  0.25862109  0.68789677  1
  Zr  Zr18  1  0.87788344  0.05707910  0.42829069  1
  Zr  Zr19  1  0.32283405  0.10331115  0.48188021  1
  Zr  Zr20  1  0.69287187  0.34550229  0.11303912  1
  Zr  Zr21  1  0.43545245  0.58929842  0.60532992  1
  Zr  Zr22  1  0.35867654  0.78748516  0.68479788  1
  Zr  Zr23  1  0.01738875  0.31256072  0.70559049  1
  Zr  Zr24  1  0.15614231  0.79689023  0.73106877  1
  Zr  Zr25  1  0.05396577  0.02819927  0.15150343  1
  Zr  Zr26  1  0.13055979  0.52188465  0.88844721  1
  Zr  Zr27  1  0.65171565  0.55743165  0.52137499  1
  Zr  Zr28  1  0.50171567  0.89970221  0.82803863  1
  Zr  Zr29  1  0.44991161  0.64294420  0.07783671  1
  Zr  Zr30  1  0.18587246  0.46949815  0.10334320  1
  Zr  Zr31  1  0.35015609  0.45490195  0.76595462  1
  Zr  Zr32  1  0.70638192  0.19438725  0.92621624  1
  Zr  Zr33  1  0.82726686  0.83347210  0.92136268  1
  Zr  Zr34  1  0.09917679  0.81117233  0.51703205  1
  Zr  Zr35  1  0.94461967  0.12365416  0.65013017  1
  Zr  Zr36  1  0.87809666  0.02609665  1.00696132  1
  Zr  Zr37  1  0.14851457  0.45970011  0.63458084  1
  Zr  Zr38  1  0.25245047  0.61987412  0.75223288  1
  Zr  Zr39  1  0.23201498  0.03235026  0.03198682  1
  Zr  Zr40  1  0.16788208  0.71387757  0.32237675  1
  Zr  Zr41  1  0.76300337  0.63816774  0.87078671  1
  Zr  Zr42  1  0.33428816  0.59047116  0.28068157  1
  Zr  Zr43  1  0.20406665  0.12039852  0.28778503  1
  Zr  Zr44  1  0.90080594  0.36731772  0.30855058  1
  Zr  Zr45  1  0.33591942  0.27705821  0.36996492  1
  Zr  Zr46  1  0.44121334  0.95384946  0.41145882  1
  Zr  Zr47  1  0.07699566  0.97159053  0.69621830  1
  Zr  Zr48  1  0.73288493  0.36896105  0.52159532  1
  Zr  Zr49  1  0.73026533  0.16516860  0.52647118  1
  Sc  Sc50  1  0.92001335  0.26294310  0.50436022  1
  Sc  Sc51  1  0.13100538  0.21678233  0.08295693  1
  Sc  Sc52  1  0.65323281  0.11187986  0.12072304  1
  Sc  Sc53  1  0.29466285  0.33502358  0.97409875  1
  Sc  Sc54  1  0.48303477  0.42896680  0.03183239  1
  Sc  Sc55  1  0.40914646  0.70949096  0.87230380  1
  Sc  Sc56  1  0.34586944  0.77688723  0.45677723  1
  Sc  Sc57  1  0.03770816  0.62850611  0.69015185  1
  Sc  Sc58  1  0.06525565  0.52427305  0.28020379  1
  Sc  Sc59  1  0.15080393  0.32898478  0.26745167  1
  Sc  Sc60  1  0.38387430  0.78981117  0.24019619  1
  Sc  Sc61  1  0.06568506  0.33610575  0.92453591  1
  Sc  Sc62  1  0.60688028  0.77540496  0.96097239  1
  Sc  Sc63  1  0.91106004  0.46418933  0.60213010  1
  Sc  Sc64  1  0.81204167  0.64715613  0.65533340  1
  Sc  Sc65  1  1.01404908  0.90367225  0.33345092  1
  Sc  Sc66  1  0.03548766  0.62013723  0.08573564  1
  Sc  Sc67  1  0.16585583  0.25582811  0.52011928  1
  Sc  Sc68  1  0.65506880  0.02764395  0.33379508  1
  Sc  Sc69  1  0.68628237  0.43624576  0.32735396  1
  Sc  Sc70  1  0.93725781  0.80668604  0.72160992  1
  Sc  Sc71  1  0.46475291  0.45806183  0.40955452  1
  Sc  Sc72  1  0.16488118  0.84868568  0.14701718  1
  Sc  Sc73  1  0.84161296  0.51409006  0.17778043  1
  Sc  Sc74  1  0.74599760  0.22119219  0.30889698  1
  Sc  Sc75  1  0.69790800  0.95397736  0.52350633  1
  Sc  Sc76  1  0.53470299  0.91771510  0.15715052  1
  Sc  Sc77  1  0.92424555  0.49423978  0.82018516  1
  Sc  Sc78  1  0.90637211  0.19093374  0.86839961  1
  Sc  Sc79  1  0.71119834  0.47869736  0.72049389  1
  Sc  Sc80  1  0.84584837  0.38132568  0.96727480  1
  Sc  Sc81  1  0.53406390  0.27049378  0.46823752  1
  Sc  Sc82  1  0.22454104  0.29726143  0.75458874  1
  Sc  Sc83  1  0.80085560  0.85522484  0.33688964  1
  Sc  Sc84  1  0.73280482  0.07826917  0.71916768  1
  Sc  Sc85  1  0.52960462  0.30146818  0.23087940  1
  Sc  Sc86  1  0.53206809  0.54213692  0.84948098  1
  Sc  Sc87  1  0.40229851  0.01942741  0.67858867  1
  Sc  Sc88  1  0.59298231  0.69783894  0.71751899  1
  Sc  Sc89  1  0.09454407  0.05079289  0.48529223  1
  Sc  Sc90  1  0.33588610  0.98671527  0.20260424  1
  Sc  Sc91  1  0.94980584  0.69800453  0.28353231  1
  Sc  Sc92  1  0.05610547  0.90725296  0.93194391  1
  Sc  Sc93  1  0.89716266  0.74216211  0.49335352  1
  Sc  Sc94  1  0.88244782  0.21927397  0.11003807  1
  Sc  Sc95  1  0.52376747  0.85722382  0.58245194  1
  Sc  Sc96  1  0.10092012  0.11642108  0.86571289  1
  Sc  Sc97  1  0.81960693  0.69712770  0.08870977  1
  Sc  Sc98  1  0.47079087  0.12199171  0.29407154  1
  Sc  Sc99  1  0.66689535  0.54591835  0.04307521  1
  Nb  Nb100  1  0.89221828  0.98995081  0.80173152  1
  Nb  Nb101  1  0.34443146  0.19785403  0.13404511  1
  Nb  Nb102  1  0.59160992  0.83280700  0.35669012  1
  Nb  Nb103  1  0.31926820  0.54301286  -0.04213672  1
  Nb  Nb104  1  0.69142058  0.75218217  0.51648351  1
  Nb  Nb105  1  0.50682980  0.23300770  1.01074236  1
  Nb  Nb106  1  0.36153911  0.84717022  0.02616047  1
  Nb  Nb107  1  0.22555902  0.92027801  0.36827903  1
  Nb  Nb108  1  0.81346160  0.30092784  0.72603766  1
  Nb  Nb109  1  0.00039884  0.38917729  0.12262530  1
  Nb  Nb110  1  0.89669281  0.93485519  0.57574859  1
  Nb  Nb111  1  0.04941663  0.40649185  0.45195104  1
  Nb  Nb112  1  0.45911039  0.31361552  0.82751067  1
  Nb  Nb113  1  0.23367605  0.46610541  0.40683507  1
  Nb  Nb114  1  0.39971209  0.22954509  0.64641551  1
  Nb  Nb115  1  0.24657646  0.66368416  0.10920561  1
  Nb  Nb116  1  0.54088683  0.09043193  0.55144763  1
  Nb  Nb117  1  0.86593361  0.53969765  0.41894970  1
  Nb  Nb118  1  0.04974495  0.59821711  0.47760145  1
  Nb  Nb119  1  0.52361338  0.41639795  0.63900035  1
  Nb  Nb120  1  0.54374155  0.52527871  0.22181583  1
  Nb  Nb121  1  0.94767798  0.84970080  0.11914404  1
  Nb  Nb122  1  0.25479507  0.92912263  0.57755228  1
  Nb  Nb123  1  0.33426055  0.39087672  0.56160962  1
  Nb  Nb124  1  0.21511509  0.11137459  0.67259329  1
