# generated using pymatgen
data_Zr2Sc2Nb
_symmetry_space_group_name_H-M   'P 1'
_cell_length_a   14.41542865
_cell_length_b   14.13850934
_cell_length_c   14.12143886
_cell_angle_alpha   90.41161392
_cell_angle_beta   90.36992110
_cell_angle_gamma   89.45603002
_symmetry_Int_Tables_number   1
_chemical_formula_structural   Zr2Sc2Nb
_chemical_formula_sum   'Zr50 Sc50 Nb25'
_cell_volume   2877.86548699
_cell_formula_units_Z   25
loop_
 _symmetry_equiv_pos_site_id
 _symmetry_equiv_pos_as_xyz
  1  'x, y, z'
loop_
 _atom_site_type_symbol
 _atom_site_label
 _atom_site_symmetry_multiplicity
 _atom_site_fract_x
 _atom_site_fract_y
 _atom_site_fract_z
 _atom_site_occupancy
  Zr  Zr0  1  0.54270556  0.70502731  0.92437852  1
  Zr  Zr1  1  0.75000681  0.12312819  0.97034858  1
  Zr  Zr2  1  0.75733825  0.71848388  0.94707163  1
  Zr  Zr3  1  0.60146374  0.68821154  0.46643091  1
  Zr  Zr4  1  0.64079527  0.90028985  0.86844731  1
  Zr  Zr5  1  0.44589044  0.88119834  0.11078629  1
  Zr  Zr6  1  0.05009790  0.96019818  0.05666002  1
  Zr  Zr7  1  0.59168139  0.85632311  0.28735192  1
  Zr  Zr8  1  0.49778352  0.99995756  0.67209831  1
  Zr  Zr9  1  0.91613735  0.24538511  0.06836759  1
  Zr  Zr10  1  0.29233433  0.15589409  0.26032502  1
  Zr  Zr11  1  0.55868409  0.06175820  0.32820026  1
  Zr  Zr12  1  0.46916741  0.58985257  0.77807228  1
  Zr  Zr13  1  0.04354102  0.18420106  0.52321108  1
  Zr  Zr14  1  0.28730690  0.48769666  0.06838413  1
  Zr  Zr15  1  0.93620571  0.87278558  0.58813574  1
  Zr  Zr16  1  0.44022398  0.64368553  0.10165841  1
  Zr  Zr17  1  0.10694668  0.66676569  0.81163515  1
  Zr  Zr18  1  0.93885770  0.45182146  0.07686511  1
  Zr  Zr19  1  0.15136850  0.72570400  0.50235269  1
  Zr  Zr20  1  0.12276175  0.81558406  0.67016398  1
  Zr  Zr21  1  0.94385866  0.74541587  0.41536111  1
  Zr  Zr22  1  0.87625977  0.80868068  0.10728113  1
  Zr  Zr23  1  0.30455796  0.37419421  0.29145102  1
  Zr  Zr24  1  0.55745972  0.29135727  0.08557655  1
  Zr  Zr25  1  0.48054272  0.25669725  0.29437633  1
  Zr  Zr26  1  0.87783538  0.03492339  0.12501530  1
  Zr  Zr27  1  0.30884540  0.69349509  0.68462597  1
  Zr  Zr28  1  0.90384054  0.77580202  0.78362711  1
  Zr  Zr29  1  0.10307027  0.26491608  0.33775144  1
  Zr  Zr30  1  0.46025344  0.52259948  0.37974045  1
  Zr  Zr31  1  0.27317219  0.48945399  0.80919360  1
  Zr  Zr32  1  0.84144975  0.93073655  0.91881389  1
  Zr  Zr33  1  0.16930700  0.30084680  0.69508398  1
  Zr  Zr34  1  0.67720313  0.09297818  0.76458524  1
  Zr  Zr35  1  0.07108697  0.76459563  -0.00548850  1
  Zr  Zr36  1  0.94357255  0.41126555  0.28120633  1
  Zr  Zr37  1  0.35459658  0.27214401  0.10150359  1
  Zr  Zr38  1  0.12476063  0.47610844  0.29450728  1
  Zr  Zr39  1  0.36567674  0.70611621  0.47092566  1
  Zr  Zr40  1  0.76514609  0.38220187  0.19675976  1
  Zr  Zr41  1  0.58864225  0.26560181  0.85332745  1
  Zr  Zr42  1  0.11571013  0.59681003  0.11638114  1
  Zr  Zr43  1  0.73792795  0.36963375  0.72489557  1
  Zr  Zr44  1  0.41818076  0.11317744  0.80854741  1
  Zr  Zr45  1  0.18934224  0.10595280  0.83787047  1
  Zr  Zr46  1  0.07925982  0.92111802  0.44226378  1
  Zr  Zr47  1  0.95084713  0.63177813  0.23412213  1
  Zr  Zr48  1  0.23143272  0.89501620  0.95561617  1
  Zr  Zr49  1  0.88663775  0.05119147  0.47298638  1
  Sc  Sc50  1  0.30281478  0.68067451  0.92217146  1
  Sc  Sc51  1  0.78893128  0.55214372  0.37201977  1
  Sc  Sc52  1  0.10515969  0.03311009  0.64563045  1
  Sc  Sc53  1  0.66775547  0.51942707  0.86742621  1
  Sc  Sc54  1  0.51211673  0.77807693  0.67248069  1
  Sc  Sc55  1  0.79535428  0.69237509  0.57476566  1
  Sc  Sc56  1  0.14656818  0.15016056  0.06340976  1
  Sc  Sc57  1  0.61652756  0.51274210  0.07336634  1
  Sc  Sc58  1  0.54914707  0.07776332  0.97040507  1
  Sc  Sc59  1  0.75066125  0.00733523  0.30160835  1
  Sc  Sc60  1  0.43561352  0.88681292  0.88387473  1
  Sc  Sc61  1  0.29929191  0.91011345  0.53965312  1
  Sc  Sc62  1  0.27508087  0.29263575  0.90805390  1
  Sc  Sc63  1  0.05520343  0.92038762  0.83417608  1
  Sc  Sc64  1  0.74311994  0.34946616  0.98588966  1
  Sc  Sc65  1  0.38391231  0.28784367  0.71505568  1
  Sc  Sc66  1  0.28749194  0.93181941  0.74763964  1
  Sc  Sc67  1  0.12763960  0.34819097  0.12169684  1
  Sc  Sc68  1  0.25977734  0.28737221  0.49765161  1
  Sc  Sc69  1  0.63368797  0.74646510  0.10953803  1
  Sc  Sc70  1  0.73371696  0.89999671  0.67218039  1
  Sc  Sc71  1  0.25339117  0.51866310  0.45146135  1
  Sc  Sc72  1  0.67386525  0.95113156  0.09772222  1
  Sc  Sc73  1  0.07121990  0.82865154  0.21703427  1
  Sc  Sc74  1  0.06781425  0.06002293  0.26579098  1
  Sc  Sc75  1  0.45555794  0.43382143  0.93675466  1
  Sc  Sc76  1  0.24656641  0.96971753  0.16851821  1
  Sc  Sc77  1  0.78338356  0.20403928  0.60210853  1
  Sc  Sc78  1  0.02476242  0.47006668  0.73572348  1
  Sc  Sc79  1  0.68676782  0.23195143  0.39784211  1
  Sc  Sc80  1  0.10906399  0.48473319  0.93583722  1
  Sc  Sc81  1  0.88532387  0.32122092  0.45728199  1
  Sc  Sc82  1  0.43100686  0.12014060  0.49082234  1
  Sc  Sc83  1  0.89863566  0.05610599  0.71335781  1
  Sc  Sc84  1  0.97427515  0.10018152  0.91844681  1
  Sc  Sc85  1  0.25898583  0.75707095  0.13283437  1
  Sc  Sc86  1  0.93357208  0.61809001  0.95738742  1
  Sc  Sc87  1  0.65835607  0.42269343  0.51086104  1
  Sc  Sc88  1  0.89183745  0.18472616  0.28936753  1
  Sc  Sc89  1  0.69163881  0.17315639  0.17824003  1
  Sc  Sc90  1  0.86608428  0.47844526  0.59118121  1
  Sc  Sc91  1  0.05136461  0.28780788  0.88691562  1
  Sc  Sc92  1  0.46870927  0.34428649  0.50078942  1
  Sc  Sc93  1  0.16031196  0.55635095  0.62647005  1
  Sc  Sc94  1  0.21906803  0.07509692  0.43473577  1
  Sc  Sc95  1  0.74834685  0.86419940  0.45368385  1
  Sc  Sc96  1  0.33768090  0.07250255  0.00249239  1
  Sc  Sc97  1  0.50429369  0.88757499  0.47675454  1
  Sc  Sc98  1  0.65311429  0.05073674  0.52641509  1
  Sc  Sc99  1  0.60785382  0.61479746  0.26510944  1
  Nb  Nb100  1  0.43422715  0.74696616  0.28695971  1
  Nb  Nb101  1  0.38867141  0.96274766  0.31947134  1
  Nb  Nb102  1  0.57112710  0.21870526  0.64102879  1
  Nb  Nb103  1  0.30688096  0.59835106  0.26038626  1
  Nb  Nb104  1  0.28854830  0.11884757  0.64198771  1
  Nb  Nb105  1  -0.01385458  0.65852429  0.62639073  1
  Nb  Nb106  1  0.46878413  0.08669062  0.16022960  1
  Nb  Nb107  1  0.77450147  0.75877411  0.27445766  1
  Nb  Nb108  1  0.60782798  0.40498648  0.29496378  1
  Nb  Nb109  1  0.48098796  0.56985609  0.57621704  1
  Nb  Nb110  1  0.83651523  0.22868296  0.83135727  1
  Nb  Nb111  1  1.00651260  0.55464740  0.44846190  1
  Nb  Nb112  1  0.45326978  0.45129111  0.18022563  1
  Nb  Nb113  1  0.13959025  0.67212117  0.32064743  1
  Nb  Nb114  1  0.88881085  0.41860202  0.86759547  1
  Nb  Nb115  1  0.91632260  0.91591129  0.30568810  1
  Nb  Nb116  1  0.83891411  0.58474251  0.76766687  1
  Nb  Nb117  1  0.65622491  0.56699007  0.65776267  1
  Nb  Nb118  1  0.68468313  0.71866567  0.76543814  1
  Nb  Nb119  1  0.78909532  0.59503388  0.13588729  1
  Nb  Nb120  1  0.07202147  0.39246579  0.52070059  1
  Nb  Nb121  1  0.34100661  0.46356806  0.62834368  1
  Nb  Nb122  1  0.53729347  0.41330922  0.70651554  1
  Nb  Nb123  1  0.95411784  0.28553346  0.68325499  1
  Nb  Nb124  1  0.25372101  0.83233014  0.33887594  1
