# generated using pymatgen
data_Zr2Sc2Nb
_symmetry_space_group_name_H-M   'P 1'
_cell_length_a   14.03409421
_cell_length_b   14.80755324
_cell_length_c   13.88621714
_cell_angle_alpha   89.40088102
_cell_angle_beta   90.06980536
_cell_angle_gamma   90.38066886
_symmetry_Int_Tables_number   1
_chemical_formula_structural   Zr2Sc2Nb
_chemical_formula_sum   'Zr50 Sc50 Nb25'
_cell_volume   2885.47972474
_cell_formula_units_Z   25
loop_
 _symmetry_equiv_pos_site_id
 _symmetry_equiv_pos_as_xyz
  1  'x, y, z'
loop_
 _atom_site_type_symbol
 _atom_site_label
 _atom_site_symmetry_multiplicity
 _atom_site_fract_x
 _atom_site_fract_y
 _atom_site_fract_z
 _atom_site_occupancy
  Zr  Zr0  1  0.92906629  -0.03100511  0.06437949  1
  Zr  Zr1  1  0.52000494  0.46519517  0.45938037  1
  Zr  Zr2  1  0.37933428  0.31745048  0.09270991  1
  Zr  Zr3  1  0.71732246  0.74320079  0.36612644  1
  Zr  Zr4  1  0.80037154  0.90603118  0.25513429  1
  Zr  Zr5  1  0.89423871  0.35314231  0.45579593  1
  Zr  Zr6  1  0.25211267  0.50470652  0.78304569  1
  Zr  Zr7  1  0.03765631  0.77833048  0.72818477  1
  Zr  Zr8  1  0.43480058  0.77248964  0.27857746  1
  Zr  Zr9  1  0.90107344  0.50334844  0.61164088  1
  Zr  Zr10  1  0.15709319  0.35218473  0.11153030  1
  Zr  Zr11  1  0.91418635  0.12641106  0.45945394  1
  Zr  Zr12  1  0.37095091  0.78861472  0.90222742  1
  Zr  Zr13  1  0.88730391  0.46323933  0.26566122  1
  Zr  Zr14  1  0.07931980  0.24675134  0.91955136  1
  Zr  Zr15  1  0.68078865  0.35594983  0.82377232  1
  Zr  Zr16  1  0.12765636  0.83962058  0.54013909  1
  Zr  Zr17  1  0.84867149  0.30212102  0.68752514  1
  Zr  Zr18  1  0.91217525  0.09507538  0.87888379  1
  Zr  Zr19  1  0.79017519  0.91631392  0.49157135  1
  Zr  Zr20  1  0.15509408  0.96281940  0.74446679  1
  Zr  Zr21  1  0.10329486  0.43834351  0.55315112  1
  Zr  Zr22  1  0.30902193  0.15315914  0.44843135  1
  Zr  Zr23  1  0.43375929  0.60308346  0.82569045  1
  Zr  Zr24  1  0.78091894  0.14605800  0.07515771  1
  Zr  Zr25  1  0.10423067  0.07550492  0.31086408  1
  Zr  Zr26  1  0.96194266  0.95025557  0.63579535  1
  Zr  Zr27  1  0.19807066  0.55364200  0.39739665  1
  Zr  Zr28  1  0.15729608  0.85715520  0.92698724  1
  Zr  Zr29  1  0.00362577  0.16016119  0.09302767  1
  Zr  Zr30  1  0.44045051  0.75073128  0.67731536  1
  Zr  Zr31  1  0.64003885  0.22855988  0.65774835  1
  Zr  Zr32  1  0.20702376  0.87987587  0.32695485  1
  Zr  Zr33  1  0.31192544  0.90840053  0.60244684  1
  Zr  Zr34  1  0.45806741  0.07459535  0.59384735  1
  Zr  Zr35  1  0.44975647  0.13316827  0.12176674  1
  Zr  Zr36  1  0.91309510  0.73996069  0.52084088  1
  Zr  Zr37  1  0.08505438  0.46987776  0.94486914  1
  Zr  Zr38  1  0.70379548  0.71498591  0.58274086  1
  Zr  Zr39  1  0.05730942  0.57384064  0.76122210  1
  Zr  Zr40  1  0.98621974  0.69161810  0.92618017  1
  Zr  Zr41  1  0.27056432  0.33799854  0.89581990  1
  Zr  Zr42  1  0.67615723  0.53906627  0.93015665  1
  Zr  Zr43  1  0.85301009  0.77967091  0.08811852  1
  Zr  Zr44  1  0.13627192  0.03651926  0.51982947  1
  Zr  Zr45  1  0.52653998  0.05625643  0.94543283  1
  Zr  Zr46  1  0.23973629  0.72704234  0.72685840  1
  Zr  Zr47  1  0.73141873  0.08827703  0.31732949  1
  Zr  Zr48  1  0.71049725  0.60711263  0.14775737  1
  Zr  Zr49  1  0.29712921  0.83583182  0.11469683  1
  Sc  Sc50  1  0.20731354  0.65297971  0.94550288  1
  Sc  Sc51  1  0.93389051  0.88741254  0.86976677  1
  Sc  Sc52  1  0.50839779  0.11448814  0.34414407  1
  Sc  Sc53  1  0.60830799  0.02775305  0.74322069  1
  Sc  Sc54  1  0.85105456  0.67220114  0.74671530  1
  Sc  Sc55  1  0.11141378  0.64032492  0.57090073  1
  Sc  Sc56  1  0.71079277  0.52175147  0.71189899  1
  Sc  Sc57  1  0.67033522  0.42528750  0.29553420  1
  Sc  Sc58  1  0.57244915  0.88322443  0.59463635  1
  Sc  Sc59  1  0.73698333  0.38421949  0.07373226  1
  Sc  Sc60  1  0.30015384  0.04756688  0.24716621  1
  Sc  Sc61  1  0.81876559  0.26337595  0.25436413  1
  Sc  Sc62  1  0.08658861  0.54594864  0.16697249  1
  Sc  Sc63  1  0.66586041  0.26024905  0.42571160  1
  Sc  Sc64  1  0.49148016  0.41524576  0.69861675  1
  Sc  Sc65  1  0.75029883  0.55329806  0.44819742  1
  Sc  Sc66  1  0.81895495  0.09144028  0.66840107  1
  Sc  Sc67  1  0.26977915  0.12864029  0.66041838  1
  Sc  Sc68  1  0.58055883  0.25874130  -0.00299451  1
  Sc  Sc69  1  0.38869975  0.96707074  0.79582191  1
  Sc  Sc70  1  0.07325381  0.72695719  0.36315760  1
  Sc  Sc71  1  0.76336334  0.86821355  0.72892319  1
  Sc  Sc72  1  0.05497985  0.36323736  0.74842289  1
  Sc  Sc73  1  0.56349020  0.69487156  -0.01366095  1
  Sc  Sc74  1  0.87934803  0.47394160  0.84915700  1
  Sc  Sc75  1  0.08235452  0.75695879  0.11227595  1
  Sc  Sc76  1  0.95167746  0.36082608  0.09206629  1
  Sc  Sc77  1  0.24431193  0.67486695  0.23974726  1
  Sc  Sc78  1  0.45492950  0.32553968  0.30612597  1
  Sc  Sc79  1  0.52158950  0.47056948  0.13854928  1
  Sc  Sc80  1  0.60249681  0.91499969  0.35990517  1
  Sc  Sc81  1  0.23991061  0.25717937  0.28075553  1
  Sc  Sc82  1  0.46385482  0.27403029  0.53674761  1
  Sc  Sc83  1  0.88552773  0.56327449  0.05011543  1
  Sc  Sc84  1  0.50831247  0.71692239  0.46657941  1
  Sc  Sc85  1  0.27794085  0.13600423  0.87224306  1
  Sc  Sc86  1  0.39890516  0.93822965  0.41942400  1
  Sc  Sc87  1  0.65628842  0.07017172  0.51988400  1
  Sc  Sc88  1  0.40482129  0.64051488  0.10807067  1
  Sc  Sc89  1  0.33673746  0.55896790  0.57954359  1
  Sc  Sc90  1  0.04463686  0.15096001  0.70889388  1
  Sc  Sc91  1  0.71320834  0.15827068  0.86041792  1
  Sc  Sc92  1  0.27421080  0.33242060  0.65344271  1
  Sc  Sc93  1  0.63159066  0.80177675  0.16218370  1
  Sc  Sc94  1  0.72309234  0.94125651  0.96229857  1
  Sc  Sc95  1  0.22199291  0.15965707  0.07951768  1
  Sc  Sc96  1  0.10950732  0.24585607  0.48881772  1
  Sc  Sc97  1  0.47613969  0.42828696  0.91952641  1
  Sc  Sc98  1  0.46617004  0.21835616  0.79157065  1
  Sc  Sc99  1  0.89301034  0.67604993  0.26886238  1
  Nb  Nb100  1  0.01502125  0.25258216  0.28517983  1
  Nb  Nb101  1  0.09341250  0.40609279  0.32993059  1
  Nb  Nb102  1  0.68576719  0.39785490  0.56998953  1
  Nb  Nb103  1  0.87533944  0.28335405  0.91033228  1
  Nb  Nb104  1  0.63324992  0.02415312  0.14497493  1
  Nb  Nb105  1  0.62380925  0.69078620  0.77416945  1
  Nb  Nb106  1  0.13314338  0.97267368  0.12151862  1
  Nb  Nb107  1  0.29518734  0.46001931  0.22814473  1
  Nb  Nb108  1  0.75767864  0.73511857  0.92369000  1
  Nb  Nb109  1  0.29517539  0.38524313  0.43836038  1
  Nb  Nb110  1  0.97785396  0.55039356  0.42294801  1
  Nb  Nb111  1  0.39733163  0.57038189  0.34591392  1
  Nb  Nb112  1  0.10074297  0.04221529  0.93208493  1
  Nb  Nb113  1  0.32036119  0.99059739  1.01074799  1
  Nb  Nb114  1  0.46146351  0.94990305  0.19756698  1
  Nb  Nb115  1  0.91796602  0.06648070  0.25159737  1
  Nb  Nb116  1  0.57632475  0.61474605  0.29252554  1
  Nb  Nb117  1  1.00074542  0.88074316  0.24076160  1
  Nb  Nb118  1  0.97886203  0.93086429  0.41934115  1
  Nb  Nb119  1  0.55146690  0.58438023  0.61310948  1
  Nb  Nb120  1  0.29462506  0.49108678  0.02121291  1
  Nb  Nb121  1  0.49810583  0.88649225  1.02460685  1
  Nb  Nb122  1  0.61738160  0.23534394  0.19974553  1
  Nb  Nb123  1  0.56860551  0.85029926  0.83685604  1
  Nb  Nb124  1  0.29502881  0.73506360  0.46420732  1
