# generated using pymatgen
data_Zr2Sc2Nb
_symmetry_space_group_name_H-M   'P 1'
_cell_length_a   13.75180819
_cell_length_b   14.64979792
_cell_length_c   14.22376165
_cell_angle_alpha   91.07742137
_cell_angle_beta   90.89194175
_cell_angle_gamma   90.21038241
_symmetry_Int_Tables_number   1
_chemical_formula_structural   Zr2Sc2Nb
_chemical_formula_sum   'Zr50 Sc50 Nb25'
_cell_volume   2864.65994221
_cell_formula_units_Z   25
loop_
 _symmetry_equiv_pos_site_id
 _symmetry_equiv_pos_as_xyz
  1  'x, y, z'
loop_
 _atom_site_type_symbol
 _atom_site_label
 _atom_site_symmetry_multiplicity
 _atom_site_fract_x
 _atom_site_fract_y
 _atom_site_fract_z
 _atom_site_occupancy
  Zr  Zr0  1  0.50702083  0.89314139  0.62284259  1
  Zr  Zr1  1  0.32110983  0.63913424  0.34486114  1
  Zr  Zr2  1  0.92420595  0.78713610  0.11554669  1
  Zr  Zr3  1  0.31274250  0.90808424  0.13140869  1
  Zr  Zr4  1  0.55003697  0.14358753  0.33651198  1
  Zr  Zr5  1  0.35770499  0.51227437  0.74392440  1
  Zr  Zr6  1  0.84197077  0.08772847  0.52521962  1
  Zr  Zr7  1  0.65355388  0.75079495  0.70455778  1
  Zr  Zr8  1  0.49996195  0.88499449  0.83552236  1
  Zr  Zr9  1  0.72806222  0.40350096  0.59672912  1
  Zr  Zr10  1  0.56989521  0.54707192  0.74693553  1
  Zr  Zr11  1  0.57901302  0.22741838  0.90733429  1
  Zr  Zr12  1  0.50502154  0.48048979  0.55027660  1
  Zr  Zr13  1  0.52082951  0.38639103  0.07834848  1
  Zr  Zr14  1  0.11669310  0.27702713  0.66904816  1
  Zr  Zr15  1  0.88863683  0.33991119  0.42194451  1
  Zr  Zr16  1  0.03855886  0.71386945  0.60799521  1
  Zr  Zr17  1  0.69413094  0.20301293  0.66895981  1
  Zr  Zr18  1  0.11715278  0.89788058  0.61688539  1
  Zr  Zr19  1  0.67578168  0.48547365  0.20136296  1
  Zr  Zr20  1  0.85394060  0.04763515  0.75623104  1
  Zr  Zr21  1  0.09291076  0.90870129  0.22697380  1
  Zr  Zr22  1  0.50643705  0.18840718  0.13700064  1
  Zr  Zr23  1  0.72416028  0.32803377  0.02844499  1
  Zr  Zr24  1  0.42950936  0.71088731  0.72587332  1
  Zr  Zr25  1  0.60513586  0.05625602  0.76796165  1
  Zr  Zr26  1  0.67152602  0.83523202  0.46069041  1
  Zr  Zr27  1  0.51996944  0.97685522  0.21149298  1
  Zr  Zr28  1  0.72515666  0.93498035  0.63953157  1
  Zr  Zr29  1  0.50898120  0.54111983  0.34740430  1
  Zr  Zr30  1  0.31148568  0.28873357  0.77820551  1
  Zr  Zr31  1  0.93576222  0.50733264  0.56584190  1
  Zr  Zr32  1  0.77809152  0.56969996  0.74402627  1
  Zr  Zr33  1  0.19119458  0.13654154  0.86181534  1
  Zr  Zr34  1  0.89052940  0.68486934  0.45207855  1
  Zr  Zr35  1  0.69754775  0.84062181  0.22394482  1
  Zr  Zr36  1  0.63684180  0.52536409  0.95872686  1
  Zr  Zr37  1  0.75994769  0.07782169  0.94949957  1
  Zr  Zr38  1  0.73936687  0.00579961  0.35537700  1
  Zr  Zr39  1  0.12563614  0.20697704  0.06371396  1
  Zr  Zr40  1  0.48900071  0.78838314  0.29945628  1
  Zr  Zr41  1  0.72789575  0.88776177  0.03454820  1
  Zr  Zr42  1  0.67668823  0.66968087  0.33151126  1
  Zr  Zr43  1  0.84553272  0.51627775  0.94832377  1
  Zr  Zr44  1  0.93713599  0.91087131  0.94550246  1
  Zr  Zr45  1  0.90292432  0.88627200  0.53308924  1
  Zr  Zr46  1  0.93065421  0.41215601  0.76916098  1
  Zr  Zr47  1  0.32928711  0.71435959  0.15650914  1
  Zr  Zr48  1  0.95169253  0.34516520  -0.00087484  1
  Zr  Zr49  1  0.02527769  0.07568947  0.63439850  1
  Sc  Sc50  1  0.69485893  0.60525510  0.54118512  1
  Sc  Sc51  1  0.80431618  0.72473854  0.89372345  1
  Sc  Sc52  1  0.30462978  0.92269870  0.71488359  1
  Sc  Sc53  1  0.89242561  0.15093404  0.31676461  1
  Sc  Sc54  1  0.31632566  0.35330836  0.58663055  1
  Sc  Sc55  1  0.32978978  0.06776651  0.28095135  1
  Sc  Sc56  1  0.09483699  0.69471031  0.24934436  1
  Sc  Sc57  1  0.07555211  0.19006926  0.46636721  1
  Sc  Sc58  1  0.27426118  0.85335257  0.32709814  1
  Sc  Sc59  1  0.50935512  0.27664343  0.49126739  1
  Sc  Sc60  1  0.29895647  0.19876323  0.44591408  1
  Sc  Sc61  1  0.54213078  0.02425613  -0.00679677  1
  Sc  Sc62  1  0.29091243  0.27869948  0.22708815  1
  Sc  Sc63  1  0.90917402  0.83407137  0.74194468  1
  Sc  Sc64  1  0.26782231  0.94808552  0.91960200  1
  Sc  Sc65  1  0.42369090  0.11094268  0.61578696  1
  Sc  Sc66  1  0.70662404  0.07671665  0.15591807  1
  Sc  Sc67  1  0.42163401  0.58552664  0.95829914  1
  Sc  Sc68  1  0.98558150  0.62411817  0.77283822  1
  Sc  Sc69  1  0.30842866  0.56803519  0.54391349  1
  Sc  Sc70  1  0.12844200  0.40383990  0.47279397  1
  Sc  Sc71  1  0.61172204  0.06352146  0.52515211  1
  Sc  Sc72  1  0.06209053  0.31484167  0.27290893  1
  Sc  Sc73  1  0.14391186  0.80682430  0.03439098  1
  Sc  Sc74  1  0.14016526  0.48914859  0.69895797  1
  Sc  Sc75  1  0.30075405  0.80235310  0.52418807  1
  Sc  Sc76  1  0.31344424  0.09413879  0.06747983  1
  Sc  Sc77  1  0.40240534  0.10143424  0.83328114  1
  Sc  Sc78  1  0.89193444  0.84570763  0.31890999  1
  Sc  Sc79  1  0.49763701  0.70108578  0.50855210  1
  Sc  Sc80  1  0.19069733  0.59958586  0.06304088  1
  Sc  Sc81  1  0.53028998  0.62858587  0.14574922  1
  Sc  Sc82  1  0.90011226  0.26530967  0.62122791  1
  Sc  Sc83  1  0.44184596  0.96338268  0.43021206  1
  Sc  Sc84  1  0.33734803  0.76260830  0.92001203  1
  Sc  Sc85  1  0.70503476  0.27103360  0.24530007  1
  Sc  Sc86  1  0.11179742  0.10642498  0.25345504  1
  Sc  Sc87  1  0.73690727  0.67124122  0.08538720  1
  Sc  Sc88  1  0.90023524  0.18328930  0.10872077  1
  Sc  Sc89  1  0.26627040  0.44480505  0.92224697  1
  Sc  Sc90  1  0.35855658  0.48441355  0.17434722  1
  Sc  Sc91  1  0.51752221  0.31965662  0.70080916  1
  Sc  Sc92  1  0.98827333  0.54967607  0.12117724  1
  Sc  Sc93  1  0.51130451  0.81995728  0.06183710  1
  Sc  Sc94  1  0.14963384  0.39937236  0.09432981  1
  Sc  Sc95  1  0.87060488  0.40155208  0.20207115  1
  Sc  Sc96  1  -0.01688635  0.12972349  0.91453934  1
  Sc  Sc97  1  0.34480653  0.27502138  0.99442823  1
  Sc  Sc98  1  0.82388429  0.24674150  0.84396092  1
  Sc  Sc99  1  0.12615042  0.62118271  0.45310796  1
  Nb  Nb100  1  0.17912946  0.49741670  0.28001185  1
  Nb  Nb101  1  0.08661979  0.82171880  0.42683998  1
  Nb  Nb102  1  0.10532841  0.31421208  0.86969902  1
  Nb  Nb103  1  0.08108850  0.98008319  0.80724744  1
  Nb  Nb104  1  0.98953126  0.51331341  0.34215320  1
  Nb  Nb105  1  0.19665476  0.62804651  0.85742433  1
  Nb  Nb106  1  0.64851774  0.40084684  0.40459225  1
  Nb  Nb107  1  0.69469552  0.39124296  0.81295663  1
  Nb  Nb108  1  0.79701465  0.50981023  0.38579874  1
  Nb  Nb109  1  0.01102943  0.00011822  0.41077785  1
  Nb  Nb110  1  0.34280985  0.41798986  0.38861240  1
  Nb  Nb111  1  1.00180946  0.68473383  0.95974564  1
  Nb  Nb112  1  0.22147513  0.10705585  0.65571747  1
  Nb  Nb113  1  0.11682822  0.80100325  0.82082395  1
  Nb  Nb114  1  0.05749429  0.49742275  0.91774287  1
  Nb  Nb115  1  0.09984284  0.00945697  0.04353218  1
  Nb  Nb116  1  0.90713051  0.98753437  0.15961338  1
  Nb  Nb117  1  0.22686880  0.70311320  0.68695354  1
  Nb  Nb118  1  0.72118486  0.22561940  0.45421135  1
  Nb  Nb119  1  0.48326942  0.40188422  0.88026306  1
  Nb  Nb120  1  0.21026603  1.00679789  0.47130265  1
  Nb  Nb121  1  0.59058812  0.71515088  0.89892735  1
  Nb  Nb122  1  0.49708840  0.34160663  0.28263985  1
  Nb  Nb123  1  0.71252440  0.90029787  0.84226194  1
  Nb  Nb124  1  0.86070449  0.64096395  0.25217697  1
