# generated using pymatgen
data_Zr2Sc2Nb
_symmetry_space_group_name_H-M   'P 1'
_cell_length_a   13.96639309
_cell_length_b   14.25378199
_cell_length_c   14.36190542
_cell_angle_alpha   89.55143092
_cell_angle_beta   90.91421803
_cell_angle_gamma   89.55269604
_symmetry_Int_Tables_number   1
_chemical_formula_structural   Zr2Sc2Nb
_chemical_formula_sum   'Zr50 Sc50 Nb25'
_cell_volume   2858.53933202
_cell_formula_units_Z   25
loop_
 _symmetry_equiv_pos_site_id
 _symmetry_equiv_pos_as_xyz
  1  'x, y, z'
loop_
 _atom_site_type_symbol
 _atom_site_label
 _atom_site_symmetry_multiplicity
 _atom_site_fract_x
 _atom_site_fract_y
 _atom_site_fract_z
 _atom_site_occupancy
  Zr  Zr0  1  0.90552521  0.54227342  0.15924736  1
  Zr  Zr1  1  0.18269054  0.11603719  0.92915711  1
  Zr  Zr2  1  0.34053545  0.07093194  0.55120418  1
  Zr  Zr3  1  0.28718866  0.71949059  0.74015503  1
  Zr  Zr4  1  0.95150178  0.34450062  0.05820221  1
  Zr  Zr5  1  0.85171907  0.31814648  0.86482631  1
  Zr  Zr6  1  0.52800242  0.33915837  0.46888636  1
  Zr  Zr7  1  0.46376863  0.95485692  0.87976670  1
  Zr  Zr8  1  0.93643606  0.70957780  0.60436643  1
  Zr  Zr9  1  0.65314927  0.25212557  0.27779402  1
  Zr  Zr10  1  0.53247702  0.13833601  0.46630615  1
  Zr  Zr11  1  0.49513089  0.71520585  0.50605401  1
  Zr  Zr12  1  0.64691760  0.32211843  0.88026891  1
  Zr  Zr13  1  0.92042985  0.36037615  0.47301005  1
  Zr  Zr14  1  0.64166650  0.86902881  0.98484096  1
  Zr  Zr15  1  0.02698577  0.91068562  0.46449247  1
  Zr  Zr16  1  0.27251741  0.92724140  0.20699819  1
  Zr  Zr17  1  0.63780253  0.03689112  0.29627868  1
  Zr  Zr18  1  0.42775750  0.33127100  0.90082359  1
  Zr  Zr19  1  0.91640985  0.15466196  0.16818069  1
  Zr  Zr20  1  0.74623817  0.28813087  0.07911812  1
  Zr  Zr21  1  0.07580153  0.78176552  0.76859531  1
  Zr  Zr22  1  0.92552537  0.09870392  0.54585884  1
  Zr  Zr23  1  0.68097448  0.97072376  0.78099665  1
  Zr  Zr24  1  0.10194888  0.60987345  0.30429114  1
  Zr  Zr25  1  0.10379451  0.84364181  0.07199535  1
  Zr  Zr26  1  0.70246720  0.17365240  0.70837038  1
  Zr  Zr27  1  0.69912481  0.03333211  0.53006928  1
  Zr  Zr28  1  0.47728479  0.63338362  0.69033141  1
  Zr  Zr29  1  0.88764765  0.27667845  0.66004334  1
  Zr  Zr30  1  0.75151340  0.49523352  0.78619399  1
  Zr  Zr31  1  0.26029091  0.91529055  0.42730915  1
  Zr  Zr32  1  0.93431064  0.72573297  0.40166967  1
  Zr  Zr33  1  0.84189393  0.82935048  0.76490252  1
  Zr  Zr34  1  0.54260634  0.14270497  0.85653339  1
  Zr  Zr35  1  0.49284972  0.24209659  0.66100734  1
  Zr  Zr36  1  0.28239107  0.51712949  0.23011266  1
  Zr  Zr37  1  0.50934100  0.80973780  0.21949052  1
  Zr  Zr38  1  0.73228610  0.24428296  0.49407100  1
  Zr  Zr39  1  0.20459443  0.91011867  0.63016556  1
  Zr  Zr40  1  0.54708843  0.58885810  0.90323367  1
  Zr  Zr41  1  0.12636725  0.81180487  0.29402061  1
  Zr  Zr42  1  0.58624874  0.52217366  0.55665126  1
  Zr  Zr43  1  0.82703868  0.72882725  0.05435238  1
  Zr  Zr44  1  0.83390910  0.92449188  0.95108181  1
  Zr  Zr45  1  0.09102254  0.26034077  0.57859213  1
  Zr  Zr46  1  0.24622077  0.91058179  0.83834369  1
  Zr  Zr47  1  0.74113400  0.12477591  0.93303869  1
  Zr  Zr48  1  0.56728057  0.61441787  0.33560513  1
  Zr  Zr49  1  0.12848266  0.23028738  0.13669939  1
  Sc  Sc50  1  0.83224557  0.13161218  0.35242916  1
  Sc  Sc51  1  0.32786695  0.52767740  1.00826188  1
  Sc  Sc52  1  0.95086234  0.75748236  0.20373403  1
  Sc  Sc53  1  0.21585228  0.71663742  0.93692970  1
  Sc  Sc54  1  0.04980167  0.22167371  0.36504437  1
  Sc  Sc55  1  0.54252173  0.20689775  0.08372285  1
  Sc  Sc56  1  0.73295100  0.66905237  0.47522002  1
  Sc  Sc57  1  0.28459477  0.27224801  0.74057720  1
  Sc  Sc58  1  0.30895620  0.26341294  0.48615091  1
  Sc  Sc59  1  0.04066608  0.95038647  0.89540651  1
  Sc  Sc60  1  0.49384156  0.41079035  0.25356850  1
  Sc  Sc61  1  0.54493268  0.42937951  0.05122073  1
  Sc  Sc62  1  0.12064904  0.52950381  0.87748175  1
  Sc  Sc63  1  0.46809630  0.60358225  0.15488351  1
  Sc  Sc64  1  0.14146670  0.73876080  0.51688168  1
  Sc  Sc65  1  0.89146181  0.07242440  0.76759023  1
  Sc  Sc66  1  0.43490241  0.21670437  0.28896402  1
  Sc  Sc67  1  0.21915415  0.32460952  0.94789682  1
  Sc  Sc68  1  0.65326045  0.84132040  0.38508415  1
  Sc  Sc69  1  0.43012721  0.00902608  0.30464506  1
  Sc  Sc70  1  0.29159246  0.59949232  0.56504630  1
  Sc  Sc71  1  0.56991916  0.78291853  0.80335938  1
  Sc  Sc72  1  0.53248876  0.43675480  0.75056414  1
  Sc  Sc73  1  0.34337340  0.07774771  0.75955055  1
  Sc  Sc74  1  0.33253228  0.71562085  0.35446243  1
  Sc  Sc75  1  0.43670194  0.76890565  -0.00464583  1
  Sc  Sc76  1  0.04807879  0.01732768  0.28904620  1
  Sc  Sc77  1  0.74916308  0.68672155  0.25823006  1
  Sc  Sc78  1  0.11858911  0.09255491  0.71856054  1
  Sc  Sc79  1  0.82525265  0.87520925  0.54128321  1
  Sc  Sc80  1  0.84563347  0.34500676  0.26268776  1
  Sc  Sc81  1  0.05846618  0.28588723  0.81115432  1
  Sc  Sc82  1  0.70547616  0.44114068  0.40310581  1
  Sc  Sc83  1  0.17200499  0.42887988  0.65866877  1
  Sc  Sc84  1  0.14050282  0.44462428  0.09617184  1
  Sc  Sc85  1  0.39780975  0.50477224  0.41448782  1
  Sc  Sc86  1  1.03095318  0.54078738  0.51241581  1
  Sc  Sc87  1  0.93042157  0.52865422  0.94671013  1
  Sc  Sc88  1  0.73758096  0.49999093  0.00325882  1
  Sc  Sc89  1  0.23595246  0.11650620  0.32934971  1
  Sc  Sc90  1  0.48880197  0.92657019  0.47908366  1
  Sc  Sc91  1  0.84641563  0.92486159  0.31571527  1
  Sc  Sc92  1  0.04642988  0.41215514  0.27566263  1
  Sc  Sc93  1  0.27994443  0.72291617  0.14613969  1
  Sc  Sc94  1  0.32370978  0.50983982  0.79301799  1
  Sc  Sc95  1  0.41636551  0.86680179  0.66775641  1
  Sc  Sc96  1  0.19187747  0.43102150  0.43840568  1
  Sc  Sc97  1  0.50269311  0.99552469  0.09880132  1
  Sc  Sc98  1  0.95811500  0.13886134  0.97120120  1
  Sc  Sc99  1  0.70858577  0.66807369  0.67861276  1
  Nb  Nb100  1  0.11353084  0.61211455  0.69399651  1
  Nb  Nb101  1  0.63303241  0.67573802  0.07730873  1
  Nb  Nb102  1  0.13201514  0.07391004  0.50895043  1
  Nb  Nb103  1  0.96526685  0.45400245  0.71007575  1
  Nb  Nb104  1  0.92166621  0.95036360  0.11709849  1
  Nb  Nb105  1  0.69601392  0.36535175  0.64203126  1
  Nb  Nb106  1  0.31215512  0.12804218  0.13555273  1
  Nb  Nb107  1  0.38648287  0.42189227  0.60738433  1
  Nb  Nb108  1  0.74771631  0.68726634  0.88682113  1
  Nb  Nb109  1  0.11545871  0.03798556  0.10014630  1
  Nb  Nb110  1  0.69117672  0.49200640  0.20186225  1
  Nb  Nb111  1  0.25293555  0.32244855  0.27052647  1
  Nb  Nb112  1  -0.01916962  0.73635589  0.93586268  1
  Nb  Nb113  1  0.73431913  0.06014231  0.12114788  1
  Nb  Nb114  1  0.35174199  0.32587898  0.10601038  1
  Nb  Nb115  1  0.53236589  0.03568714  0.66309494  1
  Nb  Nb116  1  0.91589322  0.62693624  0.77499511  1
  Nb  Nb117  1  0.82517705  0.51041732  0.58013196  1
  Nb  Nb118  1  0.37315839  0.14290556  0.96320247  1
  Nb  Nb119  1  0.62967961  0.84554142  0.61213706  1
  Nb  Nb120  1  0.71289432  0.87183424  0.16459893  1
  Nb  Nb121  1  0.00163848  0.92931169  0.65627622  1
  Nb  Nb122  1  0.29493254  0.94697103  0.01819390  1
  Nb  Nb123  1  0.08564904  0.63598596  0.08897867  1
  Nb  Nb124  1  0.87833704  0.54056079  0.35645415  1
