# generated using pymatgen
data_Zr2Sc2Nb
_symmetry_space_group_name_H-M   'P 1'
_cell_length_a   13.72410372
_cell_length_b   14.97807612
_cell_length_c   14.01798288
_cell_angle_alpha   91.41055524
_cell_angle_beta   84.94658478
_cell_angle_gamma   87.45866839
_symmetry_Int_Tables_number   1
_chemical_formula_structural   Zr2Sc2Nb
_chemical_formula_sum   'Zr50 Sc50 Nb25'
_cell_volume   2866.34437701
_cell_formula_units_Z   25
loop_
 _symmetry_equiv_pos_site_id
 _symmetry_equiv_pos_as_xyz
  1  'x, y, z'
loop_
 _atom_site_type_symbol
 _atom_site_label
 _atom_site_symmetry_multiplicity
 _atom_site_fract_x
 _atom_site_fract_y
 _atom_site_fract_z
 _atom_site_occupancy
  Zr  Zr0  1  0.46338970  0.22146922  0.33875090  1
  Zr  Zr1  1  0.76051145  0.91280011  0.83800138  1
  Zr  Zr2  1  0.53398537  0.55702981  0.25766760  1
  Zr  Zr3  1  0.08376689  0.52134709  0.59944272  1
  Zr  Zr4  1  0.50763503  1.00372716  0.90618887  1
  Zr  Zr5  1  0.67257098  0.00605642  0.04556932  1
  Zr  Zr6  1  0.34577876  0.44102000  0.35823408  1
  Zr  Zr7  1  0.29650770  0.48947065  0.56078575  1
  Zr  Zr8  1  0.94935016  0.13061821  0.25191520  1
  Zr  Zr9  1  0.94059278  0.37057047  0.62699923  1
  Zr  Zr10  1  0.15109563  0.31908134  0.63157783  1
  Zr  Zr11  1  0.14746322  0.56740733  0.38328140  1
  Zr  Zr12  1  0.66294786  0.07660606  0.75008939  1
  Zr  Zr13  1  0.95690490  0.28278284  0.81887255  1
  Zr  Zr14  1  0.01819850  0.45652226  0.26117011  1
  Zr  Zr15  1  0.79931989  0.72090532  0.51645147  1
  Zr  Zr16  1  0.19478600  0.20229130  0.07328595  1
  Zr  Zr17  1  0.69460341  0.16176531  0.93148413  1
  Zr  Zr18  1  0.86932553  0.58951749  0.66802616  1
  Zr  Zr19  1  0.05444698  0.69325239  0.24405222  1
  Zr  Zr20  1  0.76570327  0.16624745  0.13000813  1
  Zr  Zr21  1  0.41908754  0.08936839  0.49966535  1
  Zr  Zr22  1  0.63421618  0.84490459  0.22421048  1
  Zr  Zr23  1  0.07211262  0.03467937  0.10193179  1
  Zr  Zr24  1  0.11391505  0.09386089  0.87268827  1
  Zr  Zr25  1  0.66728527  0.56892506  0.55387075  1
  Zr  Zr26  1  0.05489768  0.14542731  0.66295136  1
  Zr  Zr27  1  0.46642361  0.60330627  0.47276715  1
  Zr  Zr28  1  0.35091483  0.32695677  1.00221767  1
  Zr  Zr29  1  0.28647600  0.24962694  0.25067623  1
  Zr  Zr30  1  0.43744659  0.51891755  0.06688943  1
  Zr  Zr31  1  0.23260502  0.44163395  0.17699616  1
  Zr  Zr32  1  0.27238225  0.95314919  0.42749495  1
  Zr  Zr33  1  0.05755787  0.70034622  0.71153135  1
  Zr  Zr34  1  0.14694591  0.37227618  0.41922098  1
  Zr  Zr35  1  0.30195313  1.01205786  0.07666669  1
  Zr  Zr36  1  0.58687188  0.33871458  1.00629316  1
  Zr  Zr37  1  0.49802357  0.93199287  0.11574456  1
  Zr  Zr38  1  0.02061422  0.58837206  0.88554758  1
  Zr  Zr39  1  0.45965148  0.02571483  0.69193277  1
  Zr  Zr40  1  0.54877921  0.40902907  0.41504712  1
  Zr  Zr41  1  1.01469137  0.92507228  0.29670408  1
  Zr  Zr42  1  0.83355859  0.03814516  0.42212072  1
  Zr  Zr43  1  0.87778756  0.10831679  0.81704684  1
  Zr  Zr44  1  0.59746839  0.79287693  0.95164748  1
  Zr  Zr45  1  0.87625084  0.33523775  0.18279437  1
  Zr  Zr46  1  0.68858856  0.65313823  0.35797824  1
  Zr  Zr47  1  0.62384152  0.07209965  0.29689416  1
  Zr  Zr48  1  0.90444711  0.00218371  -0.01558405  1
  Zr  Zr49  1  0.67211416  0.71591891  0.72415716  1
  Sc  Sc50  1  0.63139883  0.05308715  0.52434364  1
  Sc  Sc51  1  0.45112014  0.64564007  0.89884436  1
  Sc  Sc52  1  0.75297323  0.44118524  0.35386748  1
  Sc  Sc53  1  0.50734102  0.43560242  0.63566279  1
  Sc  Sc54  1  0.24136254  0.58824035  0.75639779  1
  Sc  Sc55  1  0.85240894  0.77544017  0.28195597  1
  Sc  Sc56  1  0.81619607  -0.02816526  0.21097487  1
  Sc  Sc57  1  0.24646785  0.68776940  0.54283644  1
  Sc  Sc58  1  0.29394114  0.16975866  0.70487223  1
  Sc  Sc59  1  0.96432034  0.80931352  0.89163462  1
  Sc  Sc60  1  0.46414962  0.36707270  0.18892161  1
  Sc  Sc61  1  0.80232703  0.19024465  0.60999212  1
  Sc  Sc62  1  0.06456957  0.38116671  0.02897800  1
  Sc  Sc63  1  0.37397352  0.30041073  0.52931588  1
  Sc  Sc64  1  0.92108582  0.68358948  0.06984193  1
  Sc  Sc65  1  0.69499158  0.89536164  0.62825615  1
  Sc  Sc66  1  1.00123774  0.22501533  0.45379718  1
  Sc  Sc67  1  0.49135272  0.22362565  0.85449787  1
  Sc  Sc68  1  0.72769067  0.37940423  0.57247235  1
  Sc  Sc69  1  0.96910509  0.20072128  0.02380795  1
  Sc  Sc70  1  0.88307210  0.99616449  0.63433030  1
  Sc  Sc71  1  0.35629060  0.83158611  0.97395575  1
  Sc  Sc72  1  0.68890764  0.32239984  0.78714749  1
  Sc  Sc73  1  0.35478795  0.84817262  0.24345010  1
  Sc  Sc74  1  0.05765957  0.02184552  0.48201193  1
  Sc  Sc75  1  0.91389357  0.52517711  0.45498620  1
  Sc  Sc76  1  0.48797051  0.83789128  0.76414814  1
  Sc  Sc77  1  0.16117863  0.79459763  0.37699644  1
  Sc  Sc78  1  0.69745964  0.66015193  0.13419965  1
  Sc  Sc79  1  0.17512875  0.07151870  0.27558176  1
  Sc  Sc80  1  0.33193014  0.64366441  0.30488122  1
  Sc  Sc81  1  0.23532694  0.80589945  0.75732731  1
  Sc  Sc82  1  0.80116988  0.67457723  0.87549125  1
  Sc  Sc83  1  0.24637172  0.50314934  0.94593695  1
  Sc  Sc84  1  0.37869999  0.85130982  0.57215202  1
  Sc  Sc85  1  0.22239233  0.16732710  0.46271567  1
  Sc  Sc86  1  0.45917695  0.64129223  0.68184130  1
  Sc  Sc87  1  0.04693820  0.94329047  0.76222626  1
  Sc  Sc88  1  0.64298729  0.54455042  0.96332835  1
  Sc  Sc89  1  0.53686349  0.22599210  0.65173571  1
  Sc  Sc90  1  0.17694130  0.27756723  0.86723587  1
  Sc  Sc91  1  0.48314680  0.16008657  0.09518254  1
  Sc  Sc92  1  0.14741631  0.72201383  0.97034308  1
  Sc  Sc93  1  0.69347017  0.44988954  0.14680659  1
  Sc  Sc94  1  0.80088177  0.23938849  0.37253919  1
  Sc  Sc95  1  0.78011122  0.83296564  0.04386409  1
  Sc  Sc96  1  0.88005705  0.49571391  0.03228372  1
  Sc  Sc97  1  0.84275220  0.46161144  0.82436894  1
  Sc  Sc98  1  0.32069338  0.38106568  0.75645192  1
  Sc  Sc99  1  0.27505476  0.66578253  0.11323213  1
  Nb  Nb100  1  0.89023187  0.80153111  0.68179518  1
  Nb  Nb101  1  0.22516101  1.00080872  0.63324197  1
  Nb  Nb102  1  0.57754818  0.76644826  0.53095022  1
  Nb  Nb103  1  0.17671828  0.85686511  0.14953810  1
  Nb  Nb104  1  0.50142953  0.93023083  0.39502780  1
  Nb  Nb105  1  0.99138133  0.85474161  0.10352805  1
  Nb  Nb106  1  0.64622390  0.53012863  0.75594443  1
  Nb  Nb107  1  0.79849500  0.32095808  0.98067235  1
  Nb  Nb108  1  0.64552075  0.28417490  0.24221954  1
  Nb  Nb109  1  0.07910899  0.27057012  0.23524850  1
  Nb  Nb110  1  0.70088961  0.87713343  0.40986964  1
  Nb  Nb111  1  0.50411145  0.75178572  0.34722072  1
  Nb  Nb112  1  0.61359089  0.23592460  0.46136144  1
  Nb  Nb113  1  0.08328265  0.43880319  0.78824273  1
  Nb  Nb114  1  0.08215883  0.56367095  0.09982179  1
  Nb  Nb115  1  0.32612337  0.12729443  0.91656521  1
  Nb  Nb116  1  0.29861293  0.97519453  0.81938248  1
  Nb  Nb117  1  0.10688836  0.85546088  0.57903425  1
  Nb  Nb118  1  0.01526347  0.69498043  0.50675872  1
  Nb  Nb119  1  0.86594806  0.57109050  0.23365691  1
  Nb  Nb120  1  0.14581237  0.91781062  0.95172244  1
  Nb  Nb121  1  0.39516023  0.05158721  0.27562872  1
  Nb  Nb122  1  0.92305886  0.86055823  0.47470246  1
  Nb  Nb123  1  0.48931299  0.71454142  0.12108348  1
  Nb  Nb124  1  0.48543088  0.44384207  0.85880223  1
