# generated using pymatgen
data_Zr2Sc2Nb
_symmetry_space_group_name_H-M   'P 1'
_cell_length_a   14.33257293
_cell_length_b   13.95856030
_cell_length_c   14.44908980
_cell_angle_alpha   90.93508992
_cell_angle_beta   91.91497705
_cell_angle_gamma   89.90829821
_symmetry_Int_Tables_number   1
_chemical_formula_structural   Zr2Sc2Nb
_chemical_formula_sum   'Zr50 Sc50 Nb25'
_cell_volume   2888.71422358
_cell_formula_units_Z   25
loop_
 _symmetry_equiv_pos_site_id
 _symmetry_equiv_pos_as_xyz
  1  'x, y, z'
loop_
 _atom_site_type_symbol
 _atom_site_label
 _atom_site_symmetry_multiplicity
 _atom_site_fract_x
 _atom_site_fract_y
 _atom_site_fract_z
 _atom_site_occupancy
  Zr  Zr0  1  0.36284554  0.86042040  0.91154627  1
  Zr  Zr1  1  0.65643133  0.76874643  0.49944392  1
  Zr  Zr2  1  0.85788348  0.70411077  0.56626423  1
  Zr  Zr3  1  0.16357202  0.88896510  0.57291558  1
  Zr  Zr4  1  0.80150749  0.46918207  0.66078316  1
  Zr  Zr5  1  0.56962103  0.20229308  0.52305684  1
  Zr  Zr6  1  0.96140921  0.68952304  0.18175863  1
  Zr  Zr7  1  0.68511352  0.93668038  0.81530028  1
  Zr  Zr8  1  0.92213175  0.88685805  0.48061125  1
  Zr  Zr9  1  0.09863388  0.23631517  0.65332244  1
  Zr  Zr10  1  0.55896940  0.70371470  0.25759719  1
  Zr  Zr11  1  0.23778620  0.68283005  0.90938289  1
  Zr  Zr12  1  0.46272940  0.77023118  0.45636878  1
  Zr  Zr13  1  0.91860418  0.29223371  0.54363681  1
  Zr  Zr14  1  0.50059826  0.64320042  0.64138898  1
  Zr  Zr15  1  0.41318717  0.10273282  0.01011035  1
  Zr  Zr16  1  0.43167065  0.63315710  0.84969254  1
  Zr  Zr17  1  0.09692986  0.29015093  0.04489151  1
  Zr  Zr18  1  0.61841659  0.49053517  0.13920456  1
  Zr  Zr19  1  0.95780455  0.68591830  0.37840250  1
  Zr  Zr20  1  0.41802403  0.10621610  0.41486768  1
  Zr  Zr21  1  0.98385051  0.07528944  0.57753933  1
  Zr  Zr22  1  0.06426460  0.16663085  0.85111004  1
  Zr  Zr23  1  0.53983389  0.68714987  0.04280619  1
  Zr  Zr24  1  0.79876634  0.46517861  0.04026345  1
  Zr  Zr25  1  0.51361060  0.24816232  0.73980927  1
  Zr  Zr26  1  0.43790121  0.50242075  0.22689966  1
  Zr  Zr27  1  0.11622217  0.59031320  0.48648470  1
  Zr  Zr28  1  0.07879123  0.99420089  0.39388804  1
  Zr  Zr29  1  0.13789482  0.32013010  0.24287571  1
  Zr  Zr30  1  0.11790811  0.89476789  0.20037065  1
  Zr  Zr31  1  0.63707074  0.06990718  0.67971356  1
  Zr  Zr32  1  0.16506600  0.68817311  0.26450212  1
  Zr  Zr33  1  0.33146777  0.73193340  0.10187464  1
  Zr  Zr34  1  0.23044046  0.52888199  0.13940361  1
  Zr  Zr35  1  0.23308908  0.36960798  0.71576885  1
  Zr  Zr36  1  0.91461276  0.28477583  0.14769788  1
  Zr  Zr37  1  0.93788161  0.32685485  0.34377131  1
  Zr  Zr38  1  0.07029345  0.37545722  0.84703659  1
  Zr  Zr39  1  0.05456287  0.50261120  0.29245299  1
  Zr  Zr40  1  0.67538979  0.56986921  0.54092370  1
  Zr  Zr41  1  0.76850688  0.72019782  0.33864438  1
  Zr  Zr42  1  0.73004549  0.34590714  0.46507663  1
  Zr  Zr43  1  0.03981228  0.12542371  0.22847707  1
  Zr  Zr44  1  0.47099321  0.56191476  0.43215615  1
  Zr  Zr45  1  0.26789707  0.50659137  0.35395962  1
  Zr  Zr46  1  0.58631133  0.48446027  0.94210167  1
  Zr  Zr47  1  0.86098157  0.07358546  0.75570628  1
  Zr  Zr48  1  0.48130417  0.30246211  0.95327125  1
  Zr  Zr49  1  0.49919284  0.89955405  0.06844771  1
  Sc  Sc50  1  0.82642569  0.04478270  0.97055224  1
  Sc  Sc51  1  0.47717310  0.91626725  0.29150812  1
  Sc  Sc52  1  0.70559739  0.35052776  0.84053646  1
  Sc  Sc53  1  0.08650096  0.20220091  0.42388724  1
  Sc  Sc54  1  0.91306722  0.89637720  0.26429954  1
  Sc  Sc55  1  0.87539212  0.47405415  0.85353118  1
  Sc  Sc56  1  0.77815772  0.10890996  0.52527793  1
  Sc  Sc57  1  0.26354779  0.25428477  0.92199484  1
  Sc  Sc58  1  0.56953927  0.97478957  0.49444659  1
  Sc  Sc59  1  1.03633919  0.06959506  0.03831683  1
  Sc  Sc60  1  0.88951214  0.26011515  0.94030419  1
  Sc  Sc61  1  0.01872179  0.48741576  0.06624385  1
  Sc  Sc62  1  0.32730671  0.51328071  0.57549710  1
  Sc  Sc63  1  0.54217168  0.41101960  0.59398663  1
  Sc  Sc64  1  0.02206803  0.47560167  0.65800190  1
  Sc  Sc65  1  0.52527222  0.28771917  0.16543626  1
  Sc  Sc66  1  0.24307686  0.46795372  0.93013507  1
  Sc  Sc67  1  0.74607734  0.67581541  0.12815478  1
  Sc  Sc68  1  0.70797889  0.85505676  0.00286105  1
  Sc  Sc69  1  0.16531174  0.37846063  0.49747981  1
  Sc  Sc70  1  0.67960354  0.88618577  0.20410132  1
  Sc  Sc71  1  0.51635872  0.86866055  0.66829507  1
  Sc  Sc72  1  0.64656614  0.14699853  0.88696593  1
  Sc  Sc73  1  0.73912562  0.93629874  0.39533879  1
  Sc  Sc74  1  0.52484453  0.34271342  0.37531738  1
  Sc  Sc75  1  0.94140716  0.86205085  0.04459220  1
  Sc  Sc76  1  0.32320323  0.28931691  0.34652804  1
  Sc  Sc77  1  0.96697994  0.87802948  0.68709794  1
  Sc  Sc78  1  0.41918879  0.43675773  0.78175282  1
  Sc  Sc79  1  0.71299685  0.65223639  0.90010474  1
  Sc  Sc80  1  0.69831281  0.28283707  0.04597475  1
  Sc  Sc81  1  0.47868918  0.02323517  0.83242618  1
  Sc  Sc82  1  0.90382172  0.65816483  0.97536358  1
  Sc  Sc83  1  0.72917853  0.31187131  0.25651424  1
  Sc  Sc84  1  0.84676921  0.50718307  0.24261789  1
  Sc  Sc85  1  0.69688360  0.73082983  0.70980309  1
  Sc  Sc86  1  0.24357476  0.07900171  0.30389642  1
  Sc  Sc87  1  0.86596601  0.11811970  0.33776879  1
  Sc  Sc88  1  0.22796550  0.12957010  0.10615129  1
  Sc  Sc89  1  0.30583694  0.16702211  0.74752986  1
  Sc  Sc90  1  0.23813221  0.10375329  0.54178814  1
  Sc  Sc91  1  0.32024231  0.74446617  0.67588972  1
  Sc  Sc92  1  0.66064903  0.52300607  0.34036092  1
  Sc  Sc93  1  0.72426397  0.26490764  0.66130391  1
  Sc  Sc94  1  0.88362757  0.50597740  0.46382512  1
  Sc  Sc95  1  0.61904719  0.08030184  0.09652196  1
  Sc  Sc96  1  0.32570637  0.32854845  0.11937570  1
  Sc  Sc97  1  0.16477643  0.87954701  1.00263141  1
  Sc  Sc98  1  0.61995816  0.11959891  0.31715378  1
  Sc  Sc99  1  0.07923763  0.70202033  0.65545894  1
  Nb  Nb100  1  0.23448385  0.03405281  0.90073919  1
  Nb  Nb101  1  0.89518732  0.65686870  0.75587085  1
  Nb  Nb102  1  0.10658497  0.68669351  0.05488026  1
  Nb  Nb103  1  0.62290968  0.52810061  0.75158724  1
  Nb  Nb104  1  0.43871622  0.08280235  0.62183046  1
  Nb  Nb105  1  0.10653168  0.79958479  0.40905136  1
  Nb  Nb106  1  0.41374289  0.51704288  0.02905917  1
  Nb  Nb107  1  1.01494551  -0.03366890  0.86660028  1
  Nb  Nb108  1  0.35449835  0.92227220  0.51494640  1
  Nb  Nb109  1  0.36972899  0.28245273  0.56860955  1
  Nb  Nb110  1  0.27794723  0.87330498  0.34127386  1
  Nb  Nb111  1  0.54981766  0.79245466  0.86235107  1
  Nb  Nb112  1  0.42590732  0.10945577  0.20633829  1
  Nb  Nb113  1  0.12993620  0.03270962  0.71910597  1
  Nb  Nb114  1  0.21735053  0.56918801  0.74006945  1
  Nb  Nb115  1  0.06295812  0.57699091  0.85814749  1
  Nb  Nb116  1  0.91461580  0.28546629  0.73770377  1
  Nb  Nb117  1  0.31822895  0.95668433  0.71329648  1
  Nb  Nb118  1  0.27722093  0.70639081  0.47099081  1
  Nb  Nb119  1  0.31838264  0.94363241  0.13759531  1
  Nb  Nb120  1  0.17789508  0.84958226  0.78839301  1
  Nb  Nb121  1  0.76806918  0.91228159  0.62189420  1
  Nb  Nb122  1  0.03392434  0.76545023  0.86766545  1
  Nb  Nb123  1  0.84755158  0.83921517  0.84307256  1
  Nb  Nb124  1  0.36288104  0.69112548  0.29044671  1
