# generated using pymatgen
data_Zr2Sc2Nb
_symmetry_space_group_name_H-M   'P 1'
_cell_length_a   14.04328922
_cell_length_b   14.80069558
_cell_length_c   13.78990015
_cell_angle_alpha   89.52058279
_cell_angle_beta   88.26653360
_cell_angle_gamma   87.72078728
_symmetry_Int_Tables_number   1
_chemical_formula_structural   Zr2Sc2Nb
_chemical_formula_sum   'Zr50 Sc50 Nb25'
_cell_volume   2862.58511063
_cell_formula_units_Z   25
loop_
 _symmetry_equiv_pos_site_id
 _symmetry_equiv_pos_as_xyz
  1  'x, y, z'
loop_
 _atom_site_type_symbol
 _atom_site_label
 _atom_site_symmetry_multiplicity
 _atom_site_fract_x
 _atom_site_fract_y
 _atom_site_fract_z
 _atom_site_occupancy
  Zr  Zr0  1  0.10077715  0.79123572  0.15918496  1
  Zr  Zr1  1  0.92706106  0.35464613  0.48112252  1
  Zr  Zr2  1  0.87431529  0.76925307  0.47303993  1
  Zr  Zr3  1  0.50013584  0.74872025  0.28471836  1
  Zr  Zr4  1  0.69722062  0.83932980  0.57034759  1
  Zr  Zr5  1  0.42040125  0.08639003  0.44799130  1
  Zr  Zr6  1  0.44081940  0.86248885  0.47549298  1
  Zr  Zr7  1  0.41222037  0.47545885  0.03341460  1
  Zr  Zr8  1  0.67227874  0.26954785  0.16071275  1
  Zr  Zr9  1  0.85279589  0.30858493  0.04670200  1
  Zr  Zr10  1  0.21479097  0.09838884  0.44892788  1
  Zr  Zr11  1  0.66048148  0.32867856  0.76971457  1
  Zr  Zr12  1  0.07483229  0.77352216  0.41771602  1
  Zr  Zr13  1  0.19286014  0.11584957  0.70007632  1
  Zr  Zr14  1  -0.00696894  0.44818474  0.29424155  1
  Zr  Zr15  1  0.95097263  0.93769551  0.05680203  1
  Zr  Zr16  1  0.39537964  0.64476589  0.46303648  1
  Zr  Zr17  1  0.66195602  0.21263263  0.94425433  1
  Zr  Zr18  1  0.93154581  0.88391325  0.64535786  1
  Zr  Zr19  1  0.83263717  0.69445410  0.68825158  1
  Zr  Zr20  1  0.83186903  0.09537141  0.22792626  1
  Zr  Zr21  1  0.11101659  0.03536275  0.90312059  1
  Zr  Zr22  1  0.47942516  0.36863356  0.64019841  1
  Zr  Zr23  1  0.38964578  0.68413489  0.88125114  1
  Zr  Zr24  1  0.26966510  0.65960978  0.07130704  1
  Zr  Zr25  1  0.33104787  0.97089310  0.62304768  1
  Zr  Zr26  1  0.60513802  0.70182783  0.73236047  1
  Zr  Zr27  1  0.57324653  0.95717675  0.32568406  1
  Zr  Zr28  1  0.36371064  0.44131899  0.47655343  1
  Zr  Zr29  1  0.10628586  0.26881866  0.33492351  1
  Zr  Zr30  1  0.32393910  0.55572593  0.66771317  1
  Zr  Zr31  1  0.07700289  0.31301700  0.11837844  1
  Zr  Zr32  1  0.56378425  0.48897554  0.41524183  1
  Zr  Zr33  1  0.58911762  0.51094678  0.15873074  1
  Zr  Zr34  1  0.14972877  0.83633966  0.95911317  1
  Zr  Zr35  1  0.64302239  0.13471055  0.34783173  1
  Zr  Zr36  1  0.69271840  0.08307249  0.78695284  1
  Zr  Zr37  1  0.61923406  0.40398463  0.97571653  1
  Zr  Zr38  1  0.79949833  0.03326199  0.61314723  1
  Zr  Zr39  1  0.78982135  0.45197316  0.20606176  1
  Zr  Zr40  1  0.02371589  0.31454312  0.70067607  1
  Zr  Zr41  1  0.96898411  0.99222041  0.45627118  1
  Zr  Zr42  1  0.19394267  0.59714346  0.48010086  1
  Zr  Zr43  1  0.10070938  0.22973452  0.87924011  1
  Zr  Zr44  1  0.15863917  0.98687803  0.12034821  1
  Zr  Zr45  1  0.83973976  0.24384765  0.65468328  1
  Zr  Zr46  1  0.48743753  0.49996071  0.81115436  1
  Zr  Zr47  1  0.10672234  0.62106920  0.25438580  1
  Zr  Zr48  1  0.24623966  0.78663087  0.55461964  1
  Zr  Zr49  1  0.33169667  0.84542278  0.07373096  1
  Sc  Sc50  1  0.89171234  -0.01509752  0.84886809  1
  Sc  Sc51  1  0.15326844  0.37809078  0.52533605  1
  Sc  Sc52  1  0.33177581  0.93313622  0.85856223  1
  Sc  Sc53  1  0.54180926  0.81322296  0.91866552  1
  Sc  Sc54  1  0.67555287  0.61535790  0.31693566  1
  Sc  Sc55  1  0.53236735  0.88872444  0.11804051  1
  Sc  Sc56  1  0.70855023  0.79836081  0.34604624  1
  Sc  Sc57  1  0.13754478  0.89960741  0.74510725  1
  Sc  Sc58  1  0.89101034  0.65407660  0.27867899  1
  Sc  Sc59  1  0.38825564  0.55251506  0.25484326  1
  Sc  Sc60  1  0.46086814  0.12252716  0.70754974  1
  Sc  Sc61  1  0.20633809  0.70188768  0.78139277  1
  Sc  Sc62  1  0.45376366  0.29331189  0.84515348  1
  Sc  Sc63  1  0.60455297  0.07691250  0.11997304  1
  Sc  Sc64  1  0.28041049  0.74643879  0.29406605  1
  Sc  Sc65  1  0.89877966  0.73277935  0.06260566  1
  Sc  Sc66  1  0.09949656  0.51702074  0.69578592  1
  Sc  Sc67  1  0.71276984  0.32906256  0.36491797  1
  Sc  Sc68  1  0.05066875  0.71528026  0.63240758  1
  Sc  Sc69  1  0.04046380  0.17918034  0.52893229  1
  Sc  Sc70  1  0.18692166  0.48360492  0.09300764  1
  Sc  Sc71  1  0.32320623  0.23511984  0.58074254  1
  Sc  Sc72  1  0.50838541  0.27934623  0.43973216  1
  Sc  Sc73  1  0.69624271  0.41098750  0.57726087  1
  Sc  Sc74  1  0.99238274  0.13874848  0.07046549  1
  Sc  Sc75  1  0.64135348  0.20289841  0.58841627  1
  Sc  Sc76  1  0.67890192  0.71468621  0.11221711  1
  Sc  Sc77  1  0.16359249  0.93332139  0.33588213  1
  Sc  Sc78  1  0.94005100  0.88578279  0.27602023  1
  Sc  Sc79  1  0.72015891  0.91444340  0.96890503  1
  Sc  Sc80  1  0.45005401  0.23443633  0.04618017  1
  Sc  Sc81  1  0.25312640  0.35078069  0.74851016  1
  Sc  Sc82  1  0.98246789  0.57431755  0.48374101  1
  Sc  Sc83  1  0.95827511  0.78952463  0.85114776  1
  Sc  Sc84  1  0.77264960  0.53808886  0.99923783  1
  Sc  Sc85  1  0.36613520  0.95377493  0.27246774  1
  Sc  Sc86  1  0.09014326  0.63995313  0.96806965  1
  Sc  Sc87  1  0.96570546  0.51312641  0.08839692  1
  Sc  Sc88  1  0.44727915  0.15754390  0.24730262  1
  Sc  Sc89  1  0.58988223  0.01396829  0.54376202  1
  Sc  Sc90  1  0.85015423  0.38860843  0.84095081  1
  Sc  Sc91  1  0.21299994  0.45120124  0.31858521  1
  Sc  Sc92  1  0.88606747  0.18574751  0.85786410  1
  Sc  Sc93  1  0.29711189  0.31790079  0.17188955  1
  Sc  Sc94  1  0.92398898  0.58181244  0.83874993  1
  Sc  Sc95  1  0.84240998  0.16704594  0.43718266  1
  Sc  Sc96  1  0.51603350  0.04479729  0.91550497  1
  Sc  Sc97  1  0.52574648  0.90778708  0.71920527  1
  Sc  Sc98  1  0.75149335  0.91891969  0.17717991  1
  Sc  Sc99  1  0.07076524  0.42729054  0.90343169  1
  Nb  Nb100  1  0.90296772  0.27451141  0.25408249  1
  Nb  Nb101  1  0.26505421  0.33471523  0.95953070  1
  Nb  Nb102  1  0.79379180  0.09200677  0.02408466  1
  Nb  Nb103  1  0.26565402  0.51862846  0.88177481  1
  Nb  Nb104  1  0.57098491  0.71103412  0.49765636  1
  Nb  Nb105  1  0.31277456  0.27248969  0.37388968  1
  Nb  Nb106  1  0.58202223  0.60827139  0.94608663  1
  Nb  Nb107  1  0.31046189  0.14504085  0.87714472  1
  Nb  Nb108  1  0.53331244  0.55834102  0.61492014  1
  Nb  Nb109  1  0.87480015  0.48090783  0.64507834  1
  Nb  Nb110  1  0.74818977  0.71551821  0.89153285  1
  Nb  Nb111  1  0.03603971  0.09940446  0.28285355  1
  Nb  Nb112  1  0.70644856  0.53389695  0.77129652  1
  Nb  Nb113  1  0.41308188  0.74202095  0.66603861  1
  Nb  Nb114  1  0.36631551  0.04444714  0.07150294  1
  Nb  Nb115  1  0.77177090  0.97313174  0.40628134  1
  Nb  Nb116  1  0.48782347  0.36133114  0.24738363  1
  Nb  Nb117  1  0.46738826  0.68092002  0.09395410  1
  Nb  Nb118  1  0.12752613  0.95484857  0.55665631  1
  Nb  Nb119  1  0.21335912  0.16720015  0.04935697  1
  Nb  Nb120  1  0.73770693  0.87171285  0.76607977  1
  Nb  Nb121  1  0.73074604  0.61383155  0.54419007  1
  Nb  Nb122  1  0.23896900  0.12786920  0.24280963  1
  Nb  Nb123  1  -0.00361447  0.07691104  0.69549501  1
  Nb  Nb124  1  0.80952276  0.49670166  0.41286656  1
