# generated using pymatgen
data_Zr2Sc2Nb
_symmetry_space_group_name_H-M   'P 1'
_cell_length_a   14.11955209
_cell_length_b   14.46804758
_cell_length_c   14.04422344
_cell_angle_alpha   92.09889460
_cell_angle_beta   90.04582823
_cell_angle_gamma   89.89763271
_symmetry_Int_Tables_number   1
_chemical_formula_structural   Zr2Sc2Nb
_chemical_formula_sum   'Zr50 Sc50 Nb25'
_cell_volume   2867.05683504
_cell_formula_units_Z   25
loop_
 _symmetry_equiv_pos_site_id
 _symmetry_equiv_pos_as_xyz
  1  'x, y, z'
loop_
 _atom_site_type_symbol
 _atom_site_label
 _atom_site_symmetry_multiplicity
 _atom_site_fract_x
 _atom_site_fract_y
 _atom_site_fract_z
 _atom_site_occupancy
  Zr  Zr0  1  0.67129610  0.90221414  0.38766751  1
  Zr  Zr1  1  0.95146377  0.32429263  0.62592004  1
  Zr  Zr2  1  0.93756937  0.91426719  0.72901174  1
  Zr  Zr3  1  0.57106038  0.91522672  0.58948269  1
  Zr  Zr4  1  0.26389722  0.74637365  0.28707442  1
  Zr  Zr5  1  1.02883416  0.27999181  0.24972938  1
  Zr  Zr6  1  0.70211783  0.84723939  0.18901967  1
  Zr  Zr7  1  0.31845728  0.68274617  0.08874975  1
  Zr  Zr8  1  0.29761178  0.51336357  0.23600311  1
  Zr  Zr9  1  0.49495724  0.61135046  0.97902877  1
  Zr  Zr10  1  0.93220358  0.01393749  0.49032280  1
  Zr  Zr11  1  0.53494379  0.58480369  0.74510986  1
  Zr  Zr12  1  0.85460434  0.20545883  0.44750902  1
  Zr  Zr13  1  0.38680096  0.80434115  0.49118975  1
  Zr  Zr14  1  0.56015166  0.12060974  0.64674522  1
  Zr  Zr15  1  0.66752410  0.57331937  0.56186303  1
  Zr  Zr16  1  0.18007942  0.81110046  0.47651140  1
  Zr  Zr17  1  0.70868573  0.07382139  0.50061119  1
  Zr  Zr18  1  0.48967410  0.03644116  0.43322560  1
  Zr  Zr19  1  0.52548251  0.74556372  0.13325036  1
  Zr  Zr20  1  0.13638823  0.19491456  0.05896880  1
  Zr  Zr21  1  0.23560900  0.12531065  0.73336756  1
  Zr  Zr22  1  0.02869258  0.70469564  0.33118744  1
  Zr  Zr23  1  0.30469727  0.49806278  0.65915436  1
  Zr  Zr24  1  0.84231793  1.00442624  0.91594583  1
  Zr  Zr25  1  0.34390840  0.65563299  0.83673981  1
  Zr  Zr26  1  -0.01187862  0.07883787  0.29587861  1
  Zr  Zr27  1  0.69050408  0.74303272  0.66644158  1
  Zr  Zr28  1  0.03926574  0.46723250  0.95282305  1
  Zr  Zr29  1  0.37934341  0.28599140  0.67813374  1
  Zr  Zr30  1  0.31574020  0.86433007  0.75844332  1
  Zr  Zr31  1  0.88644969  0.18425971  0.84576738  1
  Zr  Zr32  1  0.29930368  0.24718669  0.91985795  1
  Zr  Zr33  1  0.75201900  0.24542468  0.67084215  1
  Zr  Zr34  1  0.70361024  0.43540102  0.72089924  1
  Zr  Zr35  1  0.89110870  0.40596082  0.81220982  1
  Zr  Zr36  1  0.32501394  0.30233489  0.13872369  1
  Zr  Zr37  1  0.65770044  0.55013181  0.17677634  1
  Zr  Zr38  1  0.77294085  0.53282081  0.36644765  1
  Zr  Zr39  1  0.81666582  0.71169026  0.45689681  1
  Zr  Zr40  1  0.05678903  0.62690510  0.52435654  1
  Zr  Zr41  1  0.26698728  0.69468524  0.63226058  1
  Zr  Zr42  1  0.29902181  0.19227985  0.49550641  1
  Zr  Zr43  1  0.39817660  0.17652991  0.31489708  1
  Zr  Zr44  1  0.94646268  0.67741601  0.03840123  1
  Zr  Zr45  1  0.07940177  0.26963837  0.85012200  1
  Zr  Zr46  1  0.62872267  0.46848368  0.92794031  1
  Zr  Zr47  1  0.84109922  0.68422782  0.22252764  1
  Zr  Zr48  1  0.21941635  0.41981056  0.83077251  1
  Zr  Zr49  1  0.43265436  0.43156390  0.83828948  1
  Sc  Sc50  1  0.07334694  0.23072567  0.45687895  1
  Sc  Sc51  1  0.43209796  0.83634403  -0.05074181  1
  Sc  Sc52  1  0.13014085  0.99609141  0.12057990  1
  Sc  Sc53  1  0.11252399  0.59495420  0.14558220  1
  Sc  Sc54  1  0.89761760  0.71649780  0.66911249  1
  Sc  Sc55  1  0.14999790  0.03497667  0.48452881  1
  Sc  Sc56  1  0.01292928  0.85097128  0.93266152  1
  Sc  Sc57  1  0.29358482  0.02651846  0.91729445  1
  Sc  Sc58  1  0.71241099  0.14106270  0.05621283  1
  Sc  Sc59  1  0.93780476  0.10574245  0.08227864  1
  Sc  Sc60  1  0.07276542  0.05094307  0.87934502  1
  Sc  Sc61  1  0.48878204  0.44891633  0.11973467  1
  Sc  Sc62  1  0.14794805  0.63619802  0.92855820  1
  Sc  Sc63  1  0.52092637  0.27484476  0.96126851  1
  Sc  Sc64  1  0.36291392  1.00326668  0.60920561  1
  Sc  Sc65  1  0.13902726  0.93247983  0.66764658  1
  Sc  Sc66  1  0.82420149  0.50353919  -0.00209781  1
  Sc  Sc67  1  0.82276013  0.78891093  0.87698497  1
  Sc  Sc68  1  0.25940776  0.59307628  0.43276278  1
  Sc  Sc69  1  0.48104962  0.84588618  0.31129045  1
  Sc  Sc70  1  0.65159232  0.92557514  0.99782891  1
  Sc  Sc71  1  0.29949793  0.48557751  0.01149362  1
  Sc  Sc72  1  0.82282415  0.25386829  0.23283095  1
  Sc  Sc73  1  0.49674907  0.06216684  0.99679703  1
  Sc  Sc74  1  0.91323123  0.47273820  0.19590205  1
  Sc  Sc75  1  0.63550020  0.16015448  0.32891489  1
  Sc  Sc76  1  0.65093189  0.36607126  0.29116216  1
  Sc  Sc77  1  0.13378812  0.39352542  0.12139946  1
  Sc  Sc78  1  0.71750797  0.36766665  0.50120398  1
  Sc  Sc79  1  0.69802703  0.92768163  0.76956450  1
  Sc  Sc80  1  0.22578447  0.33266622  0.33283155  1
  Sc  Sc81  1  0.11448984  0.79496308  0.13957466  1
  Sc  Sc82  1  0.02432199  0.12869038  0.66574119  1
  Sc  Sc83  1  0.78390674  0.03635177  0.25478209  1
  Sc  Sc84  1  0.81310224  0.06337505  0.68078592  1
  Sc  Sc85  1  0.53336450  0.22819847  0.16092174  1
  Sc  Sc86  1  0.09734810  0.74167035  0.74625095  1
  Sc  Sc87  1  0.91621365  0.88964371  0.13504630  1
  Sc  Sc88  1  0.17169484  0.30430818  0.64580978  1
  Sc  Sc89  1  0.21832633  0.83360208  0.95010389  1
  Sc  Sc90  1  0.87538206  0.52114080  0.60578089  1
  Sc  Sc91  1  0.52202756  0.26594254  0.48393160  1
  Sc  Sc92  1  0.33071494  0.09939676  0.12816386  1
  Sc  Sc93  1  0.59721822  0.75847727  0.85988762  1
  Sc  Sc94  1  0.07475284  0.51051305  0.70943046  1
  Sc  Sc95  1  0.91793494  0.30735538  0.03318076  1
  Sc  Sc96  1  0.29611918  0.97018640  0.33817572  1
  Sc  Sc97  1  0.71519574  0.68521580  0.02656504  1
  Sc  Sc98  1  0.34711832  0.89429097  0.13634841  1
  Sc  Sc99  1  0.93662832  0.40503456  0.41835575  1
  Nb  Nb100  1  0.07827037  0.90769168  0.32385270  1
  Nb  Nb101  1  0.64756035  0.69411904  0.31119594  1
  Nb  Nb102  1  0.79083737  0.88361147  0.56113775  1
  Nb  Nb103  1  0.99259899  0.83133977  0.52243354  1
  Nb  Nb104  1  0.55488682  0.51053405  0.40315451  1
  Nb  Nb105  1  0.73074515  0.29694295  0.89650813  1
  Nb  Nb106  1  0.13570462  0.43673524  0.50723622  1
  Nb  Nb107  1  0.49718002  0.95944131  0.79488525  1
  Nb  Nb108  1  0.43900373  0.38154669  0.31003498  1
  Nb  Nb109  1  0.56971069  0.29594796  0.75907867  1
  Nb  Nb110  1  0.44961291  0.63340361  0.31006841  1
  Nb  Nb111  1  0.58082762  0.73274242  0.48164697  1
  Nb  Nb112  1  0.18279491  0.13579158  0.28229941  1
  Nb  Nb113  1  0.65261533  0.11923747  0.84312179  1
  Nb  Nb114  1  0.09438847  0.49862979  0.32570543  1
  Nb  Nb115  1  0.51586180  0.42990264  0.60945147  1
  Nb  Nb116  1  0.54240726  0.00957732  0.20663168  1
  Nb  Nb117  1  0.70060302  0.35682942  0.08776976  1
  Nb  Nb118  1  0.47459802  0.76666099  0.68127615  1
  Nb  Nb119  1  0.75326206  0.60315817  0.80967274  1
  Nb  Nb120  1  0.35502873  0.40761487  0.48388998  1
  Nb  Nb121  1  0.87826051  0.86773648  0.34526869  1
  Nb  Nb122  1  0.94443499  0.61449782  0.84261160  1
  Nb  Nb123  1  0.44297024  0.60358524  0.54008083  1
  Nb  Nb124  1  0.43675648  0.13904665  0.80453041  1
