# generated using pymatgen
data_Zr2Sc2Nb
_symmetry_space_group_name_H-M   'P 1'
_cell_length_a   13.89176970
_cell_length_b   14.86000315
_cell_length_c   13.89225840
_cell_angle_alpha   87.53861145
_cell_angle_beta   90.09215057
_cell_angle_gamma   88.98598928
_symmetry_Int_Tables_number   1
_chemical_formula_structural   Zr2Sc2Nb
_chemical_formula_sum   'Zr50 Sc50 Nb25'
_cell_volume   2864.70048736
_cell_formula_units_Z   25
loop_
 _symmetry_equiv_pos_site_id
 _symmetry_equiv_pos_as_xyz
  1  'x, y, z'
loop_
 _atom_site_type_symbol
 _atom_site_label
 _atom_site_symmetry_multiplicity
 _atom_site_fract_x
 _atom_site_fract_y
 _atom_site_fract_z
 _atom_site_occupancy
  Zr  Zr0  1  0.04305933  0.91845762  0.73819344  1
  Zr  Zr1  1  0.44140442  0.56330689  0.32184204  1
  Zr  Zr2  1  0.11990408  0.85282467  0.36963357  1
  Zr  Zr3  1  0.75683691  0.46587464  0.11448500  1
  Zr  Zr4  1  0.52871398  0.31626452  0.03055070  1
  Zr  Zr5  1  0.54148415  0.20928823  0.53647268  1
  Zr  Zr6  1  0.69619546  0.76632265  0.21290237  1
  Zr  Zr7  1  0.99334667  0.47341983  0.69768827  1
  Zr  Zr8  1  0.78253825  0.65321279  0.04156847  1
  Zr  Zr9  1  0.17800418  0.13555266  0.64762154  1
  Zr  Zr10  1  0.21952105  0.04467776  0.30307641  1
  Zr  Zr11  1  0.89124101  0.29244782  0.14018229  1
  Zr  Zr12  1  0.50983942  0.90404665  0.10272879  1
  Zr  Zr13  1  0.89651016  0.41479037  0.94488808  1
  Zr  Zr14  1  0.69428563  0.66490271  0.61795509  1
  Zr  Zr15  1  0.34290319  0.63586157  0.14632901  1
  Zr  Zr16  1  0.34589878  0.55654984  0.72381812  1
  Zr  Zr17  1  0.49494104  0.58244607  0.53166509  1
  Zr  Zr18  1  0.27482082  0.42878966  0.28882941  1
  Zr  Zr19  1  0.67591673  0.29378464  0.18242405  1
  Zr  Zr20  1  0.04191931  0.72239649  0.22732984  1
  Zr  Zr21  1  0.26308704  0.94888844  0.69244248  1
  Zr  Zr22  1  0.54137844  0.01518658  0.49870889  1
  Zr  Zr23  1  0.52750009  0.18483774  0.86453098  1
  Zr  Zr24  1  0.46293268  0.33585093  0.22505417  1
  Zr  Zr25  1  0.28142982  0.28594100  0.53371240  1
  Zr  Zr26  1  0.32405127  0.70068763  0.56899918  1
  Zr  Zr27  1  0.47646062  0.37971169  0.42495405  1
  Zr  Zr28  1  0.86579476  0.35694757  0.55456238  1
  Zr  Zr29  1  0.28796508  0.02533137  0.07850140  1
  Zr  Zr30  1  0.55609418  0.70042642  0.07413311  1
  Zr  Zr31  1  0.63868435  0.30275573  0.71434241  1
  Zr  Zr32  1  0.23494761  0.66789720  0.35346345  1
  Zr  Zr33  1  0.56780205  0.52809522  0.72788967  1
  Zr  Zr34  1  0.36016234  0.79944563  0.01349939  1
  Zr  Zr35  1  0.23777390  0.62875885  0.94327475  1
  Zr  Zr36  1  0.08047996  0.35349356  0.25710173  1
  Zr  Zr37  1  0.10780748  0.59129209  0.54194049  1
  Zr  Zr38  1  0.91490881  0.19032692  0.96715078  1
  Zr  Zr39  1  0.15450639  0.54333722  0.12821140  1
  Zr  Zr40  1  0.47786773  0.76101701  0.29061787  1
  Zr  Zr41  1  0.81907521  0.99240838  0.93193786  1
  Zr  Zr42  1  0.44920848  0.60826957  0.91467956  1
  Zr  Zr43  1  0.66093065  0.44893062  0.53555737  1
  Zr  Zr44  1  0.10595347  0.34115878  0.04524022  1
  Zr  Zr45  1  0.24688858  0.43402998  0.88042063  1
  Zr  Zr46  1  0.76226879  0.05743923  0.46037011  1
  Zr  Zr47  1  0.08655110  0.39412903  0.46949886  1
  Zr  Zr48  1  0.05525531  0.54449444  0.33014721  1
  Zr  Zr49  1  0.80636101  0.13147870  0.25530861  1
  Sc  Sc50  1  0.67015557  0.68733148  0.84720589  1
  Sc  Sc51  1  0.64657514  0.47245902  0.30972140  1
  Sc  Sc52  1  0.77495364  0.47275297  0.72871983  1
  Sc  Sc53  1  0.89424012  0.83613608  0.08768361  1
  Sc  Sc54  1  0.72037395  0.31103548  0.92959178  1
  Sc  Sc55  1  0.93300763  0.89506048  0.52518406  1
  Sc  Sc56  1  0.08744817  0.94843725  0.15911529  1
  Sc  Sc57  1  0.84760698  0.62569585  0.26509853  1
  Sc  Sc58  1  0.69824081  0.88326194  0.57737186  1
  Sc  Sc59  1  0.70798942  0.97558703  0.15026765  1
  Sc  Sc60  1  0.93543006  0.71088500  0.65907270  1
  Sc  Sc61  1  0.78860786  0.75911488  0.43808935  1
  Sc  Sc62  1  0.20674054  0.91562320  0.90434334  1
  Sc  Sc63  1  0.43992766  0.38063916  0.63780535  1
  Sc  Sc64  1  0.00276091  0.10689970  0.79470541  1
  Sc  Sc65  1  0.14691429  0.78105033  0.05560704  1
  Sc  Sc66  1  0.13393592  -0.01148846  0.51546101  1
  Sc  Sc67  1  0.05723105  0.16299970  0.19691193  1
  Sc  Sc68  1  0.93478813  0.23800601  0.39671683  1
  Sc  Sc69  1  0.06424443  0.52109417  0.91061430  1
  Sc  Sc70  1  0.45267980  0.39339779  0.85372349  1
  Sc  Sc71  1  0.65069579  0.49924267  0.92904033  1
  Sc  Sc72  1  0.13395731  0.78865592  0.60201923  1
  Sc  Sc73  1  0.37036623  0.20238319  0.35761684  1
  Sc  Sc74  1  0.96290871  0.11500618  0.56862511  1
  Sc  Sc75  1  0.09346565  0.28849362  0.83911038  1
  Sc  Sc76  1  0.30418556  0.76341262  0.78625070  1
  Sc  Sc77  1  0.86648204  0.42094367  0.32145999  1
  Sc  Sc78  1  0.29438816  0.49806796  0.49285602  1
  Sc  Sc79  1  0.86235993  0.56115998  0.49736663  1
  Sc  Sc80  1  0.33224171  0.06568753  0.50253924  1
  Sc  Sc81  1  0.33866828  0.87006097  0.44852692  1
  Sc  Sc82  1  0.31985132  0.23574156  0.96823912  1
  Sc  Sc83  1  0.49314766  0.12050528  0.09911158  1
  Sc  Sc84  1  0.58596117  0.13876458  0.30857526  1
  Sc  Sc85  1  0.99144443  0.04070645  0.35381417  1
  Sc  Sc86  1  0.88065518  0.61026926  0.84508226  1
  Sc  Sc87  1  0.88296358  0.88547921  0.29328895  1
  Sc  Sc88  1  0.43157800  0.99456319  0.28786408  1
  Sc  Sc89  1  0.87935560  0.28571993  0.75789553  1
  Sc  Sc90  1  0.63638897  0.90226581  0.35220822  1
  Sc  Sc91  1  0.26186620  0.23600933  0.17190804  1
  Sc  Sc92  1  0.40883051  0.11966098  0.69222326  1
  Sc  Sc93  1  0.28575007  0.84484815  0.21891166  1
  Sc  Sc94  1  0.67844113  0.88214577  0.78563295  1
  Sc  Sc95  1  0.52800698  0.50632700  0.11861184  1
  Sc  Sc96  1  0.40822547  1.00004683  0.88724964  1
  Sc  Sc97  1  0.83560475  -0.00179514  0.70149813  1
  Sc  Sc98  1  0.47518926  0.90788251  0.67558660  1
  Sc  Sc99  1  0.70747411  0.27956176  0.40980689  1
  Nb  Nb100  1  0.75958938  0.18656001  0.60531427  1
  Nb  Nb101  1  0.50426843  0.71502711  0.70680083  1
  Nb  Nb102  1  0.14333492  0.19144382  0.42008446  1
  Nb  Nb103  1  0.22303537  0.10251968  0.84338312  1
  Nb  Nb104  1  0.98593686  0.66257447  0.02607839  1
  Nb  Nb105  1  0.62070050  0.06769182  0.69570392  1
  Nb  Nb106  1  0.01558929  0.94787522  0.94836996  1
  Nb  Nb107  1  0.99660540  0.71678004  0.43075306  1
  Nb  Nb108  1  0.61044352  0.01119662  0.93312490  1
  Nb  Nb109  1  0.74196312  0.14133842  0.82239680  1
  Nb  Nb110  1  0.53432393  0.78020598  0.50535705  1
  Nb  Nb111  1  0.69130099  0.83541471  0.99744413  1
  Nb  Nb112  1  0.14735033  0.61518666  0.73816680  1
  Nb  Nb113  1  0.06675013  0.74924679  0.85294816  1
  Nb  Nb114  1  0.11153803  0.11631618  0.00266290  1
  Nb  Nb115  1  0.91126609  1.04867653  0.11054196  1
  Nb  Nb116  1  0.19248161  0.42514566  0.67182157  1
  Nb  Nb117  1  0.95970451  0.49660327  0.12739298  1
  Nb  Nb118  1  0.70885650  0.14805135  0.04474237  1
  Nb  Nb119  1  0.50918452  0.81981305  0.88760825  1
  Nb  Nb120  1  0.87651467  0.80636276  0.87260981  1
  Nb  Nb121  1  0.33210464  0.43351647  0.06882436  1
  Nb  Nb122  1  0.63591718  0.64876786  0.39504118  1
  Nb  Nb123  1  0.06106040  0.28301674  0.62591243  1
  Nb  Nb124  1  0.29246205  0.27508741  0.75455045  1
