# generated using pymatgen
data_Zr2Sc2Nb
_symmetry_space_group_name_H-M   'P 1'
_cell_length_a   14.19894372
_cell_length_b   14.10254986
_cell_length_c   14.33284510
_cell_angle_alpha   88.02645119
_cell_angle_beta   90.68045022
_cell_angle_gamma   89.82870639
_symmetry_Int_Tables_number   1
_chemical_formula_structural   Zr2Sc2Nb
_chemical_formula_sum   'Zr50 Sc50 Nb25'
_cell_volume   2868.10643478
_cell_formula_units_Z   25
loop_
 _symmetry_equiv_pos_site_id
 _symmetry_equiv_pos_as_xyz
  1  'x, y, z'
loop_
 _atom_site_type_symbol
 _atom_site_label
 _atom_site_symmetry_multiplicity
 _atom_site_fract_x
 _atom_site_fract_y
 _atom_site_fract_z
 _atom_site_occupancy
  Zr  Zr0  1  0.07126941  0.17089893  0.56186249  1
  Zr  Zr1  1  0.29594040  0.64129849  0.68625146  1
  Zr  Zr2  1  0.67794615  0.12606377  0.67863423  1
  Zr  Zr3  1  0.12277374  0.19901839  0.33375111  1
  Zr  Zr4  1  0.82525647  0.46444134  0.79878691  1
  Zr  Zr5  1  0.20365019  0.84700019  0.35702447  1
  Zr  Zr6  1  0.46064096  0.54921399  0.59616079  1
  Zr  Zr7  1  0.76866428  0.98655798  0.27188246  1
  Zr  Zr8  1  0.10856833  0.92336345  0.01506782  1
  Zr  Zr9  1  0.05258650  0.60685773  0.15100638  1
  Zr  Zr10  1  0.61137739  0.81784159  0.25428482  1
  Zr  Zr11  1  0.15155750  0.47873478  0.34685975  1
  Zr  Zr12  1  0.42936828  0.77061943  0.56785080  1
  Zr  Zr13  1  0.91446853  0.64945755  0.85222152  1
  Zr  Zr14  1  0.63029807  0.48166461  0.71658884  1
  Zr  Zr15  1  0.51961574  0.32133819  0.67913361  1
  Zr  Zr16  1  0.84798517  0.71097251  0.49891579  1
  Zr  Zr17  1  0.41655459  0.32767344  0.50035603  1
  Zr  Zr18  1  0.92359160  0.48535449  0.25766847  1
  Zr  Zr19  1  0.70085223  0.19725698  0.31442945  1
  Zr  Zr20  1  0.23685706  0.50260882  0.89154528  1
  Zr  Zr21  1  0.47729840  0.93212780  0.08598552  1
  Zr  Zr22  1  0.26426029  0.05495672  0.05676553  1
  Zr  Zr23  1  0.07840194  0.35731035  0.19203150  1
  Zr  Zr24  1  0.52495590  0.35791849  0.30169220  1
  Zr  Zr25  1  0.47998207  0.12057746  0.57587943  1
  Zr  Zr26  1  0.79123185  0.15287210  0.11348946  1
  Zr  Zr27  1  0.10358092  1.00926098  0.21750251  1
  Zr  Zr28  1  0.26438140  0.02100313  0.65251648  1
  Zr  Zr29  1  0.94112865  0.52311036  0.45638747  1
  Zr  Zr30  1  0.37056165  0.51077486  0.41057389  1
  Zr  Zr31  1  0.13336427  0.31151950  0.97237887  1
  Zr  Zr32  1  0.43835601  0.52397666  0.81098144  1
  Zr  Zr33  1  0.53249941  0.70968469  0.74343382  1
  Zr  Zr34  1  0.59699922  0.25367124  0.11754969  1
  Zr  Zr35  1  0.52804767  0.94633687  0.66480832  1
  Zr  Zr36  1  0.72177324  0.26723749  0.81643261  1
  Zr  Zr37  1  0.94724190  0.37247482  0.61991774  1
  Zr  Zr38  1  0.22019627  0.47078473  0.10805363  1
  Zr  Zr39  1  0.57353338  0.47084216  0.11166642  1
  Zr  Zr40  1  0.91402744  0.75423677  0.03793213  1
  Zr  Zr41  1  0.12452266  -0.00569500  0.46479696  1
  Zr  Zr42  1  1.02503347  0.15161330  0.07861664  1
  Zr  Zr43  1  0.56189082  0.91104785  0.43877815  1
  Zr  Zr44  1  0.94191505  0.88974048  0.87282083  1
  Zr  Zr45  1  0.04030937  0.66937700  0.34701229  1
  Zr  Zr46  1  0.44676759  0.13665462  0.99524911  1
  Zr  Zr47  1  0.11767611  0.28264335  0.73172421  1
  Zr  Zr48  1  0.36655428  0.85134741  0.75668065  1
  Zr  Zr49  1  0.49266763  0.14276826  0.79043484  1
  Sc  Sc50  1  0.04608638  0.77164792  0.53062660  1
  Sc  Sc51  1  0.31031412  0.21470467  0.67207553  1
  Sc  Sc52  1  0.50418181  0.74391542  0.95132099  1
  Sc  Sc53  1  0.35677242  0.95175057  0.47236327  1
  Sc  Sc54  1  0.38484019  0.34501098  0.07263078  1
  Sc  Sc55  1  0.41912999  0.74313531  0.36008866  1
  Sc  Sc56  1  0.31131623  0.27007977  0.87584635  1
  Sc  Sc57  1  0.90732619  0.33987695  0.07274600  1
  Sc  Sc58  1  0.41549085  0.15984806  0.19379798  1
  Sc  Sc59  1  0.65161806  0.11220284  0.95779197  1
  Sc  Sc60  1  0.73842060  0.66730900  0.70908839  1
  Sc  Sc61  1  0.90082220  0.25958502  0.27110953  1
  Sc  Sc62  1  0.53109976  0.34203485  0.90724980  1
  Sc  Sc63  1  0.05817846  0.47956643  0.78046970  1
  Sc  Sc64  1  0.91493783  0.95407524  0.11447760  1
  Sc  Sc65  1  0.73544472  0.39585393  0.21215092  1
  Sc  Sc66  1  0.81908672  0.54760765  0.04844642  1
  Sc  Sc67  1  0.02281367  0.49946870  0.98262068  1
  Sc  Sc68  1  0.85566887  0.19007016  0.51505555  1
  Sc  Sc69  1  0.71032783  0.04644721  0.48268464  1
  Sc  Sc70  1  0.90258608  0.80830185  0.69234220  1
  Sc  Sc71  1  0.61610996  0.68680372  0.48629392  1
  Sc  Sc72  1  0.59831647  0.46040087  0.47115719  1
  Sc  Sc73  1  0.17109728  0.88385616  0.81721226  1
  Sc  Sc74  1  0.86813827  0.08881905  0.90704227  1
  Sc  Sc75  1  0.09958328  0.71383190  0.94529920  1
  Sc  Sc76  1  0.24242956  0.66572289  0.48063536  1
  Sc  Sc77  1  0.41609369  0.56225386  0.01230451  1
  Sc  Sc78  1  0.30276876  0.32398891  0.30107531  1
  Sc  Sc79  1  0.09869834  0.10490945  0.86479039  1
  Sc  Sc80  1  0.65250991  0.67430880  0.11283103  1
  Sc  Sc81  1  0.24714694  0.65961685  0.26485549  1
  Sc  Sc82  1  0.04587683  -0.01708481  0.67573140  1
  Sc  Sc83  1  0.50191621  0.12581341  0.37312508  1
  Sc  Sc84  1  0.94286579  0.07943617  0.36059363  1
  Sc  Sc85  1  0.11961508  0.51745029  0.57334392  1
  Sc  Sc86  1  0.63893361  0.54680436  0.91604686  1
  Sc  Sc87  1  0.73292179  0.74528542  0.91217935  1
  Sc  Sc88  1  0.71649023  0.93901078  0.81791648  1
  Sc  Sc89  1  0.96848951  0.87039415  0.33735442  1
  Sc  Sc90  1  0.94190658  0.29915405  0.87606494  1
  Sc  Sc91  1  0.51149943  0.94880730  0.88233566  1
  Sc  Sc92  1  0.74498167  0.58287524  0.34426920  1
  Sc  Sc93  1  0.10240751  0.69819620  0.73248982  1
  Sc  Sc94  1  0.70400022  0.90991950  0.05889364  1
  Sc  Sc95  1  0.84452401  0.73931140  0.23135012  1
  Sc  Sc96  1  0.25731005  0.68866754  0.06740804  1
  Sc  Sc97  1  0.70875025  0.86142272  0.60515201  1
  Sc  Sc98  1  0.29281255  0.42207550  0.68268159  1
  Sc  Sc99  1  0.28803534  0.15593295  0.46446878  1
  Nb  Nb100  1  0.31404527  0.04589871  0.85115901  1
  Nb  Nb101  1  0.08215572  0.79962312  0.17315480  1
  Nb  Nb102  1  0.77056598  0.51860827  0.56775957  1
  Nb  Nb103  1  0.72639161  0.35167030  0.99022400  1
  Nb  Nb104  1  0.59947251  0.05393416  0.18619295  1
  Nb  Nb105  1  0.19536443  0.33632145  0.50840452  1
  Nb  Nb106  1  0.74618997  0.33013254  0.62724170  1
  Nb  Nb107  1  0.54375110  0.59084026  0.28647540  1
  Nb  Nb108  1  0.44057416  0.73084168  0.15671182  1
  Nb  Nb109  1  0.21695508  0.22071825  0.13967186  1
  Nb  Nb110  1  0.38761400  0.51858964  0.21230518  1
  Nb  Nb111  1  0.93259113  0.59489598  0.65285249  1
  Nb  Nb112  1  0.01047008  0.33587754  0.42507030  1
  Nb  Nb113  1  0.22341809  0.83663068  0.60121474  1
  Nb  Nb114  1  0.89949095  0.94179829  0.51410110  1
  Nb  Nb115  1  0.91116650  0.18835557  0.71578597  1
  Nb  Nb116  1  0.79318665  0.37364515  0.42286167  1
  Nb  Nb117  1  0.84574176  0.01807260  0.68072763  1
  Nb  Nb118  1  0.27921045  0.87136711  0.17092041  1
  Nb  Nb119  1  0.62752388  0.25426991  0.49611378  1
  Nb  Nb120  1  0.43559515  0.94069500  0.27344115  1
  Nb  Nb121  1  0.27486284  0.05321987  0.28839547  1
  Nb  Nb122  1  0.75356696  0.84154805  0.39852947  1
  Nb  Nb123  1  0.32170143  0.86793295  0.97026998  1
  Nb  Nb124  1  0.30672087  0.69562470  0.86815487  1
