# generated using pymatgen
data_Zr2Sc2Nb
_symmetry_space_group_name_H-M   'P 1'
_cell_length_a   14.00652378
_cell_length_b   14.54744878
_cell_length_c   14.18537555
_cell_angle_alpha   89.90089378
_cell_angle_beta   91.85197431
_cell_angle_gamma   88.60184652
_symmetry_Int_Tables_number   1
_chemical_formula_structural   Zr2Sc2Nb
_chemical_formula_sum   'Zr50 Sc50 Nb25'
_cell_volume   2888.02154569
_cell_formula_units_Z   25
loop_
 _symmetry_equiv_pos_site_id
 _symmetry_equiv_pos_as_xyz
  1  'x, y, z'
loop_
 _atom_site_type_symbol
 _atom_site_label
 _atom_site_symmetry_multiplicity
 _atom_site_fract_x
 _atom_site_fract_y
 _atom_site_fract_z
 _atom_site_occupancy
  Zr  Zr0  1  0.31415590  0.39297519  0.58554696  1
  Zr  Zr1  1  0.89301907  0.29816026  0.10023786  1
  Zr  Zr2  1  0.99202668  0.08071380  0.14156641  1
  Zr  Zr3  1  0.74081946  0.62207866  0.00128203  1
  Zr  Zr4  1  0.27739399  0.71243578  0.84185398  1
  Zr  Zr5  1  0.81023078  0.82568725  0.46642530  1
  Zr  Zr6  1  0.48951901  0.75091241  0.79362857  1
  Zr  Zr7  1  0.60332596  0.57999248  0.84285997  1
  Zr  Zr8  1  0.62951846  0.22129176  0.35628920  1
  Zr  Zr9  1  0.13640139  0.87292030  0.69606441  1
  Zr  Zr10  1  0.13994576  0.22499684  0.55091222  1
  Zr  Zr11  1  0.58325643  0.48319682  0.05265999  1
  Zr  Zr12  1  0.30623642  0.48311771  0.32639465  1
  Zr  Zr13  1  0.85054428  0.70333039  0.66123274  1
  Zr  Zr14  1  0.87382896  0.34687903  0.67831116  1
  Zr  Zr15  1  0.84641441  0.51055879  0.14911086  1
  Zr  Zr16  1  0.54607061  1.01140016  0.31676648  1
  Zr  Zr17  1  0.27506240  0.01575231  0.61910450  1
  Zr  Zr18  1  0.70236536  0.64122151  0.47106364  1
  Zr  Zr19  1  0.05531706  0.89415250  0.06524190  1
  Zr  Zr20  1  0.12198325  0.38038748  0.69783000  1
  Zr  Zr21  1  0.91079781  0.18522482  0.52579365  1
  Zr  Zr22  1  0.47528396  0.73222021  0.51971607  1
  Zr  Zr23  1  0.84964802  0.50843454  0.35120227  1
  Zr  Zr24  1  0.67462361  0.35573019  0.75913325  1
  Zr  Zr25  1  0.47662465  0.35116634  0.44890253  1
  Zr  Zr26  1  0.92357255  0.70571548  0.08946532  1
  Zr  Zr27  1  0.92707655  0.99673963  0.39426605  1
  Zr  Zr28  1  0.11542339  -0.03621059  0.28973261  1
  Zr  Zr29  1  0.23992697  0.84587831  0.46755920  1
  Zr  Zr30  1  0.55428225  0.10928198  0.52732191  1
  Zr  Zr31  1  0.73022379  0.92885832  0.27762742  1
  Zr  Zr32  1  0.15946560  0.51640846  0.89048287  1
  Zr  Zr33  1  0.32915276  0.39507806  0.82399954  1
  Zr  Zr34  1  0.70591218  0.28838248  0.54338429  1
  Zr  Zr35  1  0.79599428  0.11337604  1.03193110  1
  Zr  Zr36  1  0.35969365  0.18805487  0.52331505  1
  Zr  Zr37  1  0.17946569  0.88577070  0.90833214  1
  Zr  Zr38  1  0.35173593  0.06064716  0.88989468  1
  Zr  Zr39  1  0.92767781  0.86124231  0.22955804  1
  Zr  Zr40  1  0.48290501  0.85469397  0.17246641  1
  Zr  Zr41  1  0.32124564  0.59963992  0.50743728  1
  Zr  Zr42  1  0.84426251  0.90270887  0.02851568  1
  Zr  Zr43  1  0.20279518  0.58334133  0.17384629  1
  Zr  Zr44  1  0.28432448  0.21454145  0.72951721  1
  Zr  Zr45  1  0.42477884  0.05058303  0.10881446  1
  Zr  Zr46  1  0.97413295  0.37711063  0.50151314  1
  Zr  Zr47  1  0.93357476  0.85328460  0.82687994  1
  Zr  Zr48  1  0.21816293  0.55876564  0.69832453  1
  Zr  Zr49  1  0.02620706  0.80466538  0.40613097  1
  Sc  Sc50  1  0.50209240  0.56079058  0.38534604  1
  Sc  Sc51  1  0.53733524  0.70192799  0.02615721  1
  Sc  Sc52  1  0.59418519  0.49669790  0.59291002  1
  Sc  Sc53  1  0.65620039  0.13591346  0.73535529  1
  Sc  Sc54  1  0.63184150  0.94155886  0.04541431  1
  Sc  Sc55  1  0.72810634  0.90197817  0.67020347  1
  Sc  Sc56  1  0.31540097  0.21317316  1.01651736  1
  Sc  Sc57  1  0.92772597  0.60408801  0.89372116  1
  Sc  Sc58  1  0.14612956  0.06151157  0.79841249  1
  Sc  Sc59  1  0.23170893  0.29434368  0.36793623  1
  Sc  Sc60  1  0.81213469  0.12476047  0.25970236  1
  Sc  Sc61  1  0.14052602  0.48366262  0.49136234  1
  Sc  Sc62  1  0.69965895  0.34016337  0.17677710  1
  Sc  Sc63  1  0.31484510  0.73467234  0.07725182  1
  Sc  Sc64  1  0.82909067  0.20712655  0.84388313  1
  Sc  Sc65  1  0.01891220  0.20634588  0.73762250  1
  Sc  Sc66  1  0.61099059  0.88729112  0.48096617  1
  Sc  Sc67  1  0.97023528  0.39168869  0.86875224  1
  Sc  Sc68  1  0.43061327  0.56379027  0.71000311  1
  Sc  Sc69  1  0.49524077  0.29049824  0.05534325  1
  Sc  Sc70  1  0.61565776  0.13579714  0.15440864  1
  Sc  Sc71  1  0.11373972  0.69482843  1.00087708  1
  Sc  Sc72  1  0.49824192  0.29691128  0.65814846  1
  Sc  Sc73  1  0.06286392  0.69759939  0.77410205  1
  Sc  Sc74  1  0.41488538  0.17475280  0.30961550  1
  Sc  Sc75  1  0.30255539  0.42030655  0.08265133  1
  Sc  Sc76  1  0.77302139  0.42721171  0.94713097  1
  Sc  Sc77  1  0.84406912  0.30658560  0.34614015  1
  Sc  Sc78  1  0.78044030  0.53887564  0.75101262  1
  Sc  Sc79  1  0.58752662  0.75589794  0.32120212  1
  Sc  Sc80  1  0.71407982  0.77062686  0.14190489  1
  Sc  Sc81  1  0.04089998  0.18221479  0.34149834  1
  Sc  Sc82  1  0.94868704  0.62835541  0.48317864  1
  Sc  Sc83  1  0.65645998  0.57490313  0.23128012  1
  Sc  Sc84  1  0.35254119  0.71819507  0.30849187  1
  Sc  Sc85  1  0.11842095  0.27931124  0.12503910  1
  Sc  Sc86  1  0.89374183  0.03840652  0.69692727  1
  Sc  Sc87  1  0.74895966  0.05394122  0.48112089  1
  Sc  Sc88  1  0.56565110  0.94584313  0.82344343  1
  Sc  Sc89  1  0.03844542  0.48397856  0.06532056  1
  Sc  Sc90  1  0.33430264  0.93653165  0.29394520  1
  Sc  Sc91  1  0.06780856  0.02268057  0.54661367  1
  Sc  Sc92  1  0.16303184  0.29009039  0.90028075  1
  Sc  Sc93  1  0.12013670  0.69874894  0.57514516  1
  Sc  Sc94  1  0.72438338  0.77886572  0.85612953  1
  Sc  Sc95  1  0.39104187  0.56266442  -0.05000040  1
  Sc  Sc96  1  0.06018393  0.42967997  0.28387078  1
  Sc  Sc97  1  0.22816977  0.11785874  0.20707571  1
  Sc  Sc98  1  0.49346385  0.39107499  0.24348839  1
  Sc  Sc99  1  0.41707641  0.87755935  0.96510977  1
  Nb  Nb100  1  0.15893573  0.07908637  0.00984755  1
  Nb  Nb101  1  0.76404185  1.00072708  0.86700117  1
  Nb  Nb102  1  0.16309892  0.64692888  0.37192984  1
  Nb  Nb103  1  0.41106766  -0.02346729  0.48068321  1
  Nb  Nb104  1  -0.00073765  0.19585427  0.96412548  1
  Nb  Nb105  1  0.14917139  0.77925630  0.21888159  1
  Nb  Nb106  1  0.25718656  0.93105842  0.10404340  1
  Nb  Nb107  1  0.95527086  0.85588976  0.60260651  1
  Nb  Nb108  1  0.34007250  0.90653881  0.77064968  1
  Nb  Nb109  1  0.43344231  0.58154686  0.17383234  1
  Nb  Nb110  1  0.45129575  0.08147119  0.70225349  1
  Nb  Nb111  1  0.80368289  0.48531369  0.55220203  1
  Nb  Nb112  1  1.00566531  0.63335402  0.25571802  1
  Nb  Nb113  1  0.23049109  0.07627203  0.41718759  1
  Nb  Nb114  1  0.66784229  0.42675329  0.39299951  1
  Nb  Nb115  1  0.66651192  0.26539004  0.95975317  1
  Nb  Nb116  1  0.63426204  0.70953733  0.65713305  1
  Nb  Nb117  1  0.47253783  0.22853381  0.84692167  1
  Nb  Nb118  1  0.31816225  0.75952556  0.64696254  1
  Nb  Nb119  1  0.48882322  0.89412811  0.64048234  1
  Nb  Nb120  1  -0.03075660  1.02573787  0.91146930  1
  Nb  Nb121  1  0.52629392  0.40722373  0.87345630  1
  Nb  Nb122  1  0.82468873  0.70573823  0.30292361  1
  Nb  Nb123  1  0.57006227  0.10354106  0.94433122  1
  Nb  Nb124  1  0.98901910  0.52828465  0.67436843  1
