# generated using pymatgen
data_Zr2Sc2Nb
_symmetry_space_group_name_H-M   'P 1'
_cell_length_a   14.48035959
_cell_length_b   14.00038529
_cell_length_c   14.23654405
_cell_angle_alpha   87.43050192
_cell_angle_beta   90.53438617
_cell_angle_gamma   91.25535827
_symmetry_Int_Tables_number   1
_chemical_formula_structural   Zr2Sc2Nb
_chemical_formula_sum   'Zr50 Sc50 Nb25'
_cell_volume   2882.48882673
_cell_formula_units_Z   25
loop_
 _symmetry_equiv_pos_site_id
 _symmetry_equiv_pos_as_xyz
  1  'x, y, z'
loop_
 _atom_site_type_symbol
 _atom_site_label
 _atom_site_symmetry_multiplicity
 _atom_site_fract_x
 _atom_site_fract_y
 _atom_site_fract_z
 _atom_site_occupancy
  Zr  Zr0  1  0.28987031  0.51412880  0.97602655  1
  Zr  Zr1  1  0.83534047  0.73152766  0.94514031  1
  Zr  Zr2  1  0.94241604  0.35819731  0.92251993  1
  Zr  Zr3  1  0.13682262  0.41384966  0.45819689  1
  Zr  Zr4  1  0.99569672  0.04678792  0.08625541  1
  Zr  Zr5  1  0.90483467  0.82305286  0.49792041  1
  Zr  Zr6  1  0.70678653  0.20298086  0.19168803  1
  Zr  Zr7  1  0.74125652  0.11279215  0.73527846  1
  Zr  Zr8  1  0.51070163  0.86431942  0.56449415  1
  Zr  Zr9  1  0.72622310  0.77847619  0.26435030  1
  Zr  Zr10  1  0.24495580  0.37129754  0.27101832  1
  Zr  Zr11  1  0.43433054  0.36625577  0.93359539  1
  Zr  Zr12  1  0.37564712  0.14782640  0.92724476  1
  Zr  Zr13  1  0.22322232  0.99582322  0.44838557  1
  Zr  Zr14  1  0.92399348  0.13451364  0.87773985  1
  Zr  Zr15  1  0.21837823  0.06976610  0.08154159  1
  Zr  Zr16  1  0.10313581  0.48388759  0.84154518  1
  Zr  Zr17  1  0.33753166  0.51628415  0.77791225  1
  Zr  Zr18  1  0.67374865  0.12662163  0.38427676  1
  Zr  Zr19  1  0.81032934  0.72597017  0.72039212  1
  Zr  Zr20  1  0.30768699  0.14365708  0.28229375  1
  Zr  Zr21  1  0.68866245  0.91389995  0.42643737  1
  Zr  Zr22  1  0.51156222  0.24101302  0.50922476  1
  Zr  Zr23  1  0.65168989  0.42775115  0.21197143  1
  Zr  Zr24  1  0.75702544  0.54921393  0.35258584  1
  Zr  Zr25  1  0.02072858  0.02402131  0.46871487  1
  Zr  Zr26  1  0.42950491  0.64150694  0.06576533  1
  Zr  Zr27  1  0.60834133  0.49687350  0.51380098  1
  Zr  Zr28  1  0.81211974  0.41858733  0.53624422  1
  Zr  Zr29  1  0.72799800  0.53393513  0.66985557  1
  Zr  Zr30  1  0.50003442  0.63191542  0.86271756  1
  Zr  Zr31  1  0.57201596  0.67009289  0.66546416  1
  Zr  Zr32  1  0.91430227  0.26290021  0.11093560  1
  Zr  Zr33  1  0.93239384  0.69737026  0.31951923  1
  Zr  Zr34  1  0.31070795  0.91660297  0.63598751  1
  Zr  Zr35  1  0.21747754  0.39833542  0.65773548  1
  Zr  Zr36  1  0.53995108  0.83901701  0.15828949  1
  Zr  Zr37  1  0.24589051  0.14813724  0.75829815  1
  Zr  Zr38  1  0.31831742  0.31447913  0.46617299  1
  Zr  Zr39  1  0.55264099  0.45270332  0.77973189  1
  Zr  Zr40  1  0.59726877  -0.01538439  0.83844256  1
  Zr  Zr41  1  -0.00020916  0.85091462  0.94660682  1
  Zr  Zr42  1  0.37875283  0.70738610  0.25555115  1
  Zr  Zr43  1  0.13398492  0.22371196  0.58381302  1
  Zr  Zr44  1  0.29283441  0.78858670  0.44692699  1
  Zr  Zr45  1  0.09633766  0.53805978  0.26919688  1
  Zr  Zr46  1  0.52444831  0.04524196  0.24567841  1
  Zr  Zr47  1  0.63676609  0.68813471  0.04052140  1
  Zr  Zr48  1  0.48573592  0.66373158  0.45946580  1
  Zr  Zr49  1  0.71238651  0.70441973  0.49862347  1
  Sc  Sc50  1  0.14197120  0.61949917  0.67524363  1
  Sc  Sc51  1  0.44818430  0.03841166  0.44766802  1
  Sc  Sc52  1  0.15114924  0.82814162  0.77859027  1
  Sc  Sc53  1  0.58466094  0.06831171  0.03748047  1
  Sc  Sc54  1  0.31289574  0.72107931  0.86296590  1
  Sc  Sc55  1  0.09599433  0.21971916  -0.02734737  1
  Sc  Sc56  1  0.82398257  0.02294203  0.53339575  1
  Sc  Sc57  1  0.92954781  0.62449264  0.58032540  1
  Sc  Sc58  1  0.50905387  0.84758652  0.35484406  1
  Sc  Sc59  1  0.46890096  0.45105175  0.36328849  1
  Sc  Sc60  1  0.29211285  0.91385654  0.25866927  1
  Sc  Sc61  1  0.94840811  0.13070502  0.66391451  1
  Sc  Sc62  1  0.72253474  0.56588589  0.87661185  1
  Sc  Sc63  1  0.39201416  0.97202911  0.08129063  1
  Sc  Sc64  1  0.48380745  0.83218344  0.95907153  1
  Sc  Sc65  1  0.95241285  0.49019987  0.40949944  1
  Sc  Sc66  1  0.63979307  0.31112517  0.65517522  1
  Sc  Sc67  1  0.35012218  0.70075546  0.64126775  1
  Sc  Sc68  1  0.77523070  0.42764844  0.04460326  1
  Sc  Sc69  1  0.56079035  0.20846759  0.83900434  1
  Sc  Sc70  1  0.42728321  0.42735740  0.15019639  1
  Sc  Sc71  1  0.40622045  0.29191844  0.70135389  1
  Sc  Sc72  1  0.10866052  0.02594854  0.87895571  1
  Sc  Sc73  1  0.90717867  0.51408214  0.77136492  1
  Sc  Sc74  1  0.79923911  0.06805754  0.04803051  1
  Sc  Sc75  1  0.91314050  0.13370875  0.29429490  1
  Sc  Sc76  1  0.41288416  0.48668697  0.58206158  1
  Sc  Sc77  1  0.75038456  0.24793153  0.92132884  1
  Sc  Sc78  1  0.45110080  0.06714222  0.70210140  1
  Sc  Sc79  1  0.90209899  0.92205436  0.29857216  1
  Sc  Sc80  1  0.26768118  0.30008759  0.07683595  1
  Sc  Sc81  1  0.50632947  0.25673783  0.28468578  1
  Sc  Sc82  1  0.09051879  0.43044401  0.07719439  1
  Sc  Sc83  1  0.57186603  0.61996975  0.24930324  1
  Sc  Sc84  1  0.79814579  0.62810313  0.14140010  1
  Sc  Sc85  1  0.84893809  0.30960168  0.72575404  1
  Sc  Sc86  1  0.95820003  0.26133309  0.47813030  1
  Sc  Sc87  1  0.82565352  0.33045485  0.31699880  1
  Sc  Sc88  1  0.28925015  0.56239404  0.39233452  1
  Sc  Sc89  1  0.00730023  0.68381759  0.12456269  1
  Sc  Sc90  1  0.13268423  0.66692412  0.96549647  1
  Sc  Sc91  1  0.24484893  0.32634067  0.86199767  1
  Sc  Sc92  1  0.32267029  0.94813577  0.86487435  1
  Sc  Sc93  1  0.13132291  1.01567726  0.65103629  1
  Sc  Sc94  1  0.58638686  0.29182681  0.05030310  1
  Sc  Sc95  1  0.10588291  0.65012760  0.45853701  1
  Sc  Sc96  1  0.95258907  0.89785592  0.70496982  1
  Sc  Sc97  1  0.69632969  0.88952868  0.66027388  1
  Sc  Sc98  1  0.81376444  0.93884924  0.86409002  1
  Sc  Sc99  1  0.10338699  0.87438381  0.13709882  1
  Nb  Nb100  1  0.08787905  0.84822933  0.36788205  1
  Nb  Nb101  1  0.57338663  0.49913358  1.01301920  1
  Nb  Nb102  1  0.03134561  0.33569076  0.28515908  1
  Nb  Nb103  1  0.93956296  0.55940366  0.97505138  1
  Nb  Nb104  1  0.76352767  0.21723445  0.53740885  1
  Nb  Nb105  1  0.91669196  0.47903147  0.19029734  1
  Nb  Nb106  1  0.65279996  0.78015088  0.84207211  1
  Nb  Nb107  1  0.10644861  1.03189595  0.27277493  1
  Nb  Nb108  1  0.65618736  0.34096722  0.40843657  1
  Nb  Nb109  1  0.24889211  0.57730694  0.15295978  1
  Nb  Nb110  1  0.11056886  0.20763895  0.18473988  1
  Nb  Nb111  1  0.06008737  0.27579355  0.76907146  1
  Nb  Nb112  1  0.31001091  0.13751473  0.55996928  1
  Nb  Nb113  1  0.14792560  0.19543253  0.38871472  1
  Nb  Nb114  1  0.28247103  0.78048318  0.07376838  1
  Nb  Nb115  1  0.61811911  0.07088550  0.58160992  1
  Nb  Nb116  1  0.47553562  0.83777151  0.75389792  1
  Nb  Nb117  1  0.69248444  0.88195057  1.02948745  1
  Nb  Nb118  1  0.99229689  0.69476049  0.80375444  1
  Nb  Nb119  1  0.42285302  0.18395824  0.11237182  1
  Nb  Nb120  1  0.86648078  0.85658063  0.10983915  1
  Nb  Nb121  1  0.17981815  0.72308195  0.26249368  1
  Nb  Nb122  1  0.10888062  0.82477861  0.56841320  1
  Nb  Nb123  1  0.01644105  0.41880936  0.62674773  1
  Nb  Nb124  1  0.71121738  0.97876758  0.21826492  1
