# generated using pymatgen
data_Zr2Sc2Nb
_symmetry_space_group_name_H-M   'P 1'
_cell_length_a   14.59949641
_cell_length_b   14.22393692
_cell_length_c   13.84995551
_cell_angle_alpha   89.74019664
_cell_angle_beta   89.51573924
_cell_angle_gamma   87.88378431
_symmetry_Int_Tables_number   1
_chemical_formula_structural   Zr2Sc2Nb
_chemical_formula_sum   'Zr50 Sc50 Nb25'
_cell_volume   2874.02396451
_cell_formula_units_Z   25
loop_
 _symmetry_equiv_pos_site_id
 _symmetry_equiv_pos_as_xyz
  1  'x, y, z'
loop_
 _atom_site_type_symbol
 _atom_site_label
 _atom_site_symmetry_multiplicity
 _atom_site_fract_x
 _atom_site_fract_y
 _atom_site_fract_z
 _atom_site_occupancy
  Zr  Zr0  1  0.52517986  0.30089027  0.65881861  1
  Zr  Zr1  1  0.94113968  0.85346028  0.46066656  1
  Zr  Zr2  1  0.49199276  0.50127133  0.97605430  1
  Zr  Zr3  1  0.50405079  0.96403048  0.50729886  1
  Zr  Zr4  1  0.21166264  0.56934781  0.47871572  1
  Zr  Zr5  1  0.65672209  0.53222649  0.10512937  1
  Zr  Zr6  1  0.04426097  0.84816578  0.23067539  1
  Zr  Zr7  1  0.78486514  0.51390304  0.69804795  1
  Zr  Zr8  1  0.72857948  0.42576917  0.29624263  1
  Zr  Zr9  1  0.21405215  0.11423689  0.69270002  1
  Zr  Zr10  1  -0.00315229  0.47383819  0.54862668  1
  Zr  Zr11  1  0.12551586  0.39380292  0.82444595  1
  Zr  Zr12  1  0.87703947  0.66843076  0.95355952  1
  Zr  Zr13  1  0.93659559  0.69082818  0.17408994  1
  Zr  Zr14  1  0.20451198  0.73106527  0.33543190  1
  Zr  Zr15  1  0.95514596  0.54006302  0.80832062  1
  Zr  Zr16  1  0.17706182  0.38437063  1.03588127  1
  Zr  Zr17  1  0.56644151  0.53924363  0.38556751  1
  Zr  Zr18  1  0.44166837  0.92042874  0.13555277  1
  Zr  Zr19  1  0.31060042  0.50991565  0.11708523  1
  Zr  Zr20  1  0.99799320  0.12404032  0.69546983  1
  Zr  Zr21  1  0.93846150  0.01929238  0.31316362  1
  Zr  Zr22  1  0.26892463  0.28674696  0.47100115  1
  Zr  Zr23  1  0.25167770  0.86680776  0.05299942  1
  Zr  Zr24  1  0.52251004  0.39969438  0.21052239  1
  Zr  Zr25  1  0.46123711  0.49400720  0.73625100  1
  Zr  Zr26  1  0.79829012  0.39275356  0.49301617  1
  Zr  Zr27  1  0.24751787  1.03499070  0.90170103  1
  Zr  Zr28  1  0.51768448  0.73219882  0.03731893  1
  Zr  Zr29  1  0.05971169  0.96402298  0.83967373  1
  Zr  Zr30  1  0.08349664  0.94398368  0.62392357  1
  Zr  Zr31  1  0.00261016  0.66641245  0.38671086  1
  Zr  Zr32  1  0.29495538  -0.00482261  0.51676700  1
  Zr  Zr33  1  0.41212785  0.88673454  0.90405245  1
  Zr  Zr34  1  0.31160221  0.45917867  0.88221779  1
  Zr  Zr35  1  0.12506613  0.92156429  0.41822549  1
  Zr  Zr36  1  0.27915783  0.67107756  0.71282265  1
  Zr  Zr37  1  0.01510395  0.34047808  0.17417050  1
  Zr  Zr38  1  0.00814048  0.75744892  0.78167456  1
  Zr  Zr39  1  0.60849787  0.31906763  0.00929356  1
  Zr  Zr40  1  0.02048772  0.52584512  0.03987749  1
  Zr  Zr41  1  0.39630398  0.85828327  0.35488989  1
  Zr  Zr42  1  0.89050850  0.24453110  0.31500508  1
  Zr  Zr43  1  0.62230856  0.66462938  0.66755785  1
  Zr  Zr44  1  0.76274676  0.58557638  0.48725907  1
  Zr  Zr45  1  0.42192686  0.17122835  0.53089138  1
  Zr  Zr46  1  0.96771967  0.32052755  0.96312669  1
  Zr  Zr47  1  0.14200489  0.60513192  0.89616071  1
  Zr  Zr48  1  0.93593602  0.25258017  0.53645963  1
  Zr  Zr49  1  0.11804094  0.30808382  0.63210031  1
  Sc  Sc50  1  0.51879642  0.12920338  0.17151318  1
  Sc  Sc51  1  0.90251924  0.09517122  0.90117195  1
  Sc  Sc52  1  0.76253888  0.78059170  0.53878517  1
  Sc  Sc53  1  0.12712848  0.51448319  0.25643346  1
  Sc  Sc54  1  0.27487511  0.90427248  0.71180167  1
  Sc  Sc55  1  0.87200644  0.92211690  0.68260383  1
  Sc  Sc56  1  0.10530299  0.12927588  0.25864493  1
  Sc  Sc57  1  0.45856507  0.82471842  0.66281986  1
  Sc  Sc58  1  0.66357888  0.61595776  0.88805232  1
  Sc  Sc59  1  0.64156656  0.93836345  0.07584514  1
  Sc  Sc60  1  0.75489823  0.63501748  0.28434810  1
  Sc  Sc61  1  0.92336737  0.33365006  0.73975975  1
  Sc  Sc62  1  0.72729369  -0.02396155  0.46518950  1
  Sc  Sc63  1  0.19529521  0.80387619  0.86994104  1
  Sc  Sc64  1  0.75629750  0.18111361  0.46217865  1
  Sc  Sc65  1  0.92611990  0.66580278  0.60535782  1
  Sc  Sc66  1  0.42238251  0.42318198  0.50738525  1
  Sc  Sc67  1  0.11496082  0.12969672  0.48557847  1
  Sc  Sc68  1  0.46705626  0.68399747  0.82011553  1
  Sc  Sc69  1  0.11762424  0.74555070  0.56640578  1
  Sc  Sc70  1  0.73185828  0.73834957  0.08494570  1
  Sc  Sc71  1  0.79763592  0.45764876  0.93030697  1
  Sc  Sc72  1  0.07985269  0.99649281  0.05931977  1
  Sc  Sc73  1  0.43178501  0.08149299  0.74605301  1
  Sc  Sc74  1  0.80017484  0.31874403  0.10503683  1
  Sc  Sc75  1  0.87534536  0.91998884  0.10688039  1
  Sc  Sc76  1  0.32336769  0.28252136  0.70838681  1
  Sc  Sc77  1  0.31050534  0.09729433  0.09797067  1
  Sc  Sc78  1  0.62959293  0.83247309  0.87678368  1
  Sc  Sc79  1  0.33512816  0.46335030  0.32225503  1
  Sc  Sc80  1  0.56863064  0.75281234  0.24651852  1
  Sc  Sc81  1  0.61723399  0.11039500  0.61787807  1
  Sc  Sc82  1  0.39236622  0.30088824  0.07529877  1
  Sc  Sc83  1  0.74347098  0.05496827  0.24785467  1
  Sc  Sc84  1  0.56373324  0.75379807  0.46638276  1
  Sc  Sc85  1  0.92852643  0.14329079  0.11643594  1
  Sc  Sc86  1  0.78832431  0.84160673  0.29767659  1
  Sc  Sc87  1  0.33156497  0.66810355  0.97799617  1
  Sc  Sc88  1  0.71400029  0.12956111  0.02890045  1
  Sc  Sc89  1  0.49471904  0.09108025  0.95569672  1
  Sc  Sc90  1  0.84503836  0.87917676  0.89844707  1
  Sc  Sc91  1  0.65650078  0.90396082  0.67848209  1
  Sc  Sc92  1  0.08277107  0.33707783  0.39119464  1
  Sc  Sc93  1  0.66204096  0.24384846  0.25094869  1
  Sc  Sc94  1  0.92417712  0.48186813  0.32917181  1
  Sc  Sc95  1  0.23673890  0.94298034  0.24382713  1
  Sc  Sc96  1  0.37384237  0.08127657  0.32749375  1
  Sc  Sc97  1  0.26669838  0.46659956  0.65040767  1
  Sc  Sc98  1  0.24354581  0.28792139  0.23305284  1
  Sc  Sc99  1  0.15614551  0.68137633  0.11892473  1
  Nb  Nb100  1  0.59938945  0.32108343  0.45226253  1
  Nb  Nb101  1  0.61671728  0.19789198  0.81578266  1
  Nb  Nb102  1  0.77763060  0.25796391  0.86721498  1
  Nb  Nb103  1  0.57424925  0.95194210  0.30158381  1
  Nb  Nb104  1  0.63183263  0.41257972  0.80999892  1
  Nb  Nb105  1  0.30887463  0.78017617  0.52038319  1
  Nb  Nb106  1  0.72585155  0.30387727  0.65782656  1
  Nb  Nb107  1  0.27920804  0.23217038  0.90697488  1
  Nb  Nb108  1  0.13208570  0.19591148  0.04706985  1
  Nb  Nb109  1  0.43117430  0.62126961  0.57230801  1
  Nb  Nb110  1  0.45922543  0.30517797  0.86802444  1
  Nb  Nb111  1  0.47274280  0.58735023  0.18616726  1
  Nb  Nb112  1  0.85255199  0.51466090  0.12956809  1
  Nb  Nb113  1  0.57195505  0.12372385  0.39374130  1
  Nb  Nb114  1  1.02926766  0.79500667  -0.00092110  1
  Nb  Nb115  1  0.39413750  0.65086131  0.37518124  1
  Nb  Nb116  1  0.80229373  0.12923006  0.68850279  1
  Nb  Nb117  1  0.44310875  0.27412936  0.33548510  1
  Nb  Nb118  1  0.10297978  0.57144937  0.68677076  1
  Nb  Nb119  1  0.61243331  0.47782392  0.58763485  1
  Nb  Nb120  1  0.92249247  0.04941684  0.51100864  1
  Nb  Nb121  1  0.79428536  0.72639468  0.75751229  1
  Nb  Nb122  1  0.70579741  0.03466349  0.83795576  1
  Nb  Nb123  1  0.09476029  0.18967124  0.85424608  1
  Nb  Nb124  1  0.35078068  0.73516382  0.18604306  1
