# generated using pymatgen
data_Zr2Sc2Nb
_symmetry_space_group_name_H-M   'P 1'
_cell_length_a   14.12667717
_cell_length_b   14.01901697
_cell_length_c   14.45583865
_cell_angle_alpha   88.77020706
_cell_angle_beta   88.57087977
_cell_angle_gamma   91.75190224
_symmetry_Int_Tables_number   1
_chemical_formula_structural   Zr2Sc2Nb
_chemical_formula_sum   'Zr50 Sc50 Nb25'
_cell_volume   2859.92908464
_cell_formula_units_Z   25
loop_
 _symmetry_equiv_pos_site_id
 _symmetry_equiv_pos_as_xyz
  1  'x, y, z'
loop_
 _atom_site_type_symbol
 _atom_site_label
 _atom_site_symmetry_multiplicity
 _atom_site_fract_x
 _atom_site_fract_y
 _atom_site_fract_z
 _atom_site_occupancy
  Zr  Zr0  1  0.49123665  0.28213691  0.89088636  1
  Zr  Zr1  1  0.09986443  0.42113337  0.49335024  1
  Zr  Zr2  1  0.91304465  0.98728650  0.15165468  1
  Zr  Zr3  1  0.30611356  0.88721013  0.54028169  1
  Zr  Zr4  1  0.85163020  0.45095204  0.10852841  1
  Zr  Zr5  1  0.61670559  0.09441821  0.16526327  1
  Zr  Zr6  1  0.68749823  0.30899625  0.76556921  1
  Zr  Zr7  1  0.93756303  0.55428290  0.48535361  1
  Zr  Zr8  1  0.86254110  0.60534259  0.25972670  1
  Zr  Zr9  1  0.45630926  0.23869905  0.10902271  1
  Zr  Zr10  1  0.82284526  0.72979571  0.48035714  1
  Zr  Zr11  1  0.99739792  0.49267118  0.67793075  1
  Zr  Zr12  1  0.68460694  0.51477414  0.83559396  1
  Zr  Zr13  1  0.78516707  0.12734445  0.85081854  1
  Zr  Zr14  1  0.95415236  0.72173691  0.64569841  1
  Zr  Zr15  1  0.47681791  0.27169505  0.66648893  1
  Zr  Zr16  1  0.27454039  0.91059933  0.74794925  1
  Zr  Zr17  1  0.04365482  0.85319126  0.04309125  1
  Zr  Zr18  1  0.94499841  0.50985965  0.90973825  1
  Zr  Zr19  1  0.51119985  0.43612057  0.41156267  1
  Zr  Zr20  1  0.62612601  0.10260985  0.39578415  1
  Zr  Zr21  1  0.47855446  0.05432464  0.60941318  1
  Zr  Zr22  1  0.85323304  0.34785215  0.58058715  1
  Zr  Zr23  1  0.92347990  0.79023875  0.23001863  1
  Zr  Zr24  1  0.08091478  0.58432348  0.33157813  1
  Zr  Zr25  1  0.34453036  0.40557578  0.97883909  1
  Zr  Zr26  1  0.81952515  0.14616852  0.28338810  1
  Zr  Zr27  1  0.12942602  0.35266420  0.31197858  1
  Zr  Zr28  1  0.72834766  0.29300809  0.17213416  1
  Zr  Zr29  1  0.66233074  0.50608255  0.22516991  1
  Zr  Zr30  1  0.89858589  0.41204357  0.32726284  1
  Zr  Zr31  1  0.73704142  0.59262500  0.02386964  1
  Zr  Zr32  1  0.30241844  0.33223425  0.53220284  1
  Zr  Zr33  1  0.14776552  0.64188078  0.55016168  1
  Zr  Zr34  1  0.31948073  0.91781070  0.29239300  1
  Zr  Zr35  1  0.24622409  0.50560094  0.19668569  1
  Zr  Zr36  1  0.95959591  0.02875907  0.92558121  1
  Zr  Zr37  1  0.29783978  0.52632705  0.40911422  1
  Zr  Zr38  1  0.69241167  0.00511892  0.66302424  1
  Zr  Zr39  1  1.01538502  0.77586267  0.43374482  1
  Zr  Zr40  1  0.51908938  0.06554870  0.96198418  1
  Zr  Zr41  1  0.32308078  0.55693340  0.83078422  1
  Zr  Zr42  1  0.01846682  0.32689212  -0.00857699  1
  Zr  Zr43  1  0.14945858  0.71111971  0.15656913  1
  Zr  Zr44  1  0.49377615  0.23557462  0.46719632  1
  Zr  Zr45  1  0.08872613  0.27414668  0.63840320  1
  Zr  Zr46  1  0.12981195  0.19136446  0.85717744  1
  Zr  Zr47  1  0.40706643  0.71783274  0.45859630  1
  Zr  Zr48  1  0.36304554  0.80604433  0.09129229  1
  Zr  Zr49  1  0.30012447  0.14861941  -0.00065351  1
  Sc  Sc50  1  0.42051334  0.52228761  0.59223395  1
  Sc  Sc51  1  0.19882842  0.30813904  0.11122897  1
  Sc  Sc52  1  0.21650720  0.95310382  0.10073195  1
  Sc  Sc53  1  0.85781896  0.67650981  0.83368254  1
  Sc  Sc54  1  0.30174158  0.32607233  0.76548592  1
  Sc  Sc55  1  0.72345862  0.94380653  0.26939823  1
  Sc  Sc56  1  0.72692973  0.52550481  0.42533626  1
  Sc  Sc57  1  0.24971727  0.12220407  0.23743628  1
  Sc  Sc58  1  0.91102902  0.95141444  0.37744137  1
  Sc  Sc59  1  0.04175829  0.48893431  0.15303289  1
  Sc  Sc60  1  0.62420063  0.42542378  0.59982357  1
  Sc  Sc61  1  0.50150260  0.91354071  0.79738769  1
  Sc  Sc62  1  0.04263511  0.10841772  0.30283510  1
  Sc  Sc63  1  0.71990484  0.30555297  0.41070607  1
  Sc  Sc64  1  0.50805194  0.83518498  0.61410605  1
  Sc  Sc65  1  0.49372280  0.93126193  0.41993413  1
  Sc  Sc66  1  0.31643801  0.70846788  0.67754947  1
  Sc  Sc67  1  0.34618688  0.30824758  0.31268971  1
  Sc  Sc68  1  0.04586164  0.83410541  0.82327395  1
  Sc  Sc69  1  0.13134802  0.41634245  0.82941319  1
  Sc  Sc70  1  0.60286708  0.65784683  0.52795366  1
  Sc  Sc71  1  0.68731583  0.72657341  0.32527569  1
  Sc  Sc72  1  0.45234099  0.47059169  0.17866119  1
  Sc  Sc73  1  0.69920663  0.89624430  0.48631177  1
  Sc  Sc74  1  0.81217751  0.10155860  0.48739468  1
  Sc  Sc75  1  0.14644420  0.55681856  0.98783493  1
  Sc  Sc76  1  0.78708830  0.56416922  0.64893517  1
  Sc  Sc77  1  0.93463888  0.30748106  0.79211675  1
  Sc  Sc78  1  0.35809496  0.67853854  0.24796361  1
  Sc  Sc79  1  0.72531553  0.78033664  0.12549544  1
  Sc  Sc80  1  0.24168883  0.11665801  0.62607765  1
  Sc  Sc81  1  0.53346901  0.65097774  0.74058515  1
  Sc  Sc82  1  0.60148954  0.40369816  0.03667834  1
  Sc  Sc83  1  0.08355048  0.11396111  0.07395949  1
  Sc  Sc84  1  0.33533113  0.08853079  0.44323887  1
  Sc  Sc85  1  0.36034260  0.11025035  0.80160986  1
  Sc  Sc86  1  0.52373240  0.84181826  0.23493848  1
  Sc  Sc87  1  0.88034956  0.14160374  0.66816546  1
  Sc  Sc88  1  0.79216080  0.35364788  0.94172497  1
  Sc  Sc89  1  0.97253594  0.27368546  0.19301848  1
  Sc  Sc90  1  0.22049365  0.76587082  0.92746194  1
  Sc  Sc91  1  0.84744071  0.83477664  0.96856074  1
  Sc  Sc92  1  0.64627503  0.73838373  0.90481403  1
  Sc  Sc93  1  0.72333211  0.78336233  0.68609745  1
  Sc  Sc94  1  0.86691353  0.92283811  0.76641816  1
  Sc  Sc95  1  0.14417403  0.96759721  0.43872444  1
  Sc  Sc96  1  0.85887321  0.17418739  0.05018682  1
  Sc  Sc97  1  0.21223737  0.75649936  0.37750802  1
  Sc  Sc98  1  0.11737930  0.63997933  0.77349407  1
  Sc  Sc99  1  0.06598066  0.02894501  0.71974227  1
  Nb  Nb100  1  0.34207902  0.60840215  1.04302211  1
  Nb  Nb101  1  0.96126457  0.25598315  0.43484198  1
  Nb  Nb102  1  0.55512686  0.87701403  0.02651613  1
  Nb  Nb103  1  0.21847405  0.48445318  0.64897394  1
  Nb  Nb104  1  0.41826107  0.01076892  0.12928341  1
  Nb  Nb105  1  0.02333319  0.09274568  0.52706328  1
  Nb  Nb106  1  0.11618564  0.84708309  0.61570868  1
  Nb  Nb107  1  0.51831253  0.61073638  0.33058208  1
  Nb  Nb108  1  0.16705168  0.20739434  0.44308008  1
  Nb  Nb109  1  0.16938041  -0.00446988  0.90395228  1
  Nb  Nb110  1  0.09365839  0.90157454  0.25343458  1
  Nb  Nb111  1  0.73571471  0.99817128  0.03982024  1
  Nb  Nb112  1  0.58498481  0.12555426  0.77935389  1
  Nb  Nb113  1  0.53706440  0.66603817  0.10704458  1
  Nb  Nb114  1  0.68588427  0.95046571  0.87080191  1
  Nb  Nb115  1  0.43070060  0.73978841  0.90692588  1
  Nb  Nb116  1  -0.05753114  0.65823277  1.05914928  1
  Nb  Nb117  1  0.50900487  0.55810136  0.94591826  1
  Nb  Nb118  1  0.91641756  0.91912410  0.57636974  1
  Nb  Nb119  1  0.49312030  0.44548572  0.78134744  1
  Nb  Nb120  1  0.66494402  0.20157825  0.59664387  1
  Nb  Nb121  1  0.35587934  0.94010563  0.94049800  1
  Nb  Nb122  1  0.45809308  0.10758321  0.28620863  1
  Nb  Nb123  1  0.65712977  0.20029528  -0.01698406  1
  Nb  Nb124  1  0.56032075  0.29240468  0.27119908  1
