# generated using pymatgen
data_Zr2Sc2Nb
_symmetry_space_group_name_H-M   'P 1'
_cell_length_a   14.42294981
_cell_length_b   14.02565578
_cell_length_c   14.19631889
_cell_angle_alpha   86.64451241
_cell_angle_beta   90.51987876
_cell_angle_gamma   88.47052693
_symmetry_Int_Tables_number   1
_chemical_formula_structural   Zr2Sc2Nb
_chemical_formula_sum   'Zr50 Sc50 Nb25'
_cell_volume   2865.68466884
_cell_formula_units_Z   25
loop_
 _symmetry_equiv_pos_site_id
 _symmetry_equiv_pos_as_xyz
  1  'x, y, z'
loop_
 _atom_site_type_symbol
 _atom_site_label
 _atom_site_symmetry_multiplicity
 _atom_site_fract_x
 _atom_site_fract_y
 _atom_site_fract_z
 _atom_site_occupancy
  Zr  Zr0  1  0.89199495  0.43657108  0.69203627  1
  Zr  Zr1  1  0.54031841  0.87939106  0.48813879  1
  Zr  Zr2  1  0.22506739  0.66995506  0.31288312  1
  Zr  Zr3  1  0.84916574  0.43191605  0.42486081  1
  Zr  Zr4  1  0.46586022  0.37477645  0.80854075  1
  Zr  Zr5  1  0.91002912  0.37890178  0.20364447  1
  Zr  Zr6  1  0.60669422  0.92202298  0.70734528  1
  Zr  Zr7  1  0.40717983  0.03879419  0.32991671  1
  Zr  Zr8  1  0.89396270  0.08730700  0.53548710  1
  Zr  Zr9  1  0.85651929  0.98721734  1.07494561  1
  Zr  Zr10  1  0.28992987  0.99275339  0.14593843  1
  Zr  Zr11  1  0.32368089  0.84704665  0.30555000  1
  Zr  Zr12  1  0.50794302  0.58138165  0.82894818  1
  Zr  Zr13  1  0.79893872  0.53430790  0.83508527  1
  Zr  Zr14  1  0.68656006  0.70494707  0.74884154  1
  Zr  Zr15  1  0.68900999  0.64447114  0.95347957  1
  Zr  Zr16  1  1.02652910  0.00358882  0.37080621  1
  Zr  Zr17  1  0.40460275  0.35483525  0.45757991  1
  Zr  Zr18  1  0.33418550  0.60735122  0.66848287  1
  Zr  Zr19  1  0.04309846  0.50147938  0.34529270  1
  Zr  Zr20  1  0.28832658  0.22337836  0.34758761  1
  Zr  Zr21  1  0.88792974  0.74174898  0.86888438  1
  Zr  Zr22  1  0.53757544  0.28833344  0.61712356  1
  Zr  Zr23  1  0.20779589  0.57346760  0.50824339  1
  Zr  Zr24  1  0.51008637  0.04562722  0.12495627  1
  Zr  Zr25  1  0.80009546  0.27771331  0.06909062  1
  Zr  Zr26  1  0.62132162  0.40452912  0.46075598  1
  Zr  Zr27  1  0.02997497  0.70902085  0.39280741  1
  Zr  Zr28  1  0.23911200  0.02569896  0.74002523  1
  Zr  Zr29  1  0.48312935  0.75731459  0.67184471  1
  Zr  Zr30  1  0.13425560  0.65390446  0.69172065  1
  Zr  Zr31  1  0.76855229  0.05058711  0.84046883  1
  Zr  Zr32  1  0.52657279  0.83339656  0.27106335  1
  Zr  Zr33  1  0.65929094  0.41802730  0.72269000  1
  Zr  Zr34  1  0.12010241  0.87465184  0.24298258  1
  Zr  Zr35  1  0.83262319  0.66622185  0.42787031  1
  Zr  Zr36  1  0.69063083  0.11949213  0.65867568  1
  Zr  Zr37  1  0.82793613  0.90389370  0.70205917  1
  Zr  Zr38  1  0.80052234  0.27013788  0.81942812  1
  Zr  Zr39  1  0.22217668  0.32630956  0.15241349  1
  Zr  Zr40  1  0.91342732  0.86028780  0.50505829  1
  Zr  Zr41  1  0.04497162  0.24918026  0.06066430  1
  Zr  Zr42  1  0.17116455  0.35751224  0.49955477  1
  Zr  Zr43  1  0.98402807  0.29628721  0.56512854  1
  Zr  Zr44  1  0.89815210  0.82434001  0.25566308  1
  Zr  Zr45  1  0.16133485  0.82202070  0.48409185  1
  Zr  Zr46  1  0.34487019  0.04629146  0.93376675  1
  Zr  Zr47  1  0.77560722  0.29395496  0.58677224  1
  Zr  Zr48  1  0.91199883  0.39820660  -0.04065514  1
  Zr  Zr49  1  1.00279479  0.81501969  0.04875530  1
  Sc  Sc50  1  0.55134834  1.00384151  0.90070370  1
  Sc  Sc51  1  0.11436610  0.12620115  0.87812473  1
  Sc  Sc52  1  0.67981841  0.12864619  1.00695725  1
  Sc  Sc53  1  0.10541347  1.00257116  0.58605647  1
  Sc  Sc54  1  0.40938141  0.56155433  0.40478933  1
  Sc  Sc55  1  0.06800031  0.66462719  0.17667028  1
  Sc  Sc56  1  0.72107419  0.14987560  0.21822374  1
  Sc  Sc57  1  0.90087503  0.68455932  0.66120440  1
  Sc  Sc58  1  0.71684599  0.86294158  0.93507851  1
  Sc  Sc59  1  0.24134767  0.45243352  0.32080446  1
  Sc  Sc60  1  1.07259766  0.29577074  0.30311774  1
  Sc  Sc61  1  0.15200453  0.36844053  0.92328605  1
  Sc  Sc62  1  0.82496316  0.01306712  0.34105092  1
  Sc  Sc63  1  -0.04796810  0.11111938  0.72996174  1
  Sc  Sc64  1  0.51212249  0.52584123  0.60289124  1
  Sc  Sc65  1  0.94211604  0.13899910  0.20076485  1
  Sc  Sc66  1  0.30837587  0.73497322  0.83662933  1
  Sc  Sc67  1  0.41698690  0.40591100  0.22633523  1
  Sc  Sc68  1  0.44694674  0.11757770  0.73272582  1
  Sc  Sc69  1  0.56969627  0.29449767  0.11447239  1
  Sc  Sc70  1  0.05163339  0.84707517  0.73328033  1
  Sc  Sc71  1  0.00456753  0.53548745  0.54674374  1
  Sc  Sc72  1  0.52766574  0.52362840  0.05730083  1
  Sc  Sc73  1  0.30155905  0.17083807  0.55920378  1
  Sc  Sc74  1  0.01640173  0.54048413  0.83398091  1
  Sc  Sc75  1  0.71871616  0.34720836  0.27933293  1
  Sc  Sc76  1  0.58684522  0.53072836  0.26988307  1
  Sc  Sc77  1  0.59470820  0.67038799  0.43816455  1
  Sc  Sc78  1  0.08125555  1.02095326  0.06860502  1
  Sc  Sc79  1  0.73625988  0.55512108  0.58010908  1
  Sc  Sc80  1  0.28952725  0.24685140  0.81899250  1
  Sc  Sc81  1  0.26321791  0.55274053  0.11043954  1
  Sc  Sc82  1  0.68977946  0.91126713  0.16408254  1
  Sc  Sc83  1  0.37197575  0.38012076  1.00710315  1
  Sc  Sc84  1  0.36415231  0.74625211  0.49451097  1
  Sc  Sc85  1  0.19424831  0.89165307  0.92121235  1
  Sc  Sc86  1  0.88187592  0.59407759  0.23800659  1
  Sc  Sc87  1  0.41834460  0.66815128  0.20132508  1
  Sc  Sc88  1  0.51840133  0.10580471  0.51591648  1
  Sc  Sc89  1  0.64987340  0.39224108  0.93568649  1
  Sc  Sc90  1  0.74331413  0.50890379  0.10943691  1
  Sc  Sc91  1  0.32222421  0.38814253  0.64769454  1
  Sc  Sc92  1  0.42206350  0.86127578  0.04048948  1
  Sc  Sc93  1  0.13151795  0.67057806  0.95026275  1
  Sc  Sc94  1  0.60974032  0.02308057  0.33610066  1
  Sc  Sc95  1  0.06573384  0.47332049  0.09870874  1
  Sc  Sc96  1  0.35792888  0.95937571  0.56242301  1
  Sc  Sc97  1  0.27845994  0.51819373  0.85248018  1
  Sc  Sc98  1  -0.04101892  0.95286647  0.88940883  1
  Sc  Sc99  1  0.52731178  0.23713829  0.32719506  1
  Nb  Nb100  1  0.71898162  0.97951623  0.52240162  1
  Nb  Nb101  1  0.13751031  0.21802538  0.67321266  1
  Nb  Nb102  1  0.60772505  0.21591323  0.81794886  1
  Nb  Nb103  1  0.58723353  0.73110624  0.08920673  1
  Nb  Nb104  1  0.71727321  0.78174230  0.57056015  1
  Nb  Nb105  1  0.72104142  0.83799958  0.37818862  1
  Nb  Nb106  1  0.70612624  0.18547689  0.43994939  1
  Nb  Nb107  1  0.91592900  0.60311364  0.01949154  1
  Nb  Nb108  1  0.10088831  0.16538127  0.45775460  1
  Nb  Nb109  1  0.38281115  0.19262109  0.16141939  1
  Nb  Nb110  1  0.25167711  0.82255300  0.66666431  1
  Nb  Nb111  1  1.00601059  0.29992965  0.80217372  1
  Nb  Nb112  1  0.91404574  0.15313542  0.95299594  1
  Nb  Nb113  1  0.52902564  0.77831966  0.88192946  1
  Nb  Nb114  1  0.16482518  0.12078138  0.23074670  1
  Nb  Nb115  1  0.40131931  0.90828668  0.78867310  1
  Nb  Nb116  1  0.88906688  0.22586471  0.38109022  1
  Nb  Nb117  1  0.22443059  0.01275920  0.39565774  1
  Nb  Nb118  1  0.81224446  0.74860489  0.08693656  1
  Nb  Nb119  1  0.12784193  0.42691580  0.69739680  1
  Nb  Nb120  1  0.70149707  0.69993988  0.24526877  1
  Nb  Nb121  1  0.39572873  0.66197946  -0.00674400  1
  Nb  Nb122  1  0.24010693  0.77442557  0.10557512  1
  Nb  Nb123  1  0.24758208  0.18196716  0.02862845  1
  Nb  Nb124  1  0.46685099  0.20067384  0.95765020  1
