# generated using pymatgen
data_Zr2Sc2Nb
_symmetry_space_group_name_H-M   'P 1'
_cell_length_a   13.99113127
_cell_length_b   14.25414078
_cell_length_c   14.41518904
_cell_angle_alpha   90.89237626
_cell_angle_beta   89.91243278
_cell_angle_gamma   90.94200337
_symmetry_Int_Tables_number   1
_chemical_formula_structural   Zr2Sc2Nb
_chemical_formula_sum   'Zr50 Sc50 Nb25'
_cell_volume   2874.10406482
_cell_formula_units_Z   25
loop_
 _symmetry_equiv_pos_site_id
 _symmetry_equiv_pos_as_xyz
  1  'x, y, z'
loop_
 _atom_site_type_symbol
 _atom_site_label
 _atom_site_symmetry_multiplicity
 _atom_site_fract_x
 _atom_site_fract_y
 _atom_site_fract_z
 _atom_site_occupancy
  Zr  Zr0  1  0.67671306  0.54549563  0.97092074  1
  Zr  Zr1  1  0.13255303  0.00358340  0.33899297  1
  Zr  Zr2  1  0.65892149  0.74919001  0.89911330  1
  Zr  Zr3  1  0.18439289  0.31672563  0.14459359  1
  Zr  Zr4  1  0.93993408  0.80699093  0.10012735  1
  Zr  Zr5  1  0.86432847  0.67547127  0.89350137  1
  Zr  Zr6  1  0.75532045  0.69273065  0.09198629  1
  Zr  Zr7  1  0.80417009  0.92813163  0.00727940  1
  Zr  Zr8  1  0.63451926  0.46422086  0.60083973  1
  Zr  Zr9  1  0.86209663  0.30430071  0.79145957  1
  Zr  Zr10  1  0.78936014  0.27802824  0.47104987  1
  Zr  Zr11  1  0.96932210  0.36613091  0.12528013  1
  Zr  Zr12  1  0.01422474  0.29631476  0.48731249  1
  Zr  Zr13  1  0.45269581  0.73259594  0.15352672  1
  Zr  Zr14  1  0.02612282  0.90384491  0.50389925  1
  Zr  Zr15  1  0.31550157  0.71488474  0.64991062  1
  Zr  Zr16  1  0.60281759  0.99659727  0.92470357  1
  Zr  Zr17  1  0.58325452  0.28815864  0.46499651  1
  Zr  Zr18  1  0.19897837  0.46260512  0.51943009  1
  Zr  Zr19  1  0.30485939  0.69744580  0.84849140  1
  Zr  Zr20  1  0.12054639  0.77647228  0.75528033  1
  Zr  Zr21  1  0.15982128  0.52286822  0.11231557  1
  Zr  Zr22  1  0.76937076  0.88004214  0.22811022  1
  Zr  Zr23  1  0.62335113  0.90057404  0.42143985  1
  Zr  Zr24  1  0.51317316  0.18245988  0.81285864  1
  Zr  Zr25  1  0.54023667  0.94943691  0.24452567  1
  Zr  Zr26  1  0.18180862  0.80785460  0.37013879  1
  Zr  Zr27  1  0.37021223  0.51720969  0.69340150  1
  Zr  Zr28  1  0.21874258  0.88954940  0.57301001  1
  Zr  Zr29  1  0.92568723  0.00233046  0.25214074  1
  Zr  Zr30  1  0.29137754  0.87671713  0.17961786  1
  Zr  Zr31  1  0.86895356  0.44652766  0.36727276  1
  Zr  Zr32  1  0.27321869  0.65557186  0.25368771  1
  Zr  Zr33  1  0.74031398  0.15384140  0.91190794  1
  Zr  Zr34  1  0.06714315  0.16816368  0.21369501  1
  Zr  Zr35  1  0.08863581  0.19742259  0.77935801  1
  Zr  Zr36  1  0.12530409  0.35143516  0.93974660  1
  Zr  Zr37  1  0.09269341  0.67721095  0.95059428  1
  Zr  Zr38  1  0.71359915  0.08096372  0.53465221  1
  Zr  Zr39  1  0.77578632  0.90253540  0.81017884  1
  Zr  Zr40  1  0.77101859  0.48154690  0.16910161  1
  Zr  Zr41  1  0.37795791  1.03485440  0.90796989  1
  Zr  Zr42  1  0.19360200  0.22353136  0.36685818  1
  Zr  Zr43  1  0.34097254  0.36051667  0.01909677  1
  Zr  Zr44  1  0.43091011  0.45366056  0.49276690  1
  Zr  Zr45  1  0.82704448  0.89667381  0.43734725  1
  Zr  Zr46  1  0.94293343  0.59566695  0.68446927  1
  Zr  Zr47  1  0.45926556  0.32876878  0.66335624  1
  Zr  Zr48  1  0.39369127  0.25350334  0.40658855  1
  Zr  Zr49  1  0.88606740  0.24055507  0.27742725  1
  Sc  Sc50  1  0.62465036  0.73975493  0.27669109  1
  Sc  Sc51  1  0.06096240  0.61372921  0.32547571  1
  Sc  Sc52  1  0.11379094  0.69068786  0.54977855  1
  Sc  Sc53  1  0.34246670  0.06902468  0.27438999  1
  Sc  Sc54  1  0.61539448  0.85118608  0.07765245  1
  Sc  Sc55  1  0.91836289  0.80411072  0.68048470  1
  Sc  Sc56  1  0.21868625  0.86248235  0.97569878  1
  Sc  Sc57  1  0.71837939  0.67722801  0.69276223  1
  Sc  Sc58  1  0.68402091  0.31502132  0.27515674  1
  Sc  Sc59  1  0.30888746  0.64438959  0.46530580  1
  Sc  Sc60  1  0.68067813  0.70426175  0.47782933  1
  Sc  Sc61  1  0.05672863  0.37617828  0.68186232  1
  Sc  Sc62  1  0.68562874  0.87891827  0.62215323  1
  Sc  Sc63  1  0.55454629  0.38463716  0.08061232  1
  Sc  Sc64  1  0.16017459  0.56103202  0.71899792  1
  Sc  Sc65  1  0.25897089  0.51358842  0.91082092  1
  Sc  Sc66  1  0.68146225  0.26777298  0.67039395  1
  Sc  Sc67  1  0.65621181  0.35082845  0.87478159  1
  Sc  Sc68  1  0.51552798  0.07354837  0.41301524  1
  Sc  Sc69  1  0.49487297  0.19344029  0.01908018  1
  Sc  Sc70  1  0.47112575  0.60727167  0.34458555  1
  Sc  Sc71  1  0.67093569  0.07545034  0.11386945  1
  Sc  Sc72  1  0.40502909  0.82958374  0.36193339  1
  Sc  Sc73  1  0.99753885  0.87917184  0.90052294  1
  Sc  Sc74  1  0.72075876  0.08921343  0.32149817  1
  Sc  Sc75  1  0.30017925  0.90186785  0.76583782  1
  Sc  Sc76  1  0.46489680  0.58897174  0.97481158  1
  Sc  Sc77  1  0.65366242  0.50484388  0.38457927  1
  Sc  Sc78  1  0.30606917  0.05699808  0.48695859  1
  Sc  Sc79  1  0.09223028  0.96890149  0.11377436  1
  Sc  Sc80  1  0.10149498  0.10582874  0.56300722  1
  Sc  Sc81  1  0.25250703  0.27355695  0.57772193  1
  Sc  Sc82  1  0.29046803  0.11109966  0.71104012  1
  Sc  Sc83  1  0.27101263  0.11398878  0.08341688  1
  Sc  Sc84  1  0.43958225  0.83011782  0.95492454  1
  Sc  Sc85  1  0.07120799  0.39743567  0.31579403  1
  Sc  Sc86  1  0.50100288  0.12620132  0.60690802  1
  Sc  Sc87  1  0.91934609  0.70696582  0.47962092  1
  Sc  Sc88  1  0.28485948  0.43874771  0.31947242  1
  Sc  Sc89  1  0.89462582  0.11245271  0.07931535  1
  Sc  Sc90  1  -0.00282795  0.49194100  0.86111947  1
  Sc  Sc91  1  0.92655357  0.07544756  0.84320226  1
  Sc  Sc92  1  0.56414384  0.54527011  0.78249135  1
  Sc  Sc93  1  0.95308934  0.58998023  0.10101078  1
  Sc  Sc94  1  0.45362302  0.86499539  0.56267732  1
  Sc  Sc95  1  0.75342623  0.28563964  0.07630128  1
  Sc  Sc96  1  0.82830600  0.65798725  0.29646326  1
  Sc  Sc97  1  0.50488652  0.75203132  0.75192563  1
  Sc  Sc98  1  0.52223152  0.96746708  0.74363605  1
  Sc  Sc99  1  0.92754353  0.09801674  0.43879926  1
  Nb  Nb100  1  0.98868208  0.82061915  0.30084427  1
  Nb  Nb101  1  0.52825630  0.17854485  0.23358490  1
  Nb  Nb102  1  0.28645398  0.21248418  0.89568776  1
  Nb  Nb103  1  0.00454519  0.50560591  0.51068719  1
  Nb  Nb104  1  0.28318672  0.68056969  0.05270956  1
  Nb  Nb105  1  0.38284079  0.50979990  0.15178535  1
  Nb  Nb106  1  0.45129114  1.00099938  0.09048471  1
  Nb  Nb107  1  0.50939135  0.63336029  0.57428100  1
  Nb  Nb108  1  0.80262762  0.55015596  0.53591341  1
  Nb  Nb109  1  0.49547711  0.39940757  0.28472072  1
  Nb  Nb110  1  0.93758291  0.27069773  0.95575015  1
  Nb  Nb111  1  0.08924920  0.16269646  0.00156416  1
  Nb  Nb112  1  0.78136105  0.49737944  0.77193556  1
  Nb  Nb113  1  0.07372524  0.97418725  0.71437832  1
  Nb  Nb114  1  0.85867731  0.39415182  0.61237575  1
  Nb  Nb115  1  0.44434549  0.38188558  0.85901123  1
  Nb  Nb116  1  0.84071358  0.44763922  0.97052958  1
  Nb  Nb117  1  0.37147085  0.27438421  0.19979178  1
  Nb  Nb118  1  0.58732913  0.56415418  0.17246609  1
  Nb  Nb119  1  0.16155904  0.03373379  0.88102946  1
  Nb  Nb120  1  0.90036126  0.18176240  0.63835374  1
  Nb  Nb121  1  0.12021655  0.74669154  0.15678217  1
  Nb  Nb122  1  0.88226268  -0.00223313  0.63461319  1
  Nb  Nb123  1  0.26131586  0.35146409  0.77047027  1
  Nb  Nb124  1  0.71363902  0.07868010  0.73375815  1
