# generated using pymatgen
data_Zr2Sc2Nb
_symmetry_space_group_name_H-M   'P 1'
_cell_length_a   14.27695204
_cell_length_b   14.74567718
_cell_length_c   13.61620783
_cell_angle_alpha   89.52845476
_cell_angle_beta   91.78470787
_cell_angle_gamma   90.24875074
_symmetry_Int_Tables_number   1
_chemical_formula_structural   Zr2Sc2Nb
_chemical_formula_sum   'Zr50 Sc50 Nb25'
_cell_volume   2865.01786422
_cell_formula_units_Z   25
loop_
 _symmetry_equiv_pos_site_id
 _symmetry_equiv_pos_as_xyz
  1  'x, y, z'
loop_
 _atom_site_type_symbol
 _atom_site_label
 _atom_site_symmetry_multiplicity
 _atom_site_fract_x
 _atom_site_fract_y
 _atom_site_fract_z
 _atom_site_occupancy
  Zr  Zr0  1  0.38695993  0.73314405  0.11010919  1
  Zr  Zr1  1  0.65715636  0.61759224  0.90129621  1
  Zr  Zr2  1  0.21068377  0.94144526  0.77949149  1
  Zr  Zr3  1  0.08606760  0.94995409  0.17351227  1
  Zr  Zr4  1  0.88029366  0.16385311  0.88192147  1
  Zr  Zr5  1  0.66644331  0.89303738  0.41824724  1
  Zr  Zr6  1  0.46887573  0.25115910  0.28809596  1
  Zr  Zr7  1  0.95286015  0.45743478  0.67421053  1
  Zr  Zr8  1  0.55525378  0.31043516  0.72757615  1
  Zr  Zr9  1  0.35190100  0.14737751  0.42870854  1
  Zr  Zr10  1  0.40064761  0.26150268  0.06451095  1
  Zr  Zr11  1  0.67024140  0.41745809  0.87991958  1
  Zr  Zr12  1  0.97912360  0.12414583  0.43790227  1
  Zr  Zr13  1  0.01810804  0.84243442  0.74693594  1
  Zr  Zr14  1  0.53442035  0.22807306  0.51741200  1
  Zr  Zr15  1  0.20172453  0.58817910  0.00761576  1
  Zr  Zr16  1  0.17460273  0.06275460  0.37635387  1
  Zr  Zr17  1  0.08614989  0.44857156  0.47346530  1
  Zr  Zr18  1  0.41266987  0.63228771  0.91959602  1
  Zr  Zr19  1  0.74685856  0.85834269  0.08105862  1
  Zr  Zr20  1  0.14850270  0.20274929  0.55703390  1
  Zr  Zr21  1  0.17772580  0.16134000  0.76072977  1
  Zr  Zr22  1  0.21943122  0.73082504  0.83583670  1
  Zr  Zr23  1  0.89571097  0.11180121  0.64832143  1
  Zr  Zr24  1  0.44877174  0.55431159  0.50746665  1
  Zr  Zr25  1  0.25552913  0.13254398  0.19436790  1
  Zr  Zr26  1  0.60171513  0.41075591  0.52237080  1
  Zr  Zr27  1  0.90502955  0.53157255  0.25958450  1
  Zr  Zr28  1  0.68286105  0.85829015  0.85825699  1
  Zr  Zr29  1  0.37049577  0.84886728  0.91538725  1
  Zr  Zr30  1  0.87959259  0.36688952  0.88162759  1
  Zr  Zr31  1  0.27457711  0.95644256  0.05850662  1
  Zr  Zr32  1  0.03639014  0.08963087  0.02323679  1
  Zr  Zr33  1  0.51081415  0.09002817  0.68600413  1
  Zr  Zr34  1  0.62096941  0.74755324  0.21629852  1
  Zr  Zr35  1  0.36069209  0.07030767  0.83296043  1
  Zr  Zr36  1  0.83248979  0.05688832  0.09554310  1
  Zr  Zr37  1  0.14260323  0.27151690  0.35847477  1
  Zr  Zr38  1  0.52999973  0.18910891  0.89837384  1
  Zr  Zr39  1  0.67992686  0.53207455  0.26136761  1
  Zr  Zr40  1  0.82648737  0.90358398  0.69441279  1
  Zr  Zr41  1  0.10252574  0.61695307  0.67712899  1
  Zr  Zr42  1  0.22852397  0.15175479  0.97833170  1
  Zr  Zr43  1  0.28775937  0.04257880  0.60672511  1
  Zr  Zr44  1  0.37981262  0.50607118  0.12864605  1
  Zr  Zr45  1  0.46531013  0.62960675  0.29679697  1
  Zr  Zr46  1  0.60069158  0.16067970  0.14610285  1
  Zr  Zr47  1  0.71121792  0.23851250  -0.02441160  1
  Zr  Zr48  1  0.75670240  0.23593658  0.48707030  1
  Zr  Zr49  1  0.29647346  0.34485741  0.23032822  1
  Sc  Sc50  1  0.81830002  0.72419202  0.30795097  1
  Sc  Sc51  1  0.22270987  0.38871744  0.00440719  1
  Sc  Sc52  1  0.51065243  0.76357826  0.53953199  1
  Sc  Sc53  1  0.08772637  0.90151528  0.94233783  1
  Sc  Sc54  1  0.77985342  0.44459273  0.07998571  1
  Sc  Sc55  1  0.88753587  0.92554423  0.26695362  1
  Sc  Sc56  1  0.03183692  0.74723655  0.25155873  1
  Sc  Sc57  1  0.87338583  0.95688269  0.90965371  1
  Sc  Sc58  1  0.93321650  0.32147672  0.30493944  1
  Sc  Sc59  1  0.57156419  0.37868815  0.11124236  1
  Sc  Sc60  1  0.68138388  0.31580945  0.29938272  1
  Sc  Sc61  1  0.10704591  0.46964305  0.23433221  1
  Sc  Sc62  1  0.17060562  0.37765529  0.68604595  1
  Sc  Sc63  1  0.91483199  0.59637833  0.48668535  1
  Sc  Sc64  1  0.10269472  0.27016464  0.13862507  1
  Sc  Sc65  1  0.95318431  0.30330619  0.53377568  1
  Sc  Sc66  1  0.53231208  0.55045247  0.72945307  1
  Sc  Sc67  1  0.38672926  0.42293591  0.67126016  1
  Sc  Sc68  1  0.46191534  0.43705649  0.91970571  1
  Sc  Sc69  1  0.49426258  0.99007682  0.49413669  1
  Sc  Sc70  1  0.89369756  0.25499060  0.09588719  1
  Sc  Sc71  1  0.65350034  0.61542246  0.45405025  1
  Sc  Sc72  1  0.31055281  0.90454531  0.45896152  1
  Sc  Sc73  1  0.69733937  0.05832383  0.55975570  1
  Sc  Sc74  1  0.46898952  0.83599604  0.32011889  1
  Sc  Sc75  1  0.84600550  0.74793168  0.89609436  1
  Sc  Sc76  1  0.77887882  0.65315190  0.08944503  1
  Sc  Sc77  1  0.78089742  0.76958531  0.52987685  1
  Sc  Sc78  1  0.34267220  0.34951246  0.47009143  1
  Sc  Sc79  1  0.06739612  0.48234164  0.86007717  1
  Sc  Sc80  1  0.08064544  0.89734287  0.40280568  1
  Sc  Sc81  1  0.74490935  0.49766317  0.68341023  1
  Sc  Sc82  1  0.25751597  0.85156610  0.25649695  1
  Sc  Sc83  1  0.65136312  -0.02639887  0.22481237  1
  Sc  Sc84  1  0.70478780  0.07286849  0.79113153  1
  Sc  Sc85  1  0.68180652  0.70273132  0.69448920  1
  Sc  Sc86  1  0.35866721  0.67741678  0.67750854  1
  Sc  Sc87  1  0.99569753  0.62288362  0.08009325  1
  Sc  Sc88  1  0.89693503  0.66021784  0.70975959  1
  Sc  Sc89  1  0.19887728  0.79938037  0.60170461  1
  Sc  Sc90  1  0.28680103  0.50980701  0.36229037  1
  Sc  Sc91  1  0.33064574  0.29501401  0.84166101  1
  Sc  Sc92  1  0.79736305  0.12206426  0.30505978  1
  Sc  Sc93  1  0.12019986  0.65071343  0.42962055  1
  Sc  Sc94  1  0.77125014  0.28440310  0.70468110  1
  Sc  Sc95  1  0.98825564  0.78303135  0.54329353  1
  Sc  Sc96  1  0.22914736  0.64891565  0.22675650  1
  Sc  Sc97  1  0.87582428  0.95883358  0.48807675  1
  Sc  Sc98  1  0.80169074  0.43898508  0.44637085  1
  Sc  Sc99  1  0.43137984  0.03159788  0.25805084  1
  Nb  Nb100  1  0.35800894  0.22185384  0.64722135  1
  Nb  Nb101  1  0.43637683  1.07076992  1.03710684  1
  Nb  Nb102  1  0.56156216  0.58326388  0.09248719  1
  Nb  Nb103  1  -0.00665830  0.42981927  0.05450991  1
  Nb  Nb104  1  0.50244559  0.90547591  0.09307832  1
  Nb  Nb105  1  0.32211784  0.70307667  0.43665561  1
  Nb  Nb106  1  0.94764196  0.82427352  0.06953327  1
  Nb  Nb107  1  0.64953563  0.02640513  0.99999895  1
  Nb  Nb108  1  0.86671185  0.55033473  0.89998974  1
  Nb  Nb109  1  1.00019047  0.26241156  0.73455794  1
  Nb  Nb110  1  0.06597605  0.27069640  0.91878300  1
  Nb  Nb111  1  0.49915901  0.44190964  0.32115589  1
  Nb  Nb112  1  0.52226154  0.96025751  0.86556319  1
  Nb  Nb113  1  1.00710213  0.11822122  0.23878132  1
  Nb  Nb114  1  0.02750437  0.05423020  0.79921532  1
  Nb  Nb115  1  0.61323170  0.90061844  0.65925223  1
  Nb  Nb116  1  0.03916282  0.69123273  0.89101350  1
  Nb  Nb117  1  0.56973921  0.76532564  0.99726499  1
  Nb  Nb118  1  0.51322376  0.76292014  0.78884951  1
  Nb  Nb119  1  0.07691312  -0.00359107  0.60041427  1
  Nb  Nb120  1  0.60151468  0.11607743  0.36953327  1
  Nb  Nb121  1  0.16559330  0.77099454  0.06348854  1
  Nb  Nb122  1  0.40492966  0.89362085  0.68738138  1
  Nb  Nb123  1  0.24860444  0.54517813  0.57081811  1
  Nb  Nb124  1  0.27133690  0.52466778  0.80813059  1
