# generated using pymatgen
data_Zr2Sc2Nb
_symmetry_space_group_name_H-M   'P 1'
_cell_length_a   13.73540996
_cell_length_b   13.95221791
_cell_length_c   14.95041497
_cell_angle_alpha   90.75940322
_cell_angle_beta   90.67069393
_cell_angle_gamma   89.81025988
_symmetry_Int_Tables_number   1
_chemical_formula_structural   Zr2Sc2Nb
_chemical_formula_sum   'Zr50 Sc50 Nb25'
_cell_volume   2864.62684085
_cell_formula_units_Z   25
loop_
 _symmetry_equiv_pos_site_id
 _symmetry_equiv_pos_as_xyz
  1  'x, y, z'
loop_
 _atom_site_type_symbol
 _atom_site_label
 _atom_site_symmetry_multiplicity
 _atom_site_fract_x
 _atom_site_fract_y
 _atom_site_fract_z
 _atom_site_occupancy
  Zr  Zr0  1  0.71212166  0.48521559  0.76210492  1
  Zr  Zr1  1  0.72156341  0.89193305  0.25390634  1
  Zr  Zr2  1  0.47504461  0.06741683  0.30633061  1
  Zr  Zr3  1  0.25928650  0.15257204  0.23942328  1
  Zr  Zr4  1  0.04525012  0.52059879  0.13316194  1
  Zr  Zr5  1  0.94601384  0.09664231  0.03688204  1
  Zr  Zr6  1  0.38629361  0.03543306  0.67486101  1
  Zr  Zr7  1  0.91397518  0.32864175  0.13559272  1
  Zr  Zr8  1  0.45637942  0.66030331  0.69715457  1
  Zr  Zr9  1  0.61809799  0.15572502  -0.03624954  1
  Zr  Zr10  1  0.38569829  0.94430257  0.50395588  1
  Zr  Zr11  1  0.33905677  0.68110483  0.86756112  1
  Zr  Zr12  1  0.31647825  0.45000315  0.78200105  1
  Zr  Zr13  1  0.05994172  0.26778378  0.54892604  1
  Zr  Zr14  1  0.88948577  0.32305083  0.66888206  1
  Zr  Zr15  1  0.67490574  0.65734668  0.62561663  1
  Zr  Zr16  1  0.86755331  0.54541916  0.63072601  1
  Zr  Zr17  1  0.27313872  0.33733548  0.58654135  1
  Zr  Zr18  1  0.72141369  0.43965130  0.14446799  1
  Zr  Zr19  1  0.57708498  0.59785912  0.09538485  1
  Zr  Zr20  1  0.26429481  0.07300805  0.03517306  1
  Zr  Zr21  1  0.13306568  0.17813445  0.91555682  1
  Zr  Zr22  1  0.71557079  0.26267974  0.76271960  1
  Zr  Zr23  1  0.06974680  0.08344432  0.38641390  1
  Zr  Zr24  1  0.03752198  0.14161369  0.71520821  1
  Zr  Zr25  1  0.31431715  0.51108835  0.37764772  1
  Zr  Zr26  1  0.09330615  0.03339555  0.17805655  1
  Zr  Zr27  1  0.94056982  0.91278113  0.72704126  1
  Zr  Zr28  1  0.46744466  0.38526509  0.47905645  1
  Zr  Zr29  1  0.02336098  0.76628359  0.44960436  1
  Zr  Zr30  1  0.52420163  0.53473575  0.87767498  1
  Zr  Zr31  1  0.10665439  0.90310721  0.01967557  1
  Zr  Zr32  1  0.72243883  0.77720433  0.05460733  1
  Zr  Zr33  1  0.37548919  0.72072276  0.50665918  1
  Zr  Zr34  1  0.70435493  0.20548111  0.56157207  1
  Zr  Zr35  1  0.20100339  0.09534373  0.55420650  1
  Zr  Zr36  1  0.66858820  0.81344302  0.44701911  1
  Zr  Zr37  1  0.64436620  0.92953861  0.90350315  1
  Zr  Zr38  1  0.87437785  0.09416423  0.23361076  1
  Zr  Zr39  1  0.13184516  0.41012147  0.97950502  1
  Zr  Zr40  1  0.73818505  0.88058915  0.72995180  1
  Zr  Zr41  1  0.54841930  0.83050559  0.17255517  1
  Zr  Zr42  1  0.76962847  0.27077246  0.31144848  1
  Zr  Zr43  1  0.84666638  0.62227514  0.13398321  1
  Zr  Zr44  1  0.42890321  0.10149572  0.87663956  1
  Zr  Zr45  1  0.25894421  0.56161737  0.19212590  1
  Zr  Zr46  1  0.32219219  0.28610153  0.93280061  1
  Zr  Zr47  1  0.96555852  0.67027845  0.97735503  1
  Zr  Zr48  1  0.10046483  0.56677406  0.84554557  1
  Zr  Zr49  1  0.30745233  0.34299825  0.11957122  1
  Sc  Sc50  1  0.51372642  0.31321732  0.83278499  1
  Sc  Sc51  1  0.23249057  0.63215142  0.69856550  1
  Sc  Sc52  1  0.25917781  0.74791839  0.33126124  1
  Sc  Sc53  1  0.18670227  0.66707691  1.00939814  1
  Sc  Sc54  1  0.54379566  0.59916734  0.47474451  1
  Sc  Sc55  1  0.45275687  0.88643375  0.82035307  1
  Sc  Sc56  1  0.54920472  0.85509197  0.62378882  1
  Sc  Sc57  1  0.70401416  0.06147252  0.38241379  1
  Sc  Sc58  1  0.51288608  0.75794850  0.97395902  1
  Sc  Sc59  1  0.99664116  0.27558526  0.32947965  1
  Sc  Sc60  1  0.91702427  0.87483746  0.14726531  1
  Sc  Sc61  1  0.80685161  0.07473182  0.87128751  1
  Sc  Sc62  1  0.92498701  0.26292359  0.89015688  1
  Sc  Sc63  1  0.10526607  0.23876609  0.10780401  1
  Sc  Sc64  1  0.44678252  0.17463016  0.10866664  1
  Sc  Sc65  1  0.48975321  0.97758892  0.04385251  1
  Sc  Sc66  1  0.39442625  0.30471900  0.30684276  1
  Sc  Sc67  1  0.08821104  0.88577658  0.30869945  1
  Sc  Sc68  1  0.63279479  0.71629148  0.81616121  1
  Sc  Sc69  1  0.04673063  0.72946823  0.65197295  1
  Sc  Sc70  1  0.66875616  0.66523847  0.27282588  1
  Sc  Sc71  1  0.18764913  0.87043107  0.51303575  1
  Sc  Sc72  1  0.37429575  0.71189004  0.11805411  1
  Sc  Sc73  1  0.88733453  0.15299306  0.48163222  1
  Sc  Sc74  1  0.35452863  0.51063935  1.00218267  1
  Sc  Sc75  1  0.51214109  0.45733690  0.67215467  1
  Sc  Sc76  1  0.74668628  0.99651412  0.06735254  1
  Sc  Sc77  1  0.88162482  0.87183186  0.93097814  1
  Sc  Sc78  1  0.30505643  0.91723528  0.18514095  1
  Sc  Sc79  1  0.61470992  0.06587476  0.72757487  1
  Sc  Sc80  1  0.88213908  0.71705215  0.31205966  1
  Sc  Sc81  1  0.49600369  0.23401593  0.63684339  1
  Sc  Sc82  1  0.74379869  0.58415396  0.94756978  1
  Sc  Sc83  1  0.73084573  0.36387304  0.94196291  1
  Sc  Sc84  1  0.84747860  0.77437330  0.56420107  1
  Sc  Sc85  1  0.12740160  0.80187986  0.84039695  1
  Sc  Sc86  1  0.88165142  0.93403524  0.39113041  1
  Sc  Sc87  1  0.47327854  0.85026520  0.35234784  1
  Sc  Sc88  1  0.86573699  0.69016099  0.78864612  1
  Sc  Sc89  1  0.63232170  0.45414485  0.34070954  1
  Sc  Sc90  1  0.26406123  0.19100530  0.74519480  1
  Sc  Sc91  1  0.89284380  0.48219843  0.29775653  1
  Sc  Sc92  1  0.53167286  0.36468315  0.03400424  1
  Sc  Sc93  1  0.08463251  0.48512313  0.63412412  1
  Sc  Sc94  1  0.15996228  0.38503813  0.25745453  1
  Sc  Sc95  1  0.68744233  0.42122817  0.54919253  1
  Sc  Sc96  1  0.30259700  0.82945795  0.68871794  1
  Sc  Sc97  1  0.39029966  0.16524599  0.47253526  1
  Sc  Sc98  1  0.08568841  0.73419361  0.17092051  1
  Sc  Sc99  1  0.10730473  0.34731122  0.77990581  1
  Nb  Nb100  1  1.03103198  0.01670848  0.86800354  1
  Nb  Nb101  1  0.26324079  1.00825510  0.36525661  1
  Nb  Nb102  1  0.21053677  0.25019679  0.40794160  1
  Nb  Nb103  1  0.88738298  0.38783818  0.47817699  1
  Nb  Nb104  1  0.11873324  0.43527033  0.44568161  1
  Nb  Nb105  1  0.75308416  0.21915365  0.09333192  1
  Nb  Nb106  1  0.76990583  0.59526023  0.44877315  1
  Nb  Nb107  1  -0.00532410  0.97822607  0.55692572  1
  Nb  Nb108  1  0.63862621  0.09659957  0.19683481  1
  Nb  Nb109  1  0.76177820  0.97710291  0.56244594  1
  Nb  Nb110  1  0.31086192  0.86110042  0.97719265  1
  Nb  Nb111  1  0.33408781  0.52410799  0.56979435  1
  Nb  Nb112  1  0.24525352  -0.00561296  0.84984658  1
  Nb  Nb113  1  0.17780086  0.63274764  0.49990877  1
  Nb  Nb114  1  0.58567439  0.28608736  0.21557537  1
  Nb  Nb115  1  0.09150514  0.59552139  0.32397478  1
  Nb  Nb116  1  0.91773117  0.47219128  0.81739298  1
  Nb  Nb117  1  0.45845503  0.64464698  0.29082935  1
  Nb  Nb118  1  0.46445810  0.47291328  0.20336891  1
  Nb  Nb119  1  0.14571553  0.96658476  0.69547063  1
  Nb  Nb120  1  0.91701549  0.46499523  -0.00582084  1
  Nb  Nb121  1  0.96857591  0.57631007  0.47428790  1
  Nb  Nb122  1  0.56445874  0.04352080  0.52071056  1
  Nb  Nb123  1  0.58383840  0.23396538  0.40239743  1
  Nb  Nb124  1  0.84368851  0.09778515  0.68191605  1
