# generated using pymatgen
data_Zr2Sc2Nb
_symmetry_space_group_name_H-M   'P 1'
_cell_length_a   13.71153984
_cell_length_b   14.46785170
_cell_length_c   14.51375298
_cell_angle_alpha   90.13626616
_cell_angle_beta   88.60978192
_cell_angle_gamma   90.79692354
_symmetry_Int_Tables_number   1
_chemical_formula_structural   Zr2Sc2Nb
_chemical_formula_sum   'Zr50 Sc50 Nb25'
_cell_volume   2878.05596836
_cell_formula_units_Z   25
loop_
 _symmetry_equiv_pos_site_id
 _symmetry_equiv_pos_as_xyz
  1  'x, y, z'
loop_
 _atom_site_type_symbol
 _atom_site_label
 _atom_site_symmetry_multiplicity
 _atom_site_fract_x
 _atom_site_fract_y
 _atom_site_fract_z
 _atom_site_occupancy
  Zr  Zr0  1  0.83726414  0.75992580  0.13848477  1
  Zr  Zr1  1  0.37737423  0.40367372  0.22930093  1
  Zr  Zr2  1  0.54107608  0.38254310  0.62239991  1
  Zr  Zr3  1  0.30049744  0.29039487  0.85816811  1
  Zr  Zr4  1  0.91129829  0.70481231  0.45594732  1
  Zr  Zr5  1  0.03636239  0.09901019  0.58998907  1
  Zr  Zr6  1  0.29149192  0.87517886  0.80873727  1
  Zr  Zr7  1  -0.01385345  0.46280695  0.07174035  1
  Zr  Zr8  1  0.80783158  0.33990619  0.13060584  1
  Zr  Zr9  1  0.98990104  0.97826176  0.26524395  1
  Zr  Zr10  1  0.87109288  0.89579438  0.54517553  1
  Zr  Zr11  1  0.46504503  0.81429292  0.09094711  1
  Zr  Zr12  1  0.45975365  0.73159471  0.29040658  1
  Zr  Zr13  1  0.50821573  0.24881961  0.82618160  1
  Zr  Zr14  1  0.72334223  0.33656366  0.75835585  1
  Zr  Zr15  1  0.59829992  0.63700636  0.75345654  1
  Zr  Zr16  1  0.18334020  0.07115431  0.75316492  1
  Zr  Zr17  1  0.34022447  0.07754653  0.89943068  1
  Zr  Zr18  1  0.11880878  0.56873068  0.91395234  1
  Zr  Zr19  1  0.88500463  0.27253313  -0.04132323  1
  Zr  Zr20  1  0.32073882  0.37653845  0.64368469  1
  Zr  Zr21  1  0.38333584  0.59157011  0.13871964  1
  Zr  Zr22  1  0.11883269  0.77679191  0.92374181  1
  Zr  Zr23  1  0.26513218  0.76391274  0.18049262  1
  Zr  Zr24  1  0.69096932  0.71379075  0.94354425  1
  Zr  Zr25  1  0.03463340  0.87907269  0.09317939  1
  Zr  Zr26  1  0.07198442  0.55447756  0.40491730  1
  Zr  Zr27  1  0.93273375  0.25063156  0.45596394  1
  Zr  Zr28  1  0.60427901  0.18864839  0.65062715  1
  Zr  Zr29  1  0.14398681  0.26238135  0.69595300  1
  Zr  Zr30  1  0.49389346  0.02548892  0.76288739  1
  Zr  Zr31  1  0.70586041  0.23560190  0.29481592  1
  Zr  Zr32  1  0.48353685  0.03993152  0.55063447  1
  Zr  Zr33  1  0.15335916  0.45461499  0.23450629  1
  Zr  Zr34  1  0.78167333  0.54070051  0.09444808  1
  Zr  Zr35  1  0.27521611  0.27147604  0.09232843  1
  Zr  Zr36  1  0.71896661  0.32353600  0.50583491  1
  Zr  Zr37  1  0.07083827  0.97509949  0.90241906  1
  Zr  Zr38  1  0.68360953  0.12401710  0.46740411  1
  Zr  Zr39  1  0.70098471  0.49938816  0.90639912  1
  Zr  Zr40  1  0.27693031  0.97231596  0.59501610  1
  Zr  Zr41  1  0.15028576  0.11175424  0.17513524  1
  Zr  Zr42  1  0.08855669  0.37625415  0.51550220  1
  Zr  Zr43  1  0.68491220  0.89100356  0.02899692  1
  Zr  Zr44  1  0.88594573  0.82799053  0.89194760  1
  Zr  Zr45  1  0.68867378  -0.00623787  0.64132126  1
  Zr  Zr46  1  0.14970852  0.15417525  0.96042105  1
  Zr  Zr47  1  0.43885427  0.38986970  0.99422733  1
  Zr  Zr48  1  0.72108900  0.81155521  0.74266044  1
  Zr  Zr49  1  0.51609990  0.08528961  0.33982354  1
  Sc  Sc50  1  0.12479396  0.47187558  0.72485838  1
  Sc  Sc51  1  0.32195230  0.75841602  0.60330695  1
  Sc  Sc52  1  0.45553718  0.87731712  0.44530629  1
  Sc  Sc53  1  0.65116761  0.30441896  -0.02807877  1
  Sc  Sc54  1  0.91982693  0.17677654  0.24921490  1
  Sc  Sc55  1  0.85066845  1.02960628  0.94246653  1
  Sc  Sc56  1  0.32083879  0.50547430  0.84063914  1
  Sc  Sc57  1  0.09419833  0.34785916  0.90979033  1
  Sc  Sc58  1  0.70715974  0.66945447  0.34624264  1
  Sc  Sc59  1  0.50189012  0.67413067  0.49401456  1
  Sc  Sc60  1  0.71838033  0.70301332  0.56342592  1
  Sc  Sc61  1  0.09425018  0.86970289  0.70675651  1
  Sc  Sc62  1  0.74687337  0.14234599  0.09283259  1
  Sc  Sc63  1  0.05775567  0.76862844  0.29587649  1
  Sc  Sc64  1  0.91673846  0.46590494  0.84117638  1
  Sc  Sc65  1  0.32175381  0.19562128  0.30072056  1
  Sc  Sc66  1  0.58205110  0.01878982  0.15878361  1
  Sc  Sc67  1  0.52063600  0.23758938  0.16068359  1
  Sc  Sc68  1  0.25561896  0.92103255  1.03660529  1
  Sc  Sc69  1  0.26007446  0.80490749  0.39764551  1
  Sc  Sc70  1  0.64454724  0.84910782  0.24377465  1
  Sc  Sc71  1  0.55586191  0.08402549  0.96507223  1
  Sc  Sc72  1  0.85751294  0.48561554  0.45956623  1
  Sc  Sc73  1  0.96015487  0.55818757  0.62033654  1
  Sc  Sc74  1  0.43959318  0.23598018  0.48725669  1
  Sc  Sc75  1  0.23663157  0.55431944  0.55646806  1
  Sc  Sc76  1  0.10112994  0.64715383  0.11494876  1
  Sc  Sc77  1  0.27314872  0.37585100  0.41343158  1
  Sc  Sc78  1  0.91971132  0.64578075  0.97408540  1
  Sc  Sc79  1  0.88798156  0.05420334  0.43407323  1
  Sc  Sc80  1  0.72346101  0.45643088  0.29656151  1
  Sc  Sc81  1  0.73564956  0.50586607  0.65483414  1
  Sc  Sc82  1  0.51440431  0.83748351  0.66397401  1
  Sc  Sc83  1  0.92625903  0.33450484  0.66015524  1
  Sc  Sc84  1  0.94464401  0.39104009  0.28714433  1
  Sc  Sc85  1  0.91413007  0.60178741  0.25932912  1
  Sc  Sc86  1  0.73131778  0.14895237  0.82239970  1
  Sc  Sc87  1  0.67334468  0.89896572  0.44900355  1
  Sc  Sc88  1  0.08349255  0.91678588  0.46348634  1
  Sc  Sc89  1  0.58512827  0.44124780  0.13550800  1
  Sc  Sc90  1  0.23290054  0.46709394  0.04444029  1
  Sc  Sc91  1  0.36255752  0.17256131  0.68069869  1
  Sc  Sc92  1  0.89201779  0.97856231  0.73682506  1
  Sc  Sc93  1  0.09997304  0.71978233  0.56053041  1
  Sc  Sc94  1  0.49743140  0.85352797  0.89474513  1
  Sc  Sc95  1  0.61210027  0.65971547  0.14348535  1
  Sc  Sc96  1  0.29570639  0.59161947  0.34514465  1
  Sc  Sc97  1  0.97606944  0.16518915  0.80418840  1
  Sc  Sc98  1  0.49763519  0.60055664  0.95868329  1
  Sc  Sc99  1  0.36992963  0.07607480  0.12272263  1
  Nb  Nb100  1  0.10779883  0.10389075  0.38423328  1
  Nb  Nb101  1  0.62801230  0.51038707  0.47874437  1
  Nb  Nb102  1  0.40243204  0.92326476  0.25233966  1
  Nb  Nb103  1  0.82504190  0.15487321  0.62422251  1
  Nb  Nb104  1  0.74636281  0.03177940  0.29041881  1
  Nb  Nb105  1  0.67980447  0.95572231  0.84582626  1
  Nb  Nb106  1  0.02022089  0.67188732  0.77997604  1
  Nb  Nb107  1  0.11790342  0.27457681  0.31750847  1
  Nb  Nb108  1  0.30269112  0.02567209  0.40742325  1
  Nb  Nb109  1  0.83471428  0.96035052  0.14111329  1
  Nb  Nb110  1  0.21906057  0.66875662  0.75352741  1
  Nb  Nb111  1  0.90767314  0.76171693  0.66646896  1
  Nb  Nb112  1  0.05307879  0.28929848  0.11515052  1
  Nb  Nb113  1  0.84935746  0.84719912  0.32848216  1
  Nb  Nb114  1  0.81583071  0.63992479  0.78954058  1
  Nb  Nb115  1  0.22116097  0.19049120  0.51397740  1
  Nb  Nb116  1  0.30305355  0.70491564  -0.03238979  1
  Nb  Nb117  1  0.43215482  0.47330077  0.47507498  1
  Nb  Nb118  1  0.51873844  0.54340604  0.30997274  1
  Nb  Nb119  1  0.42829775  0.56291719  0.65711328  1
  Nb  Nb120  1  0.40718274  0.69642295  0.79570623  1
  Nb  Nb121  1  0.52464996  0.44935533  0.80543141  1
  Nb  Nb122  1  0.53996218  0.34927952  0.35534765  1
  Nb  Nb123  1  0.20226773  0.94547452  0.25429575  1
  Nb  Nb124  1  0.97796567  0.10210820  0.06743562  1
