# generated using pymatgen
data_Zr2Sc2Nb
_symmetry_space_group_name_H-M   'P 1'
_cell_length_a   14.49398433
_cell_length_b   14.29592039
_cell_length_c   13.85981343
_cell_angle_alpha   89.72027861
_cell_angle_beta   92.06083194
_cell_angle_gamma   90.63414528
_symmetry_Int_Tables_number   1
_chemical_formula_structural   Zr2Sc2Nb
_chemical_formula_sum   'Zr50 Sc50 Nb25'
_cell_volume   2869.75837162
_cell_formula_units_Z   25
loop_
 _symmetry_equiv_pos_site_id
 _symmetry_equiv_pos_as_xyz
  1  'x, y, z'
loop_
 _atom_site_type_symbol
 _atom_site_label
 _atom_site_symmetry_multiplicity
 _atom_site_fract_x
 _atom_site_fract_y
 _atom_site_fract_z
 _atom_site_occupancy
  Zr  Zr0  1  0.36245728  0.56478433  0.76436876  1
  Zr  Zr1  1  0.85795768  0.54949117  0.73833378  1
  Zr  Zr2  1  0.88865170  0.41159616  0.09094615  1
  Zr  Zr3  1  0.07652341  0.54278496  0.46399135  1
  Zr  Zr4  1  0.62707770  0.88667417  1.01937465  1
  Zr  Zr5  1  0.69163611  0.32849836  0.14637511  1
  Zr  Zr6  1  0.25005690  0.84986645  0.53945968  1
  Zr  Zr7  1  0.63362819  0.66785457  0.06761247  1
  Zr  Zr8  1  0.21543931  0.95849493  0.07780147  1
  Zr  Zr9  1  0.92469941  0.83269133  0.28474196  1
  Zr  Zr10  1  0.70057997  0.66842803  0.86459007  1
  Zr  Zr11  1  0.84697117  0.37517896  0.29890117  1
  Zr  Zr12  1  0.08882594  0.19517294  0.67055654  1
  Zr  Zr13  1  0.69240611  0.05979580  0.90786322  1
  Zr  Zr14  1  0.90453249  0.77289204  0.81596696  1
  Zr  Zr15  1  0.44746513  0.20381463  0.69247427  1
  Zr  Zr16  1  0.67925222  0.23200459  0.73881179  1
  Zr  Zr17  1  0.23401917  0.67257078  0.40158287  1
  Zr  Zr18  1  0.35519901  0.93452075  0.25454851  1
  Zr  Zr19  1  0.06717827  0.44905806  0.67532685  1
  Zr  Zr20  1  0.33169993  0.33933832  0.20509352  1
  Zr  Zr21  1  0.79316838  0.03164793  0.71552864  1
  Zr  Zr22  1  0.80086407  0.75047051  0.45309672  1
  Zr  Zr23  1  0.88265336  0.59335236  0.94946312  1
  Zr  Zr24  1  0.97807259  0.03062605  0.27539386  1
  Zr  Zr25  1  0.87921889  0.96479988  0.46266318  1
  Zr  Zr26  1  0.37031769  0.32375227  0.51789504  1
  Zr  Zr27  1  0.92273919  0.17344680  0.82962516  1
  Zr  Zr28  1  0.44840385  0.12729147  0.46939864  1
  Zr  Zr29  1  0.77064244  0.29555651  0.49305677  1
  Zr  Zr30  1  0.58252428  0.28290318  0.54742932  1
  Zr  Zr31  1  0.74543197  0.69761332  0.65623177  1
  Zr  Zr32  1  0.90490162  0.65808012  0.14148878  1
  Zr  Zr33  1  0.11746043  0.30480547  0.85463990  1
  Zr  Zr34  1  0.57554687  0.33500843  0.94571284  1
  Zr  Zr35  1  0.99951713  -0.00392429  0.72663571  1
  Zr  Zr36  1  0.49731033  0.39958629  0.72076525  1
  Zr  Zr37  1  0.20160858  0.42434439  0.34721342  1
  Zr  Zr38  1  0.41761022  0.74928891  0.34938091  1
  Zr  Zr39  1  0.66555099  0.21260622  0.31554902  1
  Zr  Zr40  1  0.02989209  0.48922925  0.22944563  1
  Zr  Zr41  1  0.85948837  0.49763872  0.51803309  1
  Zr  Zr42  1  0.37791145  0.99736594  0.66987843  1
  Zr  Zr43  1  0.03956244  0.78170485  0.46385081  1
  Zr  Zr44  1  0.20560126  0.48381686  0.86574453  1
  Zr  Zr45  1  0.55173015  0.60642232  0.71083504  1
  Zr  Zr46  1  0.68227891  0.47408774  0.60201891  1
  Zr  Zr47  1  0.27866151  0.16547632  0.79400098  1
  Zr  Zr48  1  0.69366013  0.09329387  0.49893459  1
  Zr  Zr49  1  0.19056525  0.64791457  0.64464507  1
  Sc  Sc50  1  0.44938988  0.91142854  0.48063061  1
  Sc  Sc51  1  0.96279016  0.65976018  0.60853832  1
  Sc  Sc52  1  0.51861584  0.81955809  0.68626693  1
  Sc  Sc53  1  0.42987351  0.66147509  0.12945380  1
  Sc  Sc54  1  0.82148653  0.96534142  0.10420975  1
  Sc  Sc55  1  0.24437429  0.76314829  0.17508721  1
  Sc  Sc56  1  0.73840159  0.78044567  0.21607665  1
  Sc  Sc57  1  0.87255837  0.33420129  0.67623137  1
  Sc  Sc58  1  0.58395157  0.69438347  0.50766665  1
  Sc  Sc59  1  0.36483391  0.48195381  1.02869614  1
  Sc  Sc60  1  0.69989801  0.44117248  0.81019688  1
  Sc  Sc61  1  0.08982942  0.81419666  0.68642244  1
  Sc  Sc62  1  0.62551581  0.86197463  0.37922358  1
  Sc  Sc63  1  0.17576791  0.33837544  0.07353741  1
  Sc  Sc64  1  0.98404313  0.33908727  0.45750203  1
  Sc  Sc65  1  0.31159820  0.80724695  0.76931447  1
  Sc  Sc66  1  0.39016157  0.53038199  0.31196015  1
  Sc  Sc67  1  0.59353757  0.64554465  0.29334045  1
  Sc  Sc68  1  0.03899398  0.26818225  0.23729916  1
  Sc  Sc69  1  0.01764132  0.06812273  0.07195416  1
  Sc  Sc70  1  0.17810025  0.10848558  0.22080642  1
  Sc  Sc71  1  0.90895581  0.13995217  0.57863062  1
  Sc  Sc72  1  0.49078275  0.14102256  0.90559117  1
  Sc  Sc73  1  0.21438369  0.55078947  0.15653006  1
  Sc  Sc74  1  0.89820935  0.96000761  0.91118729  1
  Sc  Sc75  1  0.30029448  0.16128232  0.03535844  1
  Sc  Sc76  1  0.38725810  0.84565051  0.02460323  1
  Sc  Sc77  1  0.05942645  0.62346382  0.81929074  1
  Sc  Sc78  1  0.54606820  0.47049635  0.15137755  1
  Sc  Sc79  1  0.89966887  0.60863078  0.34854675  1
  Sc  Sc80  1  0.92770462  0.39904031  0.86928480  1
  Sc  Sc81  1  0.69083181  0.89129561  0.58364180  1
  Sc  Sc82  1  0.49523191  0.23714320  0.12115904  1
  Sc  Sc83  1  0.49066871  0.50628628  0.50991825  1
  Sc  Sc84  1  0.49561251  0.73101114  0.89261719  1
  Sc  Sc85  1  0.84457688  0.18038682  0.15429125  1
  Sc  Sc86  1  0.07808486  0.68751456  0.03451765  1
  Sc  Sc87  1  0.75168853  0.01113219  0.28993325  1
  Sc  Sc88  1  0.11678058  0.09022472  0.89597051  1
  Sc  Sc89  1  0.27056265  0.67347522  0.94828132  1
  Sc  Sc90  1  0.66586660  0.45375394  0.37662885  1
  Sc  Sc91  1  0.48837005  0.31752066  0.34056625  1
  Sc  Sc92  1  0.54438780  0.03810091  0.28658135  1
  Sc  Sc93  1  0.37068688  0.33356252  0.88980224  1
  Sc  Sc94  1  0.07979420  0.15277966  0.43231585  1
  Sc  Sc95  1  0.28514536  0.50794537  0.54689329  1
  Sc  Sc96  1  0.14206748  0.89517639  0.30962366  1
  Sc  Sc97  1  0.58401374  1.04153797  0.69083879  1
  Sc  Sc98  1  0.12496928  0.86726116  0.89939902  1
  Sc  Sc99  1  0.77484915  0.26047247  0.95329092  1
  Nb  Nb100  1  0.81459862  0.78559658  0.00570782  1
  Nb  Nb101  1  0.99358897  0.26108471  1.01136619  1
  Nb  Nb102  1  0.16719074  0.33235398  0.53273212  1
  Nb  Nb103  1  0.01469981  0.86087253  0.10795310  1
  Nb  Nb104  1  0.53066576  0.52835200  0.91604076  1
  Nb  Nb105  1  0.70758981  0.86807974  0.81115834  1
  Nb  Nb106  1  0.71608871  0.49072061  0.00804366  1
  Nb  Nb107  1  0.37396460  0.13474742  0.25470675  1
  Nb  Nb108  1  0.87002644  0.17061642  0.36885152  1
  Nb  Nb109  1  0.26503638  0.03167047  0.42537108  1
  Nb  Nb110  1  0.27143956  0.35429960  0.70120852  1
  Nb  Nb111  1  0.26134657  0.23168482  0.37344337  1
  Nb  Nb112  1  0.46141627  0.02268309  0.07971555  1
  Nb  Nb113  1  0.31923896  0.99308094  0.89293291  1
  Nb  Nb114  1  0.05894549  0.48330999  0.00619238  1
  Nb  Nb115  1  0.75318900  0.54035854  0.19810896  1
  Nb  Nb116  1  0.50267119  0.94286096  0.86235783  1
  Nb  Nb117  1  0.07613046  0.69141120  0.26613177  1
  Nb  Nb118  1  0.52995779  0.84211077  0.18896704  1
  Nb  Nb119  1  0.25584305  0.15003964  0.57712930  1
  Nb  Nb120  1  0.64672979  0.10517825  0.10241238  1
  Nb  Nb121  1  0.19445596  -0.00721687  0.70895978  1
  Nb  Nb122  1  0.89074062  0.85685032  0.62715320  1
  Nb  Nb123  1  0.38389007  0.69500173  0.57226023  1
  Nb  Nb124  1  0.08309995  0.97915179  0.53273370  1
