# generated using pymatgen
data_Zr2Sc2Nb
_symmetry_space_group_name_H-M   'P 1'
_cell_length_a   14.64573513
_cell_length_b   14.47196732
_cell_length_c   13.53402276
_cell_angle_alpha   89.39479692
_cell_angle_beta   90.69063900
_cell_angle_gamma   85.45488391
_symmetry_Int_Tables_number   1
_chemical_formula_structural   Zr2Sc2Nb
_chemical_formula_sum   'Zr50 Sc50 Nb25'
_cell_volume   2859.15172793
_cell_formula_units_Z   25
loop_
 _symmetry_equiv_pos_site_id
 _symmetry_equiv_pos_as_xyz
  1  'x, y, z'
loop_
 _atom_site_type_symbol
 _atom_site_label
 _atom_site_symmetry_multiplicity
 _atom_site_fract_x
 _atom_site_fract_y
 _atom_site_fract_z
 _atom_site_occupancy
  Zr  Zr0  1  0.23099184  0.51162917  0.58400770  1
  Zr  Zr1  1  0.26845985  -0.00658578  0.94263809  1
  Zr  Zr2  1  0.82720525  0.09840503  0.44276883  1
  Zr  Zr3  1  0.81146217  0.38149968  0.73807501  1
  Zr  Zr4  1  0.31600472  0.12766016  0.53478861  1
  Zr  Zr5  1  0.29131851  0.42722000  0.98182651  1
  Zr  Zr6  1  0.47452311  0.05044720  0.44745908  1
  Zr  Zr7  1  0.87026806  0.23442096  0.25126772  1
  Zr  Zr8  1  0.18962143  0.28747186  0.65783935  1
  Zr  Zr9  1  0.56840243  0.57182422  0.32266430  1
  Zr  Zr10  1  0.39909149  0.74311077  0.06354631  1
  Zr  Zr11  1  0.15263582  0.66638611  0.70254171  1
  Zr  Zr12  1  0.88378416  0.44408440  0.51565654  1
  Zr  Zr13  1  0.88507455  0.04241149  0.86788374  1
  Zr  Zr14  1  0.95103357  0.44167699  0.90790528  1
  Zr  Zr15  1  0.56235946  0.86930246  0.53243346  1
  Zr  Zr16  1  0.74678832  0.08342762  0.21747112  1
  Zr  Zr17  1  0.91367819  0.24845507  0.89021090  1
  Zr  Zr18  1  0.85370930  0.95960266  0.09347097  1
  Zr  Zr19  1  0.59052011  0.42698969  0.50971262  1
  Zr  Zr20  1  0.20959769  0.80509821  0.02614759  1
  Zr  Zr21  1  0.17020126  0.53192847  0.35731843  1
  Zr  Zr22  1  0.85021572  0.79696869  0.23365160  1
  Zr  Zr23  1  0.32076803  0.63602304  0.86303549  1
  Zr  Zr24  1  0.96355492  0.78206415  0.62756766  1
  Zr  Zr25  1  0.04370716  0.48363102  0.70489222  1
  Zr  Zr26  1  0.66318636  0.76200342  0.36306122  1
  Zr  Zr27  1  0.48456757  0.24941212  0.48590355  1
  Zr  Zr28  1  0.54499496  0.72738598  0.69877402  1
  Zr  Zr29  1  0.65967735  0.61001360  0.52277463  1
  Zr  Zr30  1  0.13969025  0.99135372  0.37946057  1
  Zr  Zr31  1  0.64939202  0.09146896  0.57101968  1
  Zr  Zr32  1  0.22628424  0.85079132  0.79545091  1
  Zr  Zr33  1  0.95656217  0.12215932  0.08325120  1
  Zr  Zr34  1  0.55031411  0.63712390  0.92787102  1
  Zr  Zr35  1  0.71347739  0.94913223  0.93708945  1
  Zr  Zr36  1  0.30808835  0.22711832  0.87202114  1
  Zr  Zr37  1  0.34485178  0.73655968  0.64455221  1
  Zr  Zr38  1  0.32157261  0.04993914  0.29284900  1
  Zr  Zr39  1  0.37523370  0.66158458  0.26762365  1
  Zr  Zr40  1  0.81512238  0.97686357  0.64915701  1
  Zr  Zr41  1  0.83258537  0.88737226  0.43230206  1
  Zr  Zr42  1  0.04278957  0.86007546  0.17989268  1
  Zr  Zr43  1  0.61794216  0.92951901  0.74511828  1
  Zr  Zr44  1  0.97774134  0.22969273  0.44718237  1
  Zr  Zr45  1  0.48188953  0.12012681  0.68669124  1
  Zr  Zr46  1  -0.00834448  0.63690399  0.27239173  1
  Zr  Zr47  1  0.22459692  0.27448343  0.11742858  1
  Zr  Zr48  1  0.73205653  0.71284870  0.05936899  1
  Zr  Zr49  1  0.41754779  0.82345089  0.85234036  1
  Sc  Sc50  1  0.44892817  0.30288191  0.09296017  1
  Sc  Sc51  1  0.05107716  0.68061305  0.05208683  1
  Sc  Sc52  1  0.63482661  0.52182203  0.73374315  1
  Sc  Sc53  1  0.66496315  0.49846127  0.11303907  1
  Sc  Sc54  1  0.27071574  0.05773501  0.73454631  1
  Sc  Sc55  1  0.74502225  0.78629510  0.61519778  1
  Sc  Sc56  1  0.50839799  0.37067628  0.29802889  1
  Sc  Sc57  1  0.68220767  0.35072246  0.91580377  1
  Sc  Sc58  1  0.73405587  0.40291883  0.33350673  1
  Sc  Sc59  1  0.65128233  0.98448411  0.36679220  1
  Sc  Sc60  1  0.17934072  0.00606588  0.14367351  1
  Sc  Sc61  1  0.47597942  0.85154227  0.30736765  1
  Sc  Sc62  1  0.47070523  0.01801792  0.88708712  1
  Sc  Sc63  1  1.04187819  0.80410722  0.39716724  1
  Sc  Sc64  1  0.46045885  0.52866194  0.09402149  1
  Sc  Sc65  1  0.39585205  0.51933244  0.43858282  1
  Sc  Sc66  1  0.71584746  0.15140960  0.77655904  1
  Sc  Sc67  1  0.43653159  0.54025657  0.66078907  1
  Sc  Sc68  1  0.76790386  0.27946963  0.55433388  1
  Sc  Sc69  1  0.46955228  0.43617074  0.86776600  1
  Sc  Sc70  1  0.03098862  0.95561005  0.73010403  1
  Sc  Sc71  1  0.16221077  0.87319847  0.58253495  1
  Sc  Sc72  1  0.65117041  0.89615325  0.16404202  1
  Sc  Sc73  1  0.75443555  0.16037497  1.00451972  1
  Sc  Sc74  1  0.59512080  0.31252645  0.69583080  1
  Sc  Sc75  1  0.36550254  0.12844385  0.07353977  1
  Sc  Sc76  1  0.75871480  0.53431462  0.91470643  1
  Sc  Sc77  1  0.93053613  0.64399332  0.85164510  1
  Sc  Sc78  1  0.12971014  0.34628980  0.29095282  1
  Sc  Sc79  1  0.52640092  0.21589644  0.89830474  1
  Sc  Sc80  1  0.12460678  0.33717064  0.88302574  1
  Sc  Sc81  1  0.10348470  0.11233618  0.58481850  1
  Sc  Sc82  1  0.28984140  0.34992783  0.45943015  1
  Sc  Sc83  1  0.24263616  0.70485857  0.44767336  1
  Sc  Sc84  1  0.71708670  0.73683908  0.83640787  1
  Sc  Sc85  1  0.85335830  0.67293990  0.45238316  1
  Sc  Sc86  1  0.08159102  0.13926216  0.80608756  1
  Sc  Sc87  1  0.05164713  0.95011847  0.96363048  1
  Sc  Sc88  1  0.77119617  0.60025626  0.26958682  1
  Sc  Sc89  1  0.03737283  0.59970613  0.51107793  1
  Sc  Sc90  1  0.65074664  0.27834563  0.14812602  1
  Sc  Sc91  1  0.10928326  0.48632797  0.11588862  1
  Sc  Sc92  1  0.31224253  0.44881980  0.22344063  1
  Sc  Sc93  1  0.43081011  0.93666111  0.10924509  1
  Sc  Sc94  1  0.65519918  0.21502175  0.37394257  1
  Sc  Sc95  1  0.38949071  0.32516764  0.67540801  1
  Sc  Sc96  1  0.83401582  0.58893807  0.67331813  1
  Sc  Sc97  1  0.94126862  0.43069576  0.28770533  1
  Sc  Sc98  1  0.33774198  0.89319016  0.46722875  1
  Sc  Sc99  1  0.89418529  0.55573312  0.08905922  1
  Nb  Nb100  1  0.18233213  0.19186501  0.40717873  1
  Nb  Nb101  1  0.97937508  0.98425556  0.51355198  1
  Nb  Nb102  1  0.87090931  0.85206198  0.80822672  1
  Nb  Nb103  1  -0.01286286  0.30370053  0.67481246  1
  Nb  Nb104  1  0.35136352  0.23614514  0.29464959  1
  Nb  Nb105  1  0.58093501  0.07699241  0.06642060  1
  Nb  Nb106  1  0.95070906  0.01632107  0.29309965  1
  Nb  Nb107  1  0.08055181  0.16150818  0.23978430  1
  Nb  Nb108  1  0.51598345  0.13073102  0.24530254  1
  Nb  Nb109  1  0.25851036  0.45748172  0.77734481  1
  Nb  Nb110  1  0.13161510  0.56258682  0.89530595  1
  Nb  Nb111  1  0.25985455  0.60769810  0.07040261  1
  Nb  Nb112  1  0.83024119  0.35671558  0.07700344  1
  Nb  Nb113  1  0.56850397  0.70486644  0.16307546  1
  Nb  Nb114  1  1.01377394  0.31260781  0.09243503  1
  Nb  Nb115  1  0.47292346  0.70180745  0.47808620  1
  Nb  Nb116  1  0.13573729  0.15598118  1.00429459  1
  Nb  Nb117  1  0.08226144  0.38451439  0.50026801  1
  Nb  Nb118  1  0.41766471  0.93039751  0.66486254  1
  Nb  Nb119  1  0.90485264  0.14490317  0.66143492  1
  Nb  Nb120  1  0.57098010  0.83492245  0.97355056  1
  Nb  Nb121  1  0.17454510  0.69183749  0.22881834  1
  Nb  Nb122  1  0.26723711  0.84467065  0.25252519  1
  Nb  Nb123  1  0.06342972  0.77382614  0.85249166  1
  Nb  Nb124  1  0.89365348  0.79830410  -0.00199933  1
