# generated using pymatgen
data_Zr2Sc2Nb
_symmetry_space_group_name_H-M   'P 1'
_cell_length_a   14.64237719
_cell_length_b   13.99244718
_cell_length_c   13.95871846
_cell_angle_alpha   92.33318461
_cell_angle_beta   89.86907363
_cell_angle_gamma   91.51840670
_symmetry_Int_Tables_number   1
_chemical_formula_structural   Zr2Sc2Nb
_chemical_formula_sum   'Zr50 Sc50 Nb25'
_cell_volume   2856.52341292
_cell_formula_units_Z   25
loop_
 _symmetry_equiv_pos_site_id
 _symmetry_equiv_pos_as_xyz
  1  'x, y, z'
loop_
 _atom_site_type_symbol
 _atom_site_label
 _atom_site_symmetry_multiplicity
 _atom_site_fract_x
 _atom_site_fract_y
 _atom_site_fract_z
 _atom_site_occupancy
  Zr  Zr0  1  0.02922991  0.32296069  0.07068128  1
  Zr  Zr1  1  0.84347682  0.09512049  0.18919929  1
  Zr  Zr2  1  0.20942653  0.83010594  0.30810580  1
  Zr  Zr3  1  0.51627753  0.90427308  0.49670467  1
  Zr  Zr4  1  0.87506056  0.69313670  0.92275303  1
  Zr  Zr5  1  0.73434506  0.18316680  1.02102689  1
  Zr  Zr6  1  0.11341112  0.52297905  0.05041823  1
  Zr  Zr7  1  0.39949477  0.89127155  0.31714626  1
  Zr  Zr8  1  0.21744167  0.06607603  0.79932568  1
  Zr  Zr9  1  0.61289555  0.37511397  0.15252054  1
  Zr  Zr10  1  0.74963963  0.44143807  0.32974023  1
  Zr  Zr11  1  0.07208338  0.41656581  0.86553561  1
  Zr  Zr12  1  0.54841125  0.10445790  0.55078442  1
  Zr  Zr13  1  0.90974077  0.89358094  0.88210815  1
  Zr  Zr14  1  0.26267932  0.06100537  0.25208729  1
  Zr  Zr15  1  0.61049888  0.94053811  0.71076558  1
  Zr  Zr16  1  0.36188376  0.29092652  0.25718195  1
  Zr  Zr17  1  0.92441377  0.10556113  0.98818439  1
  Zr  Zr18  1  0.26304076  0.19425522  0.43182791  1
  Zr  Zr19  1  0.44771491  0.71862141  0.19501898  1
  Zr  Zr20  1  0.42271879  0.16270437  0.11087876  1
  Zr  Zr21  1  0.77101143  0.48310145  0.57669145  1
  Zr  Zr22  1  0.31073970  0.80120744  0.49945629  1
  Zr  Zr23  1  0.70463567  0.82567556  0.86795700  1
  Zr  Zr24  1  0.01833466  0.46963435  0.62630719  1
  Zr  Zr25  1  0.55303127  0.23494952  0.96844096  1
  Zr  Zr26  1  0.85724694  0.79180193  0.48882829  1
  Zr  Zr27  1  0.05093465  0.20288946  0.46109947  1
  Zr  Zr28  1  0.43837945  0.28217819  0.48287773  1
  Zr  Zr29  1  0.15886933  0.26379379  0.25768693  1
  Zr  Zr30  1  0.87554695  0.49628792  0.79494557  1
  Zr  Zr31  1  0.85272632  0.11819685  0.42419590  1
  Zr  Zr32  1  0.16600924  0.58458996  0.52089242  1
  Zr  Zr33  1  0.21623178  0.51528571  0.72507405  1
  Zr  Zr34  1  0.36379825  0.24216683  0.88682361  1
  Zr  Zr35  1  0.60864852  0.11793837  0.16332115  1
  Zr  Zr36  1  0.18642526  0.91123865  0.11053733  1
  Zr  Zr37  1  0.54300769  0.12730314  0.76977430  1
  Zr  Zr38  1  0.40781402  0.04026104  0.89577742  1
  Zr  Zr39  1  0.20321583  0.35597827  0.56639075  1
  Zr  Zr40  1  0.00611761  0.82344456  0.31810363  1
  Zr  Zr41  1  0.19874180  0.69675273  0.14022150  1
  Zr  Zr42  1  0.95986089  0.47848440  0.22728039  1
  Zr  Zr43  1  0.09245156  0.41600381  0.39322359  1
  Zr  Zr44  1  0.40897212  0.94853296  0.10027829  1
  Zr  Zr45  1  0.83650016  0.67377431  0.29787650  1
  Zr  Zr46  1  0.25398666  0.87060727  0.87130774  1
  Zr  Zr47  1  0.82233094  0.32063887  0.66278223  1
  Zr  Zr48  1  0.71574641  0.62078966  0.45979924  1
  Zr  Zr49  1  0.06613225  0.86572930  0.74572664  1
  Sc  Sc50  1  0.39220567  0.39717267  0.69839230  1
  Sc  Sc51  1  0.65894284  0.80304936  0.36326673  1
  Sc  Sc52  1  0.89273123  0.29561721  0.88863245  1
  Sc  Sc53  1  0.73932412  0.74823758  0.11424248  1
  Sc  Sc54  1  0.95643255  0.25619461  0.27037212  1
  Sc  Sc55  1  0.05411690  0.62442834  0.81651215  1
  Sc  Sc56  1  0.65196520  0.77002582  0.59714653  1
  Sc  Sc57  1  0.82880035  0.33905054  0.12146269  1
  Sc  Sc58  1  0.52129022  0.43923974  0.87419665  1
  Sc  Sc59  1  0.96697421  0.91698188  0.11034575  1
  Sc  Sc60  1  0.56716876  0.55500482  0.62491647  1
  Sc  Sc61  1  0.03038338  0.04313294  0.29439204  1
  Sc  Sc62  1  0.30201307  0.62842316  0.33079341  1
  Sc  Sc63  1  0.65215257  0.05979752  0.36566583  1
  Sc  Sc64  1  0.76933736  0.54276055  0.12809880  1
  Sc  Sc65  1  0.28369454  0.44547440  0.92048127  1
  Sc  Sc66  1  0.58503573  0.32503133  0.65108908  1
  Sc  Sc67  1  0.46897334  0.84667870  0.84938524  1
  Sc  Sc68  1  0.96717625  0.68150845  0.12845962  1
  Sc  Sc69  1  0.09377289  0.62329985  0.31068976  1
  Sc  Sc70  1  0.68872052  0.26891918  0.47865564  1
  Sc  Sc71  1  0.36134717  0.16942586  0.66084396  1
  Sc  Sc72  1  0.82145558  0.91572684  0.30103274  1
  Sc  Sc73  1  0.75708817  0.04307943  0.84208337  1
  Sc  Sc74  1  0.20946471  0.29267435  0.76913756  1
  Sc  Sc75  1  0.36319621  0.55319879  0.55079692  1
  Sc  Sc76  1  0.54980954  0.45764390  0.42310175  1
  Sc  Sc77  1  0.44807102  0.74684923  0.65438367  1
  Sc  Sc78  1  0.69963072  0.25914773  0.81616950  1
  Sc  Sc79  1  0.41783996  0.38081546  0.06672765  1
  Sc  Sc80  1  0.97357781  0.06558196  0.75963911  1
  Sc  Sc81  1  0.75720711  0.95085772  0.04972173  1
  Sc  Sc82  1  0.09207407  0.78698571  0.51494764  1
  Sc  Sc83  1  0.96738390  0.97949349  0.54475790  1
  Sc  Sc84  1  0.07883715  0.77945596  0.96883145  1
  Sc  Sc85  1  0.24956333  0.09133751  0.01897848  1
  Sc  Sc86  1  0.15467821  0.12232740  0.61465029  1
  Sc  Sc87  1  0.49008034  0.67995896  0.42490463  1
  Sc  Sc88  1  0.01465363  0.26836170  0.68821469  1
  Sc  Sc89  1  0.76443616  0.11074913  0.63880530  1
  Sc  Sc90  1  0.95091667  0.69271854  0.65295768  1
  Sc  Sc91  1  0.93802001  0.57511711  0.45179141  1
  Sc  Sc92  1  0.61771681  0.60408806  0.25525514  1
  Sc  Sc93  1  0.55606548  0.77061344  0.01408579  1
  Sc  Sc94  1  0.89457394  0.34542270  0.45606577  1
  Sc  Sc95  1  0.58772670  0.90963280  0.19809001  1
  Sc  Sc96  1  0.15870643  0.98492355  0.44168184  1
  Sc  Sc97  1  0.76593546  0.66660760  0.72185099  1
  Sc  Sc98  1  0.40385685  0.62148477  0.85677022  1
  Sc  Sc99  1  0.23496521  0.72464679  0.70055387  1
  Nb  Nb100  1  0.44085629  0.49110996  0.24804450  1
  Nb  Nb101  1  0.71105171  0.40969141  0.96458222  1
  Nb  Nb102  1  0.22415486  0.92902655  0.63797934  1
  Nb  Nb103  1  0.70260055  0.60289837  0.93597383  1
  Nb  Nb104  1  0.58512683  0.66837862  0.80754232  1
  Nb  Nb105  1  0.54746404  0.56292890  0.05315954  1
  Nb  Nb106  1  0.55247964  0.26902913  0.30757858  1
  Nb  Nb107  1  0.22214748  0.64553910  0.92052951  1
  Nb  Nb108  1  0.22296757  0.29581234  0.05277361  1
  Nb  Nb109  1  0.29336249  0.42314931  0.39360587  1
  Nb  Nb110  1  1.07939505  0.12418365  0.11397171  1
  Nb  Nb111  1  0.22957481  0.45809663  0.20028753  1
  Nb  Nb112  1  0.58422472  0.00785744  0.96643318  1
  Nb  Nb113  1  0.74416192  0.23956344  0.27912525  1
  Nb  Nb114  1  0.73446650  0.94760258  0.51712245  1
  Nb  Nb115  1  0.34686629  0.57534441  0.08154243  1
  Nb  Nb116  1  0.34476743  0.77099622  0.01942621  1
  Nb  Nb117  1  0.82855614  0.88635434  0.68685838  1
  Nb  Nb118  1  0.45232100  0.09526746  0.32995687  1
  Nb  Nb119  1  0.91146235  0.49959362  -0.00530324  1
  Nb  Nb120  1  0.68852346  0.47226266  0.77144564  1
  Nb  Nb121  1  0.09460529  0.19763207  0.90934535  1
  Nb  Nb122  1  0.35131673  0.02397022  0.49094889  1
  Nb  Nb123  1  0.40147147  0.96098973  0.67982055  1
  Nb  Nb124  1  0.08465305  0.99067108  0.93754909  1
