# generated using pymatgen
data_Zr2Sc2Nb
_symmetry_space_group_name_H-M   'P 1'
_cell_length_a   14.40820723
_cell_length_b   14.08129644
_cell_length_c   14.13761933
_cell_angle_alpha   87.47132676
_cell_angle_beta   92.69976090
_cell_angle_gamma   88.43110839
_symmetry_Int_Tables_number   1
_chemical_formula_structural   Zr2Sc2Nb
_chemical_formula_sum   'Zr50 Sc50 Nb25'
_cell_volume   2861.10754687
_cell_formula_units_Z   25
loop_
 _symmetry_equiv_pos_site_id
 _symmetry_equiv_pos_as_xyz
  1  'x, y, z'
loop_
 _atom_site_type_symbol
 _atom_site_label
 _atom_site_symmetry_multiplicity
 _atom_site_fract_x
 _atom_site_fract_y
 _atom_site_fract_z
 _atom_site_occupancy
  Zr  Zr0  1  0.79971904  0.83144828  0.45915839  1
  Zr  Zr1  1  0.35452384  0.96902175  0.20121759  1
  Zr  Zr2  1  0.36684467  0.29401498  0.88945982  1
  Zr  Zr3  1  0.73841521  0.60588630  0.17090191  1
  Zr  Zr4  1  0.96082524  0.42046677  0.76744442  1
  Zr  Zr5  1  0.10426356  0.45865432  0.38701291  1
  Zr  Zr6  1  0.86362089  0.15212406  0.31198434  1
  Zr  Zr7  1  0.72571952  0.25407617  0.44342170  1
  Zr  Zr8  1  0.80714771  0.58528775  0.76857595  1
  Zr  Zr9  1  0.96304538  -0.00329535  0.15051007  1
  Zr  Zr10  1  0.41499958  0.35158244  0.17347224  1
  Zr  Zr11  1  0.31961413  0.68664211  0.34570208  1
  Zr  Zr12  1  0.15387332  0.60654886  0.23928339  1
  Zr  Zr13  1  0.09167213  0.78139509  0.57504753  1
  Zr  Zr14  1  0.15216323  0.23709399  0.41480739  1
  Zr  Zr15  1  0.43251449  0.86571355  0.81670657  1
  Zr  Zr16  1  0.47746470  0.19697547  0.71182737  1
  Zr  Zr17  1  0.66118524  0.50769636  0.92561386  1
  Zr  Zr18  1  0.55369469  0.26994099  0.02055340  1
  Zr  Zr19  1  0.85837398  0.84282986  0.06941820  1
  Zr  Zr20  1  0.96880793  0.68702638  0.90537329  1
  Zr  Zr21  1  0.42258031  0.86966536  0.38022541  1
  Zr  Zr22  1  0.15416692  0.98627311  0.51773285  1
  Zr  Zr23  1  0.55076089  -0.00026443  0.71294810  1
  Zr  Zr24  1  0.11457116  0.08513831  0.71608163  1
  Zr  Zr25  1  0.73592416  0.60563265  0.39335278  1
  Zr  Zr26  1  0.21723050  0.37685672  0.24112012  1
  Zr  Zr27  1  0.95647030  0.93173524  0.58871775  1
  Zr  Zr28  1  -0.01445699  0.31399253  -0.00251477  1
  Zr  Zr29  1  0.43848886  0.35250291  0.56993386  1
  Zr  Zr30  1  0.00969374  0.49958626  0.56995444  1
  Zr  Zr31  1  0.85142394  0.26046620  0.62999485  1
  Zr  Zr32  1  0.16494394  0.99146411  0.12812119  1
  Zr  Zr33  1  0.46284010  0.75952972  0.19058679  1
  Zr  Zr34  1  0.86395000  0.75058564  0.27420842  1
  Zr  Zr35  1  0.24268873  0.38968762  0.54149076  1
  Zr  Zr36  1  0.04969534  0.46260323  0.12375881  1
  Zr  Zr37  1  0.97285217  0.91492399  0.37581277  1
  Zr  Zr38  1  0.32768615  0.07161404  0.78431824  1
  Zr  Zr39  1  0.40425138  0.57542201  0.56932000  1
  Zr  Zr40  1  0.64627984  0.77877953  0.30353809  1
  Zr  Zr41  1  0.65168562  0.94497112  0.89694387  1
  Zr  Zr42  1  0.18123010  0.45010102  0.73549322  1
  Zr  Zr43  1  0.04774779  0.87972372  0.78782489  1
  Zr  Zr44  1  0.36296276  0.26235227  0.38202124  1
  Zr  Zr45  1  0.79399773  0.47309802  0.57075033  1
  Zr  Zr46  1  0.29690185  0.15757636  0.56316440  1
  Zr  Zr47  1  0.50173341  0.10464734  0.91190922  1
  Zr  Zr48  1  0.83443212  0.05086915  0.96327268  1
  Zr  Zr49  1  1.01485639  0.29374673  0.25056199  1
  Sc  Sc50  1  0.55986255  0.35871001  0.82150189  1
  Sc  Sc51  1  0.60058830  0.52651549  0.68214755  1
  Sc  Sc52  1  0.36263322  0.47855521  0.37261364  1
  Sc  Sc53  1  0.27681918  0.54745895  0.89874820  1
  Sc  Sc54  1  0.58719303  0.46065473  0.46445470  1
  Sc  Sc55  1  0.89410751  0.75050129  0.68008854  1
  Sc  Sc56  1  0.24705819  0.78826808  0.12321405  1
  Sc  Sc57  1  0.91892135  0.34821458  0.43380585  1
  Sc  Sc58  1  0.64366653  0.31453100  0.62885241  1
  Sc  Sc59  1  0.23828107  0.93275934  0.92662417  1
  Sc  Sc60  1  0.87698657  0.05284387  0.72680592  1
  Sc  Sc61  1  0.69010941  0.16562030  0.81117340  1
  Sc  Sc62  1  0.39573917  0.97558189  0.56781318  1
  Sc  Sc63  1  0.06869813  0.63139614  0.73070552  1
  Sc  Sc64  1  0.73373246  0.90405911  0.65902320  1
  Sc  Sc65  1  0.29282782  0.67846190  0.71468094  1
  Sc  Sc66  1  0.84087407  0.39030276  0.15593725  1
  Sc  Sc67  1  0.19922470  0.59943785  0.52768847  1
  Sc  Sc68  1  0.75534450  0.28988891  -0.01930546  1
  Sc  Sc69  1  0.37494645  0.72546475  0.97555255  1
  Sc  Sc70  1  0.60194037  0.94124083  0.48015498  1
  Sc  Sc71  1  0.07311402  0.28701962  0.62872260  1
  Sc  Sc72  1  0.64265374  0.75289336  0.79853583  1
  Sc  Sc73  1  0.48377596  0.14631169  0.16952790  1
  Sc  Sc74  1  0.69986936  0.69142911  0.58557599  1
  Sc  Sc75  1  0.87316714  0.49500939  0.96264039  1
  Sc  Sc76  1  0.33969876  0.56736542  0.13928582  1
  Sc  Sc77  1  0.65164133  0.83046653  0.09265113  1
  Sc  Sc78  1  0.22664713  0.37140355  0.03040347  1
  Sc  Sc79  1  0.48566067  0.77638014  0.63139616  1
  Sc  Sc80  1  0.84608254  0.86520058  0.85428109  1
  Sc  Sc81  1  0.52336351  0.68447035  0.44193014  1
  Sc  Sc82  1  0.45509316  0.47086630  0.98391918  1
  Sc  Sc83  1  0.08201691  0.08271570  0.29994543  1
  Sc  Sc84  1  0.77659306  0.96176096  0.25212809  1
  Sc  Sc85  1  0.92173745  0.53678523  0.30516927  1
  Sc  Sc86  1  0.75945830  0.68706250  -0.02912455  1
  Sc  Sc87  1  0.05842901  0.70053023  0.38557353  1
  Sc  Sc88  1  0.48104773  0.62300282  0.82461956  1
  Sc  Sc89  1  0.46308581  0.92707586  0.02616658  1
  Sc  Sc90  1  0.04553393  0.06822093  0.94527604  1
  Sc  Sc91  1  0.18890127  0.86601124  0.33075698  1
  Sc  Sc92  1  0.62018737  0.43007294  0.13282192  1
  Sc  Sc93  1  0.66775098  0.07024087  0.08490820  1
  Sc  Sc94  1  0.23889982  0.89001360  0.70306129  1
  Sc  Sc95  1  0.53706813  0.55676375  0.26561041  1
  Sc  Sc96  1  0.30323762  0.12851786  1.01597643  1
  Sc  Sc97  1  0.98342458  0.13251752  0.50796244  1
  Sc  Sc98  1  0.90909456  0.22021447  0.83661965  1
  Sc  Sc99  1  0.13907499  0.25725657  0.86464802  1
  Nb  Nb100  1  0.94966436  0.64571289  0.10937305  1
  Nb  Nb101  1  0.55899593  0.95313399  0.24006103  1
  Nb  Nb102  1  0.38261590  0.45030109  0.73855371  1
  Nb  Nb103  1  0.17803032  0.73863309  0.87971906  1
  Nb  Nb104  1  0.04707332  0.79805038  0.18686749  1
  Nb  Nb105  1  0.27702074  0.26858866  0.71363306  1
  Nb  Nb106  1  0.56165647  0.64200528  0.05083520  1
  Nb  Nb107  1  0.27338311  0.17471379  0.22201103  1
  Nb  Nb108  1  0.11119721  0.19826977  0.10851275  1
  Nb  Nb109  1  0.52785548  0.16462048  0.51243832  1
  Nb  Nb110  1  0.88714879  0.17639204  0.11370174  1
  Nb  Nb111  1  0.72990066  0.41888037  0.32007159  1
  Nb  Nb112  1  0.07841884  0.50078282  0.91349623  1
  Nb  Nb113  1  0.80329895  0.03559463  0.47578255  1
  Nb  Nb114  1  0.13872268  0.63813244  1.03945670  1
  Nb  Nb115  1  0.55182160  0.29748221  0.32783850  1
  Nb  Nb116  1  0.64761670  0.10184034  0.34332067  1
  Nb  Nb117  1  0.76600540  0.38677478  0.78279432  1
  Nb  Nb118  1  0.27640985  0.04702799  0.38238604  1
  Nb  Nb119  1  0.69503859  0.24001011  0.20420418  1
  Nb  Nb120  1  0.45451233  0.08167683  0.36219554  1
  Nb  Nb121  1  0.05144125  0.84669379  1.00083914  1
  Nb  Nb122  1  0.90526973  0.65966015  0.50039108  1
  Nb  Nb123  1  0.29221887  0.79284088  0.51755921  1
  Nb  Nb124  1  0.69274188  0.10972448  0.60255144  1
