# generated using pymatgen
data_Zr2Sc2Nb
_symmetry_space_group_name_H-M   'P 1'
_cell_length_a   14.07987995
_cell_length_b   14.54431041
_cell_length_c   14.08728859
_cell_angle_alpha   89.82725157
_cell_angle_beta   87.00270770
_cell_angle_gamma   86.63158104
_symmetry_Int_Tables_number   1
_chemical_formula_structural   Zr2Sc2Nb
_chemical_formula_sum   'Zr50 Sc50 Nb25'
_cell_volume   2875.90163625
_cell_formula_units_Z   25
loop_
 _symmetry_equiv_pos_site_id
 _symmetry_equiv_pos_as_xyz
  1  'x, y, z'
loop_
 _atom_site_type_symbol
 _atom_site_label
 _atom_site_symmetry_multiplicity
 _atom_site_fract_x
 _atom_site_fract_y
 _atom_site_fract_z
 _atom_site_occupancy
  Zr  Zr0  1  0.18212858  0.48072898  0.45080862  1
  Zr  Zr1  1  0.73278774  0.96749099  0.72770999  1
  Zr  Zr2  1  0.32969378  0.70397077  0.09178795  1
  Zr  Zr3  1  0.37389944  0.03325080  0.47261222  1
  Zr  Zr4  1  0.63766672  0.64922386  0.36562091  1
  Zr  Zr5  1  0.27744561  0.66236260  0.51143894  1
  Zr  Zr6  1  0.04092129  0.82750356  0.90803562  1
  Zr  Zr7  1  0.67121741  0.25865066  0.38210982  1
  Zr  Zr8  1  0.53858638  0.74352021  0.03454289  1
  Zr  Zr9  1  0.23231540  0.23812417  0.94464281  1
  Zr  Zr10  1  0.84994054  0.73589309  0.85886467  1
  Zr  Zr11  1  0.17723571  -0.00215659  0.37978458  1
  Zr  Zr12  1  0.44639555  0.30568068  0.66238727  1
  Zr  Zr13  1  0.12854924  0.41077268  0.07316268  1
  Zr  Zr14  1  0.11772361  0.20750252  0.11861303  1
  Zr  Zr15  1  0.66914811  0.06768966  0.91667657  1
  Zr  Zr16  1  0.62634841  0.01986124  0.36480827  1
  Zr  Zr17  1  0.25076785  0.62752184  0.28899035  1
  Zr  Zr18  1  0.26995686  0.06858050  0.10842164  1
  Zr  Zr19  1  0.67636676  0.46863075  0.48008899  1
  Zr  Zr20  1  0.48906838  0.54057803  0.00193441  1
  Zr  Zr21  1  0.53595163  0.64115731  0.81753201  1
  Zr  Zr22  1  0.50373226  -0.02276806  0.85859289  1
  Zr  Zr23  1  0.38132683  0.94593807  0.68684832  1
  Zr  Zr24  1  0.78532950  0.47237324  0.30116118  1
  Zr  Zr25  1  0.07886740  0.76657171  0.20132875  1
  Zr  Zr26  1  0.85822684  0.31510204  0.44794601  1
  Zr  Zr27  1  0.07397097  0.69288565  0.59229357  1
  Zr  Zr28  1  0.46443517  0.11903554  0.03335454  1
  Zr  Zr29  1  -0.03439074  0.83201753  0.71629586  1
  Zr  Zr30  1  0.03371414  0.14866607  0.30253306  1
  Zr  Zr31  1  0.16470434  0.11326338  0.55674507  1
  Zr  Zr32  1  0.55963939  0.12249339  0.72078103  1
  Zr  Zr33  1  0.97210768  0.94101417  0.33115740  1
  Zr  Zr34  1  0.66434031  0.31481209  0.62458988  1
  Zr  Zr35  1  0.04439664  0.92363421  0.54787428  1
  Zr  Zr36  1  0.29639240  1.03720138  0.88960135  1
  Zr  Zr37  1  0.72015112  0.43728263  1.02837198  1
  Zr  Zr38  1  0.81324887  0.10127434  0.32015934  1
  Zr  Zr39  1  0.94509025  0.90251780  0.10342471  1
  Zr  Zr40  1  0.18121660  0.53682912  0.69292248  1
  Zr  Zr41  1  0.58381875  0.97326337  0.57193823  1
  Zr  Zr42  1  0.84826455  0.94091009  0.91519621  1
  Zr  Zr43  1  0.01724958  0.40265262  0.76324566  1
  Zr  Zr44  1  0.17122245  0.37066730  0.27410963  1
  Zr  Zr45  1  0.70036380  0.24500951  0.97776304  1
  Zr  Zr46  1  0.40673382  0.90834904  0.05150583  1
  Zr  Zr47  1  0.68116725  0.81493898  0.46474102  1
  Zr  Zr48  1  0.83391917  0.59714505  0.50052909  1
  Zr  Zr49  1  0.25495831  0.87570195  0.55183627  1
  Sc  Sc50  1  0.56530735  0.81616852  0.71053339  1
  Sc  Sc51  1  0.31724447  0.14808789  0.69236753  1
  Sc  Sc52  1  0.43954981  0.01235264  0.24744189  1
  Sc  Sc53  1  0.32720657  0.28259184  0.13692397  1
  Sc  Sc54  1  0.76068340  1.01973057  0.11820672  1
  Sc  Sc55  1  0.93952060  0.25210838  0.64834453  1
  Sc  Sc56  1  0.51955796  0.16686085  0.51048226  1
  Sc  Sc57  1  0.74128394  0.13060939  0.55240726  1
  Sc  Sc58  1  0.14826245  0.79708544  0.39399172  1
  Sc  Sc59  1  0.69724558  0.62182220  0.15960876  1
  Sc  Sc60  1  0.89061785  0.15381245  0.89040225  1
  Sc  Sc61  1  0.46641837  0.79845133  0.52699224  1
  Sc  Sc62  1  0.34400907  0.46200859  0.57676967  1
  Sc  Sc63  1  0.47354327  0.60666384  0.21941554  1
  Sc  Sc64  1  0.51887235  0.34398455  0.07753023  1
  Sc  Sc65  1  0.45872250  0.23061116  0.31515264  1
  Sc  Sc66  1  0.20916592  0.76858508  0.73968027  1
  Sc  Sc67  1  0.38763142  0.80375839  0.86379569  1
  Sc  Sc68  1  0.95427371  0.10448381  0.48836291  1
  Sc  Sc69  1  0.36802911  0.43568341  0.32804413  1
  Sc  Sc70  1  0.26699286  -0.12444199  0.22067447  1
  Sc  Sc71  1  0.76465031  0.29173845  0.18085035  1
  Sc  Sc72  1  0.20014498  0.86791745  0.01581108  1
  Sc  Sc73  1  0.90816957  0.50123010  0.12382441  1
  Sc  Sc74  1  0.39241538  0.77252383  0.34597416  1
  Sc  Sc75  1  0.70399365  0.62707326  0.95212664  1
  Sc  Sc76  1  0.07522267  0.04536648  0.96311818  1
  Sc  Sc77  1  0.58605694  0.42924848  0.26843941  1
  Sc  Sc78  1  0.95785347  0.32409199  -0.01659323  1
  Sc  Sc79  1  0.77649993  0.76491589  0.65531104  1
  Sc  Sc80  1  0.88007054  0.66774332  0.27766954  1
  Sc  Sc81  1  0.25419634  0.16894448  0.31616212  1
  Sc  Sc82  1  0.92790411  0.69540611  0.05288413  1
  Sc  Sc83  1  0.91301780  0.78248528  0.46698675  1
  Sc  Sc84  1  0.29056888  0.62053618  0.88838109  1
  Sc  Sc85  1  0.07875600  0.28829456  0.45147309  1
  Sc  Sc86  1  0.72803488  0.56079321  0.74587307  1
  Sc  Sc87  1  0.45547484  0.24803018  0.87405708  1
  Sc  Sc88  1  0.92196433  0.13442226  0.11410717  1
  Sc  Sc89  1  0.58002003  0.82494568  0.23664099  1
  Sc  Sc90  1  0.10402402  0.19042821  0.78392793  1
  Sc  Sc91  1  0.13410853  0.62933053  1.03352526  1
  Sc  Sc92  1  0.60365366  0.39887844  0.83723107  1
  Sc  Sc93  1  0.60917886  0.15245518  0.17796312  1
  Sc  Sc94  1  0.92777170  1.04586262  0.70278929  1
  Sc  Sc95  1  0.40052656  0.47975855  0.78732087  1
  Sc  Sc96  1  0.14705042  0.97597560  0.74232755  1
  Sc  Sc97  1  0.78498764  0.87168493  0.28011484  1
  Sc  Sc98  1  0.90614663  0.52438927  0.90578104  1
  Sc  Sc99  1  0.96296174  0.33056171  0.22637876  1
  Nb  Nb100  1  0.40034014  0.65992554  0.66997792  1
  Nb  Nb101  1  0.59260152  0.94850848  0.06497644  1
  Nb  Nb102  1  0.82940262  0.42724019  0.63085374  1
  Nb  Nb103  1  0.97344948  0.46895604  0.37022123  1
  Nb  Nb104  1  0.61437401  0.65238724  0.58423400  1
  Nb  Nb105  1  1.01213757  0.47237565  0.56419014  1
  Nb  Nb106  1  0.81401900  0.95205596  0.51159114  1
  Nb  Nb107  1  0.81263903  0.35742030  0.82187832  1
  Nb  Nb108  1  0.26193108  0.34181413  0.77504564  1
  Nb  Nb109  1  0.74749452  0.81129253  0.06810132  1
  Nb  Nb110  1  0.31561825  0.26891306  0.48995220  1
  Nb  Nb111  1  0.29909554  0.50462445  0.12894471  1
  Nb  Nb112  1  0.50729339  0.37059441  0.47022723  1
  Nb  Nb113  1  0.33223487  0.41170910  0.96535522  1
  Nb  Nb114  1  0.05958932  0.64401597  0.82975403  1
  Nb  Nb115  1  0.65956232  0.83642066  0.89147146  1
  Nb  Nb116  1  0.09676474  -0.00450927  0.17599279  1
  Nb  Nb117  1  0.74358103  0.19357887  0.76020743  1
  Nb  Nb118  1  0.08242794  0.55233574  0.22284055  1
  Nb  Nb119  1  0.47011477  0.58083768  0.45642213  1
  Nb  Nb120  1  0.15075193  0.46481883  0.88949701  1
  Nb  Nb121  1  0.17037551  0.32731956  0.61967698  1
  Nb  Nb122  1  0.05066446  0.63059916  0.40411535  1
  Nb  Nb123  1  0.54664969  0.49473361  0.64175069  1
  Nb  Nb124  1  0.92901148  0.60066123  0.69771672  1
