# generated using pymatgen
data_Zr2Sc2Nb
_symmetry_space_group_name_H-M   'P 1'
_cell_length_a   13.51830451
_cell_length_b   14.79012174
_cell_length_c   14.33181825
_cell_angle_alpha   88.99057516
_cell_angle_beta   93.46152998
_cell_angle_gamma   90.05372753
_symmetry_Int_Tables_number   1
_chemical_formula_structural   Zr2Sc2Nb
_chemical_formula_sum   'Zr50 Sc50 Nb25'
_cell_volume   2859.79427785
_cell_formula_units_Z   25
loop_
 _symmetry_equiv_pos_site_id
 _symmetry_equiv_pos_as_xyz
  1  'x, y, z'
loop_
 _atom_site_type_symbol
 _atom_site_label
 _atom_site_symmetry_multiplicity
 _atom_site_fract_x
 _atom_site_fract_y
 _atom_site_fract_z
 _atom_site_occupancy
  Zr  Zr0  1  0.07503890  0.78780304  0.80779254  1
  Zr  Zr1  1  0.47801657  0.61099993  0.18413162  1
  Zr  Zr2  1  0.87249767  0.34314627  0.63712533  1
  Zr  Zr3  1  0.48922640  0.81710833  0.21622240  1
  Zr  Zr4  1  0.90265878  0.24792630  0.26746205  1
  Zr  Zr5  1  0.00300718  0.94242733  0.60729624  1
  Zr  Zr6  1  0.60599372  0.71245053  0.06137606  1
  Zr  Zr7  1  0.89549248  0.49161118  0.82470867  1
  Zr  Zr8  1  0.87658029  0.06901546  0.86350857  1
  Zr  Zr9  1  0.09217669  0.44722973  0.15123076  1
  Zr  Zr10  1  0.65971475  0.04882093  0.44789274  1
  Zr  Zr11  1  0.44574152  0.10048199  0.98258637  1
  Zr  Zr12  1  0.69665956  0.45333031  0.74200483  1
  Zr  Zr13  1  0.13170911  0.75363090  0.36768505  1
  Zr  Zr14  1  0.93743634  0.38305230  0.44058505  1
  Zr  Zr15  1  0.46162125  0.19199132  0.78755272  1
  Zr  Zr16  1  0.81633070  0.20674152  0.46349539  1
  Zr  Zr17  1  0.02041249  0.14909857  0.45549523  1
  Zr  Zr18  1  0.32778301  0.68807103  0.31543281  1
  Zr  Zr19  1  0.87008271  0.28359267  0.83871445  1
  Zr  Zr20  1  0.70533053  0.30388555  0.15094509  1
  Zr  Zr21  1  0.99544404  0.07167787  0.22953892  1
  Zr  Zr22  1  0.46796205  0.97562618  0.81290168  1
  Zr  Zr23  1  0.30406638  0.45348579  0.66021774  1
  Zr  Zr24  1  0.74407029  0.86369979  0.55904237  1
  Zr  Zr25  1  0.24510786  0.16391181  0.04367858  1
  Zr  Zr26  1  0.53767659  0.71875768  0.38878449  1
  Zr  Zr27  1  0.71998823  0.84906656  0.91652045  1
  Zr  Zr28  1  0.50799018  0.38599778  0.63518454  1
  Zr  Zr29  1  0.12803617  0.86356354  0.17762998  1
  Zr  Zr30  1  0.72790166  0.40247527  0.94692114  1
  Zr  Zr31  1  0.96300319  0.16738671  0.68005493  1
  Zr  Zr32  1  0.83580392  0.98625096  0.06422459  1
  Zr  Zr33  1  0.15517206  0.09668798  0.65125138  1
  Zr  Zr34  1  0.63034135  0.09703268  0.10240971  1
  Zr  Zr35  1  0.05739958  0.04449930  0.03780858  1
  Zr  Zr36  1  0.23459885  0.59721919  0.50210213  1
  Zr  Zr37  1  0.72386221  0.70070089  0.26712910  1
  Zr  Zr38  1  0.90473055  0.78427099  0.42678094  1
  Zr  Zr39  1  0.94265870  0.36579667  0.01779953  1
  Zr  Zr40  1  0.22240737  0.90637028  0.72556414  1
  Zr  Zr41  1  0.59262477  0.21037465  0.31711795  1
  Zr  Zr42  1  0.17479675  0.64171051  0.16743387  1
  Zr  Zr43  1  0.45098386  0.55441025  0.50451509  1
  Zr  Zr44  1  0.90982525  0.87716174  0.24351539  1
  Zr  Zr45  1  0.52159406  0.01362267  0.26407496  1
  Zr  Zr46  1  0.37476223  0.24491138  0.57715227  1
  Zr  Zr47  1  0.59332225  0.25386472  -0.03213753  1
  Zr  Zr48  1  0.89983481  0.69479140  0.86969597  1
  Zr  Zr49  1  0.86029619  0.88362112  0.75914365  1
  Sc  Sc50  1  0.06996549  0.19363240  0.88220102  1
  Sc  Sc51  1  0.73369645  0.66830122  0.49653474  1
  Sc  Sc52  1  0.62358055  0.24269551  0.53430402  1
  Sc  Sc53  1  0.10374821  0.51067033  0.35020069  1
  Sc  Sc54  1  0.89372534  0.44141535  0.22582814  1
  Sc  Sc55  1  0.55897418  0.06612545  0.63709439  1
  Sc  Sc56  1  0.87599209  0.54698404  0.61976055  1
  Sc  Sc57  1  0.16663348  0.35278860  0.97252068  1
  Sc  Sc58  1  0.27658197  0.32562383  0.17169333  1
  Sc  Sc59  1  0.83455393  0.75870503  0.08062898  1
  Sc  Sc60  1  0.08983239  0.59730735  0.73717808  1
  Sc  Sc61  1  0.34146312  0.48599989  0.30634222  1
  Sc  Sc62  1  0.68344920  0.89275281  0.16126525  1
  Sc  Sc63  1  0.54907512  0.72593568  0.60791270  1
  Sc  Sc64  1  0.18020365  0.88942733  0.97234387  1
  Sc  Sc65  1  0.96242994  0.65868092  0.24485800  1
  Sc  Sc66  1  0.12749740  0.29482842  0.33259801  1
  Sc  Sc67  1  0.13228448  0.28701009  0.58850281  1
  Sc  Sc68  1  0.51010324  0.90195147  0.48599033  1
  Sc  Sc69  1  0.23049431  0.11089000  0.25468782  1
  Sc  Sc70  1  0.34888668  0.82062064  0.88044505  1
  Sc  Sc71  1  0.52906820  0.46523493  0.01467529  1
  Sc  Sc72  1  0.73286257  0.69061396  0.72366610  1
  Sc  Sc73  1  0.87866997  0.56380728  0.04281631  1
  Sc  Sc74  1  0.66074468  1.05967987  0.88189574  1
  Sc  Sc75  1  0.26094358  0.94395367  0.52002743  1
  Sc  Sc76  1  0.67258875  0.24511038  0.75175834  1
  Sc  Sc77  1  0.84537504  0.18546660  0.04573214  1
  Sc  Sc78  1  0.51575890  0.89653318  0.01131950  1
  Sc  Sc79  1  0.33406675  0.97537648  0.11906702  1
  Sc  Sc80  1  0.69593998  0.44985400  0.52351670  1
  Sc  Sc81  1  0.28613448  0.48890950  0.85704905  1
  Sc  Sc82  1  0.07461911  0.53740764  0.94995117  1
  Sc  Sc83  1  0.43355498  0.63849667  0.94529880  1
  Sc  Sc84  1  0.08227709  0.47085054  0.58050142  1
  Sc  Sc85  1  0.67984644  0.60392431  0.90710986  1
  Sc  Sc86  1  0.76875328  0.07458954  0.26489432  1
  Sc  Sc87  1  0.31214710  0.68346693  0.71801968  1
  Sc  Sc88  1  0.30581429  0.51263716  0.06993897  1
  Sc  Sc89  1  0.09511321  0.96092036  0.38245897  1
  Sc  Sc90  1  0.13323524  0.76761566  0.58257344  1
  Sc  Sc91  1  0.69486096  0.51959869  0.16311768  1
  Sc  Sc92  1  0.31994125  -0.10336742  0.32459518  1
  Sc  Sc93  1  0.50769799  0.38425575  0.21026158  1
  Sc  Sc94  1  0.78424428  0.05895115  0.64376895  1
  Sc  Sc95  1  0.42976834  0.08892312  0.44109740  1
  Sc  Sc96  1  0.26097297  0.06600138  0.85595983  1
  Sc  Sc97  1  0.87440076  -0.00817276  0.43243532  1
  Sc  Sc98  1  0.26410992  0.27756237  0.78505904  1
  Sc  Sc99  1  0.50257847  0.56998707  0.74613702  1
  Nb  Nb100  1  0.06480487  0.23563371  0.12634178  1
  Nb  Nb101  1  0.21447763  0.67771893  0.93880800  1
  Nb  Nb102  1  0.54368398  0.76499638  0.82163281  1
  Nb  Nb103  1  0.99943848  0.62712199  0.48006058  1
  Nb  Nb104  1  0.48762918  0.38448285  0.82967815  1
  Nb  Nb105  1  0.27895309  0.38968178  0.47219363  1
  Nb  Nb106  1  0.69152722  0.87246731  0.35957273  1
  Nb  Nb107  1  0.32225707  0.75933911  0.09281488  1
  Nb  Nb108  1  0.44455715  0.19114614  0.15946058  1
  Nb  Nb109  1  0.22893297  0.14925944  0.46392269  1
  Nb  Nb110  1  0.83252520  0.54895783  0.38080939  1
  Nb  Nb111  1  0.60168762  0.53383532  0.34845413  1
  Nb  Nb112  1  0.50118255  0.37617868  0.42435814  1
  Nb  Nb113  1  0.95528075  0.88262791  0.95557734  1
  Nb  Nb114  1  0.92497383  0.74103005  0.63717625  1
  Nb  Nb115  1  0.63770642  0.89502174  0.71965174  1
  Nb  Nb116  1  0.38599765  0.30647541  0.98189982  1
  Nb  Nb117  1  0.36702263  0.26041507  0.34996178  1
  Nb  Nb118  1  0.72099294  0.36935829  0.34364168  1
  Nb  Nb119  1  0.05109808  0.99528885  0.81188225  1
  Nb  Nb120  1  0.06153485  0.38084719  0.77464339  1
  Nb  Nb121  1  0.35223283  0.06533123  0.65317020  1
  Nb  Nb122  1  0.34772925  0.75695429  0.50580697  1
  Nb  Nb123  1  0.04809647  0.72844959  1.03494118  1
  Nb  Nb124  1  0.41664519  0.86548502  0.66664633  1
