# generated using pymatgen
data_Zr2Sc2Nb
_symmetry_space_group_name_H-M   'P 1'
_cell_length_a   13.96299987
_cell_length_b   14.54508672
_cell_length_c   14.14712233
_cell_angle_alpha   90.13926915
_cell_angle_beta   90.59223464
_cell_angle_gamma   87.79760282
_symmetry_Int_Tables_number   1
_chemical_formula_structural   Zr2Sc2Nb
_chemical_formula_sum   'Zr50 Sc50 Nb25'
_cell_volume   2870.90042479
_cell_formula_units_Z   25
loop_
 _symmetry_equiv_pos_site_id
 _symmetry_equiv_pos_as_xyz
  1  'x, y, z'
loop_
 _atom_site_type_symbol
 _atom_site_label
 _atom_site_symmetry_multiplicity
 _atom_site_fract_x
 _atom_site_fract_y
 _atom_site_fract_z
 _atom_site_occupancy
  Zr  Zr0  1  0.63239314  0.98547694  0.74098942  1
  Zr  Zr1  1  0.83383459  0.16052414  0.48873637  1
  Zr  Zr2  1  0.73098329  0.12104194  0.13920619  1
  Zr  Zr3  1  0.72590318  0.89926822  0.09935727  1
  Zr  Zr4  1  0.10801235  0.28980444  0.73253851  1
  Zr  Zr5  1  0.36611147  0.95022666  0.55073908  1
  Zr  Zr6  1  0.19333024  0.05864616  0.48861275  1
  Zr  Zr7  1  0.01797607  0.33006478  0.29804666  1
  Zr  Zr8  1  0.51002752  0.86673830  0.36394130  1
  Zr  Zr9  1  0.90793901  0.48739337  0.69633079  1
  Zr  Zr10  1  0.29848080  0.59123701  0.32566045  1
  Zr  Zr11  1  0.49447148  0.30940567  0.76031567  1
  Zr  Zr12  1  0.50882115  0.06188113  0.23697619  1
  Zr  Zr13  1  0.08087899  0.87245081  0.16520428  1
  Zr  Zr14  1  0.01769096  0.15143552  0.38566214  1
  Zr  Zr15  1  0.49829047  0.49912336  0.38467595  1
  Zr  Zr16  1  0.14794900  0.76234455  0.33592744  1
  Zr  Zr17  1  0.48833337  0.38280227  0.55740768  1
  Zr  Zr18  1  0.73552060  0.82000488  0.44956241  1
  Zr  Zr19  1  0.83261460  0.66169147  0.14148702  1
  Zr  Zr20  1  0.57246602  0.58824984  0.61768727  1
  Zr  Zr21  1  0.73728255  0.35768686  0.11536165  1
  Zr  Zr22  1  0.95952257  0.76995164  0.47075008  1
  Zr  Zr23  1  0.80162259  0.84856072  0.63698737  1
  Zr  Zr24  1  0.31545334  0.82105829  0.24691425  1
  Zr  Zr25  1  0.88535014  0.70508132  0.78874398  1
  Zr  Zr26  1  0.85821368  0.46832164  0.31552684  1
  Zr  Zr27  1  0.91506744  0.35633637  0.50460278  1
  Zr  Zr28  1  0.33213314  0.17675139  0.13776799  1
  Zr  Zr29  1  0.64686361  0.25561928  0.52161342  1
  Zr  Zr30  1  0.52533241  0.07549971  0.03579916  1
  Zr  Zr31  1  0.37157960  0.74425760  0.46020038  1
  Zr  Zr32  1  0.31841547  0.02902886  0.32747387  1
  Zr  Zr33  1  0.93586258  0.44748473  0.11863115  1
  Zr  Zr34  1  0.78830965  0.87945538  0.84509827  1
  Zr  Zr35  1  0.35754746  0.56227563  0.55477421  1
  Zr  Zr36  1  0.02276651  0.10506539  0.59808682  1
  Zr  Zr37  1  0.22068307  0.66896087  0.69922701  1
  Zr  Zr38  1  0.34222625  0.53130601  0.07145566  1
  Zr  Zr39  1  0.84662344  0.05207127  0.70424384  1
  Zr  Zr40  1  0.06552137  0.56686764  0.81677379  1
  Zr  Zr41  1  0.15409018  0.62982737  0.48744120  1
  Zr  Zr42  1  0.56051871  0.85118467  0.57439958  1
  Zr  Zr43  1  0.12161796  0.95893289  0.97117864  1
  Zr  Zr44  1  0.08979792  0.09518313  0.79306975  1
  Zr  Zr45  1  0.46853966  0.25581970  0.36613046  1
  Zr  Zr46  1  0.69019356  0.39882139  0.67735271  1
  Zr  Zr47  1  0.06600806  0.94810859  0.36936181  1
  Zr  Zr48  1  0.90033752  0.55413660  0.93818314  1
  Zr  Zr49  1  0.69309403  0.02529361  0.53918844  1
  Sc  Sc50  1  0.49117392  0.13744294  0.64204713  1
  Sc  Sc51  1  0.25507259  0.34173806  0.02100035  1
  Sc  Sc52  1  0.24083190  0.43810143  0.82825666  1
  Sc  Sc53  1  0.08665153  0.78644289  0.84674722  1
  Sc  Sc54  1  0.41834268  0.51586392  0.75325437  1
  Sc  Sc55  1  0.82419810  0.26108849  0.29874815  1
  Sc  Sc56  1  0.71589455  0.48408479  0.48096773  1
  Sc  Sc57  1  0.02828284  0.34997315  0.92420032  1
  Sc  Sc58  1  0.91090537  0.83573176  0.01421953  1
  Sc  Sc59  1  0.92759812  0.22268101  0.11241729  1
  Sc  Sc60  1  0.67361533  0.55639358  0.24813819  1
  Sc  Sc61  1  0.89188447  0.26449199  0.69736741  1
  Sc  Sc62  1  0.89985827  0.17179075  0.90180170  1
  Sc  Sc63  1  0.35597230  0.82125134  0.88378673  1
  Sc  Sc64  1  0.68941610  0.19717455  0.75120808  1
  Sc  Sc65  1  0.63373943  0.75812144  0.75014970  1
  Sc  Sc66  1  0.88847440  0.84111733  0.26565047  1
  Sc  Sc67  1  0.50863853  0.06261839  0.44778784  1
  Sc  Sc68  1  0.22433623  0.23679847  0.32083407  1
  Sc  Sc69  1  0.29384227  0.40305218  0.43803064  1
  Sc  Sc70  1  0.17529973  0.83521795  0.54353513  1
  Sc  Sc71  1  0.55714790  0.25293305  0.16466190  1
  Sc  Sc72  1  0.52176287  0.64246542  0.90302546  1
  Sc  Sc73  1  0.80430126  0.37098385  0.88610985  1
  Sc  Sc74  1  0.17113366  0.46408131  0.22270969  1
  Sc  Sc75  1  0.51062921  0.87365981  0.14459982  1
  Sc  Sc76  1  0.32331293  0.03715078  0.90630446  1
  Sc  Sc77  1  0.30476271  0.23152475  0.84190080  1
  Sc  Sc78  1  0.12707211  0.16052989  0.98744443  1
  Sc  Sc79  1  0.54113726  0.47887059  0.11162579  1
  Sc  Sc80  1  0.41262541  0.74839233  0.68412302  1
  Sc  Sc81  1  0.73230093  0.05045039  0.93442182  1
  Sc  Sc82  1  0.59300153  0.43295316  0.89413804  1
  Sc  Sc83  1  0.03999851  0.68424408  1.03662940  1
  Sc  Sc84  1  1.01217719  0.61802636  0.27599997  1
  Sc  Sc85  1  0.45678006  0.29951621  0.98569944  1
  Sc  Sc86  1  0.22097973  0.92199483  0.73817877  1
  Sc  Sc87  1  0.37358594  0.37735627  0.22061665  1
  Sc  Sc88  1  0.72158362  0.56826301  0.79578740  1
  Sc  Sc89  1  0.25565759  0.63948785  0.91462308  1
  Sc  Sc90  1  0.00449378  0.89675511  0.66899684  1
  Sc  Sc91  1  0.70463569  0.97048773  0.31428448  1
  Sc  Sc92  1  0.12318498  0.50235199  0.02334714  1
  Sc  Sc93  1  0.13211319  0.27942699  0.52101069  1
  Sc  Sc94  1  0.13122356  0.47631108  0.62513505  1
  Sc  Sc95  1  0.27348335  0.11993763  0.67679497  1
  Sc  Sc96  1  0.56508650  0.87968193  0.92971546  1
  Sc  Sc97  1  0.11325210  0.08515787  0.19537797  1
  Sc  Sc98  1  0.31154329  0.97420304  0.10616400  1
  Sc  Sc99  1  0.47860638  0.66984460  0.25299924  1
  Nb  Nb100  1  0.88657749  0.05576828  0.27130582  1
  Nb  Nb101  1  0.80814153  0.65504538  0.37173881  1
  Nb  Nb102  1  0.43911629  0.95494391  0.74344981  1
  Nb  Nb103  1  0.34259241  0.19848332  0.50121441  1
  Nb  Nb104  1  0.51210275  0.12385028  0.85125770  1
  Nb  Nb105  1  0.61146687  0.69580743  0.08596493  1
  Nb  Nb106  1  0.73950207  0.71865157  0.95006928  1
  Nb  Nb107  1  0.40117153  0.71907547  0.06655484  1
  Nb  Nb108  1  0.72268748  0.53606538  0.02153862  1
  Nb  Nb109  1  0.22239197  0.80270097  0.03852626  1
  Nb  Nb110  1  0.89253947  0.97013986  0.47437454  1
  Nb  Nb111  1  0.78352622  0.65247796  0.59084352  1
  Nb  Nb112  1  0.66489240  0.16103591  0.34029045  1
  Nb  Nb113  1  1.01472310  0.67881147  0.64235083  1
  Nb  Nb114  1  0.30953227  0.33773412  0.64828480  1
  Nb  Nb115  1  0.95499409  0.97545710  0.86602733  1
  Nb  Nb116  1  0.20884941  0.66285036  0.15758867  1
  Nb  Nb117  1  0.11696839  0.29412032  0.13691699  1
  Nb  Nb118  1  0.92762275  0.02268695  0.07340167  1
  Nb  Nb119  1  0.93911057  0.56094674  0.49880969  1
  Nb  Nb120  1  0.67509211  0.76699682  0.25836895  1
  Nb  Nb121  1  0.08667155  0.46406320  0.41347612  1
  Nb  Nb122  1  0.63912746  0.36393588  0.31999770  1
  Nb  Nb123  1  0.59916639  0.67403301  0.43848870  1
  Nb  Nb124  1  0.65722892  0.23734003  0.96118213  1
