# generated using pymatgen
data_Zr2Sc2Nb
_symmetry_space_group_name_H-M   'P 1'
_cell_length_a   14.17608104
_cell_length_b   14.42199465
_cell_length_c   14.01426754
_cell_angle_alpha   88.76243927
_cell_angle_beta   87.73255274
_cell_angle_gamma   89.39840757
_symmetry_Int_Tables_number   1
_chemical_formula_structural   Zr2Sc2Nb
_chemical_formula_sum   'Zr50 Sc50 Nb25'
_cell_volume   2862.13551592
_cell_formula_units_Z   25
loop_
 _symmetry_equiv_pos_site_id
 _symmetry_equiv_pos_as_xyz
  1  'x, y, z'
loop_
 _atom_site_type_symbol
 _atom_site_label
 _atom_site_symmetry_multiplicity
 _atom_site_fract_x
 _atom_site_fract_y
 _atom_site_fract_z
 _atom_site_occupancy
  Zr  Zr0  1  0.56723342  0.31818881  1.01548879  1
  Zr  Zr1  1  0.38441843  0.68316237  0.76736793  1
  Zr  Zr2  1  0.34710216  0.42383297  0.45481818  1
  Zr  Zr3  1  0.42426688  0.27852506  0.18472843  1
  Zr  Zr4  1  0.52285817  0.56023697  0.46730720  1
  Zr  Zr5  1  0.35993386  0.42916388  0.04653833  1
  Zr  Zr6  1  0.69250122  0.94184723  0.10838403  1
  Zr  Zr7  1  0.48854599  0.44591952  0.28481782  1
  Zr  Zr8  1  0.17090430  0.00653998  0.16316236  1
  Zr  Zr9  1  0.08016410  0.15456031  0.27401090  1
  Zr  Zr10  1  0.26651514  0.43573392  0.25299344  1
  Zr  Zr11  1  0.64055268  0.36528522  0.43175746  1
  Zr  Zr12  1  0.71470059  0.45728076  0.09545621  1
  Zr  Zr13  1  0.73094961  0.78286692  0.26055111  1
  Zr  Zr14  1  0.79531239  0.25088506  0.78326041  1
  Zr  Zr15  1  0.26279427  0.61321446  0.11557995  1
  Zr  Zr16  1  0.00252375  0.76906080  0.88420353  1
  Zr  Zr17  1  0.20098256  0.70617007  0.92193954  1
  Zr  Zr18  1  0.86690112  0.50611849  0.73238140  1
  Zr  Zr19  1  0.54413063  0.93969278  0.78489444  1
  Zr  Zr20  1  0.05918143  0.00307818  0.76512832  1
  Zr  Zr21  1  0.78310969  0.01376437  0.54910824  1
  Zr  Zr22  1  0.52284133  0.91276037  0.24331351  1
  Zr  Zr23  1  0.15934624  0.82955239  0.72267774  1
  Zr  Zr24  1  0.53524748  0.10888799  0.08211470  1
  Zr  Zr25  1  0.05640610  0.91297065  0.32531107  1
  Zr  Zr26  1  0.67059963  0.55213711  0.29918912  1
  Zr  Zr27  1  0.41894403  0.69136466  0.98174482  1
  Zr  Zr28  1  0.16179208  0.56936274  0.48526676  1
  Zr  Zr29  1  0.15091072  0.13640765  0.97240143  1
  Zr  Zr30  1  0.59474142  0.13992701  0.48848158  1
  Zr  Zr31  1  0.91205691  0.06760784  0.37466899  1
  Zr  Zr32  1  0.88587175  0.25834594  0.21742371  1
  Zr  Zr33  1  0.56524448  0.74103601  0.83652793  1
  Zr  Zr34  1  0.45096752  0.80034498  0.43289533  1
  Zr  Zr35  1  0.35362483  0.09238130  0.23090932  1
  Zr  Zr36  1  0.06843465  0.35727792  0.26684093  1
  Zr  Zr37  1  0.13744310  0.93248146  0.94038912  1
  Zr  Zr38  1  0.93443545  0.85131439  0.66797081  1
  Zr  Zr39  1  0.08785734  0.44664607  0.69808773  1
  Zr  Zr40  1  0.72541535  0.43126119  0.88231710  1
  Zr  Zr41  1  0.02329955  0.73076712  0.47304150  1
  Zr  Zr42  1  0.50164591  0.89795981  0.01087087  1
  Zr  Zr43  1  0.75736276  0.10996548  0.16756771  1
  Zr  Zr44  1  0.97682256  1.07893042  0.10932956  1
  Zr  Zr45  1  0.20170164  0.62873358  0.70173024  1
  Zr  Zr46  1  0.29794115  0.22368648  0.56258689  1
  Zr  Zr47  1  0.36627085  0.23263676  0.97769682  1
  Zr  Zr48  1  0.84835450  0.64104597  0.38520068  1
  Zr  Zr49  1  0.64559193  0.29732599  0.22149999  1
  Sc  Sc50  1  0.03706678  0.55886782  0.27627319  1
  Sc  Sc51  1  0.48981837  0.31488948  0.58894974  1
  Sc  Sc52  1  0.70015396  0.97506734  0.35312322  1
  Sc  Sc53  1  0.95233133  0.37116956  0.88077351  1
  Sc  Sc54  1  0.82857727  0.60874442  0.16380063  1
  Sc  Sc55  1  0.35082029  0.28608075  0.76974744  1
  Sc  Sc56  1  0.81639968  0.99223452  0.77608704  1
  Sc  Sc57  1  0.67434695  0.59882170  0.73245531  1
  Sc  Sc58  1  0.30697509  0.88612799  0.29757468  1
  Sc  Sc59  1  0.84388754  0.76929984  0.04748939  1
  Sc  Sc60  1  0.86010600  0.85268156  0.43814668  1
  Sc  Sc61  1  0.33699753  0.02954262  0.01906906  1
  Sc  Sc62  1  0.80472899  0.27191109  0.01741014  1
  Sc  Sc63  1  0.90513492  0.95479902  0.96770319  1
  Sc  Sc64  1  0.12938080  0.36630001  0.49846655  1
  Sc  Sc65  1  0.95568150  0.15559937  0.87979928  1
  Sc  Sc66  1  0.34282823  0.87559451  0.86066973  1
  Sc  Sc67  1  0.27906414  0.07943963  0.80469787  1
  Sc  Sc68  1  0.29631428  0.50328312  0.85243806  1
  Sc  Sc69  1  0.22707962  0.01421416  0.60564280  1
  Sc  Sc70  1  0.47827239  0.50584901  0.67906507  1
  Sc  Sc71  1  0.38296845  0.85952345  0.64098407  1
  Sc  Sc72  1  0.51977100  0.51065714  0.89529974  1
  Sc  Sc73  1  0.93610535  0.27617112  0.43706806  1
  Sc  Sc74  1  0.34373101  0.61982694  0.33164860  1
  Sc  Sc75  1  0.09335210  0.15933834  0.51009125  1
  Sc  Sc76  1  0.51710325  0.56335615  0.11704324  1
  Sc  Sc77  1  0.69273729  0.10021307  0.93112602  1
  Sc  Sc78  1  0.70707685  0.85800854  0.91393085  1
  Sc  Sc79  1  0.94238364  0.49787460  0.51820171  1
  Sc  Sc80  1  0.64942414  0.10963247  0.70670389  1
  Sc  Sc81  1  0.69253519  0.40031147  0.65604841  1
  Sc  Sc82  1  0.21119804  0.82108861  0.49712778  1
  Sc  Sc83  1  0.44279327  0.09514959  0.65740322  1
  Sc  Sc84  1  0.13687800  0.45730662  0.07553557  1
  Sc  Sc85  1  0.26185673  0.82953537  0.08142429  1
  Sc  Sc86  1  0.16226413  0.73187642  0.26997866  1
  Sc  Sc87  1  0.12246744  0.22884005  0.72402562  1
  Sc  Sc88  1  0.17476500  0.33691861  0.90588968  1
  Sc  Sc89  1  0.40667753  0.03795839  0.43967662  1
  Sc  Sc90  1  0.56640230  0.28842342  0.80528878  1
  Sc  Sc91  1  0.93288886  0.11725166  0.64254773  1
  Sc  Sc92  1  0.76904929  0.23349537  0.56384542  1
  Sc  Sc93  1  0.06836794  0.54928522  0.88675676  1
  Sc  Sc94  1  0.83576031  0.42929925  0.32208522  1
  Sc  Sc95  1  0.57483867  0.93077836  0.55120561  1
  Sc  Sc96  1  0.70985700  0.82799069  0.67492686  1
  Sc  Sc97  1  1.00545531  0.65485893  0.68661739  1
  Sc  Sc98  1  0.34787780  0.64276891  0.55201360  1
  Sc  Sc99  1  0.25346232  0.24190208  0.35436370  1
  Nb  Nb100  1  0.21834790  0.25211124  0.13134987  1
  Nb  Nb101  1  0.27995724  0.43710614  0.64019385  1
  Nb  Nb102  1  0.95048474  0.75399423  0.25028432  1
  Nb  Nb103  1  0.03414249  0.95652517  0.53276975  1
  Nb  Nb104  1  0.94040585  0.32251785  0.65070856  1
  Nb  Nb105  1  0.71172833  0.55498504  0.51943917  1
  Nb  Nb106  1  0.61365385  0.74648005  0.09773037  1
  Nb  Nb107  1  0.04397454  0.84638669  0.10269888  1
  Nb  Nb108  1  0.54547475  0.69350834  0.29921362  1
  Nb  Nb109  1  0.68745331  0.62964334  0.96287615  1
  Nb  Nb110  1  0.46124474  0.25292216  0.38395012  1
  Nb  Nb111  1  0.82470825  0.71139186  0.81375899  1
  Nb  Nb112  1  0.93258044  0.44401214  0.10095794  1
  Nb  Nb113  1  0.19922404  0.03141005  0.39340040  1
  Nb  Nb114  1  0.82826594  0.68261198  0.59146535  1
  Nb  Nb115  1  0.41741445  0.75243201  0.17902529  1
  Nb  Nb116  1  0.02776481  0.27427064  0.06496758  1
  Nb  Nb117  1  0.03419345  0.65043529  0.07709028  1
  Nb  Nb118  1  0.66610800  0.74625957  0.46132686  1
  Nb  Nb119  1  0.74697905  0.19017222  0.36250703  1
  Nb  Nb120  1  0.87333447  0.57061724  0.95081992  1
  Nb  Nb121  1  0.87674561  0.93029216  0.20732041  1
  Nb  Nb122  1  0.56315179  0.11665241  0.28078873  1
  Nb  Nb123  1  0.48354436  0.10455979  0.87365248  1
  Nb  Nb124  1  0.54634976  0.71029664  0.61152907  1
