# generated using pymatgen
data_Zr2Sc2Nb
_symmetry_space_group_name_H-M   'P 1'
_cell_length_a   14.03293412
_cell_length_b   14.24434485
_cell_length_c   14.37639402
_cell_angle_alpha   87.92852922
_cell_angle_beta   89.70629386
_cell_angle_gamma   89.58332688
_symmetry_Int_Tables_number   1
_chemical_formula_structural   Zr2Sc2Nb
_chemical_formula_sum   'Zr50 Sc50 Nb25'
_cell_volume   2871.70886094
_cell_formula_units_Z   25
loop_
 _symmetry_equiv_pos_site_id
 _symmetry_equiv_pos_as_xyz
  1  'x, y, z'
loop_
 _atom_site_type_symbol
 _atom_site_label
 _atom_site_symmetry_multiplicity
 _atom_site_fract_x
 _atom_site_fract_y
 _atom_site_fract_z
 _atom_site_occupancy
  Zr  Zr0  1  0.58682695  0.54815005  0.30707571  1
  Zr  Zr1  1  0.05958653  0.46452046  0.50716816  1
  Zr  Zr2  1  0.94340300  0.09056655  0.73239300  1
  Zr  Zr3  1  0.16419859  0.21913929  0.03859786  1
  Zr  Zr4  1  0.91733137  0.48057162  0.72874948  1
  Zr  Zr5  1  0.63390976  0.80287809  0.60892657  1
  Zr  Zr6  1  0.09230900  0.28990997  0.26491724  1
  Zr  Zr7  1  0.27510243  0.40522307  0.78204165  1
  Zr  Zr8  1  0.43764711  0.57117780  0.94784922  1
  Zr  Zr9  1  0.84938688  0.75231619  0.59926846  1
  Zr  Zr10  1  0.09270530  0.10191186  0.37570754  1
  Zr  Zr11  1  0.10443173  0.85260122  0.02742348  1
  Zr  Zr12  1  0.07155813  1.06468233  0.15576859  1
  Zr  Zr13  1  0.63568709  0.45477402  0.94232651  1
  Zr  Zr14  1  0.08879374  0.36277726  0.88149680  1
  Zr  Zr15  1  0.51703162  0.18905746  0.76754365  1
  Zr  Zr16  1  0.90714801  0.98673787  0.30091688  1
  Zr  Zr17  1  0.30104362  0.64820501  0.54451308  1
  Zr  Zr18  1  0.49953130  -0.00084483  0.21936604  1
  Zr  Zr19  1  0.85269572  0.34371532  0.60303982  1
  Zr  Zr20  1  0.28784717  0.07962743  0.50621941  1
  Zr  Zr21  1  0.71614330  0.68740637  0.44273355  1
  Zr  Zr22  1  0.10670797  0.09182624  0.60276057  1
  Zr  Zr23  1  0.32015252  0.37987159  0.99448534  1
  Zr  Zr24  1  0.42795762  0.78585916  0.64619084  1
  Zr  Zr25  1  0.71032893  0.27242845  0.09457078  1
  Zr  Zr26  1  0.15195103  0.63971561  0.38655292  1
  Zr  Zr27  1  0.81789550  0.07643701  0.92182110  1
  Zr  Zr28  1  0.48094740  0.38732658  0.85067954  1
  Zr  Zr29  1  0.29204869  0.23914680  0.65964230  1
  Zr  Zr30  1  0.69861416  0.36509025  0.27509314  1
  Zr  Zr31  1  0.26371868  0.80971709  0.42040914  1
  Zr  Zr32  1  0.61576500  0.74782100  0.24172081  1
  Zr  Zr33  1  0.74399901  0.16111953  0.69404217  1
  Zr  Zr34  1  0.06506584  0.91549554  0.46315502  1
  Zr  Zr35  1  0.74162625  0.59241444  0.65968909  1
  Zr  Zr36  1  0.95605915  0.73759842  0.40350153  1
  Zr  Zr37  1  0.62567002  0.67913932  0.97374800  1
  Zr  Zr38  1  0.43946469  0.93226001  0.48640522  1
  Zr  Zr39  1  0.22375729  1.02215846  0.95839480  1
  Zr  Zr40  1  0.77105836  0.23159617  0.45644932  1
  Zr  Zr41  1  0.09569311  0.42457765  0.07963366  1
  Zr  Zr42  1  0.90337276  0.26527646  0.81656420  1
  Zr  Zr43  1  0.30496531  0.20865629  0.32011876  1
  Zr  Zr44  1  0.82022776  0.59263940  0.29036591  1
  Zr  Zr45  1  0.46969456  0.63263494  0.14663586  1
  Zr  Zr46  1  0.69192951  0.40237888  0.74397246  1
  Zr  Zr47  1  0.81565812  0.90608308  0.47483529  1
  Zr  Zr48  1  0.10495626  0.88002320  0.26417736  1
  Zr  Zr49  1  0.12212782  0.54146622  0.71506525  1
  Sc  Sc50  1  0.52510345  -0.01765005  0.68205103  1
  Sc  Sc51  1  0.32103440  0.03992964  0.73059225  1
  Sc  Sc52  1  0.26229584  0.44842461  0.56855207  1
  Sc  Sc53  1  0.98641992  0.89504412  0.64990341  1
  Sc  Sc54  1  0.90816667  0.90826376  0.08595421  1
  Sc  Sc55  1  0.12335298  0.73488577  0.84240422  1
  Sc  Sc56  1  0.56286663  0.29329382  0.40603152  1
  Sc  Sc57  1  0.44517019  0.02393569  0.92823365  1
  Sc  Sc58  1  0.84730853  0.40483942  -0.04311321  1
  Sc  Sc59  1  1.00544923  0.55050959  0.90378321  1
  Sc  Sc60  1  0.56355769  0.61137812  0.76928882  1
  Sc  Sc61  1  0.04320190  0.53032583  0.25312997  1
  Sc  Sc62  1  0.40842220  0.80746796  0.26454489  1
  Sc  Sc63  1  0.12092318  0.95242985  0.80002328  1
  Sc  Sc64  1  0.47210096  0.50196237  0.47962623  1
  Sc  Sc65  1  0.29543736  0.91573462  0.11967080  1
  Sc  Sc66  1  0.62347654  0.07678186  0.04832608  1
  Sc  Sc67  1  0.54717646  0.82819350  0.83314624  1
  Sc  Sc68  1  0.89659423  0.40590557  0.38296338  1
  Sc  Sc69  1  0.88740725  0.38901857  0.17480819  1
  Sc  Sc70  1  0.77168909  0.73341844  0.10604876  1
  Sc  Sc71  1  0.32379004  0.84580021  0.83674478  1
  Sc  Sc72  1  0.62403821  0.90728043  0.37594068  1
  Sc  Sc73  1  0.46277894  0.38821620  0.65270707  1
  Sc  Sc74  1  0.49740222  0.72221327  0.44716746  1
  Sc  Sc75  1  0.33348863  0.62355123  0.75666294  1
  Sc  Sc76  1  0.28679096  -0.00250511  0.31114254  1
  Sc  Sc77  1  0.52689951  0.85652673  0.05746673  1
  Sc  Sc78  1  0.13132608  0.16815020  0.81506455  1
  Sc  Sc79  1  0.30557791  0.73003347  1.01902425  1
  Sc  Sc80  1  0.22512444  0.86747445  0.62272382  1
  Sc  Sc81  1  0.70249378  0.52627807  0.12065870  1
  Sc  Sc82  1  0.89738119  0.19977256  0.28664827  1
  Sc  Sc83  1  0.50628771  0.41973884  0.10812766  1
  Sc  Sc84  1  0.68908353  0.11121978  0.28867322  1
  Sc  Sc85  1  0.68457834  0.24166861  0.88803419  1
  Sc  Sc86  1  0.07535136  0.69782285  0.58166939  1
  Sc  Sc87  1  0.76836849  0.94731202  0.69809755  1
  Sc  Sc88  1  0.33004057  0.20756970  0.88228601  1
  Sc  Sc89  1  0.50894925  0.22863775  0.20889706  1
  Sc  Sc90  1  0.65573472  0.06211513  0.52143777  1
  Sc  Sc91  1  0.22979883  0.43426358  0.35386018  1
  Sc  Sc92  1  0.21766805  0.55076727  0.92711613  1
  Sc  Sc93  1  0.98086632  0.73292537  0.19106579  1
  Sc  Sc94  1  0.34927051  0.13051689  0.10686524  1
  Sc  Sc95  1  -0.04791386  0.23864648  0.04387760  1
  Sc  Sc96  1  0.07419608  0.31643990  0.66755149  1
  Sc  Sc97  1  0.27517239  0.53529409  0.15339064  1
  Sc  Sc98  1  0.70110818  0.45956100  0.48472691  1
  Sc  Sc99  1  0.91849236  0.89429805  0.85446432  1
  Nb  Nb100  1  0.35837635  0.61226856  0.33356804  1
  Nb  Nb101  1  0.10131946  0.64636991  0.06124060  1
  Nb  Nb102  1  0.01412581  1.06021046  0.95947462  1
  Nb  Nb103  1  0.64081903  0.02446754  0.84642085  1
  Nb  Nb104  1  0.29072942  0.32789106  0.17165510  1
  Nb  Nb105  1  0.74847703  0.75989593  0.80262538  1
  Nb  Nb106  1  0.71020194  0.93356188  0.16956504  1
  Nb  Nb107  1  0.90755847  0.57054580  0.07945923  1
  Nb  Nb108  1  0.72667806  0.88295579  0.96056372  1
  Nb  Nb109  1  0.78711935  0.58686967  0.87822013  1
  Nb  Nb110  1  0.83358774  0.09018509  0.12168815  1
  Nb  Nb111  1  0.93503007  0.68383210  0.75759986  1
  Nb  Nb112  1  0.37917522  0.30096414  0.47485958  1
  Nb  Nb113  1  0.42556124  0.41562679  0.29261984  1
  Nb  Nb114  1  0.50340103  0.24343173  -0.00544886  1
  Nb  Nb115  1  0.17803630  0.26872847  0.48021570  1
  Nb  Nb116  1  0.46899298  0.15725114  0.57426162  1
  Nb  Nb117  1  0.89214779  0.56772604  0.52009092  1
  Nb  Nb118  1  0.21467656  0.72548064  0.21005119  1
  Nb  Nb119  1  0.47776693  0.10540465  0.38761375  1
  Nb  Nb120  1  0.80740977  0.81362792  0.29156363  1
  Nb  Nb121  1  0.90273469  0.07484499  0.52221857  1
  Nb  Nb122  1  0.91411765  0.72806124  0.96073574  1
  Nb  Nb123  1  -0.00938653  0.24484658  0.48204763  1
  Nb  Nb124  1  0.62431264  0.28340758  0.59430508  1
