# generated using pymatgen
data_Zr2Sc2Nb
_symmetry_space_group_name_H-M   'P 1'
_cell_length_a   13.92748940
_cell_length_b   14.08681652
_cell_length_c   14.61731660
_cell_angle_alpha   89.24049714
_cell_angle_beta   88.65575997
_cell_angle_gamma   90.52650907
_symmetry_Int_Tables_number   1
_chemical_formula_structural   Zr2Sc2Nb
_chemical_formula_sum   'Zr50 Sc50 Nb25'
_cell_volume   2866.65903632
_cell_formula_units_Z   25
loop_
 _symmetry_equiv_pos_site_id
 _symmetry_equiv_pos_as_xyz
  1  'x, y, z'
loop_
 _atom_site_type_symbol
 _atom_site_label
 _atom_site_symmetry_multiplicity
 _atom_site_fract_x
 _atom_site_fract_y
 _atom_site_fract_z
 _atom_site_occupancy
  Zr  Zr0  1  0.90250836  0.73693407  0.45653604  1
  Zr  Zr1  1  0.88740966  0.51709036  0.92727847  1
  Zr  Zr2  1  0.60871669  0.88594738  0.68903180  1
  Zr  Zr3  1  0.68329184  0.88831302  0.88820718  1
  Zr  Zr4  1  0.88957142  0.55466592  0.27162154  1
  Zr  Zr5  1  0.44266040  0.23514413  0.74321734  1
  Zr  Zr6  1  0.84414905  0.30061794  -0.01535382  1
  Zr  Zr7  1  0.92762456  0.89361493  0.60693021  1
  Zr  Zr8  1  0.25666487  0.67629815  0.68647185  1
  Zr  Zr9  1  0.25720967  0.31887377  0.80141104  1
  Zr  Zr10  1  0.13190384  0.97249179  0.86413649  1
  Zr  Zr11  1  0.47701123  0.15972655  0.27627152  1
  Zr  Zr12  1  0.26276057  0.23615236  0.22670021  1
  Zr  Zr13  1  0.54234398  1.04296814  0.80096202  1
  Zr  Zr14  1  0.90340640  0.93308517  0.36889561  1
  Zr  Zr15  1  0.85176062  0.36361065  0.77661577  1
  Zr  Zr16  1  0.49605162  0.76663375  0.09589899  1
  Zr  Zr17  1  0.43226535  0.60344128  0.79529069  1
  Zr  Zr18  1  0.11721251  0.53914286  0.21769993  1
  Zr  Zr19  1  0.70855855  0.08664886  0.27353853  1
  Zr  Zr20  1  0.64745128  0.26211926  0.39846048  1
  Zr  Zr21  1  0.45825698  0.39896566  0.88690876  1
  Zr  Zr22  1  0.24484341  0.51702497  0.83349262  1
  Zr  Zr23  1  0.58670629  0.12643810  0.09601028  1
  Zr  Zr24  1  0.57911842  0.43820510  0.70257988  1
  Zr  Zr25  1  0.86725893  0.78387840  0.22510987  1
  Zr  Zr26  1  0.66912566  0.24546700  0.79337456  1
  Zr  Zr27  1  0.62458019  0.67415067  0.77243644  1
  Zr  Zr28  1  0.34159879  0.18464831  0.43088469  1
  Zr  Zr29  1  0.47734004  0.58876335  0.34018800  1
  Zr  Zr30  1  0.46638027  0.35820782  0.33000745  1
  Zr  Zr31  1  0.13669802  0.11975205  0.34205787  1
  Zr  Zr32  1  0.93253524  0.91810108  0.82818049  1
  Zr  Zr33  1  0.72495204  0.67894416  0.95289326  1
  Zr  Zr34  1  0.32994394  0.08501594  0.88925317  1
  Zr  Zr35  1  0.16969369  0.71942759  0.12987650  1
  Zr  Zr36  1  0.49718985  0.96354896  -0.00975074  1
  Zr  Zr37  1  0.72928677  0.34301871  0.59248058  1
  Zr  Zr38  1  0.43996498  0.31023003  0.10797585  1
  Zr  Zr39  1  0.04473589  0.71529827  0.30972503  1
  Zr  Zr40  1  0.74260283  0.93147184  0.52852750  1
  Zr  Zr41  1  0.02746298  0.07130795  0.69929766  1
  Zr  Zr42  1  0.84316601  0.83712825  0.01372855  1
  Zr  Zr43  1  0.73418789  0.72678005  0.58681681  1
  Zr  Zr44  1  0.86934259  0.20253506  0.63265084  1
  Zr  Zr45  1  0.31296116  -0.00983944  0.34714114  1
  Zr  Zr46  1  0.80989131  0.53602509  0.50014484  1
  Zr  Zr47  1  0.63967932  0.29998088  0.19402300  1
  Zr  Zr48  1  0.53319842  0.61561826  0.58762634  1
  Zr  Zr49  1  0.06029305  0.26223222  0.49927255  1
  Sc  Sc50  1  0.52715384  0.50597527  0.14904858  1
  Sc  Sc51  1  0.68282307  0.68512771  0.16617464  1
  Sc  Sc52  1  0.05154112  0.35891299  0.91863303  1
  Sc  Sc53  1  0.50878356  0.95423246  0.22500724  1
  Sc  Sc54  1  0.15313837  0.05588779  0.07427989  1
  Sc  Sc55  1  -0.01314653  0.69936838  0.67150568  1
  Sc  Sc56  1  1.01584677  0.22082055  0.10633659  1
  Sc  Sc57  1  0.14227930  0.74837096  0.85111881  1
  Sc  Sc58  1  0.68800534  0.87592127  0.32347304  1
  Sc  Sc59  1  0.06231388  0.28998942  0.71333693  1
  Sc  Sc60  1  0.59480739  0.46190671  0.48050052  1
  Sc  Sc61  1  0.32534943  0.69026118  0.96762305  1
  Sc  Sc62  1  0.21180103  0.36392592  0.39162038  1
  Sc  Sc63  1  0.10257690  0.57259544  -0.01536824  1
  Sc  Sc64  1  0.26438516  0.28661020  0.59251365  1
  Sc  Sc65  1  0.41956236  0.03135427  0.61266883  1
  Sc  Sc66  1  0.28435933  0.88900430  0.98088095  1
  Sc  Sc67  1  0.68546856  0.67387754  0.38709463  1
  Sc  Sc68  1  0.49177032  0.28550225  0.55200721  1
  Sc  Sc69  1  0.03076530  0.50916449  0.42645260  1
  Sc  Sc70  1  0.69016080  0.47569300  0.30174414  1
  Sc  Sc71  1  0.74646335  0.49015583  0.08673992  1
  Sc  Sc72  1  0.31427103  0.86848230  0.51753883  1
  Sc  Sc73  1  0.87107372  0.33862346  0.42198873  1
  Sc  Sc74  1  0.14552946  0.88452886  0.65904963  1
  Sc  Sc75  1  0.31298360  0.87530595  0.17243923  1
  Sc  Sc76  1  0.33308629  0.49666951  0.03501453  1
  Sc  Sc77  1  0.27501528  0.25338404  0.99102869  1
  Sc  Sc78  1  0.72372771  0.09439457  0.93129964  1
  Sc  Sc79  1  0.94372669  0.05274661  0.98777197  1
  Sc  Sc80  1  0.09253420  0.92047439  0.23883308  1
  Sc  Sc81  1  0.67446117  0.47325939  0.87865759  1
  Sc  Sc82  1  0.98760769  0.06655712  0.49919155  1
  Sc  Sc83  1  0.69104876  0.93203396  0.11156193  1
  Sc  Sc84  1  0.81315462  0.56696448  0.71964062  1
  Sc  Sc85  1  0.04061793  0.51837499  0.76606119  1
  Sc  Sc86  1  0.35453388  0.66566550  0.50089726  1
  Sc  Sc87  1  0.63537218  0.12460408  0.61515903  1
  Sc  Sc88  1  0.16551454  0.37957901  0.10499968  1
  Sc  Sc89  1  0.12867475  0.70477431  0.50980265  1
  Sc  Sc90  1  0.54271968  0.81921166  0.49084434  1
  Sc  Sc91  1  0.17550140  0.49118534  0.58775480  1
  Sc  Sc92  1  0.33489262  0.89676915  0.77760145  1
  Sc  Sc93  1  0.93239333  0.14878667  0.29561206  1
  Sc  Sc94  1  0.04554329  0.85092635  0.03223434  1
  Sc  Sc95  1  0.36533955  0.08610263  0.10768105  1
  Sc  Sc96  1  0.84333091  0.33001748  0.21662724  1
  Sc  Sc97  1  0.54612053  0.03413089  0.43137237  1
  Sc  Sc98  1  0.23845133  0.11120892  0.71612746  1
  Sc  Sc99  1  0.78774884  0.12406795  0.45962315  1
  Nb  Nb100  1  0.93536980  0.70288514  0.88052899  1
  Nb  Nb101  1  0.96566721  0.44820160  0.10355655  1
  Nb  Nb102  1  0.43578235  0.78562628  0.32346599  1
  Nb  Nb103  1  0.44338850  0.77345827  0.66962844  1
  Nb  Nb104  1  0.49389659  0.19376277  0.93477260  1
  Nb  Nb105  1  0.64012965  0.30892169  1.00017564  1
  Nb  Nb106  1  0.78278435  0.02227144  0.72953767  1
  Nb  Nb107  1  0.93411167  0.65110994  0.08896010  1
  Nb  Nb108  1  0.32137406  0.45219191  0.23886373  1
  Nb  Nb109  1  0.24132479  0.58052588  0.36528301  1
  Nb  Nb110  1  0.10734745  0.16415244  0.88649375  1
  Nb  Nb111  1  0.52953143  0.60398806  0.97255672  1
  Nb  Nb112  1  0.34651013  0.64876853  0.19185458  1
  Nb  Nb113  1  0.37700818  0.45833862  0.66807279  1
  Nb  Nb114  1  0.04769896  0.34173429  0.27985878  1
  Nb  Nb115  1  0.80153181  0.79176740  0.75778907  1
  Nb  Nb116  1  0.23905814  0.77476423  0.33564563  1
  Nb  Nb117  1  0.79685649  0.15415986  0.11200522  1
  Nb  Nb118  1  0.89420514  0.98455818  0.17080954  1
  Nb  Nb119  1  0.10588809  0.90339752  0.44329456  1
  Nb  Nb120  1  0.94350269  0.42299422  0.60246191  1
  Nb  Nb121  1  0.90308190  0.16757033  0.82871133  1
  Nb  Nb122  1  0.49665806  0.79491678  0.87683928  1
  Nb  Nb123  1  0.19821237  0.06442622  0.52783095  1
  Nb  Nb124  1  0.37436918  0.45617416  0.47846116  1
