# generated using pymatgen
data_Zr2Sc2Nb
_symmetry_space_group_name_H-M   'P 1'
_cell_length_a   14.71946313
_cell_length_b   13.69084979
_cell_length_c   14.30518030
_cell_angle_alpha   89.76702741
_cell_angle_beta   90.14305292
_cell_angle_gamma   88.27465854
_symmetry_Int_Tables_number   1
_chemical_formula_structural   Zr2Sc2Nb
_chemical_formula_sum   'Zr50 Sc50 Nb25'
_cell_volume   2881.46729247
_cell_formula_units_Z   25
loop_
 _symmetry_equiv_pos_site_id
 _symmetry_equiv_pos_as_xyz
  1  'x, y, z'
loop_
 _atom_site_type_symbol
 _atom_site_label
 _atom_site_symmetry_multiplicity
 _atom_site_fract_x
 _atom_site_fract_y
 _atom_site_fract_z
 _atom_site_occupancy
  Zr  Zr0  1  0.33305642  0.32978590  0.14911948  1
  Zr  Zr1  1  0.90950811  0.30726492  0.96000159  1
  Zr  Zr2  1  0.95622145  0.85649207  0.01352558  1
  Zr  Zr3  1  0.76271570  0.10253655  0.28967242  1
  Zr  Zr4  1  0.75255080  0.33178687  0.53137203  1
  Zr  Zr5  1  0.14267780  0.93502354  0.63392547  1
  Zr  Zr6  1  0.10972316  0.84942799  0.27194924  1
  Zr  Zr7  1  0.34531074  0.64017137  0.71534659  1
  Zr  Zr8  1  0.42164974  0.63080004  0.05378071  1
  Zr  Zr9  1  0.90524676  0.54821518  0.05239273  1
  Zr  Zr10  1  0.04326427  0.38457317  0.70885186  1
  Zr  Zr11  1  0.93677446  0.53457059  0.27186468  1
  Zr  Zr12  1  0.73177562  0.23450138  0.89511591  1
  Zr  Zr13  1  0.64011190  0.31160700  0.33019302  1
  Zr  Zr14  1  0.81933410  0.72433230  0.15770056  1
  Zr  Zr15  1  0.08330670  0.65543321  0.97851089  1
  Zr  Zr16  1  0.75371711  0.88048941  0.02548933  1
  Zr  Zr17  1  0.30127030  0.87598283  0.75314930  1
  Zr  Zr18  1  0.92313994  0.05213504  0.61817861  1
  Zr  Zr19  1  0.93916983  0.73482805  0.36213816  1
  Zr  Zr20  1  0.30575519  0.61442678  0.44752763  1
  Zr  Zr21  1  0.25092400  0.48821722  0.00788730  1
  Zr  Zr22  1  0.25898190  0.12359131  0.04697160  1
  Zr  Zr23  1  0.33049105  0.54391415  0.21753498  1
  Zr  Zr24  1  0.12091795  0.05897902  0.91560782  1
  Zr  Zr25  1  0.33896879  0.27731374  0.92803588  1
  Zr  Zr26  1  0.74673096  0.50339061  0.21369501  1
  Zr  Zr27  1  0.85722151  0.29721511  0.73102662  1
  Zr  Zr28  1  0.65095090  0.07559513  0.09787600  1
  Zr  Zr29  1  0.47271000  0.94897087  0.81074738  1
  Zr  Zr30  1  0.14059556  0.53416284  0.81531095  1
  Zr  Zr31  1  0.05857385  0.02450823  0.10650971  1
  Zr  Zr32  1  0.90940930  0.50063199  0.83682071  1
  Zr  Zr33  1  0.26387599  0.71256931  0.91379506  1
  Zr  Zr34  1  0.63967350  0.81479118  0.85412738  1
  Zr  Zr35  1  0.84431283  0.69182321  0.53599496  1
  Zr  Zr36  1  0.81391131  0.51566803  0.43022408  1
  Zr  Zr37  1  0.18880897  0.54043489  0.60904100  1
  Zr  Zr38  1  0.95761209  0.82780861  0.64602173  1
  Zr  Zr39  1  0.46368027  0.44133536  1.00270349  1
  Zr  Zr40  1  0.25669083  0.18188979  0.29771119  1
  Zr  Zr41  1  0.73041416  0.71283266  0.33604059  1
  Zr  Zr42  1  0.54175257  0.47295275  0.19047700  1
  Zr  Zr43  1  0.67082768  0.53422957  0.60494411  1
  Zr  Zr44  1  0.93769868  0.12625207  0.83149580  1
  Zr  Zr45  1  0.08615771  0.07021523  0.29934579  1
  Zr  Zr46  1  0.84819936  0.31543184  0.33433106  1
  Zr  Zr47  1  0.60551379  0.94848157  0.42501913  1
  Zr  Zr48  1  0.24801094  0.93752701  0.43411122  1
  Zr  Zr49  1  0.24963726  0.40005723  0.35427123  1
  Sc  Sc50  1  0.49822386  0.67668885  0.28030216  1
  Sc  Sc51  1  0.55988516  0.10911543  0.72139617  1
  Sc  Sc52  1  0.62059960  0.53551577  0.39636035  1
  Sc  Sc53  1  0.01692574  0.50831915  0.47559907  1
  Sc  Sc54  1  0.13942687  0.12876330  0.49009429  1
  Sc  Sc55  1  0.67336878  0.02795053  0.88415290  1
  Sc  Sc56  1  0.31831252  0.07946099  0.61367788  1
  Sc  Sc57  1  0.54410705  0.26688886  0.11374215  1
  Sc  Sc58  1  0.15854802  0.34057795  0.52316364  1
  Sc  Sc59  1  0.53183305  0.90772263  0.02882430  1
  Sc  Sc60  1  0.76968831  0.67433970  0.72904405  1
  Sc  Sc61  1  0.85866649  0.08048040  0.02378063  1
  Sc  Sc62  1  0.51463181  0.74734420  0.69183805  1
  Sc  Sc63  1  0.47955612  0.90379706  0.25403725  1
  Sc  Sc64  1  0.63226105  0.74765553  0.51905909  1
  Sc  Sc65  1  0.11092708  0.73596912  0.50696000  1
  Sc  Sc66  1  0.77610782  0.66817616  0.94135123  1
  Sc  Sc67  1  0.05365482  0.30194507  0.32453205  1
  Sc  Sc68  1  0.51431303  0.47703699  0.71437972  1
  Sc  Sc69  1  0.10053367  0.25163965  0.10365017  1
  Sc  Sc70  1  0.70468436  0.91867357  0.65237412  1
  Sc  Sc71  1  0.47230517  0.94081966  0.58852273  1
  Sc  Sc72  1  0.53116975  0.15569607  0.50991664  1
  Sc  Sc73  1  0.95507864  0.71224064  0.83194595  1
  Sc  Sc74  1  0.09799652  0.86803242  0.84743102  1
  Sc  Sc75  1  0.85267830  0.92268591  0.82028924  1
  Sc  Sc76  1  0.13878202  0.61756693  0.32389572  1
  Sc  Sc77  1  0.47345432  0.11353453  0.94924247  1
  Sc  Sc78  1  0.95689093  0.27168535  0.53929732  1
  Sc  Sc79  1  0.68601180  0.90120087  0.22880426  1
  Sc  Sc80  1  0.42743049  0.09613608  0.16380035  1
  Sc  Sc81  1  0.34248093  0.45348131  0.81340588  1
  Sc  Sc82  1  0.70271625  0.44637196  1.00723461  1
  Sc  Sc83  1  0.24802452  0.29747928  0.70283587  1
  Sc  Sc84  1  0.43762054  0.45710252  0.37665788  1
  Sc  Sc85  1  0.81300659  0.90906342  0.44865462  1
  Sc  Sc86  1  0.54571577  0.31194488  0.86350004  1
  Sc  Sc87  1  0.26529830  0.97326269  0.20684410  1
  Sc  Sc88  1  0.13440420  0.27715888  0.88427797  1
  Sc  Sc89  1  0.75349143  0.26738205  0.13256224  1
  Sc  Sc90  1  0.30409452  0.77059404  0.29765521  1
  Sc  Sc91  1  0.90442103  0.93588773  0.23799798  1
  Sc  Sc92  1  0.01885612  0.70784646  0.16170816  1
  Sc  Sc93  1  0.11901313  0.47370214  0.16955143  1
  Sc  Sc94  1  0.57626929  0.59591046  0.88014895  1
  Sc  Sc95  1  0.73475386  0.11886478  0.50600207  1
  Sc  Sc96  1  0.10327406  0.14522772  0.70335172  1
  Sc  Sc97  1  0.61637279  0.69685771  0.08744007  1
  Sc  Sc98  1  0.01958628  0.93099624  0.45820683  1
  Sc  Sc99  1  0.53833537  0.36652303  0.52633819  1
  Nb  Nb100  1  0.30027946  0.10694787  0.81739555  1
  Nb  Nb101  1  0.92214521  0.11475032  0.40424273  1
  Nb  Nb102  1  0.21921237  0.68322050  0.12930744  1
  Nb  Nb103  1  0.57569802  0.10847174  0.29915315  1
  Nb  Nb104  1  0.36346513  0.81715708  0.09648978  1
  Nb  Nb105  1  0.43284409  0.26728778  0.68997442  1
  Nb  Nb106  1  0.16402839  0.85997328  0.05279746  1
  Nb  Nb107  1  0.47263414  0.60698356  0.53602137  1
  Nb  Nb108  1  0.93118562  0.16931445  0.20111828  1
  Nb  Nb109  1  0.99831507  0.60927236  0.66010200  1
  Nb  Nb110  1  0.44271654  0.76615538  0.89727066  1
  Nb  Nb111  1  0.76406590  0.12150628  0.71605354  1
  Nb  Nb112  1  0.30605121  0.78205194  0.57287473  1
  Nb  Nb113  1  0.34637763  0.25297223  0.48772175  1
  Nb  Nb114  1  0.92842634  0.37046800  0.14874745  1
  Nb  Nb115  1  0.31148814  0.94398779  0.94925375  1
  Nb  Nb116  1  0.15016255  0.72431520  0.71460406  1
  Nb  Nb117  1  0.35408330  0.43780281  0.57859526  1
  Nb  Nb118  1  0.05388302  0.44066741  0.97748653  1
  Nb  Nb119  1  0.40297387  0.04842009  0.39182056  1
  Nb  Nb120  1  0.44310995  0.25859056  0.31638260  1
  Nb  Nb121  1  0.64833136  0.29506751  0.68743053  1
  Nb  Nb122  1  0.72006487  0.44941951  0.79452727  1
  Nb  Nb123  1  0.86281984  0.48223867  0.63236933  1
  Nb  Nb124  1  0.44031589  0.80446624  0.44493656  1
