# generated using pymatgen
data_Zr2Sc2Nb
_symmetry_space_group_name_H-M   'P 1'
_cell_length_a   14.48851447
_cell_length_b   14.07268522
_cell_length_c   14.03483911
_cell_angle_alpha   90.06209192
_cell_angle_beta   90.19977540
_cell_angle_gamma   87.52577267
_symmetry_Int_Tables_number   1
_chemical_formula_structural   Zr2Sc2Nb
_chemical_formula_sum   'Zr50 Sc50 Nb25'
_cell_volume   2858.90930076
_cell_formula_units_Z   25
loop_
 _symmetry_equiv_pos_site_id
 _symmetry_equiv_pos_as_xyz
  1  'x, y, z'
loop_
 _atom_site_type_symbol
 _atom_site_label
 _atom_site_symmetry_multiplicity
 _atom_site_fract_x
 _atom_site_fract_y
 _atom_site_fract_z
 _atom_site_occupancy
  Zr  Zr0  1  0.14006042  0.82218653  0.13612403  1
  Zr  Zr1  1  0.02223631  0.75932947  0.95871750  1
  Zr  Zr2  1  0.66518664  0.49914627  0.89505467  1
  Zr  Zr3  1  0.91333618  0.46491956  0.44292311  1
  Zr  Zr4  1  0.06170313  0.38458676  0.87641632  1
  Zr  Zr5  1  0.19458746  0.59751193  0.58639863  1
  Zr  Zr6  1  0.20673558  0.19076078  0.50804890  1
  Zr  Zr7  1  0.40224625  0.79202056  0.39428501  1
  Zr  Zr8  1  0.54148784  0.30041009  0.92892594  1
  Zr  Zr9  1  0.53174037  0.54567894  0.30133945  1
  Zr  Zr10  1  0.80779488  0.28574983  0.42712555  1
  Zr  Zr11  1  0.40646134  0.13720122  0.09556004  1
  Zr  Zr12  1  0.68981376  0.30925396  0.78165676  1
  Zr  Zr13  1  0.62384006  0.89012574  0.79982504  1
  Zr  Zr14  1  0.23067090  0.45731742  -0.01029767  1
  Zr  Zr15  1  0.24824153  0.26838103  0.19469737  1
  Zr  Zr16  1  0.30430938  0.12458740  0.70311022  1
  Zr  Zr17  1  0.50958767  0.93305879  0.01940654  1
  Zr  Zr18  1  0.49789089  0.98919822  0.43310898  1
  Zr  Zr19  1  0.83220074  0.84656441  0.85323405  1
  Zr  Zr20  1  0.18934434  0.82370714  0.50610272  1
  Zr  Zr21  1  0.64574938  0.13850359  0.45085044  1
  Zr  Zr22  1  0.47080591  0.42626567  0.48358538  1
  Zr  Zr23  1  0.66022991  1.01562458  0.62250999  1
  Zr  Zr24  1  0.79644503  0.62104362  0.32012086  1
  Zr  Zr25  1  0.87799338  0.56897129  0.84281846  1
  Zr  Zr26  1  0.48776648  0.09205271  0.86956619  1
  Zr  Zr27  1  0.29061191  0.49033328  0.20304682  1
  Zr  Zr28  1  0.11182548  0.11215585  0.84553617  1
  Zr  Zr29  1  0.92973519  0.21719117  0.76229802  1
  Zr  Zr30  1  0.00780324  0.55219525  0.01221085  1
  Zr  Zr31  1  1.00415261  0.65198165  0.49361561  1
  Zr  Zr32  1  0.34097332  0.27584246  0.84734140  1
  Zr  Zr33  1  0.86840160  0.01781995  0.69818997  1
  Zr  Zr34  1  0.72095299  0.92707971  0.02009182  1
  Zr  Zr35  1  0.93530489  0.71251830  0.70810749  1
  Zr  Zr36  1  0.72280631  0.68957257  0.76768196  1
  Zr  Zr37  1  0.62822735  0.31974501  0.56737278  1
  Zr  Zr38  1  0.24172551  0.46204960  0.76002334  1
  Zr  Zr39  1  0.32493369  0.33547624  0.61186203  1
  Zr  Zr40  1  0.89277626  0.29568411  0.18363534  1
  Zr  Zr41  1  0.02414639  0.82586622  0.35638758  1
  Zr  Zr42  1  0.04949360  0.31089267  0.33722416  1
  Zr  Zr43  1  0.53229694  0.76636347  0.15875946  1
  Zr  Zr44  1  0.30410623  0.68264912  0.79242778  1
  Zr  Zr45  1  0.13845905  0.27380131  0.71102491  1
  Zr  Zr46  1  0.59444574  0.80021134  0.58000303  1
  Zr  Zr47  1  0.10534621  0.60651208  0.83253688  1
  Zr  Zr48  1  0.36712117  0.76726923  0.60485667  1
  Zr  Zr49  1  0.84697424  0.03704983  0.48251500  1
  Sc  Sc50  1  0.82300914  0.45236882  0.04686379  1
  Sc  Sc51  1  0.68194497  0.49418278  0.45052384  1
  Sc  Sc52  1  0.98011794  0.21912871  0.53743943  1
  Sc  Sc53  1  0.78268098  0.63685986  0.56142401  1
  Sc  Sc54  1  0.89539590  0.05188690  0.91402100  1
  Sc  Sc55  1  0.76629736  0.24926693  0.98534565  1
  Sc  Sc56  1  0.19917466  0.23033048  0.99445267  1
  Sc  Sc57  1  0.33544096  0.58053392  0.42128425  1
  Sc  Sc58  1  0.47317956  0.53490954  0.08846913  1
  Sc  Sc59  1  0.03696643  0.98276869  0.22111503  1
  Sc  Sc60  1  0.62745340  0.96428314  0.22608787  1
  Sc  Sc61  1  0.51322050  0.68677577  0.76534019  1
  Sc  Sc62  1  0.73090777  0.17627043  0.25295727  1
  Sc  Sc63  1  0.62519762  0.73123708  0.96422531  1
  Sc  Sc64  1  0.08294942  0.38337448  0.12087866  1
  Sc  Sc65  1  0.18959606  0.70860115  0.33228236  1
  Sc  Sc66  1  0.27844210  0.34754039  0.39283108  1
  Sc  Sc67  1  0.20654483  0.85283615  0.90715022  1
  Sc  Sc68  1  0.09399268  0.05334612  0.64377242  1
  Sc  Sc69  1  0.34302271  0.70080150  0.19499642  1
  Sc  Sc70  1  0.61386422  0.12506359  0.06186307  1
  Sc  Sc71  1  0.62194088  0.52406995  0.66633571  1
  Sc  Sc72  1  0.83690362  0.95004891  0.27463940  1
  Sc  Sc73  1  0.23854948  0.66348268  0.00473193  1
  Sc  Sc74  1  0.41079043  0.87503248  0.83762688  1
  Sc  Sc75  1  0.45516807  0.96763670  0.65103056  1
  Sc  Sc76  1  0.69858078  0.09446946  0.83094667  1
  Sc  Sc77  1  0.94622771  0.50718533  0.22878043  1
  Sc  Sc78  1  0.81911484  0.40904787  0.64074725  1
  Sc  Sc79  1  0.48693850  0.38664615  0.73132974  1
  Sc  Sc80  1  0.06818488  0.01249905  0.44192894  1
  Sc  Sc81  1  -0.01912710  0.86972497  0.57434970  1
  Sc  Sc82  1  0.86991163  0.09006963  0.11342045  1
  Sc  Sc83  1  0.83264493  0.79520773  0.42614720  1
  Sc  Sc84  1  0.12309848  0.51477692  0.35522414  1
  Sc  Sc85  1  1.00500593  0.48964992  0.68178448  1
  Sc  Sc86  1  0.13629043  0.76807025  0.69863524  1
  Sc  Sc87  1  0.67378168  0.58682379  0.14146333  1
  Sc  Sc88  1  0.51946882  0.17988357  0.67744425  1
  Sc  Sc89  1  0.11734066  0.39818959  0.53382817  1
  Sc  Sc90  1  0.61192564  0.34824838  0.13212820  1
  Sc  Sc91  1  0.61895311  0.74711095  0.35848927  1
  Sc  Sc92  1  0.94916607  0.72223257  0.19228381  1
  Sc  Sc93  1  1.02945453  0.91637301  0.80673008  1
  Sc  Sc94  1  0.29639257  -0.00048769  0.49785866  1
  Sc  Sc95  1  0.29685423  0.04251526  0.92605034  1
  Sc  Sc96  1  0.41932616  0.51368847  0.88658824  1
  Sc  Sc97  1  0.42101524  0.95148829  0.23315582  1
  Sc  Sc98  1  0.43667204  0.33785410  0.25715337  1
  Sc  Sc99  1  0.82287980  0.69004001  0.01337671  1
  Nb  Nb100  1  0.91270846  0.88810339  1.06727792  1
  Nb  Nb101  1  0.34337352  0.12639684  0.32415882  1
  Nb  Nb102  1  0.39319117  0.55490657  0.64203946  1
  Nb  Nb103  1  0.23244779  0.92034453  0.30427915  1
  Nb  Nb104  1  0.06212643  0.17210107  0.14703689  1
  Nb  Nb105  1  0.38857192  0.34298793  0.04884940  1
  Nb  Nb106  1  0.52612355  0.14883497  0.27428951  1
  Nb  Nb107  1  0.60637346  0.32389573  0.35420055  1
  Nb  Nb108  1  0.23017295  0.04477700  0.14283666  1
  Nb  Nb109  1  0.77259831  0.18900873  0.62871170  1
  Nb  Nb110  1  0.44372546  0.20994234  0.46937726  1
  Nb  Nb111  1  0.74357418  0.78793068  0.18502239  1
  Nb  Nb112  1  0.12787744  0.60403170  0.15939529  1
  Nb  Nb113  1  0.32562535  0.87651160  0.07302381  1
  Nb  Nb114  1  0.93866241  0.14402302  0.32368153  1
  Nb  Nb115  1  0.75433570  0.42318270  0.26781854  1
  Nb  Nb116  1  0.86395635  0.37839015  0.85393464  1
  Nb  Nb117  1  0.15794585  0.13148699  0.31939914  1
  Nb  Nb118  1  0.97818967  0.23453812  0.98124205  1
  Nb  Nb119  1  0.42382017  0.72334719  0.97940217  1
  Nb  Nb120  1  0.51897058  0.63226798  0.50952065  1
  Nb  Nb121  1  0.07800966  0.00486191  1.01448883  1
  Nb  Nb122  1  0.68427155  0.93110806  0.43209735  1
  Nb  Nb123  1  0.25039997  0.93072900  0.71268628  1
  Nb  Nb124  1  0.77900914  0.84792921  0.62973377  1
