# generated using pymatgen
data_Zr2Sc2Nb
_symmetry_space_group_name_H-M   'P 1'
_cell_length_a   14.15845682
_cell_length_b   14.25090255
_cell_length_c   14.27988060
_cell_angle_alpha   91.48252176
_cell_angle_beta   90.29828396
_cell_angle_gamma   91.30883288
_symmetry_Int_Tables_number   1
_chemical_formula_structural   Zr2Sc2Nb
_chemical_formula_sum   'Zr50 Sc50 Nb25'
_cell_volume   2879.49839308
_cell_formula_units_Z   25
loop_
 _symmetry_equiv_pos_site_id
 _symmetry_equiv_pos_as_xyz
  1  'x, y, z'
loop_
 _atom_site_type_symbol
 _atom_site_label
 _atom_site_symmetry_multiplicity
 _atom_site_fract_x
 _atom_site_fract_y
 _atom_site_fract_z
 _atom_site_occupancy
  Zr  Zr0  1  0.73477960  0.46475597  0.14994151  1
  Zr  Zr1  1  0.10186483  0.64106316  0.85135130  1
  Zr  Zr2  1  0.89454176  0.71078815  0.98515879  1
  Zr  Zr3  1  0.96542835  0.53290952  0.38014674  1
  Zr  Zr4  1  0.13105398  0.24141218  0.08079368  1
  Zr  Zr5  1  0.12912075  0.53988151  0.22460968  1
  Zr  Zr6  1  0.11809886  0.79121392  0.71744328  1
  Zr  Zr7  1  0.73401845  0.52733497  0.38545027  1
  Zr  Zr8  1  0.64427107  0.08136711  0.34118581  1
  Zr  Zr9  1  0.78844094  0.28317712  0.06852136  1
  Zr  Zr10  1  0.08330380  0.41911609  0.92864584  1
  Zr  Zr11  1  0.04384615  0.32163272  0.34474318  1
  Zr  Zr12  1  0.84645300  0.45085234  0.54666877  1
  Zr  Zr13  1  0.73495882  0.48234333  0.74053817  1
  Zr  Zr14  1  0.71116566  0.84917555  0.05564931  1
  Zr  Zr15  1  0.65957610  0.93221805  0.51553254  1
  Zr  Zr16  1  0.72142548  0.82540011  0.68263516  1
  Zr  Zr17  1  0.41343850  0.94549257  0.87057872  1
  Zr  Zr18  1  0.04825972  0.58818156  1.04158880  1
  Zr  Zr19  1  0.27472747  0.71156772  0.21490671  1
  Zr  Zr20  1  0.35117162  0.26049929  0.08499545  1
  Zr  Zr21  1  0.30877787  0.91749632  0.65602897  1
  Zr  Zr22  1  0.43909101  0.37585232  0.90096750  1
  Zr  Zr23  1  0.01362215  0.07531933  0.46747279  1
  Zr  Zr24  1  0.96381671  0.25026374  0.92342012  1
  Zr  Zr25  1  0.32081166  0.28983840  0.70563477  1
  Zr  Zr26  1  0.08339245  0.11657919  0.27494186  1
  Zr  Zr27  1  0.79999935  0.08418907  0.50195408  1
  Zr  Zr28  1  0.10813340  0.89467685  0.53585809  1
  Zr  Zr29  1  0.73639969  0.05386658  0.70853691  1
  Zr  Zr30  1  0.88988286  0.58395657  0.18704331  1
  Zr  Zr31  1  0.28228153  0.12893159  0.21988052  1
  Zr  Zr32  1  0.80401798  0.08748435  0.93084664  1
  Zr  Zr33  1  0.04314615  0.74716857  0.19740703  1
  Zr  Zr34  1  0.25494917  0.25102897  0.41196779  1
  Zr  Zr35  1  0.31170653  0.09635131  0.75961610  1
  Zr  Zr36  1  0.04870753  0.90156009  0.32918653  1
  Zr  Zr37  1  0.25387970  0.63128125  0.01471912  1
  Zr  Zr38  1  0.25818676  0.44068066  0.06403877  1
  Zr  Zr39  1  0.29494082  0.51008843  0.83653545  1
  Zr  Zr40  1  0.45245686  0.14540124  0.35607673  1
  Zr  Zr41  1  1.00166750  0.04620988  0.89104574  1
  Zr  Zr42  1  0.11951934  0.27486813  0.56448737  1
  Zr  Zr43  1  0.70143059  0.28982353  0.43617393  1
  Zr  Zr44  1  0.69309418  0.67557826  0.25178572  1
  Zr  Zr45  1  0.62464573  0.96775933  0.86164736  1
  Zr  Zr46  1  0.38321271  0.60534787  0.65026125  1
  Zr  Zr47  1  0.91285764  0.26795419  0.49465025  1
  Zr  Zr48  1  0.46911969  0.71506681  0.33388620  1
  Zr  Zr49  1  0.49998561  0.58978408  0.83477361  1
  Sc  Sc50  1  0.98118054  0.38474729  0.13423630  1
  Sc  Sc51  1  0.65089142  0.27666555  0.24016792  1
  Sc  Sc52  1  0.73297934  0.26709329  0.63979701  1
  Sc  Sc53  1  0.16828573  0.58559434  0.62533463  1
  Sc  Sc54  1  0.49170163  0.30872615  0.51155564  1
  Sc  Sc55  1  0.34685725  0.82781892  0.04413148  1
  Sc  Sc56  1  0.64369033  0.46873900  0.93849941  1
  Sc  Sc57  1  0.86081405  0.47955384  0.94854571  1
  Sc  Sc58  1  0.54602590  0.35010580  0.08332713  1
  Sc  Sc59  1  0.59819583  0.62839356  0.64152681  1
  Sc  Sc60  1  0.51761065  -0.00241399  0.67329761  1
  Sc  Sc61  1  0.95098503  0.12840996  0.67475173  1
  Sc  Sc62  1  0.45653885  0.56138526  0.04371082  1
  Sc  Sc63  1  0.50601635  0.79715467  0.73596208  1
  Sc  Sc64  1  0.38311677  0.12782118  0.55914731  1
  Sc  Sc65  1  0.93315212  0.92210680  0.69729740  1
  Sc  Sc66  1  0.67653269  0.72807940  0.45897637  1
  Sc  Sc67  1  0.51636280  0.75235934  0.14442562  1
  Sc  Sc68  1  0.30585550  0.42772611  0.55125598  1
  Sc  Sc69  1  0.72421196  0.06581667  0.13987902  1
  Sc  Sc70  1  0.46941173  0.95440367  0.43773319  1
  Sc  Sc71  1  0.75004920  0.28755945  0.85171558  1
  Sc  Sc72  1  0.92792480  0.91906523  0.07465324  1
  Sc  Sc73  1  0.20436629  0.11643580  0.93171586  1
  Sc  Sc74  1  0.86904073  0.86172708  0.50947144  1
  Sc  Sc75  1  0.29074011  0.83246628  0.39403764  1
  Sc  Sc76  1  0.11860551  0.69659133  0.39674726  1
  Sc  Sc77  1  0.54298814  0.76830718  0.93965042  1
  Sc  Sc78  1  0.54346137  0.21000505  0.74038139  1
  Sc  Sc79  1  0.49408000  0.52893675  0.44793811  1
  Sc  Sc80  1  0.93926665  0.13808232  0.10886230  1
  Sc  Sc81  1  0.50344558  0.42540893  0.70161083  1
  Sc  Sc82  1  0.14155629  0.41275002  0.73107960  1
  Sc  Sc83  1  0.71763359  0.67411826  0.84188121  1
  Sc  Sc84  1  0.30945067  0.73744177  0.81968324  1
  Sc  Sc85  1  0.99040069  0.68225506  0.56156045  1
  Sc  Sc86  1  0.11849558  0.00328229  0.07850106  1
  Sc  Sc87  1  0.53573399  0.96720737  0.06100087  1
  Sc  Sc88  1  0.46365532  0.76925566  0.53403979  1
  Sc  Sc89  1  0.61721841  0.17014950  0.97844147  1
  Sc  Sc90  1  0.42571468  0.16032066  0.92158198  1
  Sc  Sc91  1  0.63775651  0.87979622  0.27974704  1
  Sc  Sc92  1  0.95097535  0.53781503  0.73425375  1
  Sc  Sc93  1  0.42660383  0.34132582  0.28666484  1
  Sc  Sc94  1  0.85388878  0.17550860  0.30185660  1
  Sc  Sc95  1  0.93494256  0.33238365  0.72213265  1
  Sc  Sc96  1  0.81752989  0.88322487  0.87416157  1
  Sc  Sc97  1  0.54765747  0.52541338  0.23199240  1
  Sc  Sc98  1  0.24427265  0.02931153  0.40172437  1
  Sc  Sc99  1  0.84796480  0.95733071  0.30915693  1
  Nb  Nb100  1  0.21444722  0.91542475  0.89061241  1
  Nb  Nb101  1  0.17970361  0.09676074  0.59282972  1
  Nb  Nb102  1  0.22182576  0.90946916  0.21082022  1
  Nb  Nb103  1  0.50075630  0.14205359  0.16008370  1
  Nb  Nb104  1  0.41717904  0.94662961  0.23582608  1
  Nb  Nb105  1  0.79626629  0.63816363  0.60005132  1
  Nb  Nb106  1  0.30827623  0.62164510  0.43517029  1
  Nb  Nb107  1  0.13503952  0.79252152  0.03166076  1
  Nb  Nb108  1  0.04153023  0.44856032  0.54493836  1
  Nb  Nb109  1  0.84517836  0.38030735  0.30262630  1
  Nb  Nb110  1  0.02504782  0.84699859  0.88700700  1
  Nb  Nb111  1  0.83875324  0.78104641  0.18638916  1
  Nb  Nb112  1  0.90664197  0.72851467  0.75757588  1
  Nb  Nb113  1  0.88397602  0.71887916  0.36476818  1
  Nb  Nb114  1  0.25614459  0.74962298  0.57737312  1
  Nb  Nb115  1  0.21375680  0.34521948  0.23763371  1
  Nb  Nb116  1  0.33659372  0.52760977  0.25868921  1
  Nb  Nb117  1  0.65303748  0.45144709  0.55857145  1
  Nb  Nb118  1  0.12394493  0.99804346  0.74174761  1
  Nb  Nb119  1  0.59735979  0.12755025  0.53589557  1
  Nb  Nb120  1  0.24788600  0.30469169  0.89584048  1
  Nb  Nb121  1  0.33502622  0.02866079  0.05965806  1
  Nb  Nb122  1  0.69360739  0.64286896  0.05577761  1
  Nb  Nb123  1  0.18025706  0.46978703  0.40454143  1
  Nb  Nb124  1  0.11825042  0.20897142  0.77217962  1
