# generated using pymatgen
data_Zr2Sc2Nb
_symmetry_space_group_name_H-M   'P 1'
_cell_length_a   14.32180978
_cell_length_b   14.11758449
_cell_length_c   14.23882891
_cell_angle_alpha   89.51826391
_cell_angle_beta   89.32400425
_cell_angle_gamma   91.55339904
_symmetry_Int_Tables_number   1
_chemical_formula_structural   Zr2Sc2Nb
_chemical_formula_sum   'Zr50 Sc50 Nb25'
_cell_volume   2877.57167386
_cell_formula_units_Z   25
loop_
 _symmetry_equiv_pos_site_id
 _symmetry_equiv_pos_as_xyz
  1  'x, y, z'
loop_
 _atom_site_type_symbol
 _atom_site_label
 _atom_site_symmetry_multiplicity
 _atom_site_fract_x
 _atom_site_fract_y
 _atom_site_fract_z
 _atom_site_occupancy
  Zr  Zr0  1  0.02408617  0.14011952  0.10905613  1
  Zr  Zr1  1  0.39053289  0.55491389  0.89674073  1
  Zr  Zr2  1  0.71077786  0.10206919  0.54953915  1
  Zr  Zr3  1  0.85107314  0.10495517  0.71400184  1
  Zr  Zr4  1  0.09106095  0.58215337  0.05065623  1
  Zr  Zr5  1  1.00119816  0.41634444  0.42801227  1
  Zr  Zr6  1  0.89066954  0.81017102  0.44011501  1
  Zr  Zr7  1  0.95253792  0.89555419  0.23470334  1
  Zr  Zr8  1  0.21051491  0.62825384  0.23825991  1
  Zr  Zr9  1  0.74749739  0.23416853  0.88840421  1
  Zr  Zr10  1  0.18624056  0.82929391  0.31557716  1
  Zr  Zr11  1  0.40708376  0.54399505  0.32101748  1
  Zr  Zr12  1  0.40672848  0.33181504  0.42689721  1
  Zr  Zr13  1  0.19037656  0.28996883  0.50517085  1
  Zr  Zr14  1  0.70855847  0.53781934  0.64661478  1
  Zr  Zr15  1  0.22302573  0.43455054  0.35881097  1
  Zr  Zr16  1  0.74381465  0.65335545  0.01756697  1
  Zr  Zr17  1  0.15165308  -0.00642670  0.96120247  1
  Zr  Zr18  1  0.23199062  0.20849023  0.12028046  1
  Zr  Zr19  1  0.87634718  0.03070275  0.48301636  1
  Zr  Zr20  1  0.38981279  0.06469317  0.19407456  1
  Zr  Zr21  1  0.78038209  0.43385046  0.48366348  1
  Zr  Zr22  1  0.51037309  0.63447091  0.51734093  1
  Zr  Zr23  1  0.05892715  0.95983001  0.40518782  1
  Zr  Zr24  1  0.62930427  0.74929889  0.65964000  1
  Zr  Zr25  1  0.54319290  0.88612537  0.17568023  1
  Zr  Zr26  1  0.32133707  0.71910515  0.43425314  1
  Zr  Zr27  1  0.54079393  0.91853683  0.78560067  1
  Zr  Zr28  1  0.13358261  0.60413956  0.44126560  1
  Zr  Zr29  1  0.70120183  0.48265571  0.13390749  1
  Zr  Zr30  1  0.57545143  1.01048652  0.36322420  1
  Zr  Zr31  1  0.15739243  1.00548090  0.19281184  1
  Zr  Zr32  1  0.47345823  0.83578054  0.52967514  1
  Zr  Zr33  1  0.40969855  0.12474234  0.41234104  1
  Zr  Zr34  1  0.96110579  0.93640392  0.03558353  1
  Zr  Zr35  1  0.95826368  0.10677681  0.30113797  1
  Zr  Zr36  1  0.57160494  0.76937369  0.34690989  1
  Zr  Zr37  1  0.84905495  0.24893713  0.43975767  1
  Zr  Zr38  1  0.89083461  0.31273863  0.22868534  1
  Zr  Zr39  1  0.00109006  0.69491405  0.30348058  1
  Zr  Zr40  1  1.00669716  0.44585855  0.89349276  1
  Zr  Zr41  1  0.49082092  0.50530875  0.70334121  1
  Zr  Zr42  1  0.56321654  0.43534837  0.51665710  1
  Zr  Zr43  1  0.55009608  0.18748958  0.89880060  1
  Zr  Zr44  1  0.25669730  0.69174288  0.64368881  1
  Zr  Zr45  1  0.58556430  0.67015418  0.15265524  1
  Zr  Zr46  1  0.94106307  0.27690422  0.80884822  1
  Zr  Zr47  1  0.07404720  0.36179524  0.09127512  1
  Zr  Zr48  1  0.21474139  0.12052204  0.36309858  1
  Zr  Zr49  1  0.74166706  0.14247491  0.30644278  1
  Sc  Sc50  1  0.48486566  0.75652006  0.96924883  1
  Sc  Sc51  1  0.88529444  0.64302300  0.85330541  1
  Sc  Sc52  1  0.70345015  0.25832059  0.11293850  1
  Sc  Sc53  1  0.38577576  0.73758154  0.21098426  1
  Sc  Sc54  1  0.34995923  0.90836539  0.68149608  1
  Sc  Sc55  1  0.23506805  0.09448643  0.76308805  1
  Sc  Sc56  1  0.12732280  0.80070197  0.11585790  1
  Sc  Sc57  1  0.72757234  0.66688318  0.46793326  1
  Sc  Sc58  1  0.75218617  0.29895262  0.66203869  1
  Sc  Sc59  1  0.16790073  0.30122090  0.73190913  1
  Sc  Sc60  1  0.10844174  0.79319621  0.52146138  1
  Sc  Sc61  1  0.90267938  0.47724339  0.69875524  1
  Sc  Sc62  1  0.21644033  0.42973865  0.93609187  1
  Sc  Sc63  1  -0.02153269  0.27824925  0.60051041  1
  Sc  Sc64  1  0.26073091  0.95539884  0.50480042  1
  Sc  Sc65  1  0.92421655  0.71780684  0.09815375  1
  Sc  Sc66  1  0.06523344  0.77291967  0.91801165  1
  Sc  Sc67  1  0.11257081  0.21955701  0.92848235  1
  Sc  Sc68  1  0.51418432  0.40028667  0.19845226  1
  Sc  Sc69  1  0.44679639  0.70837944  0.74306781  1
  Sc  Sc70  1  0.28251278  0.76350526  0.86217937  1
  Sc  Sc71  1  0.70266517  0.79991352  0.86507101  1
  Sc  Sc72  1  0.90152426  0.49497128  0.08634983  1
  Sc  Sc73  1  0.77891882  0.45070294  0.91240123  1
  Sc  Sc74  1  0.03586301  0.06589643  0.78475078  1
  Sc  Sc75  1  0.84656157  0.52853162  0.30128619  1
  Sc  Sc76  1  0.33326445  0.13894579  0.95513277  1
  Sc  Sc77  1  0.02428419  0.69300053  0.68968881  1
  Sc  Sc78  1  0.11698052  0.48086281  0.61845432  1
  Sc  Sc79  1  0.32671457  0.51960409  0.52963364  1
  Sc  Sc80  1  0.50558708  0.99779165  0.99057486  1
  Sc  Sc81  1  0.39971504  0.32559062  0.82515700  1
  Sc  Sc82  1  0.53058054  0.25368331  0.65480043  1
  Sc  Sc83  1  0.60590912  0.24036543  0.45625024  1
  Sc  Sc84  1  0.75640988  0.92725936  0.29335758  1
  Sc  Sc85  1  0.92572377  0.60577297  0.51649199  1
  Sc  Sc86  1  0.32128836  0.88874820  0.07278498  1
  Sc  Sc87  1  0.95264260  0.90707403  0.62986983  1
  Sc  Sc88  1  0.15048385  0.60053436  0.83014075  1
  Sc  Sc89  1  0.37954299  0.35925684  0.03381394  1
  Sc  Sc90  1  0.62394329  0.54858179  0.33093643  1
  Sc  Sc91  1  0.51477890  0.03302029  0.58546297  1
  Sc  Sc92  1  0.38534050  0.91201399  0.33803522  1
  Sc  Sc93  1  0.10200042  0.27819957  0.28645268  1
  Sc  Sc94  1  0.14722776  0.88404184  0.74026659  1
  Sc  Sc95  1  0.74646263  0.86712574  0.08751548  1
  Sc  Sc96  1  0.69438875  0.88415982  0.50222033  1
  Sc  Sc97  1  0.72183615  0.01494962  0.92360544  1
  Sc  Sc98  1  0.09710828  0.09345766  0.57389686  1
  Sc  Sc99  1  0.89785096  0.88951185  0.83447427  1
  Nb  Nb100  1  0.57155416  0.54916844  0.97159619  1
  Nb  Nb101  1  0.91298421  0.10437710  0.93565223  1
  Nb  Nb102  1  0.26955007  0.65725092  0.03546324  1
  Nb  Nb103  1  0.63053211  0.06109262  0.14522251  1
  Nb  Nb104  1  0.43279091  0.09891776  0.76464408  1
  Nb  Nb105  1  0.35161862  0.34252847  0.62415141  1
  Nb  Nb106  1  0.64467769  0.10313211  0.74497139  1
  Nb  Nb107  1  0.24877055  0.45145680  0.15675371  1
  Nb  Nb108  1  0.41570180  0.55801483  0.10452816  1
  Nb  Nb109  1  0.32268589  0.15104753  0.58751079  1
  Nb  Nb110  1  0.54202943  0.20510926  0.26937541  1
  Nb  Nb111  1  0.74068386  0.93460029  0.69509536  1
  Nb  Nb112  1  0.65755809  0.60774994  0.81517655  1
  Nb  Nb113  1  0.29114540  0.49642134  0.73498135  1
  Nb  Nb114  1  0.34486365  0.95063091  0.87321507  1
  Nb  Nb115  1  0.61505222  0.39280867  0.80081382  1
  Nb  Nb116  1  0.89878461  0.28434365  0.01861368  1
  Nb  Nb117  1  0.82904986  0.08112456  0.12118319  1
  Nb  Nb118  1  0.34322103  0.27910892  0.25273947  1
  Nb  Nb119  1  0.48606771  0.20221218  0.09191836  1
  Nb  Nb120  1  0.81878058  0.73532470  0.66716871  1
  Nb  Nb121  1  0.69777475  0.35355270  0.31002712  1
  Nb  Nb122  1  0.76938725  0.71580469  0.24653467  1
  Nb  Nb123  1  0.05016764  0.49473283  0.24742347  1
  Nb  Nb124  1  0.58005980  0.36537713  0.98943191  1
