# generated using pymatgen
data_Zr2Sc2Nb
_symmetry_space_group_name_H-M   'P 1'
_cell_length_a   14.07074213
_cell_length_b   14.16918247
_cell_length_c   14.48368749
_cell_angle_alpha   89.02477008
_cell_angle_beta   90.93214038
_cell_angle_gamma   89.48917403
_symmetry_Int_Tables_number   1
_chemical_formula_structural   Zr2Sc2Nb
_chemical_formula_sum   'Zr50 Sc50 Nb25'
_cell_volume   2886.70359478
_cell_formula_units_Z   25
loop_
 _symmetry_equiv_pos_site_id
 _symmetry_equiv_pos_as_xyz
  1  'x, y, z'
loop_
 _atom_site_type_symbol
 _atom_site_label
 _atom_site_symmetry_multiplicity
 _atom_site_fract_x
 _atom_site_fract_y
 _atom_site_fract_z
 _atom_site_occupancy
  Zr  Zr0  1  0.44114410  0.94639158  0.86016271  1
  Zr  Zr1  1  0.84746639  0.54386143  0.13426112  1
  Zr  Zr2  1  0.37182735  0.02684481  0.64505935  1
  Zr  Zr3  1  0.94785554  0.20938329  0.43103848  1
  Zr  Zr4  1  0.74222963  0.39998527  0.73326783  1
  Zr  Zr5  1  0.53959772  0.88488489  0.66319108  1
  Zr  Zr6  1  0.15444332  0.52004516  0.41403350  1
  Zr  Zr7  1  0.44655948  0.24474288  0.60390285  1
  Zr  Zr8  1  0.62451889  0.66976226  0.52812106  1
  Zr  Zr9  1  0.06107295  0.87694805  0.03741525  1
  Zr  Zr10  1  0.93449100  0.06612993  0.60584282  1
  Zr  Zr11  1  0.74763613  0.65337849  0.30395610  1
  Zr  Zr12  1  0.60134572  0.19684349  0.28599862  1
  Zr  Zr13  1  0.88622920  0.37963661  0.28079062  1
  Zr  Zr14  1  0.42390365  0.16856245  0.93749843  1
  Zr  Zr15  1  0.55176965  0.09633674  0.49397737  1
  Zr  Zr16  1  0.55475463  0.30695391  0.77916638  1
  Zr  Zr17  1  0.58535589  0.77782202  0.34378042  1
  Zr  Zr18  1  0.92524060  0.70792031  0.69059318  1
  Zr  Zr19  1  0.35184428  0.67168414  0.30723049  1
  Zr  Zr20  1  0.13601610  0.10837868  0.32590708  1
  Zr  Zr21  1  0.27669053  0.03038998  0.20782048  1
  Zr  Zr22  1  0.05491705  0.69036251  0.16039863  1
  Zr  Zr23  1  0.09009638  0.90587808  0.24932495  1
  Zr  Zr24  1  0.36187781  0.70334768  0.85562240  1
  Zr  Zr25  1  0.52967026  0.10315525  0.74771146  1
  Zr  Zr26  1  0.68099065  0.43293355  0.26164902  1
  Zr  Zr27  1  0.67010967  0.88278210  0.49209163  1
  Zr  Zr28  1  0.08651099  0.47009299  0.19662574  1
  Zr  Zr29  1  0.13404176  0.96083078  0.69247358  1
  Zr  Zr30  1  0.18368723  0.20133296  0.93213128  1
  Zr  Zr31  1  0.83741452  0.52762105  0.89145091  1
  Zr  Zr32  1  0.93041780  0.48967696  0.68228538  1
  Zr  Zr33  1  0.08694322  0.07575458  0.09096438  1
  Zr  Zr34  1  0.88152997  0.92704784  0.75934402  1
  Zr  Zr35  1  0.22684674  0.87827720  0.86402951  1
  Zr  Zr36  1  0.70203177  0.66836204  0.02412702  1
  Zr  Zr37  1  0.09536172  0.32745926  0.34608444  1
  Zr  Zr38  1  0.14787072  0.39342010  0.97983513  1
  Zr  Zr39  1  0.48666762  0.04384857  0.10991984  1
  Zr  Zr40  1  0.56826122  0.75358439  0.86757757  1
  Zr  Zr41  1  0.02863785  0.53693680  0.00810959  1
  Zr  Zr42  1  0.12214130  0.09621311  0.52750751  1
  Zr  Zr43  1  0.84959230  0.92106877  0.97721694  1
  Zr  Zr44  1  0.56380560  0.25576536  0.09687167  1
  Zr  Zr45  1  0.71538561  0.02117391  0.65622631  1
  Zr  Zr46  1  0.85421119  0.77524508  0.15941360  1
  Zr  Zr47  1  0.90467080  0.98213114  0.17524195  1
  Zr  Zr48  1  0.87540884  0.14261312  0.01634452  1
  Zr  Zr49  1  0.24835576  0.52755339  0.85189661  1
  Sc  Sc50  1  0.24864187  0.80089447  0.14476069  1
  Sc  Sc51  1  0.28375795  0.00409769  0.01091321  1
  Sc  Sc52  1  0.92754693  0.70972538  0.97999264  1
  Sc  Sc53  1  0.67126983  0.94392403  0.85186234  1
  Sc  Sc54  1  0.13625196  0.37386824  0.76888823  1
  Sc  Sc55  1  0.09052007  0.88278896  0.46894304  1
  Sc  Sc56  1  0.73368698  0.48462524  0.49614083  1
  Sc  Sc57  1  0.14166072  0.54095412  0.63046409  1
  Sc  Sc58  1  0.31962067  0.09360447  0.45025966  1
  Sc  Sc59  1  0.09514545  0.32745978  0.56294985  1
  Sc  Sc60  1  0.67020532  0.23521953  0.61092749  1
  Sc  Sc61  1  0.55563462  0.64754937  0.17530309  1
  Sc  Sc62  1  0.95511199  0.58962538  0.32176894  1
  Sc  Sc63  1  0.70092391  0.05989102  0.11776957  1
  Sc  Sc64  1  0.26642716  0.56809217  0.09473409  1
  Sc  Sc65  1  0.29483264  0.44414702  0.27517686  1
  Sc  Sc66  1  0.48491741  0.43955889  0.17742277  1
  Sc  Sc67  1  0.47684984  0.57693086  0.99526238  1
  Sc  Sc68  1  0.54206886  0.55499013  0.36790822  1
  Sc  Sc69  1  0.94231566  0.45083483  0.47703410  1
  Sc  Sc70  1  0.02361109  0.67350304  0.50910721  1
  Sc  Sc71  1  0.15938708  0.73914941  0.70211404  1
  Sc  Sc72  1  0.44756492  0.49891158  0.79942626  1
  Sc  Sc73  1  0.25056473  0.20596252  0.66009169  1
  Sc  Sc74  1  0.50981812  0.34117982  0.41574743  1
  Sc  Sc75  1  0.05859833  0.17307405  0.74085714  1
  Sc  Sc76  1  0.36447190  0.52437229  0.47648714  1
  Sc  Sc77  1  0.43714383  0.81014535  0.03041334  1
  Sc  Sc78  1  0.17939520  0.26168007  0.15584086  1
  Sc  Sc79  1  0.16213690  0.69940672  0.95679447  1
  Sc  Sc80  1  0.28403185  0.30525538  0.44876852  1
  Sc  Sc81  1  0.44107900  0.86633186  0.23002716  1
  Sc  Sc82  1  0.38171535  0.23840916  0.23844914  1
  Sc  Sc83  1  0.34533830  0.35513625  0.03677602  1
  Sc  Sc84  1  0.64039215  0.14602617  0.93126729  1
  Sc  Sc85  1  0.43073187  0.73784291  0.50849529  1
  Sc  Sc86  1  0.82303399  0.14941820  0.79947993  1
  Sc  Sc87  1  0.31980757  0.41188089  0.64694562  1
  Sc  Sc88  1  0.93921492  0.34999681  0.06677058  1
  Sc  Sc89  1  0.64725251  0.85337657  0.13342358  1
  Sc  Sc90  1  0.97323227  0.19690677  0.21257596  1
  Sc  Sc91  1  0.74370243  0.28813880  0.41705444  1
  Sc  Sc92  1  0.78191362  0.74006809  0.84385245  1
  Sc  Sc93  1  0.88527876  0.87673278  0.53855623  1
  Sc  Sc94  1  0.76679244  0.07259415  0.46335091  1
  Sc  Sc95  1  0.88611226  0.27988696  0.62489844  1
  Sc  Sc96  1  0.54883610  0.46926558  0.61588917  1
  Sc  Sc97  1  0.03992066  0.02693023  0.88586419  1
  Sc  Sc98  1  0.95065911  0.33798008  0.85561419  1
  Sc  Sc99  1  0.74340778  0.32812165  0.93701881  1
  Nb  Nb100  1  0.52869796  0.37524778  0.94907015  1
  Nb  Nb101  1  0.62069336  0.98992174  0.30419732  1
  Nb  Nb102  1  0.28184595  0.87980161  0.35757653  1
  Nb  Nb103  1  0.04256311  0.58598982  0.81944613  1
  Nb  Nb104  1  0.94285374  0.79348874  0.34332268  1
  Nb  Nb105  1  0.78325710  0.89315430  0.32165898  1
  Nb  Nb106  1  0.44503033  0.05450719  0.30831381  1
  Nb  Nb107  1  0.72348710  0.79697157  0.66857218  1
  Nb  Nb108  1  0.27713345  0.07947028  0.81328009  1
  Nb  Nb109  1  0.95139566  0.01416808  0.37801183  1
  Nb  Nb110  1  0.27364772  0.89427520  0.54683230  1
  Nb  Nb111  1  0.33946300  0.30814833  0.82736815  1
  Nb  Nb112  1  0.63909996  0.53866727  0.85517053  1
  Nb  Nb113  1  0.34152270  0.62208323  0.66226067  1
  Nb  Nb114  1  0.73954238  0.59752872  0.68661161  1
  Nb  Nb115  1  0.23458678  0.70488374  0.50360843  1
  Nb  Nb116  1  0.66730717  0.46765462  0.06162933  1
  Nb  Nb117  1  0.46033527  0.92374919  0.45308767  1
  Nb  Nb118  1  0.81651107  0.68972795  0.49086369  1
  Nb  Nb119  1  0.79864591  1.12707659  0.28018402  1
  Nb  Nb120  1  0.76014223  0.27727298  0.14782419  1
  Nb  Nb121  1  0.14742615  0.71411574  0.33090755  1
  Nb  Nb122  1  0.53513178  0.67083789  0.70438997  1
  Nb  Nb123  1  0.35682685  0.81878915  0.70044171  1
  Nb  Nb124  1  0.02086930  0.81464777  0.83943996  1
