# generated using pymatgen
data_Zr2Sc2Nb
_symmetry_space_group_name_H-M   'P 1'
_cell_length_a   14.29830897
_cell_length_b   14.18672182
_cell_length_c   14.16088114
_cell_angle_alpha   91.85920679
_cell_angle_beta   87.89259655
_cell_angle_gamma   91.13383724
_symmetry_Int_Tables_number   1
_chemical_formula_structural   Zr2Sc2Nb
_chemical_formula_sum   'Zr50 Sc50 Nb25'
_cell_volume   2868.52877393
_cell_formula_units_Z   25
loop_
 _symmetry_equiv_pos_site_id
 _symmetry_equiv_pos_as_xyz
  1  'x, y, z'
loop_
 _atom_site_type_symbol
 _atom_site_label
 _atom_site_symmetry_multiplicity
 _atom_site_fract_x
 _atom_site_fract_y
 _atom_site_fract_z
 _atom_site_occupancy
  Zr  Zr0  1  0.58376912  0.96538440  0.87032512  1
  Zr  Zr1  1  0.83604913  0.28650536  0.40096332  1
  Zr  Zr2  1  0.40653561  0.65033433  0.52573367  1
  Zr  Zr3  1  0.42305597  0.81760387  0.83036356  1
  Zr  Zr4  1  0.81571584  0.53701711  0.30267840  1
  Zr  Zr5  1  0.07668549  0.10826272  0.11075454  1
  Zr  Zr6  1  0.34270866  0.74564440  0.33064933  1
  Zr  Zr7  1  0.53527002  0.48226376  0.60294042  1
  Zr  Zr8  1  0.72415984  0.59869486  0.66614714  1
  Zr  Zr9  1  0.62409919  0.30465508  0.11787963  1
  Zr  Zr10  1  0.36555533  0.48848604  0.73521142  1
  Zr  Zr11  1  0.88763245  0.11536186  0.27181089  1
  Zr  Zr12  1  0.29148743  0.45866932  0.07682937  1
  Zr  Zr13  1  0.26792235  0.93536572  0.34893857  1
  Zr  Zr14  1  0.82924758  0.68620711  0.03056199  1
  Zr  Zr15  1  0.30086382  0.95813366  0.74165477  1
  Zr  Zr16  1  0.78068513  0.08480321  0.46562047  1
  Zr  Zr17  1  0.65327003  0.17243805  0.30862471  1
  Zr  Zr18  1  0.06472530  0.85834796  0.45903416  1
  Zr  Zr19  1  0.76070388  0.49431567  0.07651085  1
  Zr  Zr20  1  0.81904188  0.70508373  0.46936655  1
  Zr  Zr21  1  0.89363934  0.90681424  0.35771799  1
  Zr  Zr22  1  0.24296678  0.74142820  0.95103182  1
  Zr  Zr23  1  0.08645673  0.01445792  0.71481828  1
  Zr  Zr24  1  0.89245929  0.08166530  0.73395679  1
  Zr  Zr25  1  0.76655602  0.12611828  0.89814534  1
  Zr  Zr26  1  0.67114399  0.20320856  0.72809359  1
  Zr  Zr27  1  0.61785155  0.52003953  0.23516027  1
  Zr  Zr28  1  0.23488688  0.26457277  0.48170860  1
  Zr  Zr29  1  0.20875888  0.36679749  0.66130263  1
  Zr  Zr30  1  0.98346245  0.79553390  0.96586155  1
  Zr  Zr31  1  0.46611282  0.78245615  0.02384811  1
  Zr  Zr32  1  0.41718328  0.29315696  0.57739932  1
  Zr  Zr33  1  0.12848082  0.77533016  0.27309986  1
  Zr  Zr34  1  0.36987342  0.07900969  0.50603593  1
  Zr  Zr35  1  0.11877648  0.52588669  0.23112496  1
  Zr  Zr36  1  0.87112290  0.30993503  0.79261326  1
  Zr  Zr37  1  0.60760185  0.70933693  0.52403501  1
  Zr  Zr38  1  0.70488767  1.01358828  0.68123862  1
  Zr  Zr39  1  0.88947490  0.35815084  0.98573059  1
  Zr  Zr40  1  0.07671475  0.01056231  0.30114495  1
  Zr  Zr41  1  0.28715574  0.69319744  0.72543682  1
  Zr  Zr42  1  0.04753248  0.22056853  0.89653993  1
  Zr  Zr43  1  0.84151957  0.47550581  0.51550366  1
  Zr  Zr44  1  0.40561589  0.59714184  0.92040966  1
  Zr  Zr45  1  0.25205134  0.32328623  0.86641423  1
  Zr  Zr46  1  0.49313554  1.00016253  0.06971238  1
  Zr  Zr47  1  0.19984724  0.53761124  0.87851768  1
  Zr  Zr48  1  0.89117679  0.16418039  0.05907578  1
  Zr  Zr49  1  0.98327395  0.01108962  0.92536089  1
  Sc  Sc50  1  0.09669262  0.41698457  0.01233810  1
  Sc  Sc51  1  0.44391901  0.25103063  0.36289292  1
  Sc  Sc52  1  0.05545378  0.21498267  0.66271060  1
  Sc  Sc53  1  0.57376573  0.08851947  0.51337132  1
  Sc  Sc54  1  0.89033863  0.91173774  0.58296065  1
  Sc  Sc55  1  0.19976443  0.66902737  0.47115989  1
  Sc  Sc56  1  0.93080341  0.72070722  0.21993214  1
  Sc  Sc57  1  0.27429041  0.05931622  0.13629731  1
  Sc  Sc58  1  0.84755459  0.24773000  0.59838493  1
  Sc  Sc59  1  0.67794977  0.87960810  0.06060999  1
  Sc  Sc60  1  0.63647588  0.68318484  0.11421787  1
  Sc  Sc61  1  0.25211010  0.66533065  0.13792586  1
  Sc  Sc62  1  0.37255636  0.13976916  0.91466532  1
  Sc  Sc63  1  0.12842807  0.89224637  0.08744648  1
  Sc  Sc64  1  0.45550845  0.03958730  0.28911606  1
  Sc  Sc65  1  0.51246619  0.66908282  0.71753923  1
  Sc  Sc66  1  0.13530100  0.81307158  0.64966093  1
  Sc  Sc67  1  0.26753643  0.16193030  0.70665578  1
  Sc  Sc68  1  0.82108709  0.32678118  0.19969369  1
  Sc  Sc69  1  0.52181407  0.83489101  0.22487838  1
  Sc  Sc70  1  0.79500707  0.90310851  0.88588309  1
  Sc  Sc71  1  0.03814351  0.30688000  0.17608248  1
  Sc  Sc72  1  0.70044592  0.96602942  0.27662650  1
  Sc  Sc73  1  0.48183013  0.09121606  0.72293517  1
  Sc  Sc74  1  0.16766186  0.04963826  0.51488359  1
  Sc  Sc75  1  0.49489502  0.87744257  0.42955710  1
  Sc  Sc76  1  0.63745668  0.30147166  0.52161149  1
  Sc  Sc77  1  0.12994453  0.55321074  0.63513530  1
  Sc  Sc78  1  0.05686170  0.23008440  0.38042776  1
  Sc  Sc79  1  0.51891104  0.88873910  0.64676523  1
  Sc  Sc80  1  0.70104527  0.89332887  0.48496100  1
  Sc  Sc81  1  0.24986154  0.32555526  0.25304736  1
  Sc  Sc82  1  0.63954880  0.70510713  0.89085233  1
  Sc  Sc83  1  0.31583484  0.85727194  0.54666254  1
  Sc  Sc84  1  0.89334121  0.94039566  0.12800703  1
  Sc  Sc85  1  0.91640642  0.50844571  0.71292831  1
  Sc  Sc86  1  0.06826089  0.67588934  0.80849621  1
  Sc  Sc87  1  0.43929797  0.61447853  0.15857934  1
  Sc  Sc88  1  0.68878024  0.09613262  0.10224077  1
  Sc  Sc89  1  0.00603529  0.61899248  0.40687737  1
  Sc  Sc90  1  0.31735294  0.53063008  0.31866408  1
  Sc  Sc91  1  0.42928507  0.20157359  0.14076700  1
  Sc  Sc92  1  0.95246573  0.69839864  0.61805281  1
  Sc  Sc93  1  0.56449692  0.50149353  0.01695762  1
  Sc  Sc94  1  0.67593369  0.33652719  0.90699143  1
  Sc  Sc95  1  0.72689610  0.80684413  0.69781979  1
  Sc  Sc96  1  0.43932261  0.34129274  0.98034264  1
  Sc  Sc97  1  0.32312996  0.94179983  0.96359938  1
  Sc  Sc98  1  0.71201717  0.74201087  0.30266427  1
  Sc  Sc99  1  0.48932199  0.30842115  0.77404910  1
  Nb  Nb100  1  0.25628926  0.13323193  0.32566553  1
  Nb  Nb101  1  0.64809155  0.36308777  0.32884844  1
  Nb  Nb102  1  0.95491236  0.54704595  0.92698527  1
  Nb  Nb103  1  0.31721401  0.47174965  0.52663111  1
  Nb  Nb104  1  0.96918891  0.08211397  0.49852617  1
  Nb  Nb105  1  0.22551942  0.24538755  0.04636527  1
  Nb  Nb106  1  0.94613612  0.51112503  0.14183331  1
  Nb  Nb107  1  0.45750435  0.40282934  0.20458749  1
  Nb  Nb108  1  0.48393031  0.45576450  0.40846407  1
  Nb  Nb109  1  0.32621692  0.85945965  0.15926182  1
  Nb  Nb110  1  0.71327769  0.40337739  0.69447640  1
  Nb  Nb111  1  0.05854380  0.40517470  0.79721368  1
  Nb  Nb112  1  0.76490627  0.52046153  0.86989790  1
  Nb  Nb113  1  0.17960032  0.07610499  0.91186912  1
  Nb  Nb114  1  0.56799712  0.16175819  0.93816552  1
  Nb  Nb115  1  0.07140395  0.64364455  0.05468571  1
  Nb  Nb116  1  0.66541065  0.53315147  0.44906491  1
  Nb  Nb117  1  0.14818695  0.44617260  0.42995554  1
  Nb  Nb118  1  0.85370589  0.69512996  0.81979995  1
  Nb  Nb119  1  0.51977592  0.65366219  0.34853526  1
  Nb  Nb120  1  0.57362641  0.49841047  0.81046401  1
  Nb  Nb121  1  0.01675929  0.37907219  0.55374290  1
  Nb  Nb122  1  0.97333374  0.42170997  0.34336015  1
  Nb  Nb123  1  0.14756355  0.87734597  0.85567120  1
  Nb  Nb124  1  0.95839371  0.86072818  0.76736630  1
