# generated using pymatgen
data_Zr2Sc2Nb
_symmetry_space_group_name_H-M   'P 1'
_cell_length_a   14.64375919
_cell_length_b   13.53623974
_cell_length_c   14.42597500
_cell_angle_alpha   91.82104631
_cell_angle_beta   89.73134171
_cell_angle_gamma   90.63606908
_symmetry_Int_Tables_number   1
_chemical_formula_structural   Zr2Sc2Nb
_chemical_formula_sum   'Zr50 Sc50 Nb25'
_cell_volume   2857.89025497
_cell_formula_units_Z   25
loop_
 _symmetry_equiv_pos_site_id
 _symmetry_equiv_pos_as_xyz
  1  'x, y, z'
loop_
 _atom_site_type_symbol
 _atom_site_label
 _atom_site_symmetry_multiplicity
 _atom_site_fract_x
 _atom_site_fract_y
 _atom_site_fract_z
 _atom_site_occupancy
  Zr  Zr0  1  0.36098532  0.09492793  0.40556669  1
  Zr  Zr1  1  0.76273164  0.34037365  0.16764047  1
  Zr  Zr2  1  0.42472641  0.67551132  0.33277397  1
  Zr  Zr3  1  0.14565610  0.01259317  0.35238910  1
  Zr  Zr4  1  0.22421677  0.55338703  0.67315802  1
  Zr  Zr5  1  0.23165767  0.83520236  0.86271409  1
  Zr  Zr6  1  0.60316569  0.41926370  0.58125498  1
  Zr  Zr7  1  0.81377652  0.52012060  0.30497507  1
  Zr  Zr8  1  0.78040400  0.34388510  0.52368146  1
  Zr  Zr9  1  0.65801211  0.45579326  0.99836240  1
  Zr  Zr10  1  0.13076261  0.71952861  0.03666959  1
  Zr  Zr11  1  0.26050584  0.95653097  0.52194158  1
  Zr  Zr12  1  0.97638025  0.44437188  0.23204490  1
  Zr  Zr13  1  0.46862105  0.22732222  0.29070708  1
  Zr  Zr14  1  0.35615053  0.89788843  0.69739555  1
  Zr  Zr15  1  0.74749299  0.98373853  0.72812174  1
  Zr  Zr16  1  0.54095403  0.62802252  0.93644802  1
  Zr  Zr17  1  0.94709372  0.07264902  0.98656246  1
  Zr  Zr18  1  0.94766118  0.86933515  0.32533535  1
  Zr  Zr19  1  0.03754388  0.05083956  0.18518628  1
  Zr  Zr20  1  0.33497256  0.03254089  0.89868449  1
  Zr  Zr21  1  0.83668869  0.51026513  0.07117382  1
  Zr  Zr22  1  0.08641819  0.82741668  0.47015589  1
  Zr  Zr23  1  0.91906240  0.68902023  0.75948547  1
  Zr  Zr24  1  0.26625927  0.13123556  0.22512555  1
  Zr  Zr25  1  0.81092777  0.55319214  0.63045975  1
  Zr  Zr26  1  0.16593174  0.16682036  0.05315454  1
  Zr  Zr27  1  0.55756920  0.84658473  0.67048448  1
  Zr  Zr28  1  0.01702953  0.26251917  0.90689757  1
  Zr  Zr29  1  0.14446620  0.96560037  0.69060146  1
  Zr  Zr30  1  0.86016965  0.12470099  0.60620146  1
  Zr  Zr31  1  0.90860170  0.46450628  0.85725391  1
  Zr  Zr32  1  0.33081179  0.47593603  0.83529187  1
  Zr  Zr33  1  0.47363814  0.26606657  0.70650218  1
  Zr  Zr34  1  0.13423402  0.94275071  0.03988347  1
  Zr  Zr35  1  0.45424818  0.38565410  0.98757321  1
  Zr  Zr36  1  0.51129232  0.78383017  0.08040841  1
  Zr  Zr37  1  0.97036155  0.25979356  0.12178414  1
  Zr  Zr38  1  0.03173407  0.85640666  0.87340827  1
  Zr  Zr39  1  0.94328444  0.67534964  0.17028998  1
  Zr  Zr40  1  0.61848020  0.62359320  0.69577182  1
  Zr  Zr41  1  0.61719927  0.18627981  0.06742376  1
  Zr  Zr42  1  0.11534968  0.40709053  0.79688430  1
  Zr  Zr43  1  0.94391066  0.46732789  0.46273058  1
  Zr  Zr44  1  0.67634709  0.93910158  0.10016354  1
  Zr  Zr45  1  0.73772124  0.41024857  0.75811483  1
  Zr  Zr46  1  0.65970031  0.80542755  0.47770038  1
  Zr  Zr47  1  0.02959483  1.03073550  0.52785917  1
  Zr  Zr48  1  0.12394793  0.61695348  0.85675212  1
  Zr  Zr49  1  0.11965373  0.82261819  0.22872755  1
  Sc  Sc50  1  0.81812053  0.10992479  0.15565549  1
  Sc  Sc51  1  0.68256516  0.57732462  0.45766331  1
  Sc  Sc52  1  0.57448620  0.21952329  0.47884665  1
  Sc  Sc53  1  0.88042171  0.70953233  0.49944282  1
  Sc  Sc54  1  0.29911151  0.51303186  0.46966676  1
  Sc  Sc55  1  0.93278445  0.67958269  0.96540205  1
  Sc  Sc56  1  0.73923054  0.06083596  0.92805203  1
  Sc  Sc57  1  0.77907355  0.74177716  0.29736946  1
  Sc  Sc58  1  0.90678231  0.88137080  0.09066055  1
  Sc  Sc59  1  0.45013206  0.84636184  0.87833970  1
  Sc  Sc60  1  0.74481617  0.62690268  0.86177976  1
  Sc  Sc61  1  0.30408673  0.12092086  0.71266221  1
  Sc  Sc62  1  0.16495961  0.35607619  0.16830272  1
  Sc  Sc63  1  0.56972995  0.81558416  0.27834013  1
  Sc  Sc64  1  0.26293505  0.33049879  0.67088416  1
  Sc  Sc65  1  0.94169436  0.87184849  0.65441957  1
  Sc  Sc66  1  0.64514585  0.25455766  0.87268172  1
  Sc  Sc67  1  0.30731101  0.71529650  0.16186524  1
  Sc  Sc68  1  0.27059351  0.27125184  0.89689043  1
  Sc  Sc69  1  0.39756076  0.16883007  0.06842369  1
  Sc  Sc70  1  0.47851434  0.45481024  0.35972457  1
  Sc  Sc71  1  0.64748789  0.83918544  0.87817029  1
  Sc  Sc72  1  0.13677255  0.07446544  0.86697595  1
  Sc  Sc73  1  0.46429876  0.06044771  0.59133890  1
  Sc  Sc74  1  0.54245960  0.44746940  0.80895684  1
  Sc  Sc75  1  0.39086599  0.30072422  0.50802698  1
  Sc  Sc76  1  0.25925684  0.49441116  0.03847690  1
  Sc  Sc77  1  0.07980380  0.24160329  0.32130526  1
  Sc  Sc78  1  0.49607215  0.01817995  0.18982190  1
  Sc  Sc79  1  0.33906291  0.67343687  0.95761938  1
  Sc  Sc80  1  0.10357133  0.61366857  0.51071916  1
  Sc  Sc81  1  0.40502651  0.67606761  0.74474443  1
  Sc  Sc82  1  0.33192718  0.88837280  0.31179403  1
  Sc  Sc83  1  0.42260937  0.48215188  0.63876233  1
  Sc  Sc84  1  0.33628769  0.92162916  0.07599080  1
  Sc  Sc85  1  0.12397720  0.75042979  0.68540871  1
  Sc  Sc86  1  0.55840922  0.01901986  0.38536751  1
  Sc  Sc87  1  0.62822361  0.58465743  0.21944001  1
  Sc  Sc88  1  0.93214921  0.35186738  0.66948683  1
  Sc  Sc89  1  0.07334004  0.19810980  0.68807162  1
  Sc  Sc90  1  0.66991176  0.19817178  0.66598664  1
  Sc  Sc91  1  0.92264608  0.08240014  0.35596965  1
  Sc  Sc92  1  0.49602174  0.65735429  0.52960519  1
  Sc  Sc93  1  0.19128139  0.18489879  0.50443001  1
  Sc  Sc94  1  0.72812358  0.71895275  0.06430351  1
  Sc  Sc95  1  -0.05328928  0.04017076  0.78506954  1
  Sc  Sc96  1  0.56251806  0.37441654  0.17388664  1
  Sc  Sc97  1  0.74095428  0.96371442  0.31220453  1
  Sc  Sc98  1  0.04416318  0.47329164  0.02020874  1
  Sc  Sc99  1  0.29664025  0.73610335  0.54303791  1
  Nb  Nb100  1  0.45714918  0.86813313  0.48233077  1
  Nb  Nb101  1  1.00477959  0.64995310  0.34312683  1
  Nb  Nb102  1  0.97170812  0.24727648  0.48962215  1
  Nb  Nb103  1  0.36161989  0.35287664  0.17039736  1
  Nb  Nb104  1  0.30211240  0.51793953  0.25715913  1
  Nb  Nb105  1  0.46554383  0.18907957  0.88118727  1
  Nb  Nb106  1  0.82865370  0.93196728  0.49898283  1
  Nb  Nb107  1  0.01903867  0.53929533  0.67267644  1
  Nb  Nb108  1  0.45041214  0.55900891  0.12317408  1
  Nb  Nb109  1  0.66184766  0.17408391  0.27076741  1
  Nb  Nb110  1  0.85714262  0.28629742  0.32758264  1
  Nb  Nb111  1  0.21400009  0.68743300  0.35257347  1
  Nb  Nb112  1  0.13013674  0.58895567  0.19321899  1
  Nb  Nb113  1  0.83998999  0.85904472  0.87622380  1
  Nb  Nb114  1  0.75459174  0.14588366  0.44080844  1
  Nb  Nb115  1  0.65694194  1.00015929  0.55859182  1
  Nb  Nb116  1  0.75244701  0.78250776  0.66759009  1
  Nb  Nb117  1  0.54687570  0.03852692  0.78014004  1
  Nb  Nb118  1  0.82151345  0.28840244  0.98138282  1
  Nb  Nb119  1  0.84170373  0.22002738  0.80441345  1
  Nb  Nb120  1  0.27425201  0.31930562  0.34893035  1
  Nb  Nb121  1  0.66965279  0.36442254  0.35782991  1
  Nb  Nb122  1  0.13120494  0.46697035  0.35728992  1
  Nb  Nb123  1  0.53122923  1.01159703  -0.02072618  1
  Nb  Nb124  1  0.11672010  0.38878584  0.54259623  1
