# generated using pymatgen
data_Zr2Sc2Nb
_symmetry_space_group_name_H-M   'P 1'
_cell_length_a   14.26455478
_cell_length_b   14.16523353
_cell_length_c   14.30943853
_cell_angle_alpha   90.24385777
_cell_angle_beta   89.60131489
_cell_angle_gamma   91.80284957
_symmetry_Int_Tables_number   1
_chemical_formula_structural   Zr2Sc2Nb
_chemical_formula_sum   'Zr50 Sc50 Nb25'
_cell_volume   2889.85109858
_cell_formula_units_Z   25
loop_
 _symmetry_equiv_pos_site_id
 _symmetry_equiv_pos_as_xyz
  1  'x, y, z'
loop_
 _atom_site_type_symbol
 _atom_site_label
 _atom_site_symmetry_multiplicity
 _atom_site_fract_x
 _atom_site_fract_y
 _atom_site_fract_z
 _atom_site_occupancy
  Zr  Zr0  1  0.77175659  0.12869947  0.75378458  1
  Zr  Zr1  1  0.47217778  0.03789977  0.95120118  1
  Zr  Zr2  1  0.71272499  0.10392346  0.35045243  1
  Zr  Zr3  1  0.31421398  0.27641662  0.27906451  1
  Zr  Zr4  1  0.48624925  0.78526436  0.29563395  1
  Zr  Zr5  1  0.66772221  0.95138467  0.83914812  1
  Zr  Zr6  1  0.44911656  0.47391515  0.77574551  1
  Zr  Zr7  1  0.55875202  0.12748566  0.75440313  1
  Zr  Zr8  1  0.65718511  0.13425705  0.95420942  1
  Zr  Zr9  1  0.84642881  0.90049701  0.70808933  1
  Zr  Zr10  1  0.64802682  0.76862756  0.74030567  1
  Zr  Zr11  1  0.68985652  0.71544633  0.33543344  1
  Zr  Zr12  1  0.90570603  0.03855098  0.32351897  1
  Zr  Zr13  1  0.41235825  0.26563672  0.47184004  1
  Zr  Zr14  1  0.67862585  0.92818780  0.03595175  1
  Zr  Zr15  1  0.51146918  0.58457893  0.26546828  1
  Zr  Zr16  1  0.37182561  0.68418893  0.11616782  1
  Zr  Zr17  1  0.30437175  0.07254099  0.36186229  1
  Zr  Zr18  1  0.48333552  0.83367882  0.92772408  1
  Zr  Zr19  1  0.14421275  0.50973366  0.60672551  1
  Zr  Zr20  1  0.44791780  0.23904112  0.09883807  1
  Zr  Zr21  1  0.92817094  0.30964143  0.01633628  1
  Zr  Zr22  1  0.15132272  0.96850321  0.13538065  1
  Zr  Zr23  1  0.68661722  0.57880512  0.13665692  1
  Zr  Zr24  1  1.01223951  0.12386173  0.11652759  1
  Zr  Zr25  1  0.77419526  0.77232166  0.55320722  1
  Zr  Zr26  1  0.55139749  0.62299289  0.63346530  1
  Zr  Zr27  1  0.29272032  0.86230127  0.24102340  1
  Zr  Zr28  1  0.09879746  0.20758690  0.93062128  1
  Zr  Zr29  1  0.05519894  0.76016947  0.29251045  1
  Zr  Zr30  1  0.58765262  0.08932000  0.15550047  1
  Zr  Zr31  1  0.51930424  0.38175476  0.28016547  1
  Zr  Zr32  1  0.12584368  0.36977439  0.32137306  1
  Zr  Zr33  1  0.51573662  0.97976854  0.34771971  1
  Zr  Zr34  1  0.79271715  0.10700827  0.14283437  1
  Zr  Zr35  1  0.65697349  0.96880392  0.63018285  1
  Zr  Zr36  1  0.07251903  0.00424376  0.94001838  1
  Zr  Zr37  1  0.48011067  0.47454884  0.08157110  1
  Zr  Zr38  1  0.43712127  0.63715291  0.44546140  1
  Zr  Zr39  1  0.51064219  0.18300183  0.31668353  1
  Zr  Zr40  1  0.32875205  0.85378410  0.44082444  1
  Zr  Zr41  1  0.95222819  0.72096186  0.03022058  1
  Zr  Zr42  1  0.09001097  0.58260594  0.42784400  1
  Zr  Zr43  1  0.65005427  0.48905076  0.96095661  1
  Zr  Zr44  1  0.95348417  0.72575911  0.81223052  1
  Zr  Zr45  1  0.97364144  0.09710818  0.76289041  1
  Zr  Zr46  1  0.71901662  0.92111078  0.43125162  1
  Zr  Zr47  1  0.52663143  0.44470278  0.49624212  1
  Zr  Zr48  1  0.28668126  0.45682859  0.43725181  1
  Zr  Zr49  1  0.29252912  0.70115917  0.91749638  1
  Sc  Sc50  1  0.38505689  0.70451170  0.73010744  1
  Sc  Sc51  1  0.60180391  0.15726679  0.53023233  1
  Sc  Sc52  1  0.52112937  0.63560020  0.89588072  1
  Sc  Sc53  1  0.92752938  0.45572183  0.33843187  1
  Sc  Sc54  1  0.12307980  0.82116593  0.90409437  1
  Sc  Sc55  1  0.64396922  0.31163420  0.08381899  1
  Sc  Sc56  1  0.15972851  0.69845100  0.72175600  1
  Sc  Sc57  1  0.11245300  0.41038119  0.91434558  1
  Sc  Sc58  1  0.27741979  0.87401011  0.64921244  1
  Sc  Sc59  1  0.95500537  0.89797834  0.50134515  1
  Sc  Sc60  1  0.11318672  0.95183859  0.35221068  1
  Sc  Sc61  1  0.47355476  0.92235244  0.73345313  1
  Sc  Sc62  1  0.81742078  0.43371532  0.13045267  1
  Sc  Sc63  1  0.87056239  0.89622418  0.92682705  1
  Sc  Sc64  1  0.91324402  0.48129711  0.55602475  1
  Sc  Sc65  1  -0.00133714  0.52112199  0.07275993  1
  Sc  Sc66  1  0.21973915  0.20958478  0.51299303  1
  Sc  Sc67  1  0.81928215  0.62557608  0.70256230  1
  Sc  Sc68  1  0.42570885  0.02822251  0.54052977  1
  Sc  Sc69  1  0.69001664  0.31198834  0.67696013  1
  Sc  Sc70  1  0.90252385  0.28344701  0.63537977  1
  Sc  Sc71  1  0.11243809  0.28896974  0.71391721  1
  Sc  Sc72  1  0.71438343  0.56389115  0.52331033  1
  Sc  Sc73  1  0.93192470  0.92033481  0.14007287  1
  Sc  Sc74  1  0.28426146  0.33993377  0.04897571  1
  Sc  Sc75  1  0.71898531  0.33756345  0.47088459  1
  Sc  Sc76  1  0.74756511  0.31598256  0.88354060  1
  Sc  Sc77  1  0.71186924  0.50058864  0.32662166  1
  Sc  Sc78  1  0.53969041  0.81677666  0.52639607  1
  Sc  Sc79  1  0.31024609  0.48736082  0.22513193  1
  Sc  Sc80  1  0.33973535  0.13297558  0.69642262  1
  Sc  Sc81  1  0.82134390  0.08147082  0.54856346  1
  Sc  Sc82  1  0.90730951  0.24558691  0.42653001  1
  Sc  Sc83  1  0.03330108  0.11588929  0.56213199  1
  Sc  Sc84  1  0.87286829  0.11533617  0.94407030  1
  Sc  Sc85  1  0.73992246  0.70414198  0.92745708  1
  Sc  Sc86  1  0.88777178  0.63304539  0.22751802  1
  Sc  Sc87  1  0.93601478  0.27002804  0.22762433  1
  Sc  Sc88  1  0.27501984  0.10710676  0.96392244  1
  Sc  Sc89  1  0.06483362  0.89461002  0.69442880  1
  Sc  Sc90  1  0.48167479  0.30756480  0.66325717  1
  Sc  Sc91  1  0.86901564  0.51618948  0.90233483  1
  Sc  Sc92  1  0.72247950  0.28641870  0.26823972  1
  Sc  Sc93  1  0.57926855  0.73317513  0.09680683  1
  Sc  Sc94  1  0.36239667  0.06004829  0.16300088  1
  Sc  Sc95  1  0.66231301  0.50209236  0.75789650  1
  Sc  Sc96  1  0.15789196  0.73881840  0.10490211  1
  Sc  Sc97  1  0.30033243  0.30117761  0.83658391  1
  Sc  Sc98  1  0.09686011  0.16105661  0.34165672  1
  Sc  Sc99  1  0.51900623  0.30467479  0.89369862  1
  Nb  Nb100  1  0.19473782  0.17991298  0.15360471  1
  Nb  Nb101  1  0.93799376  0.30842235  0.82339051  1
  Nb  Nb102  1  0.30632723  0.89074749  0.02743611  1
  Nb  Nb103  1  -0.00757426  0.68948892  0.60031988  1
  Nb  Nb104  1  0.28838213  0.35815587  0.63210783  1
  Nb  Nb105  1  0.26381689  0.67324559  0.53764196  1
  Nb  Nb106  1  1.01048209  0.51150347  0.74918914  1
  Nb  Nb107  1  0.68697170  0.91183070  0.23261174  1
  Nb  Nb108  1  0.23830473  0.51266770  0.78311178  1
  Nb  Nb109  1  0.26098493  0.67569400  0.32538533  1
  Nb  Nb110  1  0.10202728  0.35480487  0.12870824  1
  Nb  Nb111  1  0.16786738  0.06589176  0.75837610  1
  Nb  Nb112  1  0.34542614  0.50615681  0.94163476  1
  Nb  Nb113  1  0.86356058  0.83012832  0.32179893  1
  Nb  Nb114  1  0.07538680  0.34984625  0.51061073  1
  Nb  Nb115  1  0.19463723  0.00338908  0.53835480  1
  Nb  Nb116  1  0.89578830  0.66500662  0.43196166  1
  Nb  Nb117  1  0.13074065  0.79172194  0.49423783  1
  Nb  Nb118  1  0.10883430  0.56216112  0.23383041  1
  Nb  Nb119  1  0.20641180  0.54212796  0.05935190  1
  Nb  Nb120  1  0.29225137  0.92998750  0.84255394  1
  Nb  Nb121  1  0.36723296  0.52579278  0.60948356  1
  Nb  Nb122  1  0.48385145  0.90420193  0.13196343  1
  Nb  Nb123  1  0.78138788  0.77597552  0.13007559  1
  Nb  Nb124  1  0.09602448  0.61165290  0.90696762  1
