# generated using pymatgen
data_Zr2Sc2Nb
_symmetry_space_group_name_H-M   'P 1'
_cell_length_a   14.64313833
_cell_length_b   13.88650958
_cell_length_c   14.09655847
_cell_angle_alpha   88.87836262
_cell_angle_beta   89.64644116
_cell_angle_gamma   88.74466922
_symmetry_Int_Tables_number   1
_chemical_formula_structural   Zr2Sc2Nb
_chemical_formula_sum   'Zr50 Sc50 Nb25'
_cell_volume   2865.13919597
_cell_formula_units_Z   25
loop_
 _symmetry_equiv_pos_site_id
 _symmetry_equiv_pos_as_xyz
  1  'x, y, z'
loop_
 _atom_site_type_symbol
 _atom_site_label
 _atom_site_symmetry_multiplicity
 _atom_site_fract_x
 _atom_site_fract_y
 _atom_site_fract_z
 _atom_site_occupancy
  Zr  Zr0  1  0.26695299  0.83628473  0.65234427  1
  Zr  Zr1  1  0.07138648  0.10048098  -0.02257175  1
  Zr  Zr2  1  0.15073318  0.52295425  0.98701873  1
  Zr  Zr3  1  0.32640947  0.11935126  0.42022300  1
  Zr  Zr4  1  0.27802766  0.61443109  0.63615781  1
  Zr  Zr5  1  0.63631958  0.46316212  0.86670523  1
  Zr  Zr6  1  0.17196796  0.92457275  0.49697220  1
  Zr  Zr7  1  0.62688124  0.22431718  0.87632936  1
  Zr  Zr8  1  0.22515669  0.37111952  0.35809169  1
  Zr  Zr9  1  0.36717533  0.91475204  0.04448046  1
  Zr  Zr10  1  0.49076307  0.89857672  0.65706918  1
  Zr  Zr11  1  0.64770224  0.64378517  0.11979517  1
  Zr  Zr12  1  0.33454127  0.56583245  0.08434804  1
  Zr  Zr13  1  0.47295343  0.52371847  0.70837611  1
  Zr  Zr14  1  0.86442790  0.73105147  0.62596065  1
  Zr  Zr15  1  0.90426445  0.45570809  0.33113656  1
  Zr  Zr16  1  0.53757046  0.83401916  0.89280133  1
  Zr  Zr17  1  0.60288339  0.04784089  0.75750158  1
  Zr  Zr18  1  0.31401029  0.13258373  -0.00573313  1
  Zr  Zr19  1  0.05303593  0.75119282  0.94091861  1
  Zr  Zr20  1  0.44510738  0.86361972  0.28767370  1
  Zr  Zr21  1  0.87726502  0.71804246  0.02556354  1
  Zr  Zr22  1  0.54606626  0.31633974  0.68234928  1
  Zr  Zr23  1  0.79406081  0.50025340  0.99637686  1
  Zr  Zr24  1  0.27081341  0.61186359  0.28497082  1
  Zr  Zr25  1  0.86483158  0.96958020  0.08900864  1
  Zr  Zr26  1  0.73608946  0.91750968  0.92632742  1
  Zr  Zr27  1  0.33309461  0.51192650  0.47070431  1
  Zr  Zr28  1  0.76913011  0.84954782  0.47812187  1
  Zr  Zr29  1  0.49825175  0.13752774  0.57501141  1
  Zr  Zr30  1  0.69741752  0.30909342  0.08043524  1
  Zr  Zr31  1  0.50362164  0.61687205  0.94154080  1
  Zr  Zr32  1  0.56770044  0.24319026  0.26117930  1
  Zr  Zr33  1  0.11907020  0.25692347  0.69098876  1
  Zr  Zr34  1  0.28334710  0.73456543  0.97164490  1
  Zr  Zr35  1  0.49852805  0.23539311  0.05618070  1
  Zr  Zr36  1  0.66896915  0.07843181  0.07057580  1
  Zr  Zr37  1  0.25009015  0.26735089  0.53668003  1
  Zr  Zr38  1  0.91857505  0.52643779  0.54251888  1
  Zr  Zr39  1  0.88564097  0.87980019  0.29293289  1
  Zr  Zr40  1  0.58022234  0.87731041  0.09709637  1
  Zr  Zr41  1  0.46006216  0.37411587  0.88374531  1
  Zr  Zr42  1  0.69673666  0.69473536  0.32268700  1
  Zr  Zr43  1  0.33447028  0.36546686  0.05023302  1
  Zr  Zr44  1  0.08167828  0.55137703  0.36150606  1
  Zr  Zr45  1  0.33174335  0.22698324  0.21785640  1
  Zr  Zr46  1  0.78303167  0.12684140  0.22734398  1
  Zr  Zr47  1  0.85198810  0.16927206  0.99476005  1
  Zr  Zr48  1  0.85266567  0.96420525  0.67605049  1
  Zr  Zr49  1  0.94836425  0.95879244  0.88167198  1
  Sc  Sc50  1  0.08681549  0.77702073  0.33740384  1
  Sc  Sc51  1  0.52195971  0.05419488  0.38469506  1
  Sc  Sc52  1  0.32013504  0.53247409  0.86134917  1
  Sc  Sc53  1  0.44893889  0.71994299  0.13245040  1
  Sc  Sc54  1  0.99310344  0.13013788  0.16535037  1
  Sc  Sc55  1  0.88763343  0.66377602  0.22958715  1
  Sc  Sc56  1  0.51068157  0.04574221  0.94778374  1
  Sc  Sc57  1  0.53676462  0.50247675  0.50868209  1
  Sc  Sc58  1  0.32234515  0.38402374  0.68708579  1
  Sc  Sc59  1  0.40397519  0.18268468  0.78800371  1
  Sc  Sc60  1  0.44747312  0.05467238  0.17788740  1
  Sc  Sc61  1  0.67925679  0.65862957  0.54783106  1
  Sc  Sc62  1  0.17508000  0.68487565  0.79750435  1
  Sc  Sc63  1  0.39691763  0.73020382  0.78051945  1
  Sc  Sc64  1  0.28828607  0.06472023  0.63481544  1
  Sc  Sc65  1  0.05271598  0.89259201  0.12174045  1
  Sc  Sc66  1  0.97487984  0.50347618  0.11322066  1
  Sc  Sc67  1  0.92762915  0.20779116  0.34836766  1
  Sc  Sc68  1  0.24924901  0.80635486  0.17780459  1
  Sc  Sc69  1  0.13662193  0.47839974  0.57056431  1
  Sc  Sc70  1  0.29161089  0.74835823  0.43969647  1
  Sc  Sc71  1  0.56645553  0.83293434  0.45828830  1
  Sc  Sc72  1  0.91329203  0.17625070  0.63711634  1
  Sc  Sc73  1  0.70891942  0.44016270  0.64269501  1
  Sc  Sc74  1  0.26021664  0.96354868  0.30944344  1
  Sc  Sc75  1  0.97877793  0.87437010  0.50300997  1
  Sc  Sc76  1  0.67788472  0.94522302  0.29157967  1
  Sc  Sc77  1  0.82540272  0.31764138  0.50571720  1
  Sc  Sc78  1  0.22506416  0.31049602  0.88047561  1
  Sc  Sc79  1  0.04350049  0.82725632  0.71237103  1
  Sc  Sc80  1  0.10212338  0.66333911  0.14378760  1
  Sc  Sc81  1  0.60604492  0.66416153  0.74758980  1
  Sc  Sc82  1  0.04017301  0.33122783  0.47249549  1
  Sc  Sc83  1  0.15411076  0.26380601  0.08656188  1
  Sc  Sc84  1  0.15301840  0.17024805  0.30454650  1
  Sc  Sc85  1  0.48189488  0.64723353  0.34776497  1
  Sc  Sc86  1  0.54592779  0.45522201  0.08798158  1
  Sc  Sc87  1  0.80137042  0.31923748  0.83162316  1
  Sc  Sc88  1  0.08458010  0.11763815  0.49927516  1
  Sc  Sc89  1  0.07443564  0.03074723  0.70138402  1
  Sc  Sc90  1  0.69533076  0.84669297  0.71875172  1
  Sc  Sc91  1  0.36036574  0.95957278  0.82226364  1
  Sc  Sc92  1  0.80642926  0.57153571  0.77844361  1
  Sc  Sc93  1  0.99529208  0.35037447  0.95401864  1
  Sc  Sc94  1  0.17814469  0.92294751  0.91960960  1
  Sc  Sc95  1  0.12737718  0.46858273  0.78256954  1
  Sc  Sc96  1  0.43681243  0.30894384  0.43046711  1
  Sc  Sc97  1  0.94876382  0.39649449  0.71278387  1
  Sc  Sc98  1  0.86113272  0.04513729  0.46144153  1
  Sc  Sc99  1  0.40325765  0.43682665  0.25504090  1
  Nb  Nb100  1  0.97135421  0.57074113  0.89641937  1
  Nb  Nb101  1  0.70693169  0.18783382  0.64110816  1
  Nb  Nb102  1  0.44900086  0.70290597  0.57064512  1
  Nb  Nb103  1  0.87890366  0.31988100  0.14861751  1
  Nb  Nb104  1  0.38564607  0.92791398  0.49302732  1
  Nb  Nb105  1  0.75139712  0.81537592  0.13614246  1
  Nb  Nb106  1  0.59901666  0.46488937  0.30158585  1
  Nb  Nb107  1  0.20047203  0.11753444  0.82603220  1
  Nb  Nb108  1  0.04698210  0.99329627  0.31935148  1
  Nb  Nb109  1  0.04711513  0.34658308  0.24424964  1
  Nb  Nb110  1  0.66124216  0.00402811  0.55823632  1
  Nb  Nb111  1  0.69618157  0.15138377  0.42294511  1
  Nb  Nb112  1  0.70269320  0.70435409  0.93091375  1
  Nb  Nb113  1  0.18949499  0.45562828  0.18020981  1
  Nb  Nb114  1  0.75889943  0.49541331  0.19744833  1
  Nb  Nb115  1  0.74525417  0.32197287  0.30474163  1
  Nb  Nb116  1  0.62643590  0.31767112  0.47666567  1
  Nb  Nb117  1  0.89715938  0.68293728  0.42751483  1
  Nb  Nb118  1  0.79097192  0.09894400  0.81461278  1
  Nb  Nb119  1  0.74011284  0.50611830  0.42159399  1
  Nb  Nb120  1  0.00614261  0.61863047  0.70932771  1
  Nb  Nb121  1  0.09218474  0.69520639  0.54274115  1
  Nb  Nb122  1  0.87392321  0.76788071  0.82470528  1
  Nb  Nb123  1  -0.01798135  0.18287912  0.82485715  1
  Nb  Nb124  1  0.20049722  0.04049276  0.13320636  1
