# generated using pymatgen
data_Zr2Sc2Nb
_symmetry_space_group_name_H-M   'P 1'
_cell_length_a   13.75396717
_cell_length_b   14.64308714
_cell_length_c   14.20831462
_cell_angle_alpha   91.24169710
_cell_angle_beta   88.40413159
_cell_angle_gamma   91.10527799
_symmetry_Int_Tables_number   1
_chemical_formula_structural   Zr2Sc2Nb
_chemical_formula_sum   'Zr50 Sc50 Nb25'
_cell_volume   2859.28067231
_cell_formula_units_Z   25
loop_
 _symmetry_equiv_pos_site_id
 _symmetry_equiv_pos_as_xyz
  1  'x, y, z'
loop_
 _atom_site_type_symbol
 _atom_site_label
 _atom_site_symmetry_multiplicity
 _atom_site_fract_x
 _atom_site_fract_y
 _atom_site_fract_z
 _atom_site_occupancy
  Zr  Zr0  1  0.29452612  0.04071767  0.75890050  1
  Zr  Zr1  1  0.53818814  0.75559536  0.82971622  1
  Zr  Zr2  1  0.39997959  0.84911082  1.01817852  1
  Zr  Zr3  1  0.87243926  0.93997895  0.92978495  1
  Zr  Zr4  1  0.19619609  0.95031369  0.49720220  1
  Zr  Zr5  1  0.70945215  0.64552195  0.88223572  1
  Zr  Zr6  1  0.07521130  0.28468733  0.70977883  1
  Zr  Zr7  1  0.01565396  0.81087372  -0.00095451  1
  Zr  Zr8  1  0.27284935  0.51893458  0.04675623  1
  Zr  Zr9  1  0.68564619  0.44248170  0.86306037  1
  Zr  Zr10  1  0.24833349  0.33842759  0.49249238  1
  Zr  Zr11  1  1.00980013  0.29968165  -0.05776326  1
  Zr  Zr12  1  0.44345776  0.22435180  0.41472800  1
  Zr  Zr13  1  0.27213533  0.75595552  0.53811792  1
  Zr  Zr14  1  0.90554450  0.84238992  0.38113090  1
  Zr  Zr15  1  0.56492449  0.72086292  0.07025801  1
  Zr  Zr16  1  0.61566407  0.85630832  0.58560501  1
  Zr  Zr17  1  0.01457345  0.26818631  0.48583864  1
  Zr  Zr18  1  0.38051984  0.99462929  0.38045356  1
  Zr  Zr19  1  0.86987220  0.34820540  0.76688357  1
  Zr  Zr20  1  0.49824399  0.50431941  0.17485378  1
  Zr  Zr21  1  0.53879115  0.04618646  0.51449086  1
  Zr  Zr22  1  0.74477002  0.76051170  0.22980541  1
  Zr  Zr23  1  0.65019086  0.35267834  0.40107311  1
  Zr  Zr24  1  0.36063455  0.35768591  0.07377247  1
  Zr  Zr25  1  0.04770442  0.04401905  0.04586922  1
  Zr  Zr26  1  0.15497680  0.68301017  0.07702471  1
  Zr  Zr27  1  0.21331451  0.46924715  0.68258263  1
  Zr  Zr28  1  0.72203975  0.20142357  0.23139283  1
  Zr  Zr29  1  0.54996490  0.08763543  0.28419612  1
  Zr  Zr30  1  0.51980496  0.29420030  0.22026751  1
  Zr  Zr31  1  0.52027371  0.52574097  0.96715871  1
  Zr  Zr32  1  0.17989545  0.14467336  0.42504039  1
  Zr  Zr33  1  0.50273795  0.84801880  0.23916748  1
  Zr  Zr34  1  0.93330937  0.13423959  0.85076949  1
  Zr  Zr35  1  0.86537353  0.32835820  0.33931867  1
  Zr  Zr36  1  0.44350814  0.38740985  0.59181671  1
  Zr  Zr37  1  0.08278605  0.96994440  0.84013377  1
  Zr  Zr38  1  0.78694962  0.77909375  0.01950908  1
  Zr  Zr39  1  0.60150217  0.24606423  0.57170744  1
  Zr  Zr40  1  0.36409570  0.67849376  0.16406165  1
  Zr  Zr41  1  0.69317496  0.67790473  0.65301433  1
  Zr  Zr42  1  0.47519049  0.80410781  0.43706882  1
  Zr  Zr43  1  0.91166578  0.67877104  0.54873369  1
  Zr  Zr44  1  0.68677535  0.95405758  0.16605616  1
  Zr  Zr45  1  0.85897531  0.46131635  0.98464893  1
  Zr  Zr46  1  0.71247496  0.04371649  0.63001469  1
  Zr  Zr47  1  0.78417946  0.52574864  0.49855608  1
  Zr  Zr48  1  0.15648842  0.61299774  0.87125325  1
  Zr  Zr49  1  0.10510049  0.07920483  0.64686550  1
  Sc  Sc50  1  0.26862252  0.02157328  0.97631625  1
  Sc  Sc51  1  0.92502110  0.28102072  0.13531175  1
  Sc  Sc52  1  0.18106685  0.52687693  0.46091578  1
  Sc  Sc53  1  0.10972450  0.65363368  0.64979082  1
  Sc  Sc54  1  0.26291517  0.06389826  0.22113645  1
  Sc  Sc55  1  0.83705938  0.09221590  0.06798787  1
  Sc  Sc56  1  0.88359700  0.17481355  0.64119606  1
  Sc  Sc57  1  0.26389833  0.82152638  0.31097139  1
  Sc  Sc58  1  0.73894713  0.84735325  0.78009344  1
  Sc  Sc59  1  0.20507653  0.81419019  0.89972294  1
  Sc  Sc60  1  0.86928031  0.06213610  0.28664210  1
  Sc  Sc61  1  0.28754281  0.27142842  0.27024714  1
  Sc  Sc62  1  0.71625534  0.53161477  0.30300052  1
  Sc  Sc63  1  0.12926724  0.37480703  0.13672220  1
  Sc  Sc64  1  0.08017087  0.96304050  0.30986409  1
  Sc  Sc65  1  0.10465898  0.56924411  0.24931988  1
  Sc  Sc66  1  0.55681391  0.58836844  0.49548431  1
  Sc  Sc67  1  0.35655268  0.63246337  0.37128309  1
  Sc  Sc68  1  0.44333045  0.43942513  0.38225108  1
  Sc  Sc69  1  0.66251396  0.43811571  0.64879756  1
  Sc  Sc70  1  0.70874011  0.06073509  0.85230452  1
  Sc  Sc71  1  0.90982077  0.90157295  0.15866064  1
  Sc  Sc72  1  0.77706811  0.26083520  0.96207394  1
  Sc  Sc73  1  0.08975636  0.71393231  0.42090407  1
  Sc  Sc74  1  0.29557187  0.27911052  0.71496294  1
  Sc  Sc75  1  0.69016300  0.24293774  0.75963673  1
  Sc  Sc76  1  0.35105124  0.47628208  0.83401117  1
  Sc  Sc77  1  0.49091059  0.14580257  0.72207498  1
  Sc  Sc78  1  0.61608329  -0.09499861  0.96992447  1
  Sc  Sc79  1  0.75431008  0.15926873  0.44512062  1
  Sc  Sc80  1  1.00309040  0.45645040  0.60059618  1
  Sc  Sc81  1  0.91155957  0.97437290  0.70940688  1
  Sc  Sc82  1  0.19115491  0.20289685  0.05515303  1
  Sc  Sc83  1  0.19743489  0.88630608  0.12094931  1
  Sc  Sc84  1  0.02688770  0.47285505  0.81799541  1
  Sc  Sc85  1  0.69153552  0.93634795  0.38922303  1
  Sc  Sc86  1  0.06280369  0.17833853  0.25470420  1
  Sc  Sc87  1  0.36775983  0.67050018  0.93538130  1
  Sc  Sc88  1  0.84755319  0.55816935  0.73227696  1
  Sc  Sc89  1  0.47242691  0.04456673  0.91716622  1
  Sc  Sc90  1  0.71310128  0.38352647  0.14439372  1
  Sc  Sc91  1  0.71758201  0.58399166  0.09516905  1
  Sc  Sc92  1  0.36232679  0.22756174  0.90005031  1
  Sc  Sc93  1  0.95367472  0.03157982  0.48944559  1
  Sc  Sc94  1  0.61433144  0.12357940  0.06285815  1
  Sc  Sc95  1  0.33225870  0.12888182  0.56592911  1
  Sc  Sc96  1  0.71250014  0.72349663  0.43372055  1
  Sc  Sc97  1  0.96034176  0.77421206  0.76718163  1
  Sc  Sc98  1  0.51606443  0.56479370  0.73532809  1
  Sc  Sc99  1  0.55701964  0.31023634  0.98653941  1
  Nb  Nb100  1  0.04946598  0.50919515  0.02887035  1
  Nb  Nb101  1  0.46197799  0.74318422  0.63819690  1
  Nb  Nb102  1  0.09732102  0.37161876  0.33513204  1
  Nb  Nb103  1  0.45113995  0.99267439  0.13345838  1
  Nb  Nb104  1  0.19204140  0.37034241  0.90496313  1
  Nb  Nb105  1  0.55564910  0.66303805  0.28200715  1
  Nb  Nb106  1  0.82166333  0.34223542  0.54978369  1
  Nb  Nb107  1  0.38716172  0.92523456  0.60169185  1
  Nb  Nb108  1  0.18648204  0.86088294  0.69456363  1
  Nb  Nb109  1  0.89788532  0.64641185  0.32692100  1
  Nb  Nb110  1  0.30758718  0.68101601  0.73838043  1
  Nb  Nb111  1  0.91697018  0.47518942  0.20426663  1
  Nb  Nb112  1  0.82208496  0.85638326  0.57080064  1
  Nb  Nb113  1  0.35669825  0.56663544  0.57868855  1
  Nb  Nb114  1  0.28796090  0.47227305  0.25267049  1
  Nb  Nb115  1  0.40723861  0.16784274  0.10168264  1
  Nb  Nb116  1  0.96446794  0.49203529  0.40988756  1
  Nb  Nb117  1  0.50834969  0.35134685  0.78003737  1
  Nb  Nb118  1  0.93255139  0.63855432  0.92740692  1
  Nb  Nb119  1  0.04426238  0.77045675  0.22823365  1
  Nb  Nb120  1  0.03207082  0.85464401  0.57241580  1
  Nb  Nb121  1  0.14971251  0.16407515  0.85236059  1
  Nb  Nb122  1  0.54246676  0.95043611  0.73983641  1
  Nb  Nb123  1  0.92429167  0.65355377  0.12565199  1
  Nb  Nb124  1  0.37544080  0.86685816  0.79926802  1
