# generated using pymatgen
data_Zr2Sc2Nb
_symmetry_space_group_name_H-M   'P 1'
_cell_length_a   13.96434799
_cell_length_b   14.47496992
_cell_length_c   14.25531961
_cell_angle_alpha   91.46446722
_cell_angle_beta   89.87429044
_cell_angle_gamma   89.76178666
_symmetry_Int_Tables_number   1
_chemical_formula_structural   Zr2Sc2Nb
_chemical_formula_sum   'Zr50 Sc50 Nb25'
_cell_volume   2880.50418143
_cell_formula_units_Z   25
loop_
 _symmetry_equiv_pos_site_id
 _symmetry_equiv_pos_as_xyz
  1  'x, y, z'
loop_
 _atom_site_type_symbol
 _atom_site_label
 _atom_site_symmetry_multiplicity
 _atom_site_fract_x
 _atom_site_fract_y
 _atom_site_fract_z
 _atom_site_occupancy
  Zr  Zr0  1  0.52637747  0.24819020  0.55339010  1
  Zr  Zr1  1  0.29828652  0.76810976  0.40906520  1
  Zr  Zr2  1  0.50003124  0.94466869  0.69964841  1
  Zr  Zr3  1  0.92198769  0.74676567  0.77877650  1
  Zr  Zr4  1  0.69257226  0.31577076  0.42884013  1
  Zr  Zr5  1  0.49981339  0.15665824  0.10737713  1
  Zr  Zr6  1  0.65903149  0.72589678  0.48693098  1
  Zr  Zr7  1  0.25657098  0.27169063  0.65362097  1
  Zr  Zr8  1  0.97790405  0.17605910  0.99918403  1
  Zr  Zr9  1  0.02535567  0.53220246  0.44098125  1
  Zr  Zr10  1  0.90710791  0.33764878  0.13731322  1
  Zr  Zr11  1  0.48062702  0.24196075  0.93188602  1
  Zr  Zr12  1  0.93138824  0.13993664  0.70004932  1
  Zr  Zr13  1  0.41341184  0.60492799  0.02419244  1
  Zr  Zr14  1  0.10050479  0.95777392  0.72643360  1
  Zr  Zr15  1  0.91782290  0.52559963  0.72188002  1
  Zr  Zr16  1  0.66976030  0.94184763  0.53286649  1
  Zr  Zr17  1  0.70236309  0.30047231  0.00917114  1
  Zr  Zr18  1  0.42588313  0.91206385  0.26807740  1
  Zr  Zr19  1  0.45537848  0.53727027  0.23576317  1
  Zr  Zr20  1  0.14876040  0.64539660  0.26892546  1
  Zr  Zr21  1  0.75192158  0.89352255  0.12356160  1
  Zr  Zr22  1  0.64680649  0.60872298  0.27213781  1
  Zr  Zr23  1  0.95111991  0.99176910  0.07264692  1
  Zr  Zr24  1  1.00089120  0.31678600  0.57989238  1
  Zr  Zr25  1  0.29123924  0.47947338  0.75059838  1
  Zr  Zr26  1  0.65670029  0.40442328  0.63225824  1
  Zr  Zr27  1  0.68332467  0.10840909  0.43462364  1
  Zr  Zr28  1  0.12294166  0.74368994  0.69706286  1
  Zr  Zr29  1  0.29100108  0.22442860  0.07204118  1
  Zr  Zr30  1  0.50390816  0.41259948  0.39611830  1
  Zr  Zr31  1  0.90038628  0.20026400  0.42379381  1
  Zr  Zr32  1  0.81917237  0.71923061  0.23015953  1
  Zr  Zr33  1  0.35967968  0.82408298  0.00935812  1
  Zr  Zr34  1  0.48221954  0.14246994  0.73908377  1
  Zr  Zr35  1  0.13306725  0.21191634  0.35057663  1
  Zr  Zr36  1  0.65156719  0.27621455  0.79263730  1
  Zr  Zr37  1  0.07879941  0.37395148  0.77018997  1
  Zr  Zr38  1  0.76440412  0.10428147  0.07126251  1
  Zr  Zr39  1  0.17423516  0.36656760  0.47371649  1
  Zr  Zr40  1  0.04555103  0.02892631  0.35913502  1
  Zr  Zr41  1  0.47637029  0.84400184  0.49181146  1
  Zr  Zr42  1  0.89397356  0.90728754  0.66717791  1
  Zr  Zr43  1  0.76076212  0.21359319  0.60157536  1
  Zr  Zr44  1  0.70852022  0.05400402  0.72182754  1
  Zr  Zr45  1  0.32352998  0.00675687  0.07238632  1
  Zr  Zr46  1  0.53882347  0.82106599  0.88559621  1
  Zr  Zr47  1  0.71058547  0.69875784  0.03308762  1
  Zr  Zr48  1  0.89884932  0.80977196  0.98544741  1
  Zr  Zr49  1  0.55216326  0.95234559  0.06332443  1
  Sc  Sc50  1  0.48095696  0.44758833  0.88317212  1
  Sc  Sc51  1  0.26113968  0.49313546  0.15011311  1
  Sc  Sc52  1  0.75223639  0.22115244  0.24914011  1
  Sc  Sc53  1  0.46943127  0.05256872  0.49729188  1
  Sc  Sc54  1  0.28898914  0.85428290  0.61304444  1
  Sc  Sc55  1  0.31418510  0.64413470  0.60780761  1
  Sc  Sc56  1  0.00511431  0.69306478  0.11440387  1
  Sc  Sc57  1  0.69945191  0.83062255  0.69991640  1
  Sc  Sc58  1  0.72670017  0.61222092  0.65676595  1
  Sc  Sc59  1  0.30152945  0.30552942  0.85494567  1
  Sc  Sc60  1  0.07051514  0.88136237  0.51574390  1
  Sc  Sc61  1  0.33562456  0.67767384  0.83334607  1
  Sc  Sc62  1  0.77338255  0.44337054  0.29481525  1
  Sc  Sc63  1  0.82863154  1.01333819  0.29435059  1
  Sc  Sc64  1  0.51174890  0.73584042  0.67746693  1
  Sc  Sc65  1  0.88149875  0.03135661  0.51786475  1
  Sc  Sc66  1  0.81364380  0.52340295  0.09969151  1
  Sc  Sc67  1  0.93376041  0.99229425  0.86035012  1
  Sc  Sc68  1  0.29150303  0.54639068  0.39182966  1
  Sc  Sc69  1  0.90354980  0.59956593  0.93035890  1
  Sc  Sc70  1  0.50757416  0.53656535  0.68488852  1
  Sc  Sc71  1  0.50628364  0.20400282  0.33659460  1
  Sc  Sc72  1  0.11449489  0.16492237  0.79775974  1
  Sc  Sc73  1  0.90748754  0.37490374  0.92137444  1
  Sc  Sc74  1  0.93253223  0.69537146  0.57131179  1
  Sc  Sc75  1  0.60335723  0.50844280  0.05438518  1
  Sc  Sc76  1  0.05984545  0.48746911  0.06894323  1
  Sc  Sc77  1  0.32476391  0.32851052  0.27484298  1
  Sc  Sc78  1  0.58474683  0.35097167  0.19744796  1
  Sc  Sc79  1  0.32232814  0.10771528  0.27189351  1
  Sc  Sc80  1  0.61320922  0.04008236  0.24387284  1
  Sc  Sc81  1  0.72855595  0.92710230  0.90409944  1
  Sc  Sc82  1  0.37155151  0.42508073  0.55284106  1
  Sc  Sc83  1  0.10381549  0.58531367  0.84325974  1
  Sc  Sc84  1  0.53831356  0.75323308  0.13148614  1
  Sc  Sc85  1  0.26212769  0.99922863  0.44661481  1
  Sc  Sc86  1  0.84614579  0.84106315  0.43223167  1
  Sc  Sc87  1  0.84479634  0.44324348  0.52416129  1
  Sc  Sc88  1  0.32496323  0.72538173  0.19056145  1
  Sc  Sc89  1  0.19714003  0.66889044  0.01798259  1
  Sc  Sc90  1  0.19146490  0.88504435  0.26858495  1
  Sc  Sc91  1  0.12223548  0.52507840  0.62632347  1
  Sc  Sc92  1  0.28573633  0.89995128  0.83164129  1
  Sc  Sc93  1  -0.02289282  0.87059182  0.22517080  1
  Sc  Sc94  1  0.64957304  0.84857796  0.31548997  1
  Sc  Sc95  1  0.29686034  0.06295472  0.66800818  1
  Sc  Sc96  1  0.12803448  0.31227913  0.96731077  1
  Sc  Sc97  1  0.71889148  0.48647481  0.84949430  1
  Sc  Sc98  1  0.13434845  0.07683125  0.15324004  1
  Sc  Sc99  1  0.10941317  0.12771424  0.55550791  1
  Nb  Nb100  1  0.95481693  0.16223176  0.21848476  1
  Nb  Nb101  1  0.45854815  0.01261531  0.90235160  1
  Nb  Nb102  1  0.47789997  0.61235888  0.48136976  1
  Nb  Nb103  1  0.14405001  0.68941803  0.49495385  1
  Nb  Nb104  1  0.08852329  0.81359384  0.89249691  1
  Nb  Nb105  1  0.41752707  0.38360339  0.07038643  1
  Nb  Nb106  1  0.81434847  0.17608023  0.86784127  1
  Nb  Nb107  1  0.45671873  0.33582965  0.71799860  1
  Nb  Nb108  1  0.65272110  0.52562010  0.46604660  1
  Nb  Nb109  1  0.73628997  0.70756063  0.84634135  1
  Nb  Nb110  1  0.00118859  0.72663021  0.36121458  1
  Nb  Nb111  1  0.13382226  0.01460375  0.94435943  1
  Nb  Nb112  1  0.84941931  0.33825514  0.72921389  1
  Nb  Nb113  1  0.26333261  0.47796508  0.94853329  1
  Nb  Nb114  1  0.29926431  0.11231476  0.88498751  1
  Nb  Nb115  1  0.10947629  0.29032049  0.16891955  1
  Nb  Nb116  1  0.14000551  0.86627507  1.06731308  1
  Nb  Nb117  1  0.56034699  0.63318093  0.87485629  1
  Nb  Nb118  1  0.32562030  0.21398951  0.46878068  1
  Nb  Nb119  1  0.96336433  0.35223247  0.34009055  1
  Nb  Nb120  1  0.95478800  0.54301283  0.25274534  1
  Nb  Nb121  1  0.62748080  0.10742760  0.91847149  1
  Nb  Nb122  1  0.82572094  0.62000584  0.40550399  1
  Nb  Nb123  1  0.48430571  0.71799815  0.33348215  1
  Nb  Nb124  1  0.12567692  0.43476250  0.28605186  1
