# generated using pymatgen
data_Zr2Sc2Nb
_symmetry_space_group_name_H-M   'P 1'
_cell_length_a   14.35201182
_cell_length_b   14.11759374
_cell_length_c   14.20871783
_cell_angle_alpha   91.05939243
_cell_angle_beta   89.11167598
_cell_angle_gamma   91.02546926
_symmetry_Int_Tables_number   1
_chemical_formula_structural   Zr2Sc2Nb
_chemical_formula_sum   'Zr50 Sc50 Nb25'
_cell_volume   2877.62713663
_cell_formula_units_Z   25
loop_
 _symmetry_equiv_pos_site_id
 _symmetry_equiv_pos_as_xyz
  1  'x, y, z'
loop_
 _atom_site_type_symbol
 _atom_site_label
 _atom_site_symmetry_multiplicity
 _atom_site_fract_x
 _atom_site_fract_y
 _atom_site_fract_z
 _atom_site_occupancy
  Zr  Zr0  1  0.41819885  0.04263217  0.67466443  1
  Zr  Zr1  1  0.86921340  0.86395298  0.62319710  1
  Zr  Zr2  1  0.24834929  0.08416428  0.30667950  1
  Zr  Zr3  1  0.74332428  0.72137967  0.71481724  1
  Zr  Zr4  1  0.55006061  0.52221251  0.92106188  1
  Zr  Zr5  1  0.40375822  0.82715633  0.71090061  1
  Zr  Zr6  1  0.54547261  0.65777976  0.67582310  1
  Zr  Zr7  1  0.50891458  0.46234490  0.31433848  1
  Zr  Zr8  1  0.71152813  0.53380218  0.55064596  1
  Zr  Zr9  1  0.95551631  0.97804328  0.01746889  1
  Zr  Zr10  1  0.55596121  0.87961888  1.03207944  1
  Zr  Zr11  1  0.92937043  0.06948657  0.50934184  1
  Zr  Zr12  1  0.13662460  0.59984338  0.32609348  1
  Zr  Zr13  1  0.10151131  0.27451548  0.78211189  1
  Zr  Zr14  1  0.75606975  0.35118725  0.23869681  1
  Zr  Zr15  1  0.98126464  0.52102143  0.00914650  1
  Zr  Zr16  1  0.96917832  0.32331693  0.23510366  1
  Zr  Zr17  1  0.64966958  0.11107669  0.33934620  1
  Zr  Zr18  1  0.60063335  0.91724470  0.25443461  1
  Zr  Zr19  1  0.56845144  0.26328429  0.22120710  1
  Zr  Zr20  1  0.07890705  0.88978571  0.61368403  1
  Zr  Zr21  1  0.16736921  0.43862821  0.90371798  1
  Zr  Zr22  1  0.43840549  0.78622372  0.18057645  1
  Zr  Zr23  1  0.82993257  0.65601824  0.11481905  1
  Zr  Zr24  1  0.84614361  0.16590029  0.33607952  1
  Zr  Zr25  1  0.37292285  0.38874290  0.85328777  1
  Zr  Zr26  1  0.95086156  0.84272064  0.18699299  1
  Zr  Zr27  1  0.26329138  0.28253581  0.00494669  1
  Zr  Zr28  1  0.96119260  0.13556297  0.15076111  1
  Zr  Zr29  1  0.10255403  0.40445754  0.36437009  1
  Zr  Zr30  1  0.64625744  0.50563389  0.12793427  1
  Zr  Zr31  1  0.35530998  0.87976688  0.35908347  1
  Zr  Zr32  1  0.76231297  0.28664772  0.82985836  1
  Zr  Zr33  1  0.90055638  0.61490767  0.63700867  1
  Zr  Zr34  1  0.76477787  0.78437913  0.29896352  1
  Zr  Zr35  1  0.15211937  0.66427881  0.93845986  1
  Zr  Zr36  1  0.04324432  0.09378962  0.68975906  1
  Zr  Zr37  1  0.64313129  0.75032624  0.51818952  1
  Zr  Zr38  1  0.03709301  0.71475920  0.51045897  1
  Zr  Zr39  1  0.03966767  0.00999889  0.28617661  1
  Zr  Zr40  1  0.40052642  0.26167147  0.33872603  1
  Zr  Zr41  1  0.64723636  0.29027700  0.02519602  1
  Zr  Zr42  1  0.28818567  0.90481762  0.55342278  1
  Zr  Zr43  1  0.71247077  0.50408399  0.76583087  1
  Zr  Zr44  1  0.74090958  0.14343691  0.54175760  1
  Zr  Zr45  1  0.00230442  0.75320029  0.76035717  1
  Zr  Zr46  1  0.69220344  0.09254257  0.92893053  1
  Zr  Zr47  1  0.33880183  0.81333856  0.94998773  1
  Zr  Zr48  1  0.13109081  0.46484354  0.13468808  1
  Zr  Zr49  1  0.92240684  0.51205312  0.21938149  1
  Sc  Sc50  1  0.11522328  0.08595665  0.90279028  1
  Sc  Sc51  1  0.96054259  0.77013667  0.97247171  1
  Sc  Sc52  1  0.74840713  0.12769452  0.13697161  1
  Sc  Sc53  1  0.12248574  0.52093261  0.55111846  1
  Sc  Sc54  1  0.87810459  0.60305804  0.85234812  1
  Sc  Sc55  1  0.43331717  0.36361456  0.51886974  1
  Sc  Sc56  1  0.30968597  0.43156586  0.22871448  1
  Sc  Sc57  1  0.74450629  0.94045472  0.45942487  1
  Sc  Sc58  1  0.32038725  0.53037333  1.01587498  1
  Sc  Sc59  1  0.50573235  -0.00937561  0.85976486  1
  Sc  Sc60  1  0.50802531  0.46003924  0.69381910  1
  Sc  Sc61  1  0.20822846  0.73406612  0.71283251  1
  Sc  Sc62  1  0.61557697  0.14084600  0.73673996  1
  Sc  Sc63  1  0.53338574  0.16741473  0.51244054  1
  Sc  Sc64  1  0.13946040  0.04471983  0.48252443  1
  Sc  Sc65  1  0.91472524  0.15101764  0.88934548  1
  Sc  Sc66  1  0.85664937  0.31480281  0.04766548  1
  Sc  Sc67  1  0.55883836  0.78228005  0.84274498  1
  Sc  Sc68  1  0.64303371  0.34045697  0.42293269  1
  Sc  Sc69  1  0.67807918  0.32759531  0.63516485  1
  Sc  Sc70  1  0.75943142  0.89001914  0.08804759  1
  Sc  Sc71  1  0.93988272  0.38546606  0.85088060  1
  Sc  Sc72  1  0.05528894  0.29105150  0.56876621  1
  Sc  Sc73  1  0.72541488  0.56833655  0.33134004  1
  Sc  Sc74  1  0.55383092  0.70170934  0.33670275  1
  Sc  Sc75  1  0.34021550  0.57877037  0.61666783  1
  Sc  Sc76  1  0.34942407  0.96179978  0.14735235  1
  Sc  Sc77  1  0.22837354  0.97884233  0.74993311  1
  Sc  Sc78  1  0.46189225  0.37649209  0.06381963  1
  Sc  Sc79  1  0.06092613  0.28182482  0.01851547  1
  Sc  Sc80  1  0.37064837  0.62681164  0.82822841  1
  Sc  Sc81  1  0.43903010  0.24848137  0.69754797  1
  Sc  Sc82  1  0.31822143  1.03276210  0.95133776  1
  Sc  Sc83  1  0.25443555  0.37813151  0.66481647  1
  Sc  Sc84  1  0.52016111  0.94552855  0.48265075  1
  Sc  Sc85  1  0.36857707  0.18416150  0.14137660  1
  Sc  Sc86  1  0.14809763  0.86810911  0.09514192  1
  Sc  Sc87  1  0.07094765  0.53611261  0.75486850  1
  Sc  Sc88  1  0.16334277  0.08673958  0.10671334  1
  Sc  Sc89  1  0.25820065  0.68533226  0.14291588  1
  Sc  Sc90  1  0.62911668  0.91659152  0.67405624  1
  Sc  Sc91  1  0.35508972  0.64518024  0.33841339  1
  Sc  Sc92  1  0.86432765  0.32117341  0.46936428  1
  Sc  Sc93  1  0.77868316  0.88361821  0.86800999  1
  Sc  Sc94  1  0.70043948  0.68217977  0.94977492  1
  Sc  Sc95  1  0.54116355  0.08017823  0.09312798  1
  Sc  Sc96  1  0.23278233  0.26797988  0.45291032  1
  Sc  Sc97  1  0.81168800  0.04760032  0.72579399  1
  Sc  Sc98  1  0.92482738  0.52083829  0.44082697  1
  Sc  Sc99  1  0.14314466  0.81935394  0.32825944  1
  Nb  Nb100  1  0.88605603  0.23227636  0.67554044  1
  Nb  Nb101  1  0.13767859  0.86711445  0.88909412  1
  Nb  Nb102  1  0.43082881  0.74731732  0.51707944  1
  Nb  Nb103  1  0.17374627  0.26161953  0.22166421  1
  Nb  Nb104  1  -0.02179468  0.94412918  0.80952830  1
  Nb  Nb105  1  0.04876605  0.19585159  0.36736465  1
  Nb  Nb106  1  0.35292373  0.08999969  0.47865662  1
  Nb  Nb107  1  0.75799718  0.46919923  0.96416023  1
  Nb  Nb108  1  0.82684705  0.71468922  0.47975073  1
  Nb  Nb109  1  0.23712203  0.70980386  0.49417112  1
  Nb  Nb110  1  0.51182954  0.56100245  0.48855311  1
  Nb  Nb111  1  0.28528936  0.19096100  0.81854360  1
  Nb  Nb112  1  0.46197693  0.57904098  0.16408959  1
  Nb  Nb113  1  0.82775713  0.98314003  0.26943887  1
  Nb  Nb114  1  0.94795180  0.69167170  0.31679879  1
  Nb  Nb115  1  0.05197403  0.66899196  0.14062543  1
  Nb  Nb116  1  0.45912752  0.06483650  0.30427180  1
  Nb  Nb117  1  0.63137409  0.71511119  0.14663100  1
  Nb  Nb118  1  0.94557145  0.87727370  0.41614317  1
  Nb  Nb119  1  0.46656625  0.19583399  0.92064213  1
  Nb  Nb120  1  0.88470559  0.42206302  0.65836536  1
  Nb  Nb121  1  0.29779523  0.48226636  0.43600523  1
  Nb  Nb122  1  0.48172163  0.68217551  0.01075015  1
  Nb  Nb123  1  0.24070929  0.15957593  0.63350239  1
  Nb  Nb124  1  0.57822108  0.33583632  0.84534452  1
