# generated using pymatgen
data_Zr2Sc2Nb
_symmetry_space_group_name_H-M   'P 1'
_cell_length_a   14.37289786
_cell_length_b   13.91715835
_cell_length_c   14.41986791
_cell_angle_alpha   91.53151809
_cell_angle_beta   92.18943538
_cell_angle_gamma   89.91742872
_symmetry_Int_Tables_number   1
_chemical_formula_structural   Zr2Sc2Nb
_chemical_formula_sum   'Zr50 Sc50 Nb25'
_cell_volume   2881.26910207
_cell_formula_units_Z   25
loop_
 _symmetry_equiv_pos_site_id
 _symmetry_equiv_pos_as_xyz
  1  'x, y, z'
loop_
 _atom_site_type_symbol
 _atom_site_label
 _atom_site_symmetry_multiplicity
 _atom_site_fract_x
 _atom_site_fract_y
 _atom_site_fract_z
 _atom_site_occupancy
  Zr  Zr0  1  0.43351510  0.54935086  0.02657578  1
  Zr  Zr1  1  0.34393167  0.54506737  0.61899335  1
  Zr  Zr2  1  0.57718755  0.29540681  0.45979584  1
  Zr  Zr3  1  0.56626427  0.10325640  0.60394759  1
  Zr  Zr4  1  0.75302322  0.57227520  0.08898941  1
  Zr  Zr5  1  0.73054489  0.46699466  0.45770072  1
  Zr  Zr6  1  0.78995508  0.36622617  0.03933388  1
  Zr  Zr7  1  0.98293770  0.33634482  0.95837778  1
  Zr  Zr8  1  0.86520624  0.70886311  0.74908777  1
  Zr  Zr9  1  0.57830677  0.49024682  0.15355208  1
  Zr  Zr10  1  0.52549118  0.48127327  0.34955166  1
  Zr  Zr11  1  0.90244428  0.34511541  0.57820086  1
  Zr  Zr12  1  0.12353371  0.42917399  0.11002822  1
  Zr  Zr13  1  0.60408046  0.28620201  0.25884325  1
  Zr  Zr14  1  0.40901302  0.03336769  0.29858809  1
  Zr  Zr15  1  0.93928715  0.15014176  0.66416849  1
  Zr  Zr16  1  0.26155886  0.10743849  0.97373134  1
  Zr  Zr17  1  0.22119611  0.30539879  0.90027525  1
  Zr  Zr18  1  0.08343521  0.67604725  0.90142476  1
  Zr  Zr19  1  0.59994087  0.25401078  0.82565585  1
  Zr  Zr20  1  0.62404589  0.09258406  0.37290829  1
  Zr  Zr21  1  0.05056194  0.32611206  0.74792552  1
  Zr  Zr22  1  0.31012335  0.15188780  0.58284985  1
  Zr  Zr23  1  0.52795007  0.71132808  0.43283197  1
  Zr  Zr24  1  0.62920492  0.88118163  0.67252730  1
  Zr  Zr25  1  0.58913441  0.45856234  0.74996800  1
  Zr  Zr26  1  0.95344405  0.51708875  0.78781081  1
  Zr  Zr27  1  0.27442678  0.35159204  0.69685460  1
  Zr  Zr28  1  0.43197327  0.93998030  0.67026055  1
  Zr  Zr29  1  0.84571899  0.04879808  0.31626664  1
  Zr  Zr30  1  0.16295107  0.66330048  0.52926282  1
  Zr  Zr31  1  0.97444244  0.86887846  0.88945805  1
  Zr  Zr32  1  0.17536363  0.14253113  0.74213536  1
  Zr  Zr33  1  0.49534453  0.92705677  0.47643068  1
  Zr  Zr34  1  0.35358795  0.35447391  0.47491024  1
  Zr  Zr35  1  0.90979030  0.77501574  0.53313904  1
  Zr  Zr36  1  0.00951112  0.70825032  0.35678777  1
  Zr  Zr37  1  0.96120841  0.56768153  0.56343475  1
  Zr  Zr38  1  0.23885018  0.94739335  0.67013943  1
  Zr  Zr39  1  0.23018203  0.57183949  0.03241510  1
  Zr  Zr40  1  0.14833039  0.55696567  0.29240134  1
  Zr  Zr41  1  0.77707293  0.52286143  0.87812382  1
  Zr  Zr42  1  0.86071643  0.71953195  0.97404630  1
  Zr  Zr43  1  0.47207199  0.30581430  0.64469592  1
  Zr  Zr44  1  0.38989758  0.15777318  0.77442357  1
  Zr  Zr45  1  0.77552795  0.21079661  0.18479615  1
  Zr  Zr46  1  0.34334505  0.60750240  0.40471132  1
  Zr  Zr47  1  0.13566219  0.52810537  0.69072425  1
  Zr  Zr48  1  0.66497494  0.67524153  0.76221367  1
  Zr  Zr49  1  0.16454410  0.93144459  0.85642335  1
  Sc  Sc50  1  0.97255778  0.41891743  0.39005875  1
  Sc  Sc51  1  0.67238261  0.02763699  0.17819210  1
  Sc  Sc52  1  0.70058626  0.29807132  0.62872461  1
  Sc  Sc53  1  0.83753048  0.91534573  0.68519875  1
  Sc  Sc54  1  0.28913901  0.73849356  0.72852919  1
  Sc  Sc55  1  0.71700311  0.68590736  0.54150157  1
  Sc  Sc56  1  0.48263558  0.13036304  0.14099679  1
  Sc  Sc57  1  0.49017382  0.71447947  0.64111779  1
  Sc  Sc58  1  0.73121646  0.09834007  0.72820121  1
  Sc  Sc59  1  0.84002373  0.94775161  0.06146813  1
  Sc  Sc60  1  0.78724227  0.26817952  0.38935340  1
  Sc  Sc61  1  0.15851491  0.32385938  0.28958298  1
  Sc  Sc62  1  0.71263776  0.91609067  0.48400181  1
  Sc  Sc63  1  0.47097398  0.60969932  0.83153480  1
  Sc  Sc64  1  0.36786791  0.93502372  0.10196432  1
  Sc  Sc65  1  0.32659915  0.74721981  0.93825611  1
  Sc  Sc66  1  0.68187029  0.65173821  0.29069480  1
  Sc  Sc67  1  0.10218518  0.85846173  0.53244799  1
  Sc  Sc68  1  0.37547513  0.95560505  0.87761490  1
  Sc  Sc69  1  -0.00591663  0.87572537  0.18792913  1
  Sc  Sc70  1  0.77754731  0.50921086  0.65869173  1
  Sc  Sc71  1  0.16704728  0.83572162  0.04255721  1
  Sc  Sc72  1  0.33995377  0.48566720  0.21904140  1
  Sc  Sc73  1  0.17656081  0.46693408  0.47857790  1
  Sc  Sc74  1  0.77239523  0.43590739  0.25507917  1
  Sc  Sc75  1  0.56939692  0.86456043  0.26956706  1
  Sc  Sc76  1  0.83065245  0.29585730  0.80849951  1
  Sc  Sc77  1  0.06482736  0.75540079  0.70964511  1
  Sc  Sc78  1  0.87923409  0.05302852  0.86317711  1
  Sc  Sc79  1  0.57893278  0.29729184  0.04533567  1
  Sc  Sc80  1  0.10822815  0.07319409  0.53857442  1
  Sc  Sc81  1  0.54162399  0.51022209  0.55298539  1
  Sc  Sc82  1  0.91346556  0.15915105  0.04982799  1
  Sc  Sc83  1  0.56342161  0.94222055  1.00765625  1
  Sc  Sc84  1  0.69561058  0.12162679  0.97445968  1
  Sc  Sc85  1  0.82934872  0.83551228  0.33267034  1
  Sc  Sc86  1  0.20406513  0.95864214  0.23872232  1
  Sc  Sc87  1  0.05002289  0.12106758  0.23524369  1
  Sc  Sc88  1  0.19369657  0.77834038  0.34671342  1
  Sc  Sc89  1  0.72556695  0.87199331  0.87531225  1
  Sc  Sc90  1  0.07310164  0.02153965  0.04113541  1
  Sc  Sc91  1  0.70008987  0.79564082  0.12183929  1
  Sc  Sc92  1  0.29883420  0.71532481  0.16869512  1
  Sc  Sc93  1  0.35193362  0.31816744  0.06808111  1
  Sc  Sc94  1  0.27733642  0.96800707  0.45184519  1
  Sc  Sc95  1  0.12368342  0.28532082  0.54980609  1
  Sc  Sc96  1  0.39581170  0.27552549  0.28804558  1
  Sc  Sc97  1  0.29095241  0.52438691  0.83725735  1
  Sc  Sc98  1  0.97722226  0.18587644  0.41942232  1
  Sc  Sc99  1  0.07049826  0.67379810  0.13066522  1
  Nb  Nb100  1  0.03927490  0.95386020  0.37043430  1
  Nb  Nb101  1  0.49245231  0.75145943  0.06898440  1
  Nb  Nb102  1  0.46467816  0.14900674  0.94735696  1
  Nb  Nb103  1  0.12294886  0.23112539  0.07186505  1
  Nb  Nb104  1  0.03002292  0.97729948  0.71135789  1
  Nb  Nb105  1  0.60413140  0.47002582  0.94431508  1
  Nb  Nb106  1  0.77654745  0.12247463  0.52530354  1
  Nb  Nb107  1  0.11078274  0.47128263  0.89827107  1
  Nb  Nb108  1  0.33182221  0.78246380  0.52616803  1
  Nb  Nb109  1  0.91835830  -0.01417368  0.51016517  1
  Nb  Nb110  1  0.56332234  0.02668258  0.81588097  1
  Nb  Nb111  1  0.85489031  0.60402025  0.38473150  1
  Nb  Nb112  1  0.48045839  0.65722609  0.23554159  1
  Nb  Nb113  1  0.05340831  0.14602140  0.87795456  1
  Nb  Nb114  1  0.95203563  0.53687209  1.01494652  1
  Nb  Nb115  1  0.38388730  0.82268211  0.32496679  1
  Nb  Nb116  1  0.95191785  0.51709702  0.20930820  1
  Nb  Nb117  1  0.43484674  0.36458905  0.87153865  1
  Nb  Nb118  1  0.51655905  0.81253896  0.84167949  1
  Nb  Nb119  1  0.95791136  0.31824639  0.18828182  1
  Nb  Nb120  1  0.26288263  0.14704296  0.17758717  1
  Nb  Nb121  1  0.23215076  0.15625319  0.37968414  1
  Nb  Nb122  1  0.43759203  0.14935498  0.45348899  1
  Nb  Nb123  1  0.62867295  0.67773759  -0.04109522  1
  Nb  Nb124  1  0.87587221  0.69298881  0.18708550  1
