# generated using pymatgen
data_Zr2Sc2Nb
_symmetry_space_group_name_H-M   'P 1'
_cell_length_a   13.99365939
_cell_length_b   14.48448115
_cell_length_c   14.19434099
_cell_angle_alpha   90.94378449
_cell_angle_beta   89.09883189
_cell_angle_gamma   91.58195748
_symmetry_Int_Tables_number   1
_chemical_formula_structural   Zr2Sc2Nb
_chemical_formula_sum   'Zr50 Sc50 Nb25'
_cell_volume   2875.24120536
_cell_formula_units_Z   25
loop_
 _symmetry_equiv_pos_site_id
 _symmetry_equiv_pos_as_xyz
  1  'x, y, z'
loop_
 _atom_site_type_symbol
 _atom_site_label
 _atom_site_symmetry_multiplicity
 _atom_site_fract_x
 _atom_site_fract_y
 _atom_site_fract_z
 _atom_site_occupancy
  Zr  Zr0  1  0.18597408  0.01354363  1.02765439  1
  Zr  Zr1  1  0.79169251  0.82036851  0.58358143  1
  Zr  Zr2  1  0.72527488  0.72388816  0.77090780  1
  Zr  Zr3  1  0.85510292  0.62381950  0.24574073  1
  Zr  Zr4  1  0.87635081  0.95482859  0.43400901  1
  Zr  Zr5  1  0.27871827  0.30465861  0.26383365  1
  Zr  Zr6  1  0.07953280  0.05285070  0.56011202  1
  Zr  Zr7  1  0.38594487  0.07794377  0.90779650  1
  Zr  Zr8  1  0.48772402  0.26202611  0.95417884  1
  Zr  Zr9  1  0.45617370  0.93961127  0.47328427  1
  Zr  Zr10  1  0.97228800  0.25392172  0.88080230  1
  Zr  Zr11  1  0.56902863  0.53659791  0.15089902  1
  Zr  Zr12  1  0.70728168  0.92566301  0.82576922  1
  Zr  Zr13  1  0.27646335  0.50884084  0.81474956  1
  Zr  Zr14  1  0.37796667  0.13413330  0.53324524  1
  Zr  Zr15  1  0.17313750  0.19200785  0.91522267  1
  Zr  Zr16  1  0.58716409  0.83417527  0.66313226  1
  Zr  Zr17  1  0.24843936  0.94987472  0.48589705  1
  Zr  Zr18  1  0.89532904  0.34947336  0.68386313  1
  Zr  Zr19  1  0.14141968  0.88412591  0.66720035  1
  Zr  Zr20  1  0.54623160  0.30640657  0.50846957  1
  Zr  Zr21  1  0.41139158  0.41482381  0.65626963  1
  Zr  Zr22  1  0.05056756  0.55161659  0.72902760  1
  Zr  Zr23  1  0.67198415  0.29768460  0.33462773  1
  Zr  Zr24  1  0.76790243  0.57548236  0.03825967  1
  Zr  Zr25  1  0.34224753  0.85152202  0.28555804  1
  Zr  Zr26  1  0.77051450  0.88883212  0.19819492  1
  Zr  Zr27  1  0.72306060  0.51610749  0.83458832  1
  Zr  Zr28  1  0.95971064  0.80353679  0.29684313  1
  Zr  Zr29  1  0.48495309  0.32605678  0.15418610  1
  Zr  Zr30  1  0.66607224  0.23439568  0.09801369  1
  Zr  Zr31  1  0.93190563  0.44491435  0.31735421  1
  Zr  Zr32  1  0.92792839  0.95203804  0.70140836  1
  Zr  Zr33  1  0.14192780  0.46265239  0.19852466  1
  Zr  Zr34  1  0.50713163  0.10321055  0.11390805  1
  Zr  Zr35  1  0.24137819  0.57089680  0.04064944  1
  Zr  Zr36  1  0.12850089  0.66486911  0.54644091  1
  Zr  Zr37  1  0.38092693  0.94297003  0.08544520  1
  Zr  Zr38  1  0.54358905  0.61575801  0.72281605  1
  Zr  Zr39  1  0.53931436  0.73655916  0.49982408  1
  Zr  Zr40  1  0.31476269  0.17085581  0.09488338  1
  Zr  Zr41  1  0.25297614  0.25493049  0.63844102  1
  Zr  Zr42  1  0.12070807  0.42234144  0.94766544  1
  Zr  Zr43  1  0.61309953  0.09584654  0.90696593  1
  Zr  Zr44  1  0.64809172  0.43191690  0.66475323  1
  Zr  Zr45  1  0.11059055  0.35700121  0.75256500  1
  Zr  Zr46  1  0.42231171  0.47892187  0.98630242  1
  Zr  Zr47  1  0.75552823  0.13285485  0.43574227  1
  Zr  Zr48  1  0.95100151  0.98835687  0.18446625  1
  Zr  Zr49  1  0.32354308  0.31221250  0.83936265  1
  Sc  Sc50  1  0.25837495  0.89404290  0.86484257  1
  Sc  Sc51  1  0.36822388  0.84803239  0.66902337  1
  Sc  Sc52  1  0.19771344  0.70687777  0.75507091  1
  Sc  Sc53  1  0.77057299  0.45514521  0.49584179  1
  Sc  Sc54  1  0.89206259  0.75238938  0.08646966  1
  Sc  Sc55  1  0.88144708  0.29773129  0.45276826  1
  Sc  Sc56  1  0.96009559  0.73393539  0.67833492  1
  Sc  Sc57  1  0.47288270  0.19216334  0.33055314  1
  Sc  Sc58  1  0.12148807  0.11773486  0.20655301  1
  Sc  Sc59  1  0.35828488  0.62765738  0.63271507  1
  Sc  Sc60  1  0.84467750  0.32394246  0.02529311  1
  Sc  Sc61  1  0.26435300  0.66954399  0.23789874  1
  Sc  Sc62  1  0.06083370  0.28397258  0.09647224  1
  Sc  Sc63  1  0.25498904  0.06497169  0.72690818  1
  Sc  Sc64  1  0.87144526  0.92213744  0.95131196  1
  Sc  Sc65  1  0.73276953  0.75401797  0.37396190  1
  Sc  Sc66  1  0.08396535  0.65148794  0.94228228  1
  Sc  Sc67  1  0.66052627  0.93102808  0.44313951  1
  Sc  Sc68  1  0.50207621  0.86987027  0.88325764  1
  Sc  Sc69  1  0.20870323  0.46845566  0.59676892  1
  Sc  Sc70  1  0.06226674  0.28060123  0.54572626  1
  Sc  Sc71  1  0.66609834  0.55407172  0.34798246  1
  Sc  Sc72  1  0.48458600  0.66900384  0.30528357  1
  Sc  Sc73  1  0.55043260  0.88260039  0.25825268  1
  Sc  Sc74  1  0.31948351  0.54450979  0.41389136  1
  Sc  Sc75  1  0.37716233  0.68655991  0.87866838  1
  Sc  Sc76  1  0.50160645  0.02485245  0.70543630  1
  Sc  Sc77  1  0.83645133  0.10691353  0.82630653  1
  Sc  Sc78  1  0.88753635  0.68662261  0.88137352  1
  Sc  Sc79  1  0.75064044  0.42581601  0.19081763  1
  Sc  Sc80  1  0.32406899  0.75217415  0.47116067  1
  Sc  Sc81  1  0.66794094  0.07446067  0.25640993  1
  Sc  Sc82  1  0.24524036  0.78079658  0.04192305  1
  Sc  Sc83  1  0.36067877  0.49337117  0.20241461  1
  Sc  Sc84  1  0.62012889  0.93881602  0.05516318  1
  Sc  Sc85  1  0.92207990  0.46735818  0.87334593  1
  Sc  Sc86  1  0.86212566  0.21200029  0.21854469  1
  Sc  Sc87  1  0.89887481  0.65242864  0.47469542  1
  Sc  Sc88  1  0.70755010  0.29155596  0.84682251  1
  Sc  Sc89  1  0.71452666  0.23442369  0.62528707  1
  Sc  Sc90  1  0.97031425  0.51559071  0.09090786  1
  Sc  Sc91  1  0.47010233  0.74425009  0.09215901  1
  Sc  Sc92  1  0.50133678  0.23203559  0.71934144  1
  Sc  Sc93  1  0.07256440  0.59817901  0.34981320  1
  Sc  Sc94  1  0.19765303  0.17798666  0.41773271  1
  Sc  Sc95  1  0.52074441  0.52262111  0.50936916  1
  Sc  Sc96  1  0.97350252  0.12649754  0.38282853  1
  Sc  Sc97  1  0.71883066  0.02092838  0.63397196  1
  Sc  Sc98  1  0.57720949  0.62577470  -0.05734639  1
  Sc  Sc99  1  0.31436541  0.04820392  0.28555342  1
  Nb  Nb100  1  0.98067986  0.10068800  1.01850087  1
  Nb  Nb101  1  0.05455388  0.29369246  0.30703808  1
  Nb  Nb102  1  0.99552245  0.47865262  0.53180167  1
  Nb  Nb103  1  0.89759194  0.13583083  0.59675692  1
  Nb  Nb104  1  0.63352995  0.41386187  0.00244250  1
  Nb  Nb105  1  0.27721881  0.35254604  0.05005505  1
  Nb  Nb106  1  0.01888898  0.84508394  0.50944921  1
  Nb  Nb107  1  0.05224654  0.87085534  1.03175620  1
  Nb  Nb108  1  0.78208345  0.08074131  0.05390089  1
  Nb  Nb109  1  0.06171275  0.01840143  0.85406219  1
  Nb  Nb110  1  0.49317627  0.41481035  0.33381904  1
  Nb  Nb111  1  0.84608811  0.55721381  0.67465818  1
  Nb  Nb112  1  0.09497055  0.97149979  0.35916115  1
  Nb  Nb113  1  0.15978577  0.88975231  0.19797041  1
  Nb  Nb114  1  0.15131442  0.41379197  0.40762706  1
  Nb  Nb115  1  0.05011210  0.16010242  0.72451144  1
  Nb  Nb116  1  0.14848173  0.78682506  0.36851673  1
  Nb  Nb117  1  0.69758912  0.63670219  0.57505795  1
  Nb  Nb118  1  0.34521813  0.34062292  0.46071844  1
  Nb  Nb119  1  0.67031181  0.71318656  0.16963474  1
  Nb  Nb120  1  0.04751636  0.83025275  0.84608393  1
  Nb  Nb121  1  0.70684321  0.77709028  0.98531904  1
  Nb  Nb122  1  0.57180487  0.11031795  0.50668902  1
  Nb  Nb123  1  0.52271051  0.42905718  0.82679739  1
  Nb  Nb124  1  0.07760199  0.69435341  0.16093201  1
