# generated using pymatgen
data_Zr2Sc2Nb
_symmetry_space_group_name_H-M   'P 1'
_cell_length_a   13.98080812
_cell_length_b   14.69845779
_cell_length_c   14.05201201
_cell_angle_alpha   92.04268030
_cell_angle_beta   92.60201927
_cell_angle_gamma   91.17225762
_symmetry_Int_Tables_number   1
_chemical_formula_structural   Zr2Sc2Nb
_chemical_formula_sum   'Zr50 Sc50 Nb25'
_cell_volume   2882.12150570
_cell_formula_units_Z   25
loop_
 _symmetry_equiv_pos_site_id
 _symmetry_equiv_pos_as_xyz
  1  'x, y, z'
loop_
 _atom_site_type_symbol
 _atom_site_label
 _atom_site_symmetry_multiplicity
 _atom_site_fract_x
 _atom_site_fract_y
 _atom_site_fract_z
 _atom_site_occupancy
  Zr  Zr0  1  0.56187757  0.54283644  0.47487846  1
  Zr  Zr1  1  0.05777205  0.04481885  0.47921846  1
  Zr  Zr2  1  0.20384084  0.36124980  0.84979675  1
  Zr  Zr3  1  0.46567210  0.73105679  0.38533216  1
  Zr  Zr4  1  0.74291212  0.32493852  0.76773732  1
  Zr  Zr5  1  0.31335784  0.76666739  0.54059460  1
  Zr  Zr6  1  0.48431894  0.07329093  0.89023052  1
  Zr  Zr7  1  0.60780456  0.25330560  0.94916110  1
  Zr  Zr8  1  0.88420002  0.63169969  0.71889884  1
  Zr  Zr9  1  0.88540893  0.42964078  0.68364492  1
  Zr  Zr10  1  0.90772357  0.62059356  0.10621400  1
  Zr  Zr11  1  0.43146749  0.14164508  0.45007496  1
  Zr  Zr12  1  0.24062181  0.17903213  0.52839955  1
  Zr  Zr13  1  0.30946898  0.53508729  0.84368690  1
  Zr  Zr14  1  0.26596510  0.68898786  0.28172291  1
  Zr  Zr15  1  0.92085759  0.20550862  0.13065638  1
  Zr  Zr16  1  -0.01179465  0.30048515  0.80101122  1
  Zr  Zr17  1  0.59315402  0.87995213  0.27703510  1
  Zr  Zr18  1  0.35626887  0.55699440  0.45106256  1
  Zr  Zr19  1  0.66141445  0.20704626  0.56434470  1
  Zr  Zr20  1  0.37839950  0.70244219  0.73783588  1
  Zr  Zr21  1  0.58845268  0.77573509  0.97231308  1
  Zr  Zr22  1  0.46633525  0.05915295  0.27089209  1
  Zr  Zr23  1  0.73968193  0.63679539  0.53344848  1
  Zr  Zr24  1  0.19521650  0.71169378  0.89382106  1
  Zr  Zr25  1  0.98145087  0.67753320  0.92268642  1
  Zr  Zr26  1  0.90550391  0.25986406  0.53424784  1
  Zr  Zr27  1  0.37878196  0.24587660  0.89046015  1
  Zr  Zr28  1  0.81589486  0.05256396  0.50773579  1
  Zr  Zr29  1  0.24264128  0.86787257  0.74921909  1
  Zr  Zr30  1  0.53103778  0.71596044  0.59000516  1
  Zr  Zr31  1  0.47730442  0.54036593  0.24855086  1
  Zr  Zr32  1  0.06697567  0.87959742  0.97653212  1
  Zr  Zr33  1  0.70862673  0.53963345  0.15804975  1
  Zr  Zr34  1  0.29383101  0.05353997  0.14950386  1
  Zr  Zr35  1  0.03800148  0.73820216  0.29613848  1
  Zr  Zr36  1  0.49951980  0.96011428  0.07498989  1
  Zr  Zr37  1  0.89103376  0.13404348  0.32976419  1
  Zr  Zr38  1  0.54668069  0.38742158  0.10843255  1
  Zr  Zr39  1  0.13950413  0.91073876  0.17845687  1
  Zr  Zr40  1  0.85604069  0.45980002  0.48093959  1
  Zr  Zr41  1  0.46302953  0.18381135  0.08976974  1
  Zr  Zr42  1  0.09823557  0.12564253  0.23971481  1
  Zr  Zr43  1  0.99609617  0.94414116  0.30485914  1
  Zr  Zr44  1  0.74927939  0.08701488  0.94818053  1
  Zr  Zr45  1  0.09944048  0.33620028  0.22347408  1
  Zr  Zr46  1  0.81829297  0.75465763  0.31542533  1
  Zr  Zr47  1  0.63793538  0.12717830  0.76722521  1
  Zr  Zr48  1  0.29006101  0.60747168  0.09641102  1
  Zr  Zr49  1  0.15837838  0.63673571  0.44775598  1
  Sc  Sc50  1  0.71522249  0.91802304  0.07844898  1
  Sc  Sc51  1  0.68052804  0.76101524  0.75351194  1
  Sc  Sc52  1  0.10451808  0.34331402  0.61444927  1
  Sc  Sc53  1  0.85152311  0.89947920  0.86953594  1
  Sc  Sc54  1  0.90868804  0.81522879  0.12065079  1
  Sc  Sc55  1  0.47811410  0.73361047  0.15979296  1
  Sc  Sc56  1  0.05238143  0.30008949  0.00393093  1
  Sc  Sc57  1  1.01560669  0.80399637  0.76294011  1
  Sc  Sc58  1  0.69912873  0.45727662  0.95228938  1
  Sc  Sc59  1  0.41968098  0.86397601  0.88045188  1
  Sc  Sc60  1  0.27764888  0.09398096  0.74538186  1
  Sc  Sc61  1  0.75890843  0.65634261  0.93778690  1
  Sc  Sc62  1  0.84577733  0.14862260  0.71825614  1
  Sc  Sc63  1  0.67701588  0.44679787  0.33819262  1
  Sc  Sc64  1  0.91940195  0.42641895  0.11402462  1
  Sc  Sc65  1  0.29168397  0.83051811  0.05258415  1
  Sc  Sc66  1  0.07748946  0.51989982  0.79106526  1
  Sc  Sc67  1  0.24348780  0.50562429  0.62196782  1
  Sc  Sc68  1  0.29961298  0.23440759  0.29791055  1
  Sc  Sc69  1  0.54324001  0.31688018  0.71489875  1
  Sc  Sc70  1  0.73795461  0.31580392  0.16955163  1
  Sc  Sc71  1  0.68610785  0.53097734  0.72629561  1
  Sc  Sc72  1  0.27683112  0.01671589  0.94258507  1
  Sc  Sc73  1  0.88740241  0.55403581  0.30546018  1
  Sc  Sc74  1  0.27401350  0.45736084  0.26537637  1
  Sc  Sc75  1  0.07581525  0.44908559  0.40811188  1
  Sc  Sc76  1  0.65714315  0.08733131  0.36271721  1
  Sc  Sc77  1  0.47420064  0.34687349  0.49528059  1
  Sc  Sc78  1  0.08727172  0.99608788  0.81200321  1
  Sc  Sc79  1  0.35487035  0.87948528  0.25468080  1
  Sc  Sc80  1  0.32780756  0.31652063  0.67702778  1
  Sc  Sc81  1  0.45203311  0.13036288  0.65749835  1
  Sc  Sc82  1  0.15463149  0.67870123  0.67481037  1
  Sc  Sc83  1  0.34664270  0.42373381  0.04055185  1
  Sc  Sc84  1  0.58492192  0.01222010  0.53489995  1
  Sc  Sc85  1  0.49124276  0.43438646  0.88204094  1
  Sc  Sc86  1  0.10519199  0.51068362  0.00854265  1
  Sc  Sc87  1  0.26951426  0.97802916  0.56481896  1
  Sc  Sc88  1  0.94665227  0.67988530  0.49130709  1
  Sc  Sc89  1  0.47511693  0.91313546  0.68406768  1
  Sc  Sc90  1  0.91349914  0.01185268  0.10208216  1
  Sc  Sc91  1  0.08345216  0.84494090  0.56397031  1
  Sc  Sc92  1  0.54010086  0.27122888  0.29528672  1
  Sc  Sc93  1  0.68137420  0.83923891  0.47179422  1
  Sc  Sc94  1  0.24586031  0.24014776  0.07426271  1
  Sc  Sc95  1  0.46452122  0.51114114  0.66310673  1
  Sc  Sc96  1  0.06646139  0.14830419  0.67031514  1
  Sc  Sc97  1  0.83154955  0.28428668  0.95248691  1
  Sc  Sc98  1  0.67796131  0.11537243  0.15854607  1
  Sc  Sc99  1  0.72529137  0.95821316  0.68931316  1
  Nb  Nb100  1  0.10946164  0.71130594  0.09973696  1
  Nb  Nb101  1  0.93934738  0.97362855  0.65935808  1
  Nb  Nb102  1  0.91228065  0.33626314  0.31427202  1
  Nb  Nb103  1  0.25853995  0.36233740  0.45902444  1
  Nb  Nb104  1  0.42350054  0.92036857  0.44370876  1
  Nb  Nb105  1  0.15537877  0.18051030  0.87735453  1
  Nb  Nb106  1  0.68539540  0.39927431  0.56250838  1
  Nb  Nb107  1  0.69861203  0.72791117  0.14491565  1
  Nb  Nb108  1  0.08569138  0.24004367  0.41075576  1
  Nb  Nb109  1  0.54106351  0.57849050  0.04242764  1
  Nb  Nb110  1  0.64115831  0.66040043  0.32535474  1
  Nb  Nb111  1  0.90112509  0.88379378  0.45992131  1
  Nb  Nb112  1  0.39979991  0.67581122  0.95407856  1
  Nb  Nb113  1  0.84557190  0.80747564  0.62577082  1
  Nb  Nb114  1  0.89874357  0.48112475  0.89519482  1
  Nb  Nb115  1  0.09794608  0.08201806  0.03678374  1
  Nb  Nb116  1  0.24636891  0.03836864  0.35881786  1
  Nb  Nb117  1  0.02696757  0.53111530  0.58844669  1
  Nb  Nb118  1  0.95295265  0.11400512  0.90449981  1
  Nb  Nb119  1  0.54345411  0.62540134  0.83680696  1
  Nb  Nb120  1  0.78983294  0.94748350  0.28377667  1
  Nb  Nb121  1  0.62533274  0.94008744  0.87280659  1
  Nb  Nb122  1  0.09124258  0.55547842  0.22169359  1
  Nb  Nb123  1  0.19569614  0.85859248  0.39025462  1
  Nb  Nb124  1  0.74546468  0.27042727  0.39432747  1
