# generated using pymatgen
data_Zr2Sc2Nb
_symmetry_space_group_name_H-M   'P 1'
_cell_length_a   13.97628877
_cell_length_b   14.34748571
_cell_length_c   14.26651821
_cell_angle_alpha   89.30521232
_cell_angle_beta   90.80777127
_cell_angle_gamma   88.14050183
_symmetry_Int_Tables_number   1
_chemical_formula_structural   Zr2Sc2Nb
_chemical_formula_sum   'Zr50 Sc50 Nb25'
_cell_volume   2858.77062776
_cell_formula_units_Z   25
loop_
 _symmetry_equiv_pos_site_id
 _symmetry_equiv_pos_as_xyz
  1  'x, y, z'
loop_
 _atom_site_type_symbol
 _atom_site_label
 _atom_site_symmetry_multiplicity
 _atom_site_fract_x
 _atom_site_fract_y
 _atom_site_fract_z
 _atom_site_occupancy
  Zr  Zr0  1  0.53361811  0.39019497  0.94939108  1
  Zr  Zr1  1  0.87293375  0.50342260  0.58823340  1
  Zr  Zr2  1  0.72226845  0.12821268  0.73565179  1
  Zr  Zr3  1  0.43918946  0.48713872  0.75322212  1
  Zr  Zr4  1  1.00365662  0.56673500  0.18999857  1
  Zr  Zr5  1  0.82029110  0.15943986  0.46608606  1
  Zr  Zr6  1  0.67925341  0.45050388  0.76606003  1
  Zr  Zr7  1  0.16712275  0.54587750  0.05582333  1
  Zr  Zr8  1  0.91009699  0.98065195  0.06644356  1
  Zr  Zr9  1  0.24866920  0.65286123  0.72487577  1
  Zr  Zr10  1  0.02741454  0.42814918  0.35264569  1
  Zr  Zr11  1  0.42814281  0.71008425  0.81313034  1
  Zr  Zr12  1  0.17342849  0.28279295  1.02155506  1
  Zr  Zr13  1  0.06961863  0.10240818  0.96991561  1
  Zr  Zr14  1  0.02304669  0.11918099  0.43088045  1
  Zr  Zr15  1  0.42719869  0.38369918  0.56304450  1
  Zr  Zr16  1  0.13855289  0.24994873  0.35481785  1
  Zr  Zr17  1  0.90994520  0.04884874  0.85347379  1
  Zr  Zr18  1  0.27543840  0.73558608  0.95421303  1
  Zr  Zr19  1  0.16565292  0.74705993  0.49603143  1
  Zr  Zr20  1  0.74295834  0.66616346  0.25503387  1
  Zr  Zr21  1  0.72097380  0.62660069  0.69079483  1
  Zr  Zr22  1  0.90800152  0.71469349  0.74800349  1
  Zr  Zr23  1  0.08254157  0.54980624  0.50310880  1
  Zr  Zr24  1  0.24392260  0.04852435  0.28180630  1
  Zr  Zr25  1  0.26117552  0.07392865  0.06826221  1
  Zr  Zr26  1  0.09551596  0.80945362  0.73218038  1
  Zr  Zr27  1  0.61877489  0.19879721  0.06702958  1
  Zr  Zr28  1  0.57075511  0.76023183  0.45218172  1
  Zr  Zr29  1  0.53014862  0.66266330  0.25124399  1
  Zr  Zr30  1  0.15330880  0.91345457  0.93615439  1
  Zr  Zr31  1  0.79893039  0.30830093  0.65271465  1
  Zr  Zr32  1  0.49095189  0.53979434  0.43122472  1
  Zr  Zr33  1  0.96741730  0.38312870  0.06773128  1
  Zr  Zr34  1  0.52246489  0.99857002  0.04782397  1
  Zr  Zr35  1  0.78205387  0.69565593  0.90141441  1
  Zr  Zr36  1  0.73168791  0.86960775  0.04500585  1
  Zr  Zr37  1  0.31334367  0.66835725  0.16300816  1
  Zr  Zr38  1  0.35725291  0.70158492  0.37715175  1
  Zr  Zr39  1  0.30119604  0.55675211  0.54466280  1
  Zr  Zr40  1  0.99771687  0.74528315  0.31576054  1
  Zr  Zr41  1  0.10416712  0.44153623  0.88417332  1
  Zr  Zr42  1  0.48570909  0.92126506  0.56575420  1
  Zr  Zr43  1  0.48821812  0.10711796  0.21920447  1
  Zr  Zr44  1  0.95356442  0.83636115  0.91385158  1
  Zr  Zr45  1  0.50814168  -0.03828058  0.77846953  1
  Zr  Zr46  1  0.29898739  0.04288979  0.63161268  1
  Zr  Zr47  1  0.02685063  0.36078911  0.68317026  1
  Zr  Zr48  1  0.59060965  0.59766893  0.87741215  1
  Zr  Zr49  1  0.88458561  0.57813553  0.38286065  1
  Sc  Sc50  1  0.91363141  0.93002773  0.67662376  1
  Sc  Sc51  1  0.86038097  0.18450947  0.06560328  1
  Sc  Sc52  1  0.58171869  0.81307319  0.91076855  1
  Sc  Sc53  1  0.10154697  0.95564565  0.56562988  1
  Sc  Sc54  1  0.31358452  0.18690163  0.46314107  1
  Sc  Sc55  1  0.89457135  0.49566811  0.80874432  1
  Sc  Sc56  1  0.68116858  0.21391876  0.28945273  1
  Sc  Sc57  1  0.63062065  0.23342082  0.51992196  1
  Sc  Sc58  1  0.51870753  0.15315198  0.86709503  1
  Sc  Sc59  1  0.05996201  0.93859846  0.34610732  1
  Sc  Sc60  1  0.69254770  0.00010822  0.36531611  1
  Sc  Sc61  1  0.33239463  0.33042998  0.87036754  1
  Sc  Sc62  1  0.28415427  0.41940143  0.36711318  1
  Sc  Sc63  1  0.72376805  0.27679968  0.89700019  1
  Sc  Sc64  1  0.32376981  0.24929420  0.68102418  1
  Sc  Sc65  1  0.28765086  0.92499502  0.45224242  1
  Sc  Sc66  1  0.74698500  0.80081624  0.58700750  1
  Sc  Sc67  1  0.09880254  0.75247825  0.09676598  1
  Sc  Sc68  1  0.14326824  0.22668280  0.80085516  1
  Sc  Sc69  1  0.17937427  0.59572781  0.30937987  1
  Sc  Sc70  1  0.29624167  0.87699245  0.74893570  1
  Sc  Sc71  1  0.33980266  0.42028915  0.07026376  1
  Sc  Sc72  1  0.49007033  0.07557144  0.42449064  1
  Sc  Sc73  1  0.79343950  0.38134851  0.43048650  1
  Sc  Sc74  1  0.88471702  0.94575669  0.46133116  1
  Sc  Sc75  1  0.37792967  0.75346021  0.58608804  1
  Sc  Sc76  1  0.74024179  0.89359412  0.79100771  1
  Sc  Sc77  1  0.94994623  0.73064536  0.53732539  1
  Sc  Sc78  1  0.56025224  0.30000442  0.72261042  1
  Sc  Sc79  1  0.06165769  0.57566140  0.70135671  1
  Sc  Sc80  1  0.49939688  0.12304412  0.64056118  1
  Sc  Sc81  1  0.31487985  0.25454956  0.22220277  1
  Sc  Sc82  1  0.48635408  0.31173223  0.36856258  1
  Sc  Sc83  1  0.93830804  0.27264749  0.86930140  1
  Sc  Sc84  1  0.48140336  0.78895262  0.08635260  1
  Sc  Sc85  1  0.71094630  0.05237267  0.93904075  1
  Sc  Sc86  1  0.59884090  0.50527382  0.11222237  1
  Sc  Sc87  1  0.18382485  0.36109618  0.53602937  1
  Sc  Sc88  1  0.76498577  0.48445700  0.97496174  1
  Sc  Sc89  1  0.43135423  0.89429115  0.29866352  1
  Sc  Sc90  1  0.88255832  0.73385422  0.10831411  1
  Sc  Sc91  1  0.30304392  0.08513680  0.84996082  1
  Sc  Sc92  1  0.29120673  0.88487384  0.12423498  1
  Sc  Sc93  1  0.06825834  0.16423150  0.17698454  1
  Sc  Sc94  1  0.68404266  0.00132969  0.58241610  1
  Sc  Sc95  1  0.64540733  0.45964006  0.30670392  1
  Sc  Sc96  1  0.63553758  0.85611715  0.23063239  1
  Sc  Sc97  1  0.90370383  0.28690341  0.26707729  1
  Sc  Sc98  1  0.94402076  0.14421054  0.65830959  1
  Sc  Sc99  1  0.40454173  0.20920222  0.03425586  1
  Nb  Nb100  1  0.09345059  0.66598688  0.88543173  1
  Nb  Nb101  1  0.71525777  0.04287019  0.16228154  1
  Nb  Nb102  1  0.63697443  0.44246859  0.56458309  1
  Nb  Nb103  1  0.52755890  0.60321411  0.62219067  1
  Nb  Nb104  1  0.95463835  0.58654054  -0.01343214  1
  Nb  Nb105  1  0.82173447  0.50212782  0.17578494  1
  Nb  Nb106  1  0.73403400  0.34291289  0.12667714  1
  Nb  Nb107  1  0.41687848  0.50111177  0.23650303  1
  Nb  Nb108  1  0.20561902  0.81390064  0.28862966  1
  Nb  Nb109  1  0.85586207  0.89027502  0.24358255  1
  Nb  Nb110  1  0.88991103  0.07374390  0.26776813  1
  Nb  Nb111  1  0.08572630  0.95357024  0.15190313  1
  Nb  Nb112  1  0.38095493  0.91066884  0.93654972  1
  Nb  Nb113  1  -0.02586997  0.30325623  0.50549135  1
  Nb  Nb114  1  0.66807380  0.67659699  0.06611166  1
  Nb  Nb115  1  0.78393285  0.78558840  0.39397573  1
  Nb  Nb116  1  0.51625485  0.33100534  0.16964966  1
  Nb  Nb117  1  0.13660326  0.17198546  0.59369204  1
  Nb  Nb118  1  0.14493520  0.39043870  0.19207531  1
  Nb  Nb119  1  0.44323964  0.59912359  1.01983840  1
  Nb  Nb120  1  0.70215273  0.60368221  0.47416852  1
  Nb  Nb121  1  0.10760472  1.02281865  0.76108644  1
  Nb  Nb122  1  0.23228018  0.44253007  0.71487275  1
  Nb  Nb123  1  0.29488870  0.54077875  0.89128045  1
  Nb  Nb124  1  0.57431630  0.78228245  0.69416048  1
