# generated using pymatgen
data_Zr2Sc2Nb
_symmetry_space_group_name_H-M   'P 1'
_cell_length_a   14.37466890
_cell_length_b   14.06818639
_cell_length_c   14.14593929
_cell_angle_alpha   90.36155391
_cell_angle_beta   89.91298428
_cell_angle_gamma   89.23846597
_symmetry_Int_Tables_number   1
_chemical_formula_structural   Zr2Sc2Nb
_chemical_formula_sum   'Zr50 Sc50 Nb25'
_cell_volume   2860.35664564
_cell_formula_units_Z   25
loop_
 _symmetry_equiv_pos_site_id
 _symmetry_equiv_pos_as_xyz
  1  'x, y, z'
loop_
 _atom_site_type_symbol
 _atom_site_label
 _atom_site_symmetry_multiplicity
 _atom_site_fract_x
 _atom_site_fract_y
 _atom_site_fract_z
 _atom_site_occupancy
  Zr  Zr0  1  0.55302531  0.09777767  0.65722513  1
  Zr  Zr1  1  0.41905054  0.99930254  0.23737159  1
  Zr  Zr2  1  0.18546659  0.77651813  0.31988926  1
  Zr  Zr3  1  0.86844618  0.45431459  0.24349085  1
  Zr  Zr4  1  0.55420902  0.72249134  0.53222876  1
  Zr  Zr5  1  0.52375973  0.27053097  0.80094289  1
  Zr  Zr6  1  0.74952798  0.95060087  0.88094062  1
  Zr  Zr7  1  0.65160905  0.28612857  0.95650554  1
  Zr  Zr8  1  0.33826800  0.14466693  0.78140268  1
  Zr  Zr9  1  0.37313753  0.77875588  0.85602677  1
  Zr  Zr10  1  0.13685624  0.66166261  0.14050571  1
  Zr  Zr11  1  0.46231568  0.54307862  0.13219381  1
  Zr  Zr12  1  0.81340441  0.34286688  0.81132812  1
  Zr  Zr13  1  0.76312381  0.01962926  0.64345981  1
  Zr  Zr14  1  0.53994331  0.13598188  0.12541818  1
  Zr  Zr15  1  0.14508103  0.06749949  0.69393320  1
  Zr  Zr16  1  0.20757565  0.27279290  0.66295510  1
  Zr  Zr17  1  0.06003236  0.85555110  0.63636208  1
  Zr  Zr18  1  0.65704494  0.93155442  0.49657471  1
  Zr  Zr19  1  0.83118174  0.22896627  0.30767270  1
  Zr  Zr20  1  0.92696774  0.60675830  0.08137247  1
  Zr  Zr21  1  0.06345307  0.43585427  0.12957754  1
  Zr  Zr22  1  0.65705114  0.48916703  0.84965241  1
  Zr  Zr23  1  0.27246749  0.35828298  0.84092319  1
  Zr  Zr24  1  0.41655197  0.29081752  0.63065086  1
  Zr  Zr25  1  0.26900972  0.89656991  0.68772830  1
  Zr  Zr26  1  0.61871675  0.93386133  0.12407115  1
  Zr  Zr27  1  0.93498597  0.67060556  0.68367517  1
  Zr  Zr28  1  0.74741460  0.74632922  0.60278767  1
  Zr  Zr29  1  0.25788894  0.50456463  0.04295131  1
  Zr  Zr30  1  0.73604581  0.65420469  0.98033040  1
  Zr  Zr31  1  0.64749349  0.34265660  0.65252501  1
  Zr  Zr32  1  0.93870839  0.25985306  0.48197978  1
  Zr  Zr33  1  0.29813654  0.10216119  0.11401953  1
  Zr  Zr34  1  0.18359342  0.75578799  0.95138453  1
  Zr  Zr35  1  1.02854742  0.73644625  0.46033055  1
  Zr  Zr36  1  0.87282895  0.86611967  0.50376751  1
  Zr  Zr37  1  0.61534384  0.52002657  0.50472496  1
  Zr  Zr38  1  0.21677606  0.40979283  0.29308464  1
  Zr  Zr39  1  0.93184818  1.00166833  0.98421599  1
  Zr  Zr40  1  0.03632812  0.85257723  0.11336894  1
  Zr  Zr41  1  0.31069361  0.31730396  0.45588835  1
  Zr  Zr42  1  0.65431991  0.46019681  0.28777641  1
  Zr  Zr43  1  0.27529575  0.48208929  0.63703191  1
  Zr  Zr44  1  0.74043392  0.54828429  0.67033071  1
  Zr  Zr45  1  0.83911657  0.05316013  0.41654744  1
  Zr  Zr46  1  0.16448961  0.69597111  0.74167265  1
  Zr  Zr47  1  0.73336938  0.08812795  0.04194238  1
  Zr  Zr48  1  0.32362108  0.08107145  0.57745357  1
  Zr  Zr49  1  0.65793697  0.49213292  0.06624553  1
  Sc  Sc50  1  0.94504666  0.75872392  0.91637439  1
  Sc  Sc51  1  0.09859557  0.40324672  0.50776151  1
  Sc  Sc52  1  0.01253604  0.35343816  0.90728162  1
  Sc  Sc53  1  0.42800981  0.90858676  0.03196452  1
  Sc  Sc54  1  0.38334168  0.78923534  0.22592506  1
  Sc  Sc55  1  0.65888766  0.05855923  0.29281459  1
  Sc  Sc56  1  0.81006759  0.82822045  0.08172823  1
  Sc  Sc57  1  0.91975777  0.09001878  0.78808739  1
  Sc  Sc58  1  0.72745826  0.68161713  0.39330454  1
  Sc  Sc59  1  0.07904121  0.91924912  0.85452441  1
  Sc  Sc60  1  0.22753770  0.57703473  0.44867691  1
  Sc  Sc61  1  0.40028584  0.22738950  0.97715140  1
  Sc  Sc62  1  0.82023359  0.22233239  0.64013687  1
  Sc  Sc63  1  0.31724292  0.57634511  0.84704617  1
  Sc  Sc64  1  0.13414042  0.18754241  0.48212560  1
  Sc  Sc65  1  0.08563247  0.56505870  0.93223034  1
  Sc  Sc66  1  0.09911376  0.15234440  0.88941037  1
  Sc  Sc67  1  0.48489242  0.09524250  0.44056871  1
  Sc  Sc68  1  0.92283789  0.71084475  0.26685476  1
  Sc  Sc69  1  0.30968925  0.59264358  0.25815173  1
  Sc  Sc70  1  0.52956571  0.63095604  0.32194015  1
  Sc  Sc71  1  0.55262646  0.06897411  0.91544082  1
  Sc  Sc72  1  0.53256411  0.34130849  0.13583201  1
  Sc  Sc73  1  0.76658293  0.86512173  0.29400340  1
  Sc  Sc74  1  0.57428786  0.72911402  0.12381701  1
  Sc  Sc75  1  0.05244098  0.55167616  0.32775427  1
  Sc  Sc76  1  0.03242597  0.11341668  0.31472626  1
  Sc  Sc77  1  0.67837460  0.17284969  0.49148265  1
  Sc  Sc78  1  0.56574706  0.68863995  0.74209132  1
  Sc  Sc79  1  0.48595705  0.48664829  0.70510862  1
  Sc  Sc80  1  0.18342482  0.28038015  0.03278419  1
  Sc  Sc81  1  0.45503306  0.43121172  0.94370453  1
  Sc  Sc82  1  0.37060331  0.68589083  0.64765100  1
  Sc  Sc83  1  0.76025761  0.37507071  0.45705804  1
  Sc  Sc84  1  0.88278871  0.54570643  0.85255029  1
  Sc  Sc85  1  0.88479427  0.56588091  0.47331000  1
  Sc  Sc86  1  0.44941528  0.95360769  0.77908546  1
  Sc  Sc87  1  1.00101668  0.90708816  0.32649872  1
  Sc  Sc88  1  0.97572714  0.05933792  0.57489441  1
  Sc  Sc89  1  0.54504478  0.85464355  0.34646121  1
  Sc  Sc90  1  0.74507524  0.28864012  0.13891311  1
  Sc  Sc91  1  0.91619815  0.43268382  0.63711303  1
  Sc  Sc92  1  0.87731439  0.03191810  0.18736317  1
  Sc  Sc93  1  0.26160366  -0.01038373  0.91780081  1
  Sc  Sc94  1  0.40887570  0.22566427  0.27868843  1
  Sc  Sc95  1  0.59025639  0.82456555  0.91899373  1
  Sc  Sc96  1  0.88180436  0.87685164  0.73803093  1
  Sc  Sc97  1  0.33385018  0.91578162  0.41967337  1
  Sc  Sc98  1  0.09635704  0.46124616  0.74111935  1
  Sc  Sc99  1  0.97428636  0.23438486  0.12345556  1
  Nb  Nb100  1  0.63208133  0.88660463  0.70829137  1
  Nb  Nb101  1  0.71020178  0.15125890  0.80882056  1
  Nb  Nb102  1  0.01759332  0.25469959  0.69789910  1
  Nb  Nb103  1  0.45948049  0.89146186  0.57847892  1
  Nb  Nb104  1  0.84630808  0.42484345  0.02360483  1
  Nb  Nb105  1  0.61216658  0.26269718  0.31181754  1
  Nb  Nb106  1  0.86072484  0.20843276  0.95185645  1
  Nb  Nb107  1  0.44453258  0.42938179  0.31840096  1
  Nb  Nb108  1  0.37862074  0.72105757  0.43559409  1
  Nb  Nb109  1  0.52773488  0.33139556  0.46954686  1
  Nb  Nb110  1  0.02623898  0.33024114  0.31403143  1
  Nb  Nb111  1  0.42000395  0.52133207  0.49311662  1
  Nb  Nb112  1  0.23650331  0.87666930  0.10446482  1
  Nb  Nb113  1  0.35167823  0.69443211  0.04456452  1
  Nb  Nb114  1  0.08261513  0.59762813  0.58372145  1
  Nb  Nb115  1  0.09992334  0.05582502  0.09292029  1
  Nb  Nb116  1  0.75553108  0.72878471  0.80537096  1
  Nb  Nb117  1  0.18164951  0.21967348  0.23385806  1
  Nb  Nb118  1  0.74777002  0.62726464  0.19160884  1
  Nb  Nb119  1  0.19011360  0.97827747  0.25689047  1
  Nb  Nb120  1  0.14595643  0.96422222  0.47804716  1
  Nb  Nb121  1  0.21596843  0.77215569  0.53616366  1
  Nb  Nb122  1  0.27474815  0.10712618  0.36520739  1
  Nb  Nb123  1  0.51644442  0.62869070  0.93896818  1
  Nb  Nb124  1  0.33426901  0.35618060  0.14285215  1
