# generated using pymatgen
data_Zr2Sc2Nb
_symmetry_space_group_name_H-M   'P 1'
_cell_length_a   14.31049472
_cell_length_b   14.13567410
_cell_length_c   14.17686602
_cell_angle_alpha   87.50086403
_cell_angle_beta   89.85039028
_cell_angle_gamma   92.08628595
_symmetry_Int_Tables_number   1
_chemical_formula_structural   Zr2Sc2Nb
_chemical_formula_sum   'Zr50 Sc50 Nb25'
_cell_volume   2863.16469363
_cell_formula_units_Z   25
loop_
 _symmetry_equiv_pos_site_id
 _symmetry_equiv_pos_as_xyz
  1  'x, y, z'
loop_
 _atom_site_type_symbol
 _atom_site_label
 _atom_site_symmetry_multiplicity
 _atom_site_fract_x
 _atom_site_fract_y
 _atom_site_fract_z
 _atom_site_occupancy
  Zr  Zr0  1  0.71999563  0.16257596  0.37760719  1
  Zr  Zr1  1  0.42638902  0.57565385  0.91549379  1
  Zr  Zr2  1  0.30196164  0.38785891  0.42776865  1
  Zr  Zr3  1  0.68365441  0.87576429  0.72749937  1
  Zr  Zr4  1  0.19579557  0.65191405  0.65313703  1
  Zr  Zr5  1  0.80108497  0.68001624  0.63734325  1
  Zr  Zr6  1  0.56089535  0.74947619  0.62091718  1
  Zr  Zr7  1  0.90694009  0.13357810  0.22827210  1
  Zr  Zr8  1  0.96090867  0.31972325  0.51971838  1
  Zr  Zr9  1  0.38038518  0.69905158  0.73414484  1
  Zr  Zr10  1  0.91727085  0.74743620  0.01932319  1
  Zr  Zr11  1  0.82406370  0.31909220  0.27758628  1
  Zr  Zr12  1  0.44986891  0.18557346  0.87864637  1
  Zr  Zr13  1  0.18927266  0.86588702  0.31521513  1
  Zr  Zr14  1  0.73604655  0.31807991  0.55236058  1
  Zr  Zr15  1  0.30212140  0.02673704  0.81510096  1
  Zr  Zr16  1  0.63279874  0.63401728  0.77656922  1
  Zr  Zr17  1  0.50583063  0.40316878  0.49783054  1
  Zr  Zr18  1  0.44881838  0.12515323  0.67996962  1
  Zr  Zr19  1  0.32414420  0.34587955  0.94065539  1
  Zr  Zr20  1  0.94490302  0.12029293  0.43027096  1
  Zr  Zr21  1  0.22408725  0.84497500  0.72481363  1
  Zr  Zr22  1  0.06511554  0.49218224  0.16447412  1
  Zr  Zr23  1  0.06196565  0.74990155  0.84517528  1
  Zr  Zr24  1  0.18676040  0.64964313  0.24753769  1
  Zr  Zr25  1  0.55009381  0.63544491  0.09164626  1
  Zr  Zr26  1  0.26966103  0.84516692  0.12912890  1
  Zr  Zr27  1  0.20789035  0.22837275  0.75243493  1
  Zr  Zr28  1  0.01679605  0.55434540  0.56115674  1
  Zr  Zr29  1  0.33216120  0.81612804  0.91609970  1
  Zr  Zr30  1  0.13174254  0.71238136  0.05035418  1
  Zr  Zr31  1  0.72551223  0.08720128  0.17028473  1
  Zr  Zr32  1  0.65745769  0.49546771  0.95473924  1
  Zr  Zr33  1  0.69644837  0.78506435  0.46498898  1
  Zr  Zr34  1  0.45462937  0.12317251  0.31540563  1
  Zr  Zr35  1  0.08644380  0.48887952  0.38222215  1
  Zr  Zr36  1  0.55915439  0.20169024  0.49045429  1
  Zr  Zr37  1  0.55590172  0.31615458  1.02924049  1
  Zr  Zr38  1  0.25836142  0.04466311  0.39549331  1
  Zr  Zr39  1  0.67592277  0.53946314  0.55144855  1
  Zr  Zr40  1  0.87653036  0.93314050  0.14839942  1
  Zr  Zr41  1  0.83896287  0.50712710  0.05137989  1
  Zr  Zr42  1  0.72244169  0.71854470  0.94883457  1
  Zr  Zr43  1  0.87626025  0.52206080  0.25321091  1
  Zr  Zr44  1  0.95019432  0.94844225  0.94726070  1
  Zr  Zr45  1  0.24942311  0.05598044  0.17279522  1
  Zr  Zr46  1  0.26570094  0.45504136  0.23866791  1
  Zr  Zr47  1  0.84797655  0.47441130  0.44451693  1
  Zr  Zr48  1  0.69440038  0.43982753  0.74528014  1
  Zr  Zr49  1  0.50009061  0.39695632  0.83268086  1
  Sc  Sc50  1  0.51166006  0.63191450  0.45884865  1
  Sc  Sc51  1  0.53598689  0.77851198  0.88433554  1
  Sc  Sc52  1  0.78947726  0.11108190  0.58124919  1
  Sc  Sc53  1  0.27421855  0.47483313  0.77819236  1
  Sc  Sc54  1  0.10869138  0.35210059  0.91659806  1
  Sc  Sc55  1  0.10744779  0.71392656  0.44225465  1
  Sc  Sc56  1  1.01273503  0.76317620  0.63319984  1
  Sc  Sc57  1  0.42062897  0.44490325  0.10381377  1
  Sc  Sc58  1  0.17418895  0.41856432  0.59176166  1
  Sc  Sc59  1  0.42928332  1.00718298  0.50157323  1
  Sc  Sc60  1  0.05280221  0.95987023  0.74693121  1
  Sc  Sc61  1  0.22030477  0.15800915  -0.03473243  1
  Sc  Sc62  1  0.88350360  0.36963979  0.88647146  1
  Sc  Sc63  1  1.00752174  0.13563753  0.63860045  1
  Sc  Sc64  1  0.47496582  0.52977476  0.66289560  1
  Sc  Sc65  1  0.98104499  0.71518373  0.22569059  1
  Sc  Sc66  1  0.50832016  0.03854436  0.13420639  1
  Sc  Sc67  1  0.29179375  0.59500255  0.46638883  1
  Sc  Sc68  1  0.37802206  0.71698787  0.29001251  1
  Sc  Sc69  1  0.65763867  0.45722664  0.17828016  1
  Sc  Sc70  1  0.87409338  0.45583966  0.66753371  1
  Sc  Sc71  1  0.02602751  0.55018613  0.96774584  1
  Sc  Sc72  1  0.37105272  0.32537604  0.65706848  1
  Sc  Sc73  1  0.48398764  0.52951746  0.29028698  1
  Sc  Sc74  1  0.45052558  0.90735846  0.70081693  1
  Sc  Sc75  1  0.86129727  0.90909526  0.57073006  1
  Sc  Sc76  1  0.88682726  0.68760345  0.43049970  1
  Sc  Sc77  1  0.63083822  -0.02234709  0.53770525  1
  Sc  Sc78  1  0.14904879  0.21791556  0.48434385  1
  Sc  Sc79  1  0.96323194  0.31931421  0.09151199  1
  Sc  Sc80  1  0.29931731  0.82138341  0.51534795  1
  Sc  Sc81  1  0.06176638  0.52939191  0.76959694  1
  Sc  Sc82  1  0.67079218  0.87120096  0.10965566  1
  Sc  Sc83  1  0.05467212  0.29573512  0.29766623  1
  Sc  Sc84  1  0.72942483  0.94660736  0.92117100  1
  Sc  Sc85  1  0.01771984  0.15704714  0.85339482  1
  Sc  Sc86  1  0.97475971  0.89339903  0.34859641  1
  Sc  Sc87  1  0.86757030  0.82012619  0.79588118  1
  Sc  Sc88  1  0.46840662  0.83043592  0.09235339  1
  Sc  Sc89  1  0.38656345  0.21875853  0.11721255  1
  Sc  Sc90  1  0.08788227  0.95521481  0.51307452  1
  Sc  Sc91  1  0.85363324  0.59551310  0.83766843  1
  Sc  Sc92  1  0.60988309  0.95903197  0.31355491  1
  Sc  Sc93  1  0.65289031  0.09755049  0.76033114  1
  Sc  Sc94  1  0.04791458  0.10798219  0.07873734  1
  Sc  Sc95  1  0.24278938  0.06207061  0.61653800  1
  Sc  Sc96  1  0.84033602  0.14252680  -0.03067399  1
  Sc  Sc97  1  0.75163352  0.66860986  0.15295231  1
  Sc  Sc98  1  0.62538995  0.12258297  0.98861721  1
  Sc  Sc99  1  0.15643281  0.93137092  0.95164907  1
  Nb  Nb100  1  0.80118902  0.98395326  0.37035117  1
  Nb  Nb101  1  0.08995232  0.07285272  0.29365567  1
  Nb  Nb102  1  0.50736025  -0.01970821  0.89192233  1
  Nb  Nb103  1  0.45653737  0.32444372  0.30282103  1
  Nb  Nb104  1  0.57996467  0.28722091  0.68372691  1
  Nb  Nb105  1  0.07072088  0.90394400  0.14686220  1
  Nb  Nb106  1  0.65593707  0.38915234  0.37215329  1
  Nb  Nb107  1  0.85593561  0.03793149  0.77033607  1
  Nb  Nb108  1  0.69525281  0.60056330  0.34704411  1
  Nb  Nb109  1  0.49296601  0.83190812  0.43710813  1
  Nb  Nb110  1  0.36248894  0.20976167  0.48510083  1
  Nb  Nb111  1  0.39689683  0.92198739  0.28661716  1
  Nb  Nb112  1  0.61026683  0.24240328  0.21814009  1
  Nb  Nb113  1  0.83521909  0.24401129  0.73143381  1
  Nb  Nb114  1  0.35950198  1.00987796  1.00783442  1
  Nb  Nb115  1  0.22433502  0.50114535  0.02666600  1
  Nb  Nb116  1  0.18552462  0.30150009  0.11908324  1
  Nb  Nb117  1  0.26059640  0.23284336  0.29240235  1
  Nb  Nb118  1  0.33567602  0.64639476  0.08796266  1
  Nb  Nb119  1  0.75295970  0.29935159  0.07246026  1
  Nb  Nb120  1  0.22632310  0.64486276  0.87926368  1
  Nb  Nb121  1  0.02860105  0.32879761  0.71483671  1
  Nb  Nb122  1  0.78109471  0.80839520  0.28692869  1
  Nb  Nb123  1  0.68484655  0.27979029  0.86771036  1
  Nb  Nb124  1  0.58167278  0.74938528  0.27388388  1
