# generated using pymatgen
data_Zr2Sc2Nb
_symmetry_space_group_name_H-M   'P 1'
_cell_length_a   14.31712277
_cell_length_b   14.32924140
_cell_length_c   14.04951717
_cell_angle_alpha   90.54380823
_cell_angle_beta   90.42577040
_cell_angle_gamma   89.98449494
_symmetry_Int_Tables_number   1
_chemical_formula_structural   Zr2Sc2Nb
_chemical_formula_sum   'Zr50 Sc50 Nb25'
_cell_volume   2882.09827974
_cell_formula_units_Z   25
loop_
 _symmetry_equiv_pos_site_id
 _symmetry_equiv_pos_as_xyz
  1  'x, y, z'
loop_
 _atom_site_type_symbol
 _atom_site_label
 _atom_site_symmetry_multiplicity
 _atom_site_fract_x
 _atom_site_fract_y
 _atom_site_fract_z
 _atom_site_occupancy
  Zr  Zr0  1  0.44495420  0.42127245  0.11598555  1
  Zr  Zr1  1  0.01414684  0.60645095  0.77905163  1
  Zr  Zr2  1  0.79304074  0.64420864  0.00863107  1
  Zr  Zr3  1  0.60644319  0.93713039  0.41401502  1
  Zr  Zr4  1  0.77511267  0.83289826  0.31811243  1
  Zr  Zr5  1  0.96705247  0.88726854  0.52546101  1
  Zr  Zr6  1  0.75411914  0.28989307  0.63021130  1
  Zr  Zr7  1  0.00294073  0.66722127  0.00636127  1
  Zr  Zr8  1  0.00250629  0.47203055  0.52375281  1
  Zr  Zr9  1  0.91552551  0.15562649  0.14169859  1
  Zr  Zr10  1  0.91020976  0.71043983  0.19590414  1
  Zr  Zr11  1  0.46451751  0.05028047  0.51402332  1
  Zr  Zr12  1  0.16525240  0.88125810  0.55332641  1
  Zr  Zr13  1  0.06586566  0.66643291  0.56285755  1
  Zr  Zr14  1  0.95412288  0.13801267  0.35497034  1
  Zr  Zr15  1  0.86835740  0.32238565  0.45430895  1
  Zr  Zr16  1  0.28060891  0.31451591  0.96244690  1
  Zr  Zr17  1  0.31249694  0.54528397  0.30278202  1
  Zr  Zr18  1  0.95640424  0.33348986  0.24870203  1
  Zr  Zr19  1  0.30778879  0.02301851  0.66498618  1
  Zr  Zr20  1  0.90597672  0.71271771  0.42942913  1
  Zr  Zr21  1  0.29873148  0.08749098  0.27049882  1
  Zr  Zr22  1  0.50333555  0.76393619  0.78101244  1
  Zr  Zr23  1  0.35600981  0.53407474  0.94581502  1
  Zr  Zr24  1  0.63684078  0.06089344  0.89135420  1
  Zr  Zr25  1  0.79834080  0.53577412  0.50463516  1
  Zr  Zr26  1  0.51556817  0.55273228  0.80146735  1
  Zr  Zr27  1  0.55295013  0.34202383  0.27148768  1
  Zr  Zr28  1  0.32515241  0.81885942  0.69154204  1
  Zr  Zr29  1  0.30860566  0.33793139  0.54605651  1
  Zr  Zr30  1  0.32895596  0.31608684  0.30927682  1
  Zr  Zr31  1  0.16539004  0.26947560  0.13700572  1
  Zr  Zr32  1  0.08482101  0.82401110  0.12982430  1
  Zr  Zr33  1  0.05834148  0.14073897  -0.00470106  1
  Zr  Zr34  1  0.89178680  0.45107797  0.70450576  1
  Zr  Zr35  1  0.98775828  0.89508878  0.31832451  1
  Zr  Zr36  1  0.73886611  0.61845343  0.30411698  1
  Zr  Zr37  1  0.26217421  0.71385800  0.48872331  1
  Zr  Zr38  1  0.96376135  0.26113479  0.66988139  1
  Zr  Zr39  1  0.79107125  0.33080945  0.08208433  1
  Zr  Zr40  1  0.65279146  0.37383978  0.45815025  1
  Zr  Zr41  1  0.78828304  0.02691572  0.31811423  1
  Zr  Zr42  1  0.68977903  0.88726205  0.76066276  1
  Zr  Zr43  1  0.75664030  0.90838354  0.55758222  1
  Zr  Zr44  1  0.51651123  0.38675678  0.63739425  1
  Zr  Zr45  1  0.80255959  0.11268997  0.74497826  1
  Zr  Zr46  1  0.28805116  0.89541019  0.12396135  1
  Zr  Zr47  1  0.85390126  0.05539189  0.93955856  1
  Zr  Zr48  1  0.67046442  0.73352480  0.13689537  1
  Zr  Zr49  1  0.34594010  0.74818621  0.28840647  1
  Sc  Sc50  1  0.15561081  0.76683231  0.90466129  1
  Sc  Sc51  1  0.64426451  0.50786608  0.11183849  1
  Sc  Sc52  1  0.14904359  0.94686697  0.78042122  1
  Sc  Sc53  1  0.22676310  0.66135393  0.10212182  1
  Sc  Sc54  1  0.94309156  0.53002949  0.33098852  1
  Sc  Sc55  1  0.69465975  0.45788666  0.90910367  1
  Sc  Sc56  1  0.07578606  0.31304272  0.85781918  1
  Sc  Sc57  1  0.36361249  0.74429254  0.93585066  1
  Sc  Sc58  1  0.43614714  0.93810551  0.29298896  1
  Sc  Sc59  1  0.53802482  0.55770233  0.30041603  1
  Sc  Sc60  1  0.09795497  0.03215579  0.18636628  1
  Sc  Sc61  1  0.87635666  0.09554006  0.54486745  1
  Sc  Sc62  1  0.27058036  0.13420772  0.48165992  1
  Sc  Sc63  1  0.54608004  0.12458902  0.27667887  1
  Sc  Sc64  1  0.14337964  0.50235671  0.93882831  1
  Sc  Sc65  1  0.48289718  0.36512159  0.90150233  1
  Sc  Sc66  1  0.22876323  0.63141238  0.73833991  1
  Sc  Sc67  1  0.68789959  0.49101519  0.68638231  1
  Sc  Sc68  1  0.23224592  0.12558037  0.85690148  1
  Sc  Sc69  1  0.86198531  0.27035208  0.87939614  1
  Sc  Sc70  1  0.70764342  0.67033876  0.82176427  1
  Sc  Sc71  1  0.12208229  0.43842130  0.68943087  1
  Sc  Sc72  1  0.91587255  0.94108058  0.73008104  1
  Sc  Sc73  1  0.11264964  0.68673331  0.32233826  1
  Sc  Sc74  1  0.14045848  0.41493785  0.33293274  1
  Sc  Sc75  1  0.58931835  0.25614696  0.05520835  1
  Sc  Sc76  1  0.40974381  0.58438009  0.62145269  1
  Sc  Sc77  1  0.42976273  0.19938643  0.69674725  1
  Sc  Sc78  1  0.73691687  0.86583257  0.97902203  1
  Sc  Sc79  1  0.89217693  0.76915087  0.85225994  1
  Sc  Sc80  1  0.47947033  0.24734062  0.46182258  1
  Sc  Sc81  1  0.07804508  0.07137007  0.61369843  1
  Sc  Sc82  1  0.06950683  0.52099724  0.15285431  1
  Sc  Sc83  1  0.43978700  0.14598597  0.91377809  1
  Sc  Sc84  1  0.68125600  0.15136190  0.46409951  1
  Sc  Sc85  1  0.74917021  0.23000770  0.27458746  1
  Sc  Sc86  1  0.32643423  0.41540025  0.75643136  1
  Sc  Sc87  1  0.84904095  0.70716050  0.64300056  1
  Sc  Sc88  1  0.08899677  0.26902086  0.49671870  1
  Sc  Sc89  1  0.87582449  0.92794536  0.12995515  1
  Sc  Sc90  1  0.47794947  0.82028189  0.11040767  1
  Sc  Sc91  1  0.91332229  0.48187095  0.92291662  1
  Sc  Sc92  1  0.47694830  0.03497271  0.08624558  1
  Sc  Sc93  1  0.62314357  0.07627059  0.65340840  1
  Sc  Sc94  1  0.43734778  0.62532407  0.12966020  1
  Sc  Sc95  1  0.63706579  0.26023215  0.80332730  1
  Sc  Sc96  1  0.71026673  0.09004574  0.10087584  1
  Sc  Sc97  1  0.19622683  0.23161649  0.68896771  1
  Sc  Sc98  1  0.22376352  0.51489141  0.50927291  1
  Sc  Sc99  1  0.47067724  0.71693495  0.47134953  1
  Nb  Nb100  1  0.86398045  0.50877870  0.13339446  1
  Nb  Nb101  1  0.68654507  0.73533864  0.47054647  1
  Nb  Nb102  1  0.39114747  0.23528407  0.12998215  1
  Nb  Nb103  1  0.16496489  0.96545163  0.98703818  1
  Nb  Nb104  1  0.75550191  0.42888292  0.28748242  1
  Nb  Nb105  1  0.35149334  0.89805079  0.47713197  1
  Nb  Nb106  1  0.56457305  0.66543875  0.96929275  1
  Nb  Nb107  1  0.25825853  0.44445485  0.12809399  1
  Nb  Nb108  1  0.34565130  0.94731903  0.90214009  1
  Nb  Nb109  1  0.62245761  0.69190148  0.63910854  1
  Nb  Nb110  1  0.13691324  0.20179264  0.31123594  1
  Nb  Nb111  1  0.53507907  0.87165616  0.59953780  1
  Nb  Nb112  1  0.99466708  0.91553093  0.93927170  1
  Nb  Nb113  1  0.56498776  0.76560050  0.30067939  1
  Nb  Nb114  1  0.43539666  0.45378782  0.44429709  1
  Nb  Nb115  1  0.01318303  0.10841883  0.80914724  1
  Nb  Nb116  1  0.99710797  0.34661558  0.05080268  1
  Nb  Nb117  1  0.53916869  0.88957229  0.93654278  1
  Nb  Nb118  1  0.59643439  0.55395206  0.50030482  1
  Nb  Nb119  1  0.63704404  0.92867487  0.19026942  1
  Nb  Nb120  1  0.20656451  0.88614858  0.32891422  1
  Nb  Nb121  1  0.47937313  0.97959084  0.76034938  1
  Nb  Nb122  1  0.27445286  0.10353909  0.06096396  1
  Nb  Nb123  1  0.05709507  0.78871736  0.71430581  1
  Nb  Nb124  1  0.11111780  0.02910359  0.41178599  1
