# generated using pymatgen
data_Zr2Sc2Nb
_symmetry_space_group_name_H-M   'P 1'
_cell_length_a   14.16052783
_cell_length_b   14.33924665
_cell_length_c   14.16454884
_cell_angle_alpha   87.76324741
_cell_angle_beta   89.25826938
_cell_angle_gamma   89.10095973
_symmetry_Int_Tables_number   1
_chemical_formula_structural   Zr2Sc2Nb
_chemical_formula_sum   'Zr50 Sc50 Nb25'
_cell_volume   2873.36598545
_cell_formula_units_Z   25
loop_
 _symmetry_equiv_pos_site_id
 _symmetry_equiv_pos_as_xyz
  1  'x, y, z'
loop_
 _atom_site_type_symbol
 _atom_site_label
 _atom_site_symmetry_multiplicity
 _atom_site_fract_x
 _atom_site_fract_y
 _atom_site_fract_z
 _atom_site_occupancy
  Zr  Zr0  1  0.72307229  0.53723014  0.94992030  1
  Zr  Zr1  1  0.79253738  0.51457542  0.74101662  1
  Zr  Zr2  1  0.18605440  0.29591961  0.27591966  1
  Zr  Zr3  1  0.53048045  0.00896094  0.84472439  1
  Zr  Zr4  1  0.33918177  0.90339919  0.88866872  1
  Zr  Zr5  1  0.89286315  0.25260595  0.52631713  1
  Zr  Zr6  1  0.68544328  0.06910185  0.38393125  1
  Zr  Zr7  1  0.57519528  0.74375976  0.52128999  1
  Zr  Zr8  1  0.05566252  0.95864785  0.39960568  1
  Zr  Zr9  1  0.61756030  0.51727366  0.60882963  1
  Zr  Zr10  1  0.54892823  0.03945187  0.17144620  1
  Zr  Zr11  1  0.62354363  0.39422172  0.83163140  1
  Zr  Zr12  1  0.54427251  -0.02365688  0.52363206  1
  Zr  Zr13  1  0.15053297  0.74862282  0.39861538  1
  Zr  Zr14  1  0.69039668  0.33626809  0.05414866  1
  Zr  Zr15  1  0.00522240  0.58160634  0.47304420  1
  Zr  Zr16  1  0.98803817  0.35687875  0.31556646  1
  Zr  Zr17  1  0.67497908  0.79392132  0.90762323  1
  Zr  Zr18  1  0.43474877  0.86696083  0.21308458  1
  Zr  Zr19  1  0.24149500  0.11034284  0.39360805  1
  Zr  Zr20  1  0.97892336  0.95575974  0.85171262  1
  Zr  Zr21  1  0.49646578  0.39304716  0.44509852  1
  Zr  Zr22  1  0.01755393  0.02826379  0.04012514  1
  Zr  Zr23  1  0.86758380  0.17547553  0.32944268  1
  Zr  Zr24  1  0.40436336  0.89345137  0.67191943  1
  Zr  Zr25  1  0.55246492  0.39451211  0.23446165  1
  Zr  Zr26  1  0.49924245  0.19030160  0.47662906  1
  Zr  Zr27  1  0.08938809  0.42364694  0.10684978  1
  Zr  Zr28  1  0.87421110  0.45526405  0.09300506  1
  Zr  Zr29  1  0.45638118  0.59528841  0.44197535  1
  Zr  Zr30  1  0.28601051  0.54682954  0.12532102  1
  Zr  Zr31  1  0.15462057  0.83296848  0.92348337  1
  Zr  Zr32  1  0.16911427  0.46370774  0.89369521  1
  Zr  Zr33  1  0.62438254  0.20791612  0.25437358  1
  Zr  Zr34  1  0.80286540  0.68776157  0.04692093  1
  Zr  Zr35  1  0.12470337  0.54733480  0.28951778  1
  Zr  Zr36  1  0.74709635  0.87529126  0.52155768  1
  Zr  Zr37  1  0.97825089  0.63667873  0.15700038  1
  Zr  Zr38  1  0.06200104  0.17361771  0.45077123  1
  Zr  Zr39  1  0.61712359  0.88200881  0.34385118  1
  Zr  Zr40  1  0.33401101  0.44742633  0.31008707  1
  Zr  Zr41  1  0.69665806  0.30061271  0.44916847  1
  Zr  Zr42  1  0.00690380  0.87544823  0.19078353  1
  Zr  Zr43  1  0.14376342  0.20243391  0.04739341  1
  Zr  Zr44  1  0.22985174  0.52979748  0.48751036  1
  Zr  Zr45  1  0.45177442  0.65586477  0.68165726  1
  Zr  Zr46  1  0.28599381  0.30614434  0.47952552  1
  Zr  Zr47  1  0.77328873  0.35796195  0.25553563  1
  Zr  Zr48  1  0.11057765  0.69353500  0.60228847  1
  Zr  Zr49  1  0.07803690  0.37829051  0.50845701  1
  Sc  Sc50  1  0.56597844  0.31404639  0.64414532  1
  Sc  Sc51  1  0.77744643  0.71967840  0.25771469  1
  Sc  Sc52  1  0.23707454  0.91599235  0.30133163  1
  Sc  Sc53  1  0.78563578  0.07063684  0.16651944  1
  Sc  Sc54  1  0.40195959  0.84966683  0.43021507  1
  Sc  Sc55  1  0.83513215  0.46113880  0.52138731  1
  Sc  Sc56  1  0.07159769  0.10686807  0.23815663  1
  Sc  Sc57  1  0.02380791  0.50891245  0.70223238  1
  Sc  Sc58  1  0.49714877  0.46454753  0.02549855  1
  Sc  Sc59  1  0.94640375  0.55263936  0.91700435  1
  Sc  Sc60  1  0.48853962  0.24517860  0.08981518  1
  Sc  Sc61  1  0.90061691  0.68773810  0.65722542  1
  Sc  Sc62  1  0.22134903  0.93853127  0.09682258  1
  Sc  Sc63  1  0.62860885  0.90279369  0.70026776  1
  Sc  Sc64  1  0.44389096  0.04556921  0.34508693  1
  Sc  Sc65  1  0.87538763  0.12431254  0.71667635  1
  Sc  Sc66  1  0.66194551  0.85001756  0.14122058  1
  Sc  Sc67  1  0.32943550  0.06238625  0.57018913  1
  Sc  Sc68  1  0.64501042  0.11698257  0.00024573  1
  Sc  Sc69  1  0.30466723  0.11713919  0.18564616  1
  Sc  Sc70  1  0.24456250  0.57433610  0.71697000  1
  Sc  Sc71  1  0.16443638  0.18535032  0.64640195  1
  Sc  Sc72  1  0.34227071  0.74881136  0.07014241  1
  Sc  Sc73  1  0.50860069  0.89638702  0.01468460  1
  Sc  Sc74  1  0.67896833  0.18847847  0.79900469  1
  Sc  Sc75  1  0.86637077  0.15005244  0.94428048  1
  Sc  Sc76  1  0.55387381  0.67825321  0.05053295  1
  Sc  Sc77  1  0.38758764  0.43327573  0.81675355  1
  Sc  Sc78  1  0.30061001  0.34266734  0.08483658  1
  Sc  Sc79  1  0.32577419  0.68829768  0.29439508  1
  Sc  Sc80  1  0.83288408  0.91037746  0.03042744  1
  Sc  Sc81  1  0.69132092  0.70653810  0.71124649  1
  Sc  Sc82  1  0.31246942  0.71369130  0.54911499  1
  Sc  Sc83  1  0.87251040  0.53593157  0.30907808  1
  Sc  Sc84  1  0.38385863  0.08491221  0.99776929  1
  Sc  Sc85  1  0.70172906  0.12066605  0.59210713  1
  Sc  Sc86  1  0.33191788  0.63829440  0.89706235  1
  Sc  Sc87  1  0.47619350  0.23258186  0.86311879  1
  Sc  Sc88  1  0.55589587  0.58954806  0.84408254  1
  Sc  Sc89  1  0.78975797  0.67957519  0.47161684  1
  Sc  Sc90  1  0.75515815  0.98516310  0.84695301  1
  Sc  Sc91  1  0.83172137  0.35064176  0.87893065  1
  Sc  Sc92  1  0.23000217  0.26138638  0.85388042  1
  Sc  Sc93  1  0.65831777  0.53014215  0.37491181  1
  Sc  Sc94  1  0.87948552  0.03770751  0.50060916  1
  Sc  Sc95  1  0.93554314  0.24900713  0.12089584  1
  Sc  Sc96  1  0.36823018  0.26572950  0.66945677  1
  Sc  Sc97  1  0.84314258  0.91579586  0.32557494  1
  Sc  Sc98  1  0.98799110  0.30986577  0.71596641  1
  Sc  Sc99  1  0.13600238  0.62737616  1.01281993  1
  Nb  Nb100  1  0.19007179  0.89667045  0.55447185  1
  Nb  Nb101  1  0.25741230  0.77832679  0.74259091  1
  Nb  Nb102  1  0.76850990  0.32856940  0.67024567  1
  Nb  Nb103  1  0.05430838  0.14237835  0.83101408  1
  Nb  Nb104  1  0.04843603  0.83693720  0.71651138  1
  Nb  Nb105  1  0.47282907  0.56921579  0.21553050  1
  Nb  Nb106  1  1.02714843  0.32477219  0.93111299  1
  Nb  Nb107  1  0.56292458  0.70686412  0.28820062  1
  Nb  Nb108  1  0.39110487  0.46872051  0.60243636  1
  Nb  Nb109  1  0.48585312  0.78398116  0.83431545  1
  Nb  Nb110  1  0.96764097  0.83252930  0.52003807  1
  Nb  Nb111  1  0.97155915  0.73546963  0.33999018  1
  Nb  Nb112  1  0.40525352  0.25297975  0.29586855  1
  Nb  Nb113  1  0.20072622  0.39050687  0.67536321  1
  Nb  Nb114  1  0.18884000  0.97728828  0.73986040  1
  Nb  Nb115  1  0.03627068  1.02036194  0.62471562  1
  Nb  Nb116  1  0.87430809  0.76560647  0.84622755  1
  Nb  Nb117  1  0.68295426  0.54487607  0.16325297  1
  Nb  Nb118  1  0.50947146  0.10543980  0.67635952  1
  Nb  Nb119  1  0.85635581  0.90215021  0.68335395  1
  Nb  Nb120  1  0.99018253  0.77915767  1.00431473  1
  Nb  Nb121  1  0.15218564  0.74367041  0.17757939  1
  Nb  Nb122  1  0.18776731  0.05034225  0.92078744  1
  Nb  Nb123  1  0.33690230  0.08871089  0.78292947  1
  Nb  Nb124  1  0.07834561  0.67612459  0.81916089  1
