# generated using pymatgen
data_Zr2Sc2Nb
_symmetry_space_group_name_H-M   'P 1'
_cell_length_a   13.80469251
_cell_length_b   14.72244438
_cell_length_c   14.17471849
_cell_angle_alpha   86.96356925
_cell_angle_beta   87.86382646
_cell_angle_gamma   92.07184996
_symmetry_Int_Tables_number   1
_chemical_formula_structural   Zr2Sc2Nb
_chemical_formula_sum   'Zr50 Sc50 Nb25'
_cell_volume   2872.71016682
_cell_formula_units_Z   25
loop_
 _symmetry_equiv_pos_site_id
 _symmetry_equiv_pos_as_xyz
  1  'x, y, z'
loop_
 _atom_site_type_symbol
 _atom_site_label
 _atom_site_symmetry_multiplicity
 _atom_site_fract_x
 _atom_site_fract_y
 _atom_site_fract_z
 _atom_site_occupancy
  Zr  Zr0  1  0.22718163  0.60668051  0.73499545  1
  Zr  Zr1  1  0.10626753  0.25336777  0.34910588  1
  Zr  Zr2  1  0.94235183  0.91378847  0.50280829  1
  Zr  Zr3  1  1.00468850  0.72483714  0.49260049  1
  Zr  Zr4  1  0.81222887  0.74790657  0.00413078  1
  Zr  Zr5  1  0.36167402  0.90180713  0.58071026  1
  Zr  Zr6  1  0.21907237  0.02742430  0.25529238  1
  Zr  Zr7  1  0.97875564  0.61148932  -0.01156065  1
  Zr  Zr8  1  0.29684928  0.23083012  0.76233420  1
  Zr  Zr9  1  0.85715403  0.41945832  0.27793539  1
  Zr  Zr10  1  0.47890987  0.55911432  0.39212313  1
  Zr  Zr11  1  0.42435320  0.90831008  0.17518245  1
  Zr  Zr12  1  0.50221296  0.36617408  0.42195109  1
  Zr  Zr13  1  0.72263971  0.42659318  0.51867204  1
  Zr  Zr14  1  0.53878438  0.53649603  0.59756170  1
  Zr  Zr15  1  0.53282253  0.33075311  0.83809865  1
  Zr  Zr16  1  0.88660070  0.95391895  0.94903144  1
  Zr  Zr17  1  0.18005258  0.51390860  0.94040383  1
  Zr  Zr18  1  0.54729171  0.08664916  0.10469557  1
  Zr  Zr19  1  0.88272332  0.62273771  0.18849883  1
  Zr  Zr20  1  0.73032281  -0.01130303  0.49866972  1
  Zr  Zr21  1  0.31540927  0.52884625  0.54866362  1
  Zr  Zr22  1  0.85488708  0.74902433  0.35172928  1
  Zr  Zr23  1  0.29607096  0.53867943  0.13797191  1
  Zr  Zr24  1  0.50478776  0.58299749  0.19678404  1
  Zr  Zr25  1  0.05923056  0.44723472  0.33049894  1
  Zr  Zr26  1  0.48211713  0.96026746  0.74387216  1
  Zr  Zr27  1  0.63838599  0.86947343  0.03881248  1
  Zr  Zr28  1  0.46440004  0.47521952  1.01423481  1
  Zr  Zr29  1  0.42973894  0.15218210  0.91817936  1
  Zr  Zr30  1  0.69437753  0.55679345  0.34092097  1
  Zr  Zr31  1  0.34510984  0.64037129  0.91735002  1
  Zr  Zr32  1  0.88814534  0.37720285  0.84779023  1
  Zr  Zr33  1  0.91527575  0.76280774  0.81821167  1
  Zr  Zr34  1  0.65677501  0.10859634  0.32117425  1
  Zr  Zr35  1  0.46955803  0.73064822  0.48692440  1
  Zr  Zr36  1  0.21488568  0.83184893  0.19275114  1
  Zr  Zr37  1  0.75725573  0.04820287  0.08444339  1
  Zr  Zr38  1  0.91889288  0.32288748  0.47897353  1
  Zr  Zr39  1  0.63160792  0.92550160  0.24130946  1
  Zr  Zr40  1  0.28530274  0.01589821  0.82695513  1
  Zr  Zr41  1  0.91302175  0.55045634  0.44081018  1
  Zr  Zr42  1  0.53428690  0.34399911  0.62888584  1
  Zr  Zr43  1  0.19354831  0.15764863  0.95520609  1
  Zr  Zr44  1  0.45647920  0.94894087  -0.04088748  1
  Zr  Zr45  1  0.70861942  0.03787062  0.68412247  1
  Zr  Zr46  1  0.54922813  0.29267567  0.05251885  1
  Zr  Zr47  1  0.30393843  0.67369917  0.30256157  1
  Zr  Zr48  1  0.24514074  0.72773911  0.54419399  1
  Zr  Zr49  1  0.27421117  0.05582133  0.45159414  1
  Sc  Sc50  1  0.67532614  0.68522032  0.74324087  1
  Sc  Sc51  1  0.14808536  0.95542653  0.63314310  1
  Sc  Sc52  1  0.32463134  0.23531078  0.33719986  1
  Sc  Sc53  1  0.35823029  0.43806076  0.74622764  1
  Sc  Sc54  1  0.69399700  0.20771583  0.52110112  1
  Sc  Sc55  1  0.71392918  0.64713587  0.52740124  1
  Sc  Sc56  1  0.92329418  0.95677316  0.71530774  1
  Sc  Sc57  1  0.52122201  0.15666395  0.70714486  1
  Sc  Sc58  1  0.64237142  0.05845500  0.89106169  1
  Sc  Sc59  1  0.12467068  0.17392890  0.57239636  1
  Sc  Sc60  1  0.48372662  0.15202606  0.47823835  1
  Sc  Sc61  1  0.61726397  0.63666179  0.99949841  1
  Sc  Sc62  1  0.87803802  0.63238277  0.66090953  1
  Sc  Sc63  1  0.73564482  0.23769973  0.94233877  1
  Sc  Sc64  1  0.12052436  0.38855979  0.53812664  1
  Sc  Sc65  1  0.08721455  0.90731172  0.85437415  1
  Sc  Sc66  1  0.41927273  0.73427093  0.08432232  1
  Sc  Sc67  1  0.82692826  -0.03362757  0.32178537  1
  Sc  Sc68  1  0.86253083  0.42587664  0.05308277  1
  Sc  Sc69  1  0.72240094  0.87613380  0.82204779  1
  Sc  Sc70  1  0.91371792  0.44054494  0.64348793  1
  Sc  Sc71  1  0.07243768  0.33900416  0.98473757  1
  Sc  Sc72  1  0.86050615  0.19166526  0.34572554  1
  Sc  Sc73  1  0.31302010  0.33969549  0.95442001  1
  Sc  Sc74  1  0.15081337  0.86875391  0.42434875  1
  Sc  Sc75  1  0.28362835  0.44267548  0.35768939  1
  Sc  Sc76  1  0.52173523  0.94761740  0.43407168  1
  Sc  Sc77  1  0.65896958  0.44529825  0.15836633  1
  Sc  Sc78  1  0.94262102  0.08478320  0.18117988  1
  Sc  Sc79  1  0.50829296  0.78110413  0.86206785  1
  Sc  Sc80  1  0.26175404  0.84514337  0.97728843  1
  Sc  Sc81  1  0.21253506  0.35339347  0.16700678  1
  Sc  Sc82  1  0.68830977  0.72172532  0.19960863  1
  Sc  Sc83  1  0.12626651  0.38980862  0.76018078  1
  Sc  Sc84  1  0.08533796  0.98288843  0.06270520  1
  Sc  Sc85  1  0.95075346  0.17051135  0.98056101  1
  Sc  Sc86  1  0.32319849  0.29441537  0.55425755  1
  Sc  Sc87  1  0.59732426  0.84187326  0.61959359  1
  Sc  Sc88  1  0.35642015  0.20246399  0.13053901  1
  Sc  Sc89  1  0.06115120  0.49998686  0.13752240  1
  Sc  Sc90  1  0.07689104  0.11222406  0.78464963  1
  Sc  Sc91  1  0.13191343  0.71540757  0.87901154  1
  Sc  Sc92  1  0.42669860  0.69411710  0.69231838  1
  Sc  Sc93  1  0.01661385  0.88277600  0.26414443  1
  Sc  Sc94  1  0.89679299  0.12229576  0.57286690  1
  Sc  Sc95  1  0.80309792  0.57411202  0.87425318  1
  Sc  Sc96  1  0.53118489  0.54539863  0.81986716  1
  Sc  Sc97  1  0.73873363  0.27487247  0.71764672  1
  Sc  Sc98  1  0.04058537  0.06629411  0.38441774  1
  Sc  Sc99  1  0.75495588  0.24803917  0.15847836  1
  Nb  Nb100  1  0.53585870  0.23956356  0.25674744  1
  Nb  Nb101  1  0.70597582  0.47257552  0.72294040  1
  Nb  Nb102  1  0.13403762  0.17115578  0.14649402  1
  Nb  Nb103  1  0.01489037  0.56103681  0.79829384  1
  Nb  Nb104  1  -0.01427456  0.29466231  0.18340624  1
  Nb  Nb105  1  0.14794991  0.59201213  0.42638080  1
  Nb  Nb106  1  0.07268494  0.76272949  0.68009522  1
  Nb  Nb107  1  0.32609500  0.08908788  0.64010306  1
  Nb  Nb108  1  0.68797258  0.32931787  0.34649081  1
  Nb  Nb109  1  0.43979936  0.39290382  0.21665245  1
  Nb  Nb110  1  0.43014056  0.06204696  0.28362307  1
  Nb  Nb111  1  0.80746829  0.81662728  0.61089047  1
  Nb  Nb112  1  0.50629056  0.76062126  0.29470107  1
  Nb  Nb113  1  0.67407807  0.43038051  0.93599072  1
  Nb  Nb114  1  0.08392589  0.57139864  0.60842167  1
  Nb  Nb115  1  0.28410517  0.82315800  0.76051267  1
  Nb  Nb116  1  0.84370893  0.86922290  0.14771738  1
  Nb  Nb117  1  0.67733684  0.80893954  0.41326532  1
  Nb  Nb118  1  0.96533496  0.25996515  0.70239657  1
  Nb  Nb119  1  0.17588751  0.67424044  0.08479392  1
  Nb  Nb120  1  0.85027317  0.12216706  0.80612081  1
  Nb  Nb121  1  1.01810695  0.78889714  0.06863657  1
  Nb  Nb122  1  0.06464376  0.67613897  0.27009003  1
  Nb  Nb123  1  0.34617854  0.86853619  0.36604938  1
  Nb  Nb124  1  0.30234175  1.02726252  0.06742773  1
