# generated using pymatgen
data_Zr2Sc2Nb
_symmetry_space_group_name_H-M   'P 1'
_cell_length_a   14.06723185
_cell_length_b   14.20182817
_cell_length_c   14.35842960
_cell_angle_alpha   90.47609358
_cell_angle_beta   88.31897477
_cell_angle_gamma   90.84283885
_symmetry_Int_Tables_number   1
_chemical_formula_structural   Zr2Sc2Nb
_chemical_formula_sum   'Zr50 Sc50 Nb25'
_cell_volume   2866.89913157
_cell_formula_units_Z   25
loop_
 _symmetry_equiv_pos_site_id
 _symmetry_equiv_pos_as_xyz
  1  'x, y, z'
loop_
 _atom_site_type_symbol
 _atom_site_label
 _atom_site_symmetry_multiplicity
 _atom_site_fract_x
 _atom_site_fract_y
 _atom_site_fract_z
 _atom_site_occupancy
  Zr  Zr0  1  0.67737310  0.68736977  0.86266403  1
  Zr  Zr1  1  0.65343774  0.32269076  0.05889978  1
  Zr  Zr2  1  0.25495011  0.44099313  0.49955343  1
  Zr  Zr3  1  0.22539440  0.11323340  0.35255477  1
  Zr  Zr4  1  0.82473203  0.47704572  0.43972835  1
  Zr  Zr5  1  0.95554916  0.64976296  0.56014897  1
  Zr  Zr6  1  -0.00271346  0.55404731  0.27400817  1
  Zr  Zr7  1  0.44681791  0.85234835  0.19282188  1
  Zr  Zr8  1  0.14955328  0.61162857  0.64943387  1
  Zr  Zr9  1  0.26028983  0.03917119  0.53933198  1
  Zr  Zr10  1  0.75090864  0.69104360  0.46686988  1
  Zr  Zr11  1  0.80014216  0.67302612  0.69395440  1
  Zr  Zr12  1  0.34308323  0.54527915  0.74015287  1
  Zr  Zr13  1  0.45275483  0.50044067  0.56971801  1
  Zr  Zr14  1  0.29243093  0.43939157  0.13557059  1
  Zr  Zr15  1  0.63001449  0.10439956  0.38729553  1
  Zr  Zr16  1  0.61225239  0.52174652  0.16704752  1
  Zr  Zr17  1  0.57804773  0.69747514  0.26892306  1
  Zr  Zr18  1  0.80876958  0.89532618  0.73883336  1
  Zr  Zr19  1  0.51304503  0.70322279  0.47747902  1
  Zr  Zr20  1  0.49614426  0.33971553  0.43283716  1
  Zr  Zr21  1  0.75432168  0.46703395  0.78950755  1
  Zr  Zr22  1  0.30583410  0.64354223  0.51259695  1
  Zr  Zr23  1  0.32850638  0.84723499  0.46223569  1
  Zr  Zr24  1  0.77442687  0.80342892  0.26888033  1
  Zr  Zr25  1  0.66541205  0.50323987  0.96432308  1
  Zr  Zr26  1  0.95645939  0.69246364  0.13379997  1
  Zr  Zr27  1  0.61285607  0.52112786  0.39554058  1
  Zr  Zr28  1  0.68994414  0.28545752  0.49406557  1
  Zr  Zr29  1  0.03739283  0.48803933  0.45998183  1
  Zr  Zr30  1  0.69110157  0.06460590  0.59463292  1
  Zr  Zr31  1  0.07935065  0.49253010  0.06863312  1
  Zr  Zr32  1  0.93774473  0.32632621  0.76179863  1
  Zr  Zr33  1  0.58806618  0.29265755  0.85438345  1
  Zr  Zr34  1  0.95141481  0.15166327  0.89165105  1
  Zr  Zr35  1  0.41581908  0.52985249  0.33977891  1
  Zr  Zr36  1  0.24366966  0.72172225  0.80824866  1
  Zr  Zr37  1  0.57634132  0.65430510  0.68150408  1
  Zr  Zr38  1  0.84231445  0.16157353  0.43023653  1
  Zr  Zr39  1  0.27917342  0.55585563  0.95988951  1
  Zr  Zr40  1  0.39955543  0.76214264  0.66991599  1
  Zr  Zr41  1  0.00940466  0.15267121  0.27817912  1
  Zr  Zr42  1  0.75868881  0.66772334  0.07861068  1
  Zr  Zr43  1  0.45863634  0.67169772  0.87944698  1
  Zr  Zr44  1  0.32060035  0.72350732  0.30191519  1
  Zr  Zr45  1  0.73912984  0.08572191  0.81554730  1
  Zr  Zr46  1  0.12026721  0.77913785  0.24981886  1
  Zr  Zr47  1  0.25895620  0.17666031  0.15052453  1
  Zr  Zr48  1  0.57621836  0.86658480  0.78459574  1
  Zr  Zr49  1  0.12595581  0.21342720  0.61545700  1
  Sc  Sc50  1  0.80036992  0.94139438  0.44173789  1
  Sc  Sc51  1  0.03083978  0.06922111  0.48250491  1
  Sc  Sc52  1  0.09779740  0.35474511  0.22105140  1
  Sc  Sc53  1  0.78576623  0.59602628  0.27613712  1
  Sc  Sc54  1  0.29255961  0.33324914  0.31673404  1
  Sc  Sc55  1  0.57635579  0.75229643  0.04502198  1
  Sc  Sc56  1  0.33002241  0.16139663  0.69788940  1
  Sc  Sc57  1  0.67391502  0.83488039  0.59326072  1
  Sc  Sc58  1  0.10047002  0.28401975  0.42765048  1
  Sc  Sc59  1  0.85745564  0.24171663  0.13604948  1
  Sc  Sc60  1  0.48775901  0.35954031  0.21009554  1
  Sc  Sc61  1  0.44212136  0.06288640  0.15667800  1
  Sc  Sc62  1  0.74313420  0.26740204  0.69048405  1
  Sc  Sc63  1  0.66465949  0.47695254  0.59864473  1
  Sc  Sc64  1  0.35384223  0.09642543  0.90140378  1
  Sc  Sc65  1  0.94796539  0.94931188  0.89655658  1
  Sc  Sc66  1  0.09933159  0.02627204  0.72083372  1
  Sc  Sc67  1  -0.03817905  0.86418958  0.54848777  1
  Sc  Sc68  1  0.17950630  0.90856937  0.86849731  1
  Sc  Sc69  1  1.01553485  0.78151174  0.74715961  1
  Sc  Sc70  1  0.96386153  0.92749474  0.28769425  1
  Sc  Sc71  1  0.36464766  0.33660495  0.84780435  1
  Sc  Sc72  1  0.98551140  0.34730431  0.96377750  1
  Sc  Sc73  1  0.49231170  0.94268931  0.57775048  1
  Sc  Sc74  1  0.08389052  0.41524451  0.64271435  1
  Sc  Sc75  1  0.59505587  0.88136647  0.38040260  1
  Sc  Sc76  1  0.42330098  1.00786365  0.37462781  1
  Sc  Sc77  1  0.50608268  0.94712169  0.98877993  1
  Sc  Sc78  1  0.77983458  0.08165452  0.02208656  1
  Sc  Sc79  1  0.46419150  0.45560057  0.99156180  1
  Sc  Sc80  1  0.41525650  0.62167655  0.13215221  1
  Sc  Sc81  1  0.52479936  0.07597266  0.75702123  1
  Sc  Sc82  1  0.64468466  0.94439493  0.15160180  1
  Sc  Sc83  1  0.88690291  0.53246938  0.94486237  1
  Sc  Sc84  1  0.90364208  0.10933280  0.65999664  1
  Sc  Sc85  1  0.20201175  0.54277915  0.31497355  1
  Sc  Sc86  1  0.83964331  0.45068026  0.13247215  1
  Sc  Sc87  1  0.87471557  0.74536360  0.90341071  1
  Sc  Sc88  1  0.70171321  0.34447459  0.28700777  1
  Sc  Sc89  1  0.17700890  0.83266449  0.61441206  1
  Sc  Sc90  1  0.80549001  0.05404909  0.24386095  1
  Sc  Sc91  1  0.43354150  0.24611854  0.03794995  1
  Sc  Sc92  1  0.14323153  0.46010312  0.83932729  1
  Sc  Sc93  1  0.84892720  0.87396035  0.08577117  1
  Sc  Sc94  1  0.15157224  0.23762960  0.82498321  1
  Sc  Sc95  1  0.62249601  0.16599265  0.18453244  1
  Sc  Sc96  1  0.08150620  0.66706068  0.93918662  1
  Sc  Sc97  1  0.30434109  0.77470799  0.03161271  1
  Sc  Sc98  1  0.08858903  0.85997910  0.05455857  1
  Sc  Sc99  1  0.50255577  0.30723010  0.65518397  1
  Nb  Nb100  1  0.43775254  0.19099332  0.31917720  1
  Nb  Nb101  1  0.94017967  0.73304138  0.37001273  1
  Nb  Nb102  1  0.87664591  0.46949132  0.62819735  1
  Nb  Nb103  1  0.21347093  0.31891806  0.00227197  1
  Nb  Nb104  1  0.18591945  0.63739298  0.13376910  1
  Nb  Nb105  1  0.92167220  0.29845386  0.54526990  1
  Nb  Nb106  1  0.91169473  0.33803260  0.33203225  1
  Nb  Nb107  1  0.97243420  0.56752856  0.76586931  1
  Nb  Nb108  1  0.48996597  0.14209380  0.53108564  1
  Nb  Nb109  1  0.13987944  0.90855061  0.40222116  1
  Nb  Nb110  1  0.12503144  0.70530283  0.44344273  1
  Nb  Nb111  1  0.32498242  0.95238075  0.70984902  1
  Nb  Nb112  1  0.06426433  0.20867764  0.08214716  1
  Nb  Nb113  1  0.38452327  0.87415790  0.86160820  1
  Nb  Nb114  1  0.28406775  0.36256562  0.66985020  1
  Nb  Nb115  1  0.32230144  0.24040520  0.50268768  1
  Nb  Nb116  1  0.71263497  0.90164782  0.92997916  1
  Nb  Nb117  1  0.96764924  0.04408231  0.08971503  1
  Nb  Nb118  1  0.28744510  0.97251728  0.05243707  1
  Nb  Nb119  1  0.27762835  0.92946924  0.24913776  1
  Nb  Nb120  1  0.14230729  0.08153091  0.97189068  1
  Nb  Nb121  1  0.78272785  0.28390419  0.91546587  1
  Nb  Nb122  1  0.53569400  0.48447268  0.78629247  1
  Nb  Nb123  1  0.12921121  0.01604852  0.18544240  1
  Nb  Nb124  1  0.59683196  0.12545665  0.96766608  1
