# generated using pymatgen
data_Zr2Sc2Nb
_symmetry_space_group_name_H-M   'P 1'
_cell_length_a   14.49645105
_cell_length_b   14.23390997
_cell_length_c   13.95478045
_cell_angle_alpha   90.97947916
_cell_angle_beta   90.39112805
_cell_angle_gamma   89.09386930
_symmetry_Int_Tables_number   1
_chemical_formula_structural   Zr2Sc2Nb
_chemical_formula_sum   'Zr50 Sc50 Nb25'
_cell_volume   2878.60317673
_cell_formula_units_Z   25
loop_
 _symmetry_equiv_pos_site_id
 _symmetry_equiv_pos_as_xyz
  1  'x, y, z'
loop_
 _atom_site_type_symbol
 _atom_site_label
 _atom_site_symmetry_multiplicity
 _atom_site_fract_x
 _atom_site_fract_y
 _atom_site_fract_z
 _atom_site_occupancy
  Zr  Zr0  1  0.72538822  0.26252189  0.82110743  1
  Zr  Zr1  1  0.65673253  0.01919271  0.64149904  1
  Zr  Zr2  1  0.52779038  0.34214216  0.87957576  1
  Zr  Zr3  1  0.12271647  0.57872153  0.09829041  1
  Zr  Zr4  1  0.10405518  0.30878609  0.61063568  1
  Zr  Zr5  1  0.14634663  0.93359370  0.81355624  1
  Zr  Zr6  1  0.39783377  0.98802832  0.26124653  1
  Zr  Zr7  1  0.50567301  0.54879440  0.90408854  1
  Zr  Zr8  1  0.90828920  0.67891690  0.01388772  1
  Zr  Zr9  1  0.93264275  0.71315500  0.64113436  1
  Zr  Zr10  1  0.34728364  0.61631718  0.03370508  1
  Zr  Zr11  1  0.44328142  0.59589044  0.30790386  1
  Zr  Zr12  1  0.74126942  0.07844355  0.42612400  1
  Zr  Zr13  1  0.63705173  0.39502833  0.67935080  1
  Zr  Zr14  1  0.03042727  0.51529470  0.68312377  1
  Zr  Zr15  1  0.08316150  0.12421169  0.71112823  1
  Zr  Zr16  1  0.16176757  0.71690848  0.70649492  1
  Zr  Zr17  1  0.56091030  0.92336386  0.41762015  1
  Zr  Zr18  1  0.91752528  0.36175908  0.55244226  1
  Zr  Zr19  1  0.09764836  0.19231374  0.14401969  1
  Zr  Zr20  1  0.81000686  0.16205913  0.97337120  1
  Zr  Zr21  1  0.27639877  0.09608565  0.10855129  1
  Zr  Zr22  1  0.82245039  0.49468342  0.68828986  1
  Zr  Zr23  1  0.73220189  0.22960029  0.58708422  1
  Zr  Zr24  1  0.70186803  0.83743568  0.53573875  1
  Zr  Zr25  1  0.91404070  0.88944947  0.09457334  1
  Zr  Zr26  1  0.85753792  0.10279673  0.73476981  1
  Zr  Zr27  1  0.74156475  0.43208800  0.48085192  1
  Zr  Zr28  1  0.10257907  0.98367948  1.01326164  1
  Zr  Zr29  1  0.14675265  0.58583640  0.52247770  1
  Zr  Zr30  1  0.14267773  0.57228915  0.89102648  1
  Zr  Zr31  1  0.35429171  0.97128508  0.46667104  1
  Zr  Zr32  1  0.45743960  0.76448304  0.87700277  1
  Zr  Zr33  1  0.49681253  0.99186888  0.81002283  1
  Zr  Zr34  1  0.92255488  0.06767525  0.30440936  1
  Zr  Zr35  1  1.00080037  0.78968619  0.86569510  1
  Zr  Zr36  1  0.94869163  0.51344177  0.88655469  1
  Zr  Zr37  1  0.65747277  0.70687004  0.33494470  1
  Zr  Zr38  1  0.32200414  0.43307931  0.90650787  1
  Zr  Zr39  1  0.46405198  0.88604897  0.62263485  1
  Zr  Zr40  1  0.63207280  0.82352662  0.75723845  1
  Zr  Zr41  1  0.44000312  0.46096522  0.71067432  1
  Zr  Zr42  1  0.07301846  0.21613560  0.36995026  1
  Zr  Zr43  1  0.25188616  0.28677875  0.26364040  1
  Zr  Zr44  1  0.82304336  0.88517724  0.72334636  1
  Zr  Zr45  1  0.71519266  0.47439866  0.87660628  1
  Zr  Zr46  1  0.06463168  0.41907556  0.42179075  1
  Zr  Zr47  1  0.36305273  0.53654793  0.51171837  1
  Zr  Zr48  1  0.55502025  0.50307522  0.49433063  1
  Zr  Zr49  1  -0.07885533  0.31246107  0.76220108  1
  Sc  Sc50  1  0.23839158  0.48599250  0.68894688  1
  Sc  Sc51  1  0.20665581  0.86068504  0.34534729  1
  Sc  Sc52  1  0.31751031  0.26625937  0.71627760  1
  Sc  Sc53  1  0.43358611  0.39007808  0.32457746  1
  Sc  Sc54  1  0.87174655  0.47386580  0.31043374  1
  Sc  Sc55  1  0.57983680  0.08940952  0.27101687  1
  Sc  Sc56  1  0.77060970  0.89613072  0.30336144  1
  Sc  Sc57  1  0.40092786  0.17106572  0.89465409  1
  Sc  Sc58  1  0.08542387  0.78377920  0.12560420  1
  Sc  Sc59  1  0.57731138  0.87564396  0.19987682  1
  Sc  Sc60  1  0.73068708  0.77434388  0.11168082  1
  Sc  Sc61  1  0.25952720  0.29080397  0.03526527  1
  Sc  Sc62  1  0.98198284  0.84899293  0.30990402  1
  Sc  Sc63  1  0.74203988  0.54066260  0.08715392  1
  Sc  Sc64  1  0.81187672  0.67417752  0.80499954  1
  Sc  Sc65  1  0.72586886  -0.00392360  0.08079832  1
  Sc  Sc66  1  0.22888840  0.13711824  0.53920031  1
  Sc  Sc67  1  0.67483795  0.33398041  0.06273151  1
  Sc  Sc68  1  0.48545251  0.44776419  0.10065615  1
  Sc  Sc69  1  0.12661419  0.35265500  0.82365400  1
  Sc  Sc70  1  0.73008877  0.63454017  0.54964981  1
  Sc  Sc71  1  0.23940895  0.51142699  0.33251786  1
  Sc  Sc72  1  1.01196452  0.92696472  0.66597177  1
  Sc  Sc73  1  0.47628617  0.02306204  0.06846472  1
  Sc  Sc74  1  0.86376840  0.67542857  0.22952258  1
  Sc  Sc75  1  0.59748499  0.14938188  0.96938710  1
  Sc  Sc76  1  0.94242460  0.14671256  0.53962009  1
  Sc  Sc77  1  0.27039472  0.34794650  0.48780179  1
  Sc  Sc78  1  0.54469180  0.66224345  0.13285388  1
  Sc  Sc79  1  0.08301882  0.00354859  0.45289675  1
  Sc  Sc80  1  0.27118051  0.69260403  0.21516490  1
  Sc  Sc81  1  0.39888387  0.17753833  0.38842924  1
  Sc  Sc82  1  0.60110092  0.61021905  0.71641761  1
  Sc  Sc83  1  0.19630912  0.14333234  0.89124590  1
  Sc  Sc84  1  0.85044231  0.26434539  0.37359864  1
  Sc  Sc85  1  0.75237461  0.17134264  0.19887250  1
  Sc  Sc86  1  0.91494097  0.29550308  0.15938772  1
  Sc  Sc87  1  0.06582692  0.77852437  0.49926147  1
  Sc  Sc88  1  0.30283643  0.74688816  0.50005622  1
  Sc  Sc89  1  0.63945191  0.48869695  0.27932601  1
  Sc  Sc90  1  0.04779031  0.62098009  0.31332083  1
  Sc  Sc91  1  0.44899952  0.23656980  0.14958150  1
  Sc  Sc92  1  0.48423159  0.30419086  0.55503548  1
  Sc  Sc93  1  0.00450745  0.20157492  0.93326722  1
  Sc  Sc94  1  0.22315326  0.77386658  0.95429890  1
  Sc  Sc95  1  0.88064722  0.93411829  0.50284047  1
  Sc  Sc96  1  0.32775921  0.95663941  0.93708873  1
  Sc  Sc97  1  0.65572077  0.68627548  0.93788338  1
  Sc  Sc98  1  0.62511612  0.28161169  0.37280936  1
  Sc  Sc99  1  0.51933419  0.71400761  0.49414939  1
  Nb  Nb100  1  0.08974966  -0.00485326  0.21458816  1
  Nb  Nb101  1  0.93157868  0.99470289  0.88988617  1
  Nb  Nb102  1  0.56272073  0.18535113  0.73182279  1
  Nb  Nb103  1  0.31899604  0.83492376  0.75020734  1
  Nb  Nb104  1  0.86306700  0.36650752  0.97073742  1
  Nb  Nb105  1  0.43036567  0.09880952  0.62110109  1
  Nb  Nb106  1  0.08770256  0.40445974  0.22001966  1
  Nb  Nb107  1  0.26004154  0.90009951  0.14687454  1
  Nb  Nb108  1  0.42180845  0.79666787  0.30998337  1
  Nb  Nb109  1  0.86075185  0.73175202  0.43024547  1
  Nb  Nb110  1  0.22436048  0.07943415  0.31359632  1
  Nb  Nb111  1  0.93373163  0.08069078  0.10109771  1
  Nb  Nb112  1  0.40622661  0.67061413  0.66894101  1
  Nb  Nb113  1  0.29717918  0.04043703  0.72969102  1
  Nb  Nb114  1  0.79231557  0.85548037  0.92398938  1
  Nb  Nb115  1  0.94260992  0.50253197  0.11226033  1
  Nb  Nb116  1  0.32119241  0.62518445  0.82544875  1
  Nb  Nb117  1  0.59125966  0.88426202  -0.02957803  1
  Nb  Nb118  1  0.21262445  0.91595102  0.60055331  1
  Nb  Nb119  1  0.92995259  0.56622787  0.49656059  1
  Nb  Nb120  1  0.07792053  0.38862955  0.02276062  1
  Nb  Nb121  1  0.70562007  0.02181842  0.84745768  1
  Nb  Nb122  1  0.28176029  0.45806936  0.14047806  1
  Nb  Nb123  1  0.41410955  0.81670150  0.08587086  1
  Nb  Nb124  1  0.56338145  0.11400946  0.49567363  1
