# generated using pymatgen
data_Zr2Sc2Nb
_symmetry_space_group_name_H-M   'P 1'
_cell_length_a   13.75402184
_cell_length_b   14.73572633
_cell_length_c   14.14063091
_cell_angle_alpha   91.28816632
_cell_angle_beta   86.85828848
_cell_angle_gamma   91.36340120
_symmetry_Int_Tables_number   1
_chemical_formula_structural   Zr2Sc2Nb
_chemical_formula_sum   'Zr50 Sc50 Nb25'
_cell_volume   2860.19802364
_cell_formula_units_Z   25
loop_
 _symmetry_equiv_pos_site_id
 _symmetry_equiv_pos_as_xyz
  1  'x, y, z'
loop_
 _atom_site_type_symbol
 _atom_site_label
 _atom_site_symmetry_multiplicity
 _atom_site_fract_x
 _atom_site_fract_y
 _atom_site_fract_z
 _atom_site_occupancy
  Zr  Zr0  1  0.56141927  0.22928119  0.34027816  1
  Zr  Zr1  1  0.80335374  0.28676840  0.10115536  1
  Zr  Zr2  1  0.04572691  0.80696709  0.05791041  1
  Zr  Zr3  1  0.11151228  0.73948302  0.69028546  1
  Zr  Zr4  1  0.14949668  0.37320732  0.22728804  1
  Zr  Zr5  1  0.89127202  0.98611605  0.57026299  1
  Zr  Zr6  1  0.97082029  0.70909745  0.29160565  1
  Zr  Zr7  1  0.69912597  0.99823457  0.67790844  1
  Zr  Zr8  1  0.09557401  0.93675241  0.60891203  1
  Zr  Zr9  1  0.85126577  0.38150042  0.58264003  1
  Zr  Zr10  1  0.86797203  0.10302009  0.05759464  1
  Zr  Zr11  1  0.82401349  0.07331506  0.84007696  1
  Zr  Zr12  1  0.24018053  0.23800204  0.56729944  1
  Zr  Zr13  1  0.94694565  0.23766334  0.86739605  1
  Zr  Zr14  1  0.18562083  0.20568434  0.78762195  1
  Zr  Zr15  1  0.52462006  0.32851771  0.80662972  1
  Zr  Zr16  1  0.82148874  0.83624448  0.42270073  1
  Zr  Zr17  1  0.48925765  0.26682034  1.00526097  1
  Zr  Zr18  1  0.89880015  0.41192909  -0.03022312  1
  Zr  Zr19  1  0.91926099  0.62465364  0.09245082  1
  Zr  Zr20  1  0.12118378  0.54048549  0.36065724  1
  Zr  Zr21  1  0.43966413  0.46765566  0.93537540  1
  Zr  Zr22  1  0.32074628  0.79654339  0.17181398  1
  Zr  Zr23  1  0.03380370  0.30594743  0.66956929  1
  Zr  Zr24  1  0.30881918  0.37373938  0.76318761  1
  Zr  Zr25  1  0.12660557  0.87539142  0.85543170  1
  Zr  Zr26  1  0.02916336  0.53978150  0.57987396  1
  Zr  Zr27  1  0.09031768  0.08101681  0.94583022  1
  Zr  Zr28  1  0.73005410  0.49239901  0.13736413  1
  Zr  Zr29  1  0.42169973  0.52882187  0.70341738  1
  Zr  Zr30  1  0.12922362  0.87695180  0.23607067  1
  Zr  Zr31  1  0.70866877  0.92230265  0.09141780  1
  Zr  Zr32  1  0.76523788  0.79520314  0.63893016  1
  Zr  Zr33  1  0.13874384  0.20099719  0.33775036  1
  Zr  Zr34  1  0.61877172  0.52473710  0.82387798  1
  Zr  Zr35  1  0.39575659  0.17989419  0.72165816  1
  Zr  Zr36  1  0.55088080  0.02682054  0.27321855  1
  Zr  Zr37  1  0.82249025  0.56922059  0.90245214  1
  Zr  Zr38  1  0.75602726  0.74301847  0.17815463  1
  Zr  Zr39  1  0.02478533  0.73759895  0.51062936  1
  Zr  Zr40  1  0.65064406  0.87259217  0.32398971  1
  Zr  Zr41  1  0.46043643  0.54372765  0.49679981  1
  Zr  Zr42  1  0.78139347  0.35625287  0.77990381  1
  Zr  Zr43  1  0.68088666  0.48251532  0.47868365  1
  Zr  Zr44  1  0.85036844  0.76630029  0.95996850  1
  Zr  Zr45  1  0.94586318  0.05566617  0.36679940  1
  Zr  Zr46  1  0.33634652  0.97821363  0.24956166  1
  Zr  Zr47  1  0.10966798  0.39538265  0.85601612  1
  Zr  Zr48  1  0.05833667  0.64685733  0.89311098  1
  Zr  Zr49  1  0.24640923  0.64685687  0.52855202  1
  Sc  Sc50  1  0.23943428  0.16554420  0.13770180  1
  Sc  Sc51  1  0.64278920  0.65069217  0.02080594  1
  Sc  Sc52  1  0.26958485  0.32251890  0.98309007  1
  Sc  Sc53  1  0.35657154  0.15459158  0.37869503  1
  Sc  Sc54  1  0.23180171  0.95446481  0.04008411  1
  Sc  Sc55  1  0.54213022  0.43835286  0.31992267  1
  Sc  Sc56  1  0.09651435  0.48782230  0.03725727  1
  Sc  Sc57  1  0.63785469  0.10948714  0.07965732  1
  Sc  Sc58  1  0.43090505  0.95168685  0.45657287  1
  Sc  Sc59  1  0.42747019  0.65248188  0.07150888  1
  Sc  Sc60  1  0.55515947  0.04679823  0.87882167  1
  Sc  Sc61  1  0.44369123  0.74513762  0.57566494  1
  Sc  Sc62  1  0.95360026  0.24706288  0.25503447  1
  Sc  Sc63  1  0.78173859  0.59148829  0.30834551  1
  Sc  Sc64  1  0.45897870  0.33106644  0.54503907  1
  Sc  Sc65  1  0.78061326  0.54931313  0.68275365  1
  Sc  Sc66  1  0.55297427  0.82805385  0.74431244  1
  Sc  Sc67  1  0.94411659  0.44921099  0.19166954  1
  Sc  Sc68  1  0.15107428  0.65086762  0.15059088  1
  Sc  Sc69  1  0.05105010  0.26617271  0.05530970  1
  Sc  Sc70  1  0.63174335  0.69640984  0.44374916  1
  Sc  Sc71  1  0.89354757  0.90433205  0.21065833  1
  Sc  Sc72  1  0.71872089  0.90436766  0.87636825  1
  Sc  Sc73  1  0.70351856  0.22412179  0.92036984  1
  Sc  Sc74  1  0.17313141  0.02578580  0.40278571  1
  Sc  Sc75  1  0.02405040  0.07518697  0.74242462  1
  Sc  Sc76  1  0.30191792  0.70365378  0.76425113  1
  Sc  Sc77  1  0.83776338  0.63883005  0.51032804  1
  Sc  Sc78  1  0.91622650  0.46138051  0.40007609  1
  Sc  Sc79  1  0.47569717  0.67180138  0.85904214  1
  Sc  Sc80  1  0.29607774  0.49206125  0.11787127  1
  Sc  Sc81  1  0.63925185  0.18907255  0.70550895  1
  Sc  Sc82  1  0.29914889  0.36969194  0.38893760  1
  Sc  Sc83  1  0.26318589  0.74967271  0.97057908  1
  Sc  Sc84  1  0.24233206  0.44809996  0.57392194  1
  Sc  Sc85  1  0.72066754  0.05885617  0.46158878  1
  Sc  Sc86  1  0.38420152  0.32380947  0.20298584  1
  Sc  Sc87  1  0.07212029  0.34638236  0.46323202  1
  Sc  Sc88  1  0.05114029  0.05306972  0.16396574  1
  Sc  Sc89  1  0.75604777  0.34374255  0.32046839  1
  Sc  Sc90  1  0.23717429  0.85127604  0.46385192  1
  Sc  Sc91  1  0.56597817  0.63669397  0.24486834  1
  Sc  Sc92  1  0.34627322  0.11311074  0.93996888  1
  Sc  Sc93  1  0.51731239  0.12484412  0.52923425  1
  Sc  Sc94  1  0.75772404  0.13024177  0.26218123  1
  Sc  Sc95  1  0.29627352  0.87121823  0.66517210  1
  Sc  Sc96  1  0.46475021  -0.00615108  0.68352265  1
  Sc  Sc97  1  0.92122934  0.87822329  0.76913909  1
  Sc  Sc98  1  0.34487117  0.57111063  0.30705853  1
  Sc  Sc99  1  0.42331843  0.76491025  0.35866290  1
  Nb  Nb100  1  0.96341350  0.48284810  0.76614918  1
  Nb  Nb101  1  0.53207305  0.82586292  0.16998195  1
  Nb  Nb102  1  0.66151225  0.41074806  -0.02481990  1
  Nb  Nb103  1  0.24271632  0.02333289  0.78251670  1
  Nb  Nb104  1  0.16775253  0.54895915  0.73438412  1
  Nb  Nb105  1  0.18129901  0.72121589  0.34042772  1
  Nb  Nb106  1  0.45532718  0.97120478  0.06688858  1
  Nb  Nb107  1  0.53694151  0.82781079  0.96999314  1
  Nb  Nb108  1  0.61362676  0.88349195  0.53517910  1
  Nb  Nb109  1  0.44564899  0.14142441  0.16276140  1
  Nb  Nb110  1  0.93162997  0.94555727  0.97724601  1
  Nb  Nb111  1  0.92313637  0.67690815  0.73384074  1
  Nb  Nb112  1  0.27460581  0.05783000  0.58478137  1
  Nb  Nb113  1  0.70527165  0.71230237  0.81799689  1
  Nb  Nb114  1  0.85120459  0.17667332  0.64964469  1
  Nb  Nb115  1  0.60745350  0.30173766  0.15920763  1
  Nb  Nb116  1  0.26612083  0.54978188  0.90661555  1
  Nb  Nb117  1  0.60525372  0.63597644  0.64277520  1
  Nb  Nb118  1  0.51748463  0.47208148  0.11573106  1
  Nb  Nb119  1  0.37427245  0.90094068  0.87104324  1
  Nb  Nb120  1  0.68877234  0.26733568  0.51537512  1
  Nb  Nb121  1  0.02233366  0.88681744  0.40471451  1
  Nb  Nb122  1  0.88740922  0.22309074  0.45915862  1
  Nb  Nb123  1  0.61717925  0.41394720  0.64658876  1
  Nb  Nb124  1  1.05338913  0.13734996  0.54108686  1
