# generated using pymatgen
data_Zr2Sc2Nb
_symmetry_space_group_name_H-M   'P 1'
_cell_length_a   14.41973103
_cell_length_b   13.90193112
_cell_length_c   14.37555905
_cell_angle_alpha   90.57260342
_cell_angle_beta   88.18414853
_cell_angle_gamma   93.20597050
_symmetry_Int_Tables_number   1
_chemical_formula_structural   Zr2Sc2Nb
_chemical_formula_sum   'Zr50 Sc50 Nb25'
_cell_volume   2875.70229439
_cell_formula_units_Z   25
loop_
 _symmetry_equiv_pos_site_id
 _symmetry_equiv_pos_as_xyz
  1  'x, y, z'
loop_
 _atom_site_type_symbol
 _atom_site_label
 _atom_site_symmetry_multiplicity
 _atom_site_fract_x
 _atom_site_fract_y
 _atom_site_fract_z
 _atom_site_occupancy
  Zr  Zr0  1  0.50273235  0.56884088  0.03702970  1
  Zr  Zr1  1  0.72000217  0.30455696  0.33997491  1
  Zr  Zr2  1  0.10659419  0.93808690  0.15814393  1
  Zr  Zr3  1  0.94663203  0.79892897  0.04442468  1
  Zr  Zr4  1  0.00305353  0.10955686  0.46781664  1
  Zr  Zr5  1  0.60035762  0.09970700  0.27590783  1
  Zr  Zr6  1  0.68231096  0.02354923  0.67731682  1
  Zr  Zr7  1  0.90102911  0.58696309  0.52095767  1
  Zr  Zr8  1  0.64237052  0.93463202  0.48710880  1
  Zr  Zr9  1  0.62361148  0.49694746  0.24201054  1
  Zr  Zr10  1  0.92438564  0.03533157  0.06632050  1
  Zr  Zr11  1  0.59138334  0.14590013  0.47472984  1
  Zr  Zr12  1  0.12941939  0.53562728  0.63962951  1
  Zr  Zr13  1  0.51198694  0.30905488  0.33642521  1
  Zr  Zr14  1  0.71356258  0.24276174  0.64853488  1
  Zr  Zr15  1  0.51602927  0.96103093  0.13998842  1
  Zr  Zr16  1  0.07836303  0.55271988  0.36389427  1
  Zr  Zr17  1  0.60227468  0.16142660  0.83537349  1
  Zr  Zr18  1  0.54320486  0.75965775  0.96002376  1
  Zr  Zr19  1  0.15975587  0.26251068  0.53552687  1
  Zr  Zr20  1  0.83912972  0.27030052  0.79769646  1
  Zr  Zr21  1  0.89663758  0.45641841  0.68619783  1
  Zr  Zr22  1  0.69311084  0.46702985  0.65705274  1
  Zr  Zr23  1  0.90598668  0.91030272  0.87285884  1
  Zr  Zr24  1  0.29268241  0.58945552  0.12869886  1
  Zr  Zr25  1  0.04695747  0.91516331  0.56673046  1
  Zr  Zr26  1  0.75329075  0.74380297  0.47904804  1
  Zr  Zr27  1  0.94363615  0.36269282  0.97878016  1
  Zr  Zr28  1  0.63312475  0.80480273  0.65891358  1
  Zr  Zr29  1  0.85684685  0.94248913  0.46007324  1
  Zr  Zr30  1  -0.00496550  0.69405433  0.69949602  1
  Zr  Zr31  1  0.60621145  0.36623271  0.80087177  1
  Zr  Zr32  1  0.21748857  0.14604072  0.22438762  1
  Zr  Zr33  1  0.02647496  0.41577424  0.50825274  1
  Zr  Zr34  1  0.86607050  0.49844584  0.32680838  1
  Zr  Zr35  1  0.33014927  0.67043103  0.93329815  1
  Zr  Zr36  1  0.31523764  1.00516653  0.04450203  1
  Zr  Zr37  1  0.48815182  0.90786009  0.34781140  1
  Zr  Zr38  1  0.31219810  0.16063859  0.67140929  1
  Zr  Zr39  1  0.70065450  0.07650660  0.08686829  1
  Zr  Zr40  1  0.22109014  0.53264678  0.83018401  1
  Zr  Zr41  1  1.01344504  0.10881830  0.25146372  1
  Zr  Zr42  1  0.26369727  0.95654230  0.66483958  1
  Zr  Zr43  1  0.29737657  0.88070409  0.87160722  1
  Zr  Zr44  1  0.77236476  0.05516687  0.88451331  1
  Zr  Zr45  1  0.18361901  0.73785198  0.28829313  1
  Zr  Zr46  1  0.39852307  0.28331081  0.83638475  1
  Zr  Zr47  1  0.68908196  0.52893674  0.44276855  1
  Zr  Zr48  1  0.22665714  0.08295880  0.46294214  1
  Zr  Zr49  1  0.00671253  0.51883609  0.84357859  1
  Sc  Sc50  1  0.48003708  0.94991086  0.72159694  1
  Sc  Sc51  1  0.84982227  0.85743613  0.66320098  1
  Sc  Sc52  1  1.00596357  0.65777597  0.19105291  1
  Sc  Sc53  1  0.27206790  0.87037634  0.45817758  1
  Sc  Sc54  1  0.57158286  0.70118111  0.38165606  1
  Sc  Sc55  1  0.30103247  0.94067454  0.25237922  1
  Sc  Sc56  1  0.25734081  0.36756752  0.70325685  1
  Sc  Sc57  1  0.42860444  0.02186714  0.53589343  1
  Sc  Sc58  1  0.90215098  0.88888605  0.23525480  1
  Sc  Sc59  1  0.20730938  0.09308424  0.85489852  1
  Sc  Sc60  1  0.38637597  0.79015917  0.10740495  1
  Sc  Sc61  1  0.08534144  0.89874608  0.76513525  1
  Sc  Sc62  1  0.45130170  0.73004716  0.76521223  1
  Sc  Sc63  1  0.05194961  0.32466402  0.74520599  1
  Sc  Sc64  1  0.27240532  0.50720937  0.30885012  1
  Sc  Sc65  1  0.52291734  0.35721332  -0.00774483  1
  Sc  Sc66  1  0.92200058  0.28051056  0.35769204  1
  Sc  Sc67  1  0.17814838  0.76642556  0.06779187  1
  Sc  Sc68  1  0.31047211  0.29804723  0.33859719  1
  Sc  Sc69  1  0.94948772  0.74449808  0.38295074  1
  Sc  Sc70  1  0.09556882  0.10861347  0.67224744  1
  Sc  Sc71  1  0.23038624  0.73509135  0.70437123  1
  Sc  Sc72  1  0.15723309  0.31851401  0.93004844  1
  Sc  Sc73  1  0.72828371  0.26951262  0.97461308  1
  Sc  Sc74  1  0.11531822  0.32795303  0.32651710  1
  Sc  Sc75  1  0.77211495  0.67824795  0.24726386  1
  Sc  Sc76  1  0.61679001  0.28230752  0.15545445  1
  Sc  Sc77  1  0.79001998  0.44702418  0.12286910  1
  Sc  Sc78  1  0.85666689  0.69292718  0.87083492  1
  Sc  Sc79  1  0.80671598  0.08145079  0.29753498  1
  Sc  Sc80  1  0.56583134  0.96394701  0.92051268  1
  Sc  Sc81  1  0.84929388  0.24092749  0.15275810  1
  Sc  Sc82  1  0.10164554  0.71753324  0.51568806  1
  Sc  Sc83  1  0.11906594  0.51985213  0.02995898  1
  Sc  Sc84  1  0.71399291  0.64311834  0.03402882  1
  Sc  Sc85  1  0.44912276  0.51652107  0.82650919  1
  Sc  Sc86  1  0.55467850  0.60597409  0.60778574  1
  Sc  Sc87  1  0.77955330  0.48066934  0.88347182  1
  Sc  Sc88  1  0.99161188  0.14148379  0.89163207  1
  Sc  Sc89  1  0.69128276  0.88679470  0.27743202  1
  Sc  Sc90  1  0.08826782  0.71647053  0.89280942  1
  Sc  Sc91  1  0.31873157  0.22833451  1.02526057  1
  Sc  Sc92  1  0.44209928  0.78459869  0.54619238  1
  Sc  Sc93  1  0.88824406  0.06939890  0.68617286  1
  Sc  Sc94  1  0.77841224  0.65610554  0.68290099  1
  Sc  Sc95  1  0.08494608  0.92818281  0.36422380  1
  Sc  Sc96  1  0.73322032  0.86587854  0.05085815  1
  Sc  Sc97  1  0.45822908  0.39537894  0.64493497  1
  Sc  Sc98  1  0.28523991  0.64414640  0.47209943  1
  Sc  Sc99  1  0.45383076  0.49734855  0.43968270  1
  Nb  Nb100  1  0.25720431  0.43470757  0.50374621  1
  Nb  Nb101  1  0.32802061  0.44357188  0.98567096  1
  Nb  Nb102  1  0.70604917  0.82988722  0.83644967  1
  Nb  Nb103  1  0.56987189  0.74025827  0.17591193  1
  Nb  Nb104  1  0.80939806  0.37470397  0.50734231  1
  Nb  Nb105  1  0.99831773  0.43567652  0.18551973  1
  Nb  Nb106  1  0.05175264  0.26452226  0.11827547  1
  Nb  Nb107  1  0.21519466  0.37061061  0.14554457  1
  Nb  Nb108  1  0.51342018  0.14323391  0.01801160  1
  Nb  Nb109  1  0.59928032  0.34493730  0.51569341  1
  Nb  Nb110  1  0.13201079  0.11533388  0.04728703  1
  Nb  Nb111  1  0.63249263  0.62672467  0.82568545  1
  Nb  Nb112  1  0.79014883  0.14328189  0.49414157  1
  Nb  Nb113  1  0.39222988  0.25138972  0.50918267  1
  Nb  Nb114  1  0.51009813  0.18218163  0.66758692  1
  Nb  Nb115  1  0.37891684  0.73433493  0.30634926  1
  Nb  Nb116  1  0.42401789  0.16945106  0.18222912  1
  Nb  Nb117  1  0.92392925  0.57652156  1.02526212  1
  Nb  Nb118  1  0.45743612  0.57941837  0.23558750  1
  Nb  Nb119  1  0.34376499  0.56825802  0.64799730  1
  Nb  Nb120  1  0.41316691  0.38991160  0.16647839  1
  Nb  Nb121  1  0.40439985  0.08178231  0.85634169  1
  Nb  Nb122  1  0.09974871  0.93539836  0.96316295  1
  Nb  Nb123  1  0.93277410  0.25215216  0.59279566  1
  Nb  Nb124  1  0.40294432  0.10399077  0.35514709  1
