# generated using pymatgen
data_Zr2Sc2Nb
_symmetry_space_group_name_H-M   'P 1'
_cell_length_a   14.27146375
_cell_length_b   14.71184675
_cell_length_c   13.67875362
_cell_angle_alpha   90.35109326
_cell_angle_beta   90.78631901
_cell_angle_gamma   89.80986958
_symmetry_Int_Tables_number   1
_chemical_formula_structural   Zr2Sc2Nb
_chemical_formula_sum   'Zr50 Sc50 Nb25'
_cell_volume   2871.64607243
_cell_formula_units_Z   25
loop_
 _symmetry_equiv_pos_site_id
 _symmetry_equiv_pos_as_xyz
  1  'x, y, z'
loop_
 _atom_site_type_symbol
 _atom_site_label
 _atom_site_symmetry_multiplicity
 _atom_site_fract_x
 _atom_site_fract_y
 _atom_site_fract_z
 _atom_site_occupancy
  Zr  Zr0  1  0.33107294  0.63219888  0.67607801  1
  Zr  Zr1  1  0.80829231  0.14630278  0.24506118  1
  Zr  Zr2  1  0.04405726  0.21967938  0.86630792  1
  Zr  Zr3  1  0.09442580  0.38927262  0.28692131  1
  Zr  Zr4  1  0.18680605  0.10352787  0.10714372  1
  Zr  Zr5  1  0.81023074  0.66777445  0.73058246  1
  Zr  Zr6  1  0.14984656  0.73242633  0.71215620  1
  Zr  Zr7  1  0.43135864  0.13073682  0.46994791  1
  Zr  Zr8  1  0.95928481  0.69509739  0.55562109  1
  Zr  Zr9  1  0.15464811  0.93639259  0.72442289  1
  Zr  Zr10  1  0.68356144  0.34917574  0.87064969  1
  Zr  Zr11  1  0.28495921  0.12716566  0.29760580  1
  Zr  Zr12  1  0.00827946  0.78343693  0.31877739  1
  Zr  Zr13  1  0.26784129  0.16193608  0.89675227  1
  Zr  Zr14  1  0.47292424  0.43243906  0.35059266  1
  Zr  Zr15  1  0.87735557  0.46719311  0.32459638  1
  Zr  Zr16  1  0.24042921  0.48012389  0.46227497  1
  Zr  Zr17  1  0.79563126  0.57418152  0.51352015  1
  Zr  Zr18  1  0.39905756  0.11955454  0.09795041  1
  Zr  Zr19  1  0.84627456  0.11566092  0.88269177  1
  Zr  Zr20  1  0.66480219  0.42332893  0.46179172  1
  Zr  Zr21  1  0.11077760  0.29931599  0.06938689  1
  Zr  Zr22  1  0.48726154  0.64572303  0.84664842  1
  Zr  Zr23  1  0.65134033  0.16029418  0.81035869  1
  Zr  Zr24  1  0.38891494  0.69017409  0.44234734  1
  Zr  Zr25  1  0.62510070  0.62051552  0.64156325  1
  Zr  Zr26  1  0.43689683  0.28012347  0.80744975  1
  Zr  Zr27  1  0.27996757  0.83247379  0.55745200  1
  Zr  Zr28  1  0.35004273  0.03661578  0.72357370  1
  Zr  Zr29  1  0.36828449  0.56119290  0.04636598  1
  Zr  Zr30  1  0.74109669  0.21651691  0.04427985  1
  Zr  Zr31  1  0.45741393  0.82548264  0.30093465  1
  Zr  Zr32  1  0.63278172  0.19650047  0.39338039  1
  Zr  Zr33  1  0.07416625  0.34824130  0.66211758  1
  Zr  Zr34  1  0.85712029  0.50492317  0.89276880  1
  Zr  Zr35  1  0.32021238  0.35027716  -0.00425570  1
  Zr  Zr36  1  0.30984112  0.40737048  0.64435879  1
  Zr  Zr37  1  0.51695118  0.45197990  0.94543414  1
  Zr  Zr38  1  0.63321843  0.02713493  0.50902667  1
  Zr  Zr39  1  0.07033123  0.59444111  0.27745484  1
  Zr  Zr40  1  0.48294266  0.61963098  0.24397432  1
  Zr  Zr41  1  0.13534723  0.81707785  0.91559785  1
  Zr  Zr42  1  0.53003155  0.95246703  0.12360893  1
  Zr  Zr43  1  0.94875397  0.51736168  0.69189709  1
  Zr  Zr44  1  0.51600133  0.45752118  0.73236943  1
  Zr  Zr45  1  0.87197935  0.30961296  0.76991191  1
  Zr  Zr46  1  0.72837635  0.45211733  0.68935448  1
  Zr  Zr47  1  0.53425977  0.24979099  1.01896675  1
  Zr  Zr48  1  0.72984623  0.45076270  0.06490188  1
  Zr  Zr49  1  0.50892358  0.42401394  0.14866812  1
  Sc  Sc50  1  0.22613974  0.70973629  0.11317966  1
  Sc  Sc51  1  0.64843984  0.75291952  0.22423147  1
  Sc  Sc52  1  0.08151286  0.86676919  0.51002353  1
  Sc  Sc53  1  0.08251855  0.89869042  0.13336848  1
  Sc  Sc54  1  0.31565504  0.72777966  0.90375064  1
  Sc  Sc55  1  0.23033423  0.05463964  0.52675123  1
  Sc  Sc56  1  0.70917354  0.23661425  0.60589799  1
  Sc  Sc57  1  0.58200595  0.95682105  0.73288977  1
  Sc  Sc58  1  0.80541106  0.72388175  0.37767891  1
  Sc  Sc59  1  0.85628290  0.83157969  0.16334806  1
  Sc  Sc60  1  0.45272167  0.94265314  0.54956231  1
  Sc  Sc61  1  0.45806230  0.52360427  0.53403954  1
  Sc  Sc62  1  0.61710871  0.82713813  0.44748775  1
  Sc  Sc63  1  0.16337117  0.66142704  0.49524756  1
  Sc  Sc64  1  0.45327666  0.75759677  0.07845988  1
  Sc  Sc65  1  0.12685500  0.25178656  0.48135699  1
  Sc  Sc66  1  0.32141051  0.30119817  0.42550756  1
  Sc  Sc67  1  0.22344736  0.77834370  0.32349117  1
  Sc  Sc68  1  0.06107271  0.16949691  0.27269555  1
  Sc  Sc69  1  0.01432125  0.06123321  0.49624460  1
  Sc  Sc70  1  0.78355255  0.03518222  0.66139133  1
  Sc  Sc71  1  0.93638506  0.89824268  0.95922161  1
  Sc  Sc72  1  0.30469653  0.92782026  0.17012684  1
  Sc  Sc73  1  0.28639604  0.55421430  0.26821631  1
  Sc  Sc74  1  0.81057152  0.70281018  0.95913766  1
  Sc  Sc75  1  0.67653567  0.53603853  0.26878597  1
  Sc  Sc76  1  0.49391296  0.87730305  0.90241460  1
  Sc  Sc77  1  0.85940844  0.89935565  0.49626777  1
  Sc  Sc78  1  0.97326367  0.48168518  0.10563737  1
  Sc  Sc79  1  0.30225119  0.95609827  0.94217126  1
  Sc  Sc80  1  0.06373190  0.43858498  0.88773099  1
  Sc  Sc81  1  0.49938074  0.76648091  0.63781402  1
  Sc  Sc82  1  0.09680945  0.02832926  0.92253669  1
  Sc  Sc83  1  0.70254141  0.96320168  0.29357779  1
  Sc  Sc84  1  0.03003110  0.49377174  0.48382030  1
  Sc  Sc85  1  0.69050991  0.32802674  0.24263875  1
  Sc  Sc86  1  0.91227547  0.25867043  0.39894813  1
  Sc  Sc87  1  0.90115671  0.32014158  0.98435906  1
  Sc  Sc88  1  0.76648228  0.92099128  0.84215354  1
  Sc  Sc89  1  0.86757588  0.37635531  0.55257465  1
  Sc  Sc90  1  0.67300991  0.83520890  0.02463504  1
  Sc  Sc91  1  0.99640091  0.66746139  0.83905041  1
  Sc  Sc92  1  0.29406604  0.34213568  0.20629066  1
  Sc  Sc93  1  0.02181072  0.68835508  0.06644617  1
  Sc  Sc94  1  0.93869863  0.84403906  0.71476782  1
  Sc  Sc95  1  0.50328853  0.31465073  0.55710537  1
  Sc  Sc96  1  0.96211956  0.12075193  0.07761190  1
  Sc  Sc97  1  0.13791010  0.14747457  0.69710746  1
  Sc  Sc98  1  0.83516450  0.62691202  0.17007812  1
  Sc  Sc99  1  0.93165545  0.98730485  0.29392390  1
  Nb  Nb100  1  0.15349857  0.53085422  0.69821425  1
  Nb  Nb101  1  0.17619793  0.59907413  0.91192166  1
  Nb  Nb102  1  0.51407138  0.13731579  0.66229816  1
  Nb  Nb103  1  0.90774606  0.31108058  0.18967656  1
  Nb  Nb104  1  0.47264609  0.23891413  0.26512927  1
  Nb  Nb105  1  0.14187936  0.97597833  0.32499221  1
  Nb  Nb106  1  0.92813921  0.18889811  0.62670380  1
  Nb  Nb107  1  0.59622052  0.63424640  0.42808941  1
  Nb  Nb108  1  0.31785898  0.21885807  0.63909566  1
  Nb  Nb109  1  0.46660137  0.08850069  0.88680676  1
  Nb  Nb110  1  0.63172022  0.04393647  -0.02833246  1
  Nb  Nb111  1  0.78010352  0.00835781  0.08433390  1
  Nb  Nb112  1  0.80979881  0.09735393  0.45516620  1
  Nb  Nb113  1  0.61109194  0.12785942  0.17530180  1
  Nb  Nb114  1  0.32279473  0.49591855  0.84270611  1
  Nb  Nb115  1  0.34425726  0.84279406  0.74979529  1
  Nb  Nb116  1  0.32602523  0.94600256  0.38592049  1
  Nb  Nb117  1  0.67107896  0.56349950  0.86468874  1
  Nb  Nb118  1  0.61097464  0.62136446  0.05038103  1
  Nb  Nb119  1  0.17599399  0.49597763  0.08727213  1
  Nb  Nb120  1  0.64510537  0.75622101  0.81751366  1
  Nb  Nb121  1  0.21875675  0.33119254  0.80871296  1
  Nb  Nb122  1  0.72235572  0.81761672  0.63239401  1
  Nb  Nb123  1  0.97210610  0.03784473  0.74737718  1
  Nb  Nb124  1  0.49294205  1.03157341  0.31074452  1
