# generated using pymatgen
data_Zr2Sc2Nb
_symmetry_space_group_name_H-M   'P 1'
_cell_length_a   14.34233830
_cell_length_b   14.28247748
_cell_length_c   14.04730307
_cell_angle_alpha   90.95584274
_cell_angle_beta   91.13306603
_cell_angle_gamma   88.06076831
_symmetry_Int_Tables_number   1
_chemical_formula_structural   Zr2Sc2Nb
_chemical_formula_sum   'Zr50 Sc50 Nb25'
_cell_volume   2874.92794155
_cell_formula_units_Z   25
loop_
 _symmetry_equiv_pos_site_id
 _symmetry_equiv_pos_as_xyz
  1  'x, y, z'
loop_
 _atom_site_type_symbol
 _atom_site_label
 _atom_site_symmetry_multiplicity
 _atom_site_fract_x
 _atom_site_fract_y
 _atom_site_fract_z
 _atom_site_occupancy
  Zr  Zr0  1  0.28544807  0.93822816  0.37167504  1
  Zr  Zr1  1  0.31190903  0.41999170  0.06931861  1
  Zr  Zr2  1  0.49871512  0.21226348  0.39713681  1
  Zr  Zr3  1  0.14753279  0.63878350  0.49788778  1
  Zr  Zr4  1  0.29280107  0.52587400  0.41507845  1
  Zr  Zr5  1  0.62781202  0.32431788  0.55964253  1
  Zr  Zr6  1  0.03184335  0.53176852  0.90771610  1
  Zr  Zr7  1  0.48048925  0.74953183  0.65699364  1
  Zr  Zr8  1  0.91805230  0.15406631  0.52861527  1
  Zr  Zr9  1  0.29184786  0.09862942  0.71898579  1
  Zr  Zr10  1  0.76920024  0.55489827  0.57724263  1
  Zr  Zr11  1  0.15213712  0.06536457  0.07863271  1
  Zr  Zr12  1  0.46856141  0.14405375  0.82818747  1
  Zr  Zr13  1  0.47860651  0.29974375  0.98000287  1
  Zr  Zr14  1  0.11835065  0.97170334  0.65256360  1
  Zr  Zr15  1  0.79243238  0.07213488  0.87391727  1
  Zr  Zr16  1  0.47457882  0.36397262  0.74954461  1
  Zr  Zr17  1  0.29689963  0.13522145  0.27854515  1
  Zr  Zr18  1  0.95559216  0.91237831  0.12951839  1
  Zr  Zr19  1  0.83170024  0.75421961  0.53714382  1
  Zr  Zr20  1  0.61095699  0.08879324  0.96984732  1
  Zr  Zr21  1  0.92053887  0.95344563  0.54004085  1
  Zr  Zr22  1  0.45836547  0.10335511  0.11166683  1
  Zr  Zr23  1  0.90232459  0.45249615  0.29947083  1
  Zr  Zr24  1  0.76773033  0.25659971  0.99996217  1
  Zr  Zr25  1  0.61293393  0.81698838  0.31248802  1
  Zr  Zr26  1  0.08494656  0.36019712  0.78344277  1
  Zr  Zr27  1  0.64013709  0.45046916  0.95812689  1
  Zr  Zr28  1  0.12744290  0.07936999  0.48232929  1
  Zr  Zr29  1  0.74001652  0.93472637  0.42889514  1
  Zr  Zr30  1  0.86836250  0.39811933  0.90327549  1
  Zr  Zr31  1  0.09508437  0.19445048  0.66261113  1
  Zr  Zr32  1  0.69363715  0.69470380  0.71272676  1
  Zr  Zr33  1  0.84173604  0.73358151  0.13916033  1
  Zr  Zr34  1  0.08348086  0.45408275  0.12297842  1
  Zr  Zr35  1  0.78070934  0.05929386  0.10212569  1
  Zr  Zr36  1  0.92286129  0.66832367  0.74796722  1
  Zr  Zr37  1  0.92731362  0.32969177  0.11497797  1
  Zr  Zr38  1  0.40671546  0.36762072  0.52729662  1
  Zr  Zr39  1  0.92543876  0.83752346  0.34095153  1
  Zr  Zr40  1  0.38843256  0.58500003  0.20969196  1
  Zr  Zr41  1  0.62801739  0.24283321  0.13279730  1
  Zr  Zr42  1  0.94379960  0.06005694  0.73265703  1
  Zr  Zr43  1  0.46356366  0.92701151  0.93494186  1
  Zr  Zr44  1  0.10960787  0.28357856  0.99367683  1
  Zr  Zr45  1  0.58758709  0.93580214  0.12631717  1
  Zr  Zr46  1  0.31718279  0.07637369  0.94844776  1
  Zr  Zr47  1  0.96383380  0.13532927  0.10860170  1
  Zr  Zr48  1  0.74743684  0.86642638  -0.00538215  1
  Zr  Zr49  1  0.09896146  0.44619157  0.36030128  1
  Sc  Sc50  1  0.19993536  0.27365093  0.45039163  1
  Sc  Sc51  1  0.49695922  0.56426038  0.80663053  1
  Sc  Sc52  1  0.34965199  0.72078934  0.89248831  1
  Sc  Sc53  1  0.12197332  0.08822772  0.85822135  1
  Sc  Sc54  1  0.11623764  0.85625315  0.44734726  1
  Sc  Sc55  1  0.67112705  0.50821098  0.39648855  1
  Sc  Sc56  1  0.55458385  0.53610270  0.59372293  1
  Sc  Sc57  1  0.64692489  0.08450404  0.27806282  1
  Sc  Sc58  1  0.41106169  0.79448707  0.28217408  1
  Sc  Sc59  1  0.47218658  0.64182988  0.41973074  1
  Sc  Sc60  1  0.02662225  0.77404857  0.61874614  1
  Sc  Sc61  1  1.01836896  0.64540929  0.29455181  1
  Sc  Sc62  1  0.78150786  0.61058628  0.89664702  1
  Sc  Sc63  1  0.28890846  0.29264468  0.66619312  1
  Sc  Sc64  1  0.88511248  0.54267630  0.07853161  1
  Sc  Sc65  1  0.14009299  0.84750877  0.21446155  1
  Sc  Sc66  1  0.53494894  0.44468969  0.14115973  1
  Sc  Sc67  1  0.69337608  0.45230806  0.74963102  1
  Sc  Sc68  1  0.15635996  0.86377693  -0.00805911  1
  Sc  Sc69  1  0.85065628  0.26299507  0.71149449  1
  Sc  Sc70  1  0.28719459  0.28249129  0.87550328  1
  Sc  Sc71  1  0.87741517  0.05504713  0.32139070  1
  Sc  Sc72  1  0.34305714  0.56759820  0.62708962  1
  Sc  Sc73  1  0.48204983  0.43543238  0.34761765  1
  Sc  Sc74  1  0.91384679  0.46658495  0.70683265  1
  Sc  Sc75  1  0.28124594  0.36551263  0.27357301  1
  Sc  Sc76  1  -0.01187579  0.24629277  0.34785621  1
  Sc  Sc77  1  0.81602491  0.35345808  0.46592485  1
  Sc  Sc78  1  0.08792495  0.04525203  0.28092615  1
  Sc  Sc79  1  0.06553815  0.68500276  0.08529046  1
  Sc  Sc80  1  0.22846074  0.74195710  0.68855167  1
  Sc  Sc81  1  0.73236355  0.44694212  0.17783591  1
  Sc  Sc82  1  0.93537355  0.76965410  0.94065832  1
  Sc  Sc83  1  0.26690777  0.49846465  0.81515432  1
  Sc  Sc84  1  0.35026102  0.11320991  0.50420663  1
  Sc  Sc85  1  0.33372169  0.93834810  0.13431139  1
  Sc  Sc86  1  0.78551550  0.66488277  0.32669612  1
  Sc  Sc87  1  0.72296986  0.08782879  0.65042505  1
  Sc  Sc88  1  0.00969635  0.35360431  0.54855284  1
  Sc  Sc89  1  0.63820273  0.92918339  0.81624380  1
  Sc  Sc90  1  0.65801783  0.87671214  0.60839009  1
  Sc  Sc91  1  0.84119768  0.87358492  0.75199921  1
  Sc  Sc92  1  0.58352684  0.73298739  0.89868886  1
  Sc  Sc93  1  0.30686971  0.92076480  0.58738148  1
  Sc  Sc94  1  0.65186633  0.24869364  0.80826058  1
  Sc  Sc95  1  0.26991694  0.90806174  0.81529381  1
  Sc  Sc96  1  0.47651358  0.97873404  0.68824450  1
  Sc  Sc97  1  0.56711879  0.04494972  0.49647340  1
  Sc  Sc98  1  0.96032126  0.56307597  0.50335704  1
  Sc  Sc99  1  0.49332843  0.76024302  0.09065035  1
  Nb  Nb100  1  0.28643501  0.72768806  0.10573926  1
  Nb  Nb101  1  0.44936432  0.27433640  0.20841043  1
  Nb  Nb102  1  0.64323684  0.70916032  0.49101650  1
  Nb  Nb103  1  0.94920575  0.20506703  0.90121082  1
  Nb  Nb104  1  0.28870112  0.22389954  0.08967647  1
  Nb  Nb105  1  0.49859966  0.19442533  0.63389047  1
  Nb  Nb106  1  0.45175783  0.57652337  1.01132847  1
  Nb  Nb107  1  0.72973384  0.16637903  0.44821944  1
  Nb  Nb108  1  0.20035329  0.56618625  0.21217585  1
  Nb  Nb109  1  0.76831571  0.89520414  0.22189532  1
  Nb  Nb110  1  0.09683390  0.57022205  0.69712883  1
  Nb  Nb111  1  0.12944363  0.69560152  0.86083551  1
  Nb  Nb112  1  0.05106646  0.87080262  0.80305693  1
  Nb  Nb113  1  0.22790273  0.58339382  0.00341494  1
  Nb  Nb114  1  0.95948646  0.98724271  0.94519811  1
  Nb  Nb115  1  0.12527876  0.25327230  0.20365854  1
  Nb  Nb116  1  0.18072245  0.44579424  0.58334607  1
  Nb  Nb117  1  0.23666832  0.71078959  0.32469936  1
  Nb  Nb118  1  0.48255091  0.86235177  0.47686332  1
  Nb  Nb119  1  0.80446537  0.24202155  0.24916755  1
  Nb  Nb120  1  0.58518072  0.62478159  0.24033853  1
  Nb  Nb121  1  0.66724585  0.63439303  0.07405032  1
  Nb  Nb122  1  0.32037467  0.74685709  0.49368044  1
  Nb  Nb123  1  0.64671978  0.31284755  0.32689152  1
  Nb  Nb124  1  0.46552334  0.00166344  0.31137085  1
