# generated using pymatgen
data_Zr2Sc2Nb
_symmetry_space_group_name_H-M   'P 1'
_cell_length_a   14.40968777
_cell_length_b   14.27905190
_cell_length_c   13.97268406
_cell_angle_alpha   89.29036503
_cell_angle_beta   89.08354524
_cell_angle_gamma   90.79025367
_symmetry_Int_Tables_number   1
_chemical_formula_structural   Zr2Sc2Nb
_chemical_formula_sum   'Zr50 Sc50 Nb25'
_cell_volume   2874.10340626
_cell_formula_units_Z   25
loop_
 _symmetry_equiv_pos_site_id
 _symmetry_equiv_pos_as_xyz
  1  'x, y, z'
loop_
 _atom_site_type_symbol
 _atom_site_label
 _atom_site_symmetry_multiplicity
 _atom_site_fract_x
 _atom_site_fract_y
 _atom_site_fract_z
 _atom_site_occupancy
  Zr  Zr0  1  0.44801779  0.78769063  0.67168075  1
  Zr  Zr1  1  0.56109100  0.92838914  0.78976357  1
  Zr  Zr2  1  0.41329913  0.80266059  0.25417597  1
  Zr  Zr3  1  0.84661057  -0.01014570  0.26690054  1
  Zr  Zr4  1  0.64862508  0.28902861  0.09569451  1
  Zr  Zr5  1  0.68833912  0.50546962  0.13190290  1
  Zr  Zr6  1  0.19051522  0.50838091  0.88415409  1
  Zr  Zr7  1  0.85378530  0.78140015  0.26317879  1
  Zr  Zr8  1  0.78376360  0.94009935  0.82083065  1
  Zr  Zr9  1  0.71605856  0.01242632  0.63010427  1
  Zr  Zr10  1  0.38818962  0.91089820  0.92780159  1
  Zr  Zr11  1  0.94204191  0.41531943  0.88835932  1
  Zr  Zr12  1  0.51420225  0.93568153  0.35634325  1
  Zr  Zr13  1  0.60102522  0.11558425  0.23262851  1
  Zr  Zr14  1  0.84954405  0.36064755  0.10485708  1
  Zr  Zr15  1  0.74478084  0.70836137  0.10697460  1
  Zr  Zr16  1  0.30980628  0.26607791  0.35477484  1
  Zr  Zr17  1  0.54490968  0.93774829  0.55544091  1
  Zr  Zr18  1  0.09229662  0.80311750  0.73670300  1
  Zr  Zr19  1  0.81177789  0.20322650  0.27796157  1
  Zr  Zr20  1  0.70569175  0.36141701  0.29993597  1
  Zr  Zr21  1  0.35457622  0.57750369  0.74068023  1
  Zr  Zr22  1  0.16253128  0.11952254  0.20941377  1
  Zr  Zr23  1  0.96314169  0.12711040  0.15617152  1
  Zr  Zr24  1  0.36511819  0.07971817  0.25728450  1
  Zr  Zr25  1  0.16362638  0.60431115  0.68202941  1
  Zr  Zr26  1  0.29541040  0.94376665  0.74362350  1
  Zr  Zr27  1  0.45642973  -0.02983709  0.12124207  1
  Zr  Zr28  1  0.51121750  0.48967616  0.84768306  1
  Zr  Zr29  1  0.66735994  0.09363524  0.43076998  1
  Zr  Zr30  1  0.85724292  0.48427705  0.52546486  1
  Zr  Zr31  1  0.23798520  0.48815505  0.10896222  1
  Zr  Zr32  1  0.54564095  0.78958159  1.06403973  1
  Zr  Zr33  1  0.77044224  0.11589591  0.07233790  1
  Zr  Zr34  1  0.91597683  0.05221173  0.93065133  1
  Zr  Zr35  1  0.86918983  0.12493052  0.71732690  1
  Zr  Zr36  1  0.01428707  0.93285399  0.11110188  1
  Zr  Zr37  1  0.92656839  0.41631284  0.32314635  1
  Zr  Zr38  1  0.70139818  0.78214378  0.91031849  1
  Zr  Zr39  1  0.26798068  0.66373840  0.26834507  1
  Zr  Zr40  1  0.75891267  0.57939915  0.33395263  1
  Zr  Zr41  1  0.02127999  0.63397717  0.85867727  1
  Zr  Zr42  1  0.26672276  0.73385491  0.84546637  1
  Zr  Zr43  1  0.95507280  0.83575689  0.91047742  1
  Zr  Zr44  1  0.95550302  0.84168207  0.44412715  1
  Zr  Zr45  1  0.29815924  0.09236939  0.03742476  1
  Zr  Zr46  1  0.23470471  0.91407154  0.14576062  1
  Zr  Zr47  1  0.48661430  0.71874523  0.86615181  1
  Zr  Zr48  1  0.78945754  0.27902212  0.48466664  1
  Zr  Zr49  1  0.78903622  0.24471871  0.89259328  1
  Sc  Sc50  1  0.20975429  0.10173082  0.42780763  1
  Sc  Sc51  1  0.25424356  0.14605740  0.84100919  1
  Sc  Sc52  1  0.60809618  0.70466953  0.27432128  1
  Sc  Sc53  1  0.04389208  0.44468086  0.69443906  1
  Sc  Sc54  1  0.07066174  0.78452928  0.25469923  1
  Sc  Sc55  1  0.02660031  0.50933026  0.04486222  1
  Sc  Sc56  1  0.19352046  0.33417782  0.52227822  1
  Sc  Sc57  1  0.66923447  0.62391056  0.77422701  1
  Sc  Sc58  1  0.29473435  0.28775206  0.14087602  1
  Sc  Sc59  1  0.63155444  0.49198709  0.47580161  1
  Sc  Sc60  1  0.48006762  0.36993495  0.66851184  1
  Sc  Sc61  1  0.08204436  0.56894524  0.24860170  1
  Sc  Sc62  1  0.68313452  0.43782403  0.68071236  1
  Sc  Sc63  1  0.47858021  0.10952678  0.66681578  1
  Sc  Sc64  1  0.28670746  0.56124174  0.50396260  1
  Sc  Sc65  1  0.12923142  0.92440340  0.55594380  1
  Sc  Sc66  1  0.87391375  0.06790129  0.46531824  1
  Sc  Sc67  1  0.07445408  0.50865542  0.47074238  1
  Sc  Sc68  1  0.03874219  0.11581286  0.57172874  1
  Sc  Sc69  1  0.76562313  0.66964949  0.54638428  1
  Sc  Sc70  1  0.85641516  0.33204541  0.70169319  1
  Sc  Sc71  1  0.15653630  0.30918869  0.95840592  1
  Sc  Sc72  1  0.14260982  0.71747827  0.45843202  1
  Sc  Sc73  1  0.57371583  0.28491528  0.46605690  1
  Sc  Sc74  1  0.34436271  0.97355769  0.53322639  1
  Sc  Sc75  1  0.16895754  0.90293289  0.94167737  1
  Sc  Sc76  1  0.45050083  0.60719138  0.15293980  1
  Sc  Sc77  1  0.47749438  0.41487833  0.08006403  1
  Sc  Sc78  1  0.26617195  0.36863277  0.72079843  1
  Sc  Sc79  1  0.51231693  0.59372362  0.60880373  1
  Sc  Sc80  1  0.66636881  0.90739041  0.20560182  1
  Sc  Sc81  1  0.66533863  0.22212336  0.66088739  1
  Sc  Sc82  1  0.73740471  0.87781506  0.44216702  1
  Sc  Sc83  1  0.46168698  0.10493774  0.88559385  1
  Sc  Sc84  1  0.57552122  0.28424230  0.87439155  1
  Sc  Sc85  1  0.45428277  0.61134739  0.38463692  1
  Sc  Sc86  1  0.15969349  0.68863440  0.04525885  1
  Sc  Sc87  1  0.91969779  0.92107158  0.64341311  1
  Sc  Sc88  1  0.98556429  0.31341603  0.53121255  1
  Sc  Sc89  1  0.85356932  0.74140117  0.75180286  1
  Sc  Sc90  1  0.23120756  0.13589572  0.63933953  1
  Sc  Sc91  1  0.36657990  0.33022371  0.91853870  1
  Sc  Sc92  1  0.62324443  0.99103773  -0.00348645  1
  Sc  Sc93  1  0.06127710  0.32239001  0.15263814  1
  Sc  Sc94  1  0.72274950  0.44552727  0.91311506  1
  Sc  Sc95  1  0.05176377  0.23471207  0.77753969  1
  Sc  Sc96  1  0.02770114  0.21139349  0.35558841  1
  Sc  Sc97  1  0.07645525  0.01697960  0.77837074  1
  Sc  Sc98  1  0.97848834  0.66363545  0.60047333  1
  Sc  Sc99  1  0.23658867  0.89181964  0.35850516  1
  Nb  Nb100  1  0.48815513  0.28360176  0.26683228  1
  Nb  Nb101  1  0.04326221  0.99300279  0.33387963  1
  Nb  Nb102  1  0.86035987  0.53933959  0.74390517  1
  Nb  Nb103  1  0.26196648  0.76827118  0.62337413  1
  Nb  Nb104  1  0.59555393  0.60241516  0.98989569  1
  Nb  Nb105  1  0.36622347  0.57397841  0.96461445  1
  Nb  Nb106  1  0.34556026  0.76133573  0.05519620  1
  Nb  Nb107  1  0.81893362  0.89939814  0.05714310  1
  Nb  Nb108  1  0.54781622  0.46774006  0.28335057  1
  Nb  Nb109  1  0.96093479  0.23796691  0.98233291  1
  Nb  Nb110  1  0.67325144  0.10167698  0.82910891  1
  Nb  Nb111  1  0.34224191  0.46014804  0.28038816  1
  Nb  Nb112  1  0.42167064  0.41310813  0.45644065  1
  Nb  Nb113  1  0.83563688  0.61079051  0.95309682  1
  Nb  Nb114  1  0.66776637  0.80766971  0.66759912  1
  Nb  Nb115  1  0.57755792  0.74911500  0.48204433  1
  Nb  Nb116  1  0.94055500  0.64191509  0.38558541  1
  Nb  Nb117  1  0.15937619  0.39073066  0.31627096  1
  Nb  Nb118  1  0.88503668  0.57068639  0.17803664  1
  Nb  Nb119  1  0.38274114  0.77743067  0.46708067  1
  Nb  Nb120  1  0.95614086  0.72262305  0.07761231  1
  Nb  Nb121  1  0.10429395  0.10178830  -0.00457854  1
  Nb  Nb122  1  0.47537055  0.18762052  0.07803337  1
  Nb  Nb123  1  0.46070750  0.12041749  0.42865362  1
  Nb  Nb124  1  0.37387308  0.24138634  0.54731687  1
