# generated using pymatgen
data_Zr2Sc2Nb
_symmetry_space_group_name_H-M   'P 1'
_cell_length_a   14.26303522
_cell_length_b   13.97748693
_cell_length_c   14.39507485
_cell_angle_alpha   90.48251579
_cell_angle_beta   90.36465877
_cell_angle_gamma   88.92053623
_symmetry_Int_Tables_number   1
_chemical_formula_structural   Zr2Sc2Nb
_chemical_formula_sum   'Zr50 Sc50 Nb25'
_cell_volume   2869.15577528
_cell_formula_units_Z   25
loop_
 _symmetry_equiv_pos_site_id
 _symmetry_equiv_pos_as_xyz
  1  'x, y, z'
loop_
 _atom_site_type_symbol
 _atom_site_label
 _atom_site_symmetry_multiplicity
 _atom_site_fract_x
 _atom_site_fract_y
 _atom_site_fract_z
 _atom_site_occupancy
  Zr  Zr0  1  0.05326404  0.54428006  0.64520973  1
  Zr  Zr1  1  0.54729870  0.28026052  0.73953721  1
  Zr  Zr2  1  0.55924014  0.72105415  0.13441055  1
  Zr  Zr3  1  0.32896556  0.60912391  0.05561232  1
  Zr  Zr4  1  0.15896525  0.30358608  0.89142954  1
  Zr  Zr5  1  0.31457814  1.01645466  0.29019942  1
  Zr  Zr6  1  0.42246853  0.14666416  0.41928280  1
  Zr  Zr7  1  0.67782896  0.63421679  0.28912654  1
  Zr  Zr8  1  0.16514124  0.30592676  0.09827293  1
  Zr  Zr9  1  0.44538388  0.36500933  0.33926091  1
  Zr  Zr10  1  0.65087767  0.41424080  0.24623717  1
  Zr  Zr11  1  0.29576271  0.24409811  0.25791618  1
  Zr  Zr12  1  0.09064225  0.49969280  0.22097574  1
  Zr  Zr13  1  0.55582887  0.07230330  0.82298182  1
  Zr  Zr14  1  0.61973244  0.47248183  0.81734679  1
  Zr  Zr15  1  0.89445319  0.66222982  0.23260619  1
  Zr  Zr16  1  0.87285669  0.04256912  0.80511842  1
  Zr  Zr17  1  0.98573842  0.08141545  0.34231380  1
  Zr  Zr18  1  0.71570413  0.09819115  0.69899276  1
  Zr  Zr19  1  0.48821832  0.11434944  0.21947412  1
  Zr  Zr20  1  0.43483417  0.68582567  0.53952081  1
  Zr  Zr21  1  0.84321105  0.73485131  0.42651572  1
  Zr  Zr22  1  0.53967822  0.31831808  0.52454236  1
  Zr  Zr23  1  0.23692894  0.03242066  0.72909715  1
  Zr  Zr24  1  0.75769668  0.04651439  0.32062815  1
  Zr  Zr25  1  0.21336043  0.24771308  0.69668117  1
  Zr  Zr26  1  0.72570602  0.66357464  0.73888005  1
  Zr  Zr27  1  0.55645150  0.28961303  0.94557928  1
  Zr  Zr28  1  0.34328108  0.38201158  -0.01668220  1
  Zr  Zr29  1  0.90343968  0.71869736  1.00051231  1
  Zr  Zr30  1  0.74588577  0.56185578  0.11253304  1
  Zr  Zr31  1  0.99647627  0.87650104  0.86222601  1
  Zr  Zr32  1  0.30796889  0.72702110  0.84310557  1
  Zr  Zr33  1  0.08021743  0.12939405  0.58152029  1
  Zr  Zr34  1  0.02031523  0.75084663  0.56201751  1
  Zr  Zr35  1  0.60327787  0.90628491  0.95994422  1
  Zr  Zr36  1  0.50319051  0.74981702  0.35023042  1
  Zr  Zr37  1  0.06397806  0.91348944  0.04576531  1
  Zr  Zr38  1  0.09335812  0.34580230  0.51612587  1
  Zr  Zr39  1  0.87419899  0.10335448  0.15298561  1
  Zr  Zr40  1  0.74329880  0.28128535  0.83902019  1
  Zr  Zr41  1  0.93318001  0.68354961  0.78115709  1
  Zr  Zr42  1  0.92030264  0.23618421  0.46762486  1
  Zr  Zr43  1  0.46917978  0.48314788  0.64326706  1
  Zr  Zr44  1  0.32118294  0.01012918  0.52557393  1
  Zr  Zr45  1  0.93782707  0.29481289  0.88105175  1
  Zr  Zr46  1  0.54909429  0.50338321  0.03908293  1
  Zr  Zr47  1  0.46071884  0.75893461  0.95946149  1
  Zr  Zr48  1  0.51669274  0.69428965  0.73998356  1
  Zr  Zr49  1  0.21960384  0.42683580  0.37186693  1
  Sc  Sc50  1  0.04847229  0.29279314  0.29201441  1
  Sc  Sc51  1  0.18552180  0.15757356  0.40735392  1
  Sc  Sc52  1  0.84445938  0.93915783  0.01705802  1
  Sc  Sc53  1  0.73882282  0.15208308  0.49694835  1
  Sc  Sc54  1  0.00493426  0.54787311  0.42604954  1
  Sc  Sc55  1  0.09459647  0.70373440  0.14233510  1
  Sc  Sc56  1  0.26417180  0.83018681  0.06249875  1
  Sc  Sc57  1  0.84246684  0.84731145  0.64719954  1
  Sc  Sc58  1  0.45351253  0.90971951  0.15042023  1
  Sc  Sc59  1  0.25985452  0.82270025  0.62178035  1
  Sc  Sc60  1  0.73250988  0.12013092  0.96636543  1
  Sc  Sc61  1  0.17768043  0.07763510  0.93801282  1
  Sc  Sc62  1  0.91037247  0.92089053  0.43549729  1
  Sc  Sc63  1  0.77380331  0.83852086  0.85479709  1
  Sc  Sc64  1  0.32356671  0.13356241  0.08104413  1
  Sc  Sc65  1  0.11435256  0.69218180  0.94063926  1
  Sc  Sc66  1  0.06328480  0.74584691  0.35352283  1
  Sc  Sc67  1  0.55774001  0.06502775  0.56319357  1
  Sc  Sc68  1  0.85031545  0.45913017  0.73711861  1
  Sc  Sc69  1  0.65364227  0.72137190  0.52522078  1
  Sc  Sc70  1  0.31246495  0.82829239  0.39818111  1
  Sc  Sc71  1  0.87419790  0.45144483  0.26482687  1
  Sc  Sc72  1  0.42652090  0.54416426  0.86482068  1
  Sc  Sc73  1  0.11188338  0.10900501  0.16756365  1
  Sc  Sc74  1  0.36682130  0.18380869  0.87109934  1
  Sc  Sc75  1  0.26625587  0.63716584  0.28217670  1
  Sc  Sc76  1  0.40500513  0.15310766  0.66278034  1
  Sc  Sc77  1  0.67500793  0.51330748  0.60211786  1
  Sc  Sc78  1  0.01423790  0.50122357  0.87434751  1
  Sc  Sc79  1  0.94803052  0.32490712  0.09307863  1
  Sc  Sc80  1  0.48326385  0.31620288  0.13647368  1
  Sc  Sc81  1  0.97957604  0.11424571  0.98026137  1
  Sc  Sc82  1  0.32528106  0.30238579  0.52077274  1
  Sc  Sc83  1  0.41934482  0.90106131  0.73836532  1
  Sc  Sc84  1  0.13997661  0.90931396  0.24824988  1
  Sc  Sc85  1  0.69973356  0.84181044  0.30620674  1
  Sc  Sc86  1  0.80386966  0.49855900  0.92933066  1
  Sc  Sc87  1  0.91523220  0.88215500  0.21500688  1
  Sc  Sc88  1  0.37900567  0.96710408  0.93505647  1
  Sc  Sc89  1  0.20141848  0.63936640  0.49891932  1
  Sc  Sc90  1  0.46568502  0.55597324  0.24125092  1
  Sc  Sc91  1  0.65476605  0.67170703  0.93873351  1
  Sc  Sc92  1  0.72416384  0.31424686  0.63259627  1
  Sc  Sc93  1  0.12419882  0.93989276  0.46647927  1
  Sc  Sc94  1  0.05529403  0.92831804  0.67674779  1
  Sc  Sc95  1  0.66257752  0.98061582  0.14552076  1
  Sc  Sc96  1  0.63045836  0.88579189  0.69588898  1
  Sc  Sc97  1  0.21091420  0.51064491  0.82335199  1
  Sc  Sc98  1  0.81819034  0.25426490  0.27848750  1
  Sc  Sc99  1  0.61018445  0.21340019  0.34689871  1
  Nb  Nb100  1  0.96098179  0.53808825  0.07234586  1
  Nb  Nb101  1  0.89969837  0.22765826  0.67821899  1
  Nb  Nb102  1  0.12973363  0.71309229  0.73528431  1
  Nb  Nb103  1  0.30092508  0.44223569  0.17884480  1
  Nb  Nb104  1  0.37337834  0.51505916  0.46130601  1
  Nb  Nb105  1  0.86209999  0.62155586  0.59296887  1
  Nb  Nb106  1  0.89229785  0.41783390  0.54873501  1
  Nb  Nb107  1  0.52483283  0.10030725  0.02287351  1
  Nb  Nb108  1  0.48886003  0.87540743  0.53008057  1
  Nb  Nb109  1  0.56724552  0.52717718  0.42925490  1
  Nb  Nb110  1  0.31362559  0.61078127  0.67775616  1
  Nb  Nb111  1  0.15706499  0.49635823  0.03154701  1
  Nb  Nb112  1  0.70782023  0.93361015  0.50105638  1
  Nb  Nb113  1  0.89487227  0.04851620  0.58844308  1
  Nb  Nb114  1  0.74358069  0.77897050  0.10523474  1
  Nb  Nb115  1  0.04517636  0.35200171  0.71022811  1
  Nb  Nb116  1  0.23474532  0.45333710  0.61524206  1
  Nb  Nb117  1  0.04949119  0.13262835  0.77815802  1
  Nb  Nb118  1  0.78324677  0.54715104  0.42519864  1
  Nb  Nb119  1  0.72740779  0.36775468  0.43320983  1
  Nb  Nb120  1  0.66622852  0.19741594  0.14803428  1
  Nb  Nb121  1  0.19338720  0.88370299  0.85306221  1
  Nb  Nb122  1  0.35974988  0.36989801  0.76230972  1
  Nb  Nb123  1  0.53393188  0.96924955  0.36424353  1
  Nb  Nb124  1  0.73449193  0.34468334  0.05557868  1
