# generated using pymatgen
data_Zr2Sc2Nb
_symmetry_space_group_name_H-M   'P 1'
_cell_length_a   14.17406886
_cell_length_b   14.27145560
_cell_length_c   14.25163543
_cell_angle_alpha   89.99735288
_cell_angle_beta   91.76358961
_cell_angle_gamma   89.60940425
_symmetry_Int_Tables_number   1
_chemical_formula_structural   Zr2Sc2Nb
_chemical_formula_sum   'Zr50 Sc50 Nb25'
_cell_volume   2881.45367432
_cell_formula_units_Z   25
loop_
 _symmetry_equiv_pos_site_id
 _symmetry_equiv_pos_as_xyz
  1  'x, y, z'
loop_
 _atom_site_type_symbol
 _atom_site_label
 _atom_site_symmetry_multiplicity
 _atom_site_fract_x
 _atom_site_fract_y
 _atom_site_fract_z
 _atom_site_occupancy
  Zr  Zr0  1  0.26071848  0.03702886  0.06709080  1
  Zr  Zr1  1  0.75545554  0.48688042  0.86152793  1
  Zr  Zr2  1  0.50202056  0.45489643  0.33571535  1
  Zr  Zr3  1  0.05193155  0.59628731  0.16585710  1
  Zr  Zr4  1  0.87118974  0.13996971  0.09641740  1
  Zr  Zr5  1  0.47880010  0.79974790  0.21591731  1
  Zr  Zr6  1  0.53819845  0.95632812  0.82488842  1
  Zr  Zr7  1  0.05770604  0.92632123  0.77405803  1
  Zr  Zr8  1  0.25454096  0.87638512  0.91226537  1
  Zr  Zr9  1  0.11693605  0.53725845  0.74156012  1
  Zr  Zr10  1  0.36699599  0.37798459  0.10180270  1
  Zr  Zr11  1  0.63034241  0.41707948  0.63069592  1
  Zr  Zr12  1  0.75378364  0.04115442  0.85827941  1
  Zr  Zr13  1  0.90071413  0.49151196  0.25919960  1
  Zr  Zr14  1  0.47323022  0.49905512  0.76278516  1
  Zr  Zr15  1  0.87381485  0.62500625  0.55838113  1
  Zr  Zr16  1  0.26073440  1.00137214  0.72902121  1
  Zr  Zr17  1  0.24875370  0.43469475  0.90400050  1
  Zr  Zr18  1  0.35869579  0.87690901  0.35718829  1
  Zr  Zr19  1  0.63570839  0.57195261  0.46791790  1
  Zr  Zr20  1  0.39198315  0.82978269  0.74541917  1
  Zr  Zr21  1  0.82101467  0.26076716  0.31646100  1
  Zr  Zr22  1  0.89655242  0.48972438  0.03602679  1
  Zr  Zr23  1  0.15290630  0.74293826  0.06574860  1
  Zr  Zr24  1  0.76300740  0.67713670  0.93721311  1
  Zr  Zr25  1  0.05267588  0.31747841  0.94556515  1
  Zr  Zr26  1  0.85505788  0.92673483  0.04918864  1
  Zr  Zr27  1  0.63303874  0.64952320  0.26783484  1
  Zr  Zr28  1  0.84470772  0.44712829  0.68189701  1
  Zr  Zr29  1  0.45718731  0.52386173  0.96889892  1
  Zr  Zr30  1  0.30462214  0.17616527  0.60102034  1
  Zr  Zr31  1  0.15158826  0.08906996  0.46732916  1
  Zr  Zr32  1  0.70087125  0.24457309  0.71529777  1
  Zr  Zr33  1  0.89582229  0.65555454  0.76765665  1
  Zr  Zr34  1  0.96296324  0.19156259  0.50860851  1
  Zr  Zr35  1  0.66748731  0.86167471  0.94483514  1
  Zr  Zr36  1  0.73152677  0.13405628  0.46911408  1
  Zr  Zr37  1  0.14536001  0.30476278  0.53514429  1
  Zr  Zr38  1  0.99610313  0.14276728  0.29604166  1
  Zr  Zr39  1  0.19902917  0.78590079  0.71195620  1
  Zr  Zr40  1  0.30461447  0.44876817  0.27790397  1
  Zr  Zr41  1  0.58311159  0.69881114  0.05070715  1
  Zr  Zr42  1  0.26218053  0.67430858  0.26612597  1
  Zr  Zr43  1  0.97489308  0.32083486  0.16650161  1
  Zr  Zr44  1  0.16346444  0.26063295  0.32190883  1
  Zr  Zr45  1  0.81243222  0.45570433  0.45145033  1
  Zr  Zr46  1  0.24696765  0.52682060  0.47627300  1
  Zr  Zr47  1  0.06268687  0.90680838  0.98629386  1
  Zr  Zr48  1  0.90983103  0.83775836  0.64571550  1
  Zr  Zr49  1  0.46650479  0.25181783  0.28966519  1
  Sc  Sc50  1  0.64231887  0.32953833  0.42595290  1
  Sc  Sc51  1  0.88254963  0.85629702  0.86215486  1
  Sc  Sc52  1  0.03522306  0.97641434  0.17222145  1
  Sc  Sc53  1  0.10670732  0.90275926  0.55729790  1
  Sc  Sc54  1  0.37447423  0.10208900  0.87929109  1
  Sc  Sc55  1  0.00616942  0.31359653  0.71270812  1
  Sc  Sc56  1  0.25769885  0.74090282  0.49538476  1
  Sc  Sc57  1  0.93674523  0.78474409  0.21782917  1
  Sc  Sc58  1  0.61748332  0.97220701  0.28894670  1
  Sc  Sc59  1  0.93627135  0.79693190  0.44776993  1
  Sc  Sc60  1  0.65268857  0.18638041  0.22286162  1
  Sc  Sc61  1  0.82263313  1.01013902  0.25956123  1
  Sc  Sc62  1  0.10961949  0.46045329  0.31630671  1
  Sc  Sc63  1  0.49634094  0.67440824  0.59680965  1
  Sc  Sc64  1  0.46138069  0.92900042  0.03081424  1
  Sc  Sc65  1  0.53836056  0.69918222  0.83656727  1
  Sc  Sc66  1  0.70985131  0.83586404  0.73441664  1
  Sc  Sc67  1  0.42347480  0.03418442  0.22882048  1
  Sc  Sc68  1  0.29016716  0.40613103  0.66487089  1
  Sc  Sc69  1  0.54295345  0.88055269  0.61185975  1
  Sc  Sc70  1  0.20711888  0.04183468  0.27323230  1
  Sc  Sc71  1  0.46746858  0.28361677  0.72451865  1
  Sc  Sc72  1  0.27735128  0.64744602  0.87348343  1
  Sc  Sc73  1  0.86206413  0.08513375  0.67350600  1
  Sc  Sc74  1  0.34283698  0.32814287  0.44955815  1
  Sc  Sc75  1  0.13085393  0.84764341  0.33416756  1
  Sc  Sc76  1  0.58187312  0.15918115  0.87389332  1
  Sc  Sc77  1  0.46699373  0.17220176  0.07011413  1
  Sc  Sc78  1  0.70663902  0.83073849  0.15423216  1
  Sc  Sc79  1  0.65971985  0.04263604  0.06135984  1
  Sc  Sc80  1  0.02685670  0.47677735  0.54715678  1
  Sc  Sc81  1  0.15348163  0.08860369  0.89406196  1
  Sc  Sc82  1  0.22735130  0.25264727  0.78645761  1
  Sc  Sc83  1  0.84521827  0.28367351  0.87194816  1
  Sc  Sc84  1  0.55923027  0.79540592  0.41619419  1
  Sc  Sc85  1  0.08627606  0.11407828  0.67336192  1
  Sc  Sc86  1  0.68548554  0.61310441  0.69652646  1
  Sc  Sc87  1  0.75846220  0.32190560  0.07032869  1
  Sc  Sc88  1  0.31020026  0.61410138  0.66338366  1
  Sc  Sc89  1  0.60511207  0.36808937  0.89782430  1
  Sc  Sc90  1  0.45760593  0.57379431  0.17331456  1
  Sc  Sc91  1  0.70048653  0.44414765  0.24838549  1
  Sc  Sc92  1  0.95412002  0.09077961  0.90983481  1
  Sc  Sc93  1  0.32940305  0.95228252  0.54497978  1
  Sc  Sc94  1  0.93007765  -0.00238536  0.45108162  1
  Sc  Sc95  1  0.52318826  0.02690127  0.46225300  1
  Sc  Sc96  1  0.05389632  0.64088783  0.39461256  1
  Sc  Sc97  1  0.37165320  0.73260878  0.03858787  1
  Sc  Sc98  1  0.73802062  0.93854811  0.52481723  1
  Sc  Sc99  1  0.52124054  0.21869495  0.53909248  1
  Nb  Nb100  1  0.27288032  0.86983699  0.16533850  1
  Nb  Nb101  1  0.34419073  0.12574863  0.40262282  1
  Nb  Nb102  1  0.95064764  0.70352995  1.00406594  1
  Nb  Nb103  1  0.45213716  0.47468041  0.54371860  1
  Nb  Nb104  1  0.82035598  0.64440204  0.35535955  1
  Nb  Nb105  1  0.81557800  0.29488160  0.55961332  1
  Nb  Nb106  1  0.75848893  0.82177808  0.34967283  1
  Nb  Nb107  1  0.29155366  0.21456659  0.19346563  1
  Nb  Nb108  1  0.24967313  0.24093704  0.99982378  1
  Nb  Nb109  1  0.55552527  0.36392573  0.11420430  1
  Nb  Nb110  1  0.06799948  0.72094137  0.84798019  1
  Nb  Nb111  1  0.42246338  0.63450409  0.39124270  1
  Nb  Nb112  1  0.66487860  0.51880650  0.05486707  1
  Nb  Nb113  1  0.64467658  0.06125513  0.66634282  1
  Nb  Nb114  1  0.25876402  0.55844462  0.08747500  1
  Nb  Nb115  1  0.96329926  0.48752537  0.85188345  1
  Nb  Nb116  1  0.09693698  0.55225200  0.96947503  1
  Nb  Nb117  1  0.97626586  0.34293986  0.39510919  1
  Nb  Nb118  1  0.09524605  0.16790412  0.10172502  1
  Nb  Nb119  1  0.06407717  0.68934313  0.61059331  1
  Nb  Nb120  1  0.41505775  0.31548169  0.91651863  1
  Nb  Nb121  1  0.72320893  0.74299313  0.53492092  1
  Nb  Nb122  1  0.15516505  0.38817939  0.11567452  1
  Nb  Nb123  1  0.80075515  0.64140478  0.14525823  1
  Nb  Nb124  1  0.45631497  0.06748839  0.67996244  1
