# generated using pymatgen
data_Zr2Sc2Nb
_symmetry_space_group_name_H-M   'P 1'
_cell_length_a   14.52919340
_cell_length_b   14.18705420
_cell_length_c   13.98121617
_cell_angle_alpha   87.32613848
_cell_angle_beta   90.67667736
_cell_angle_gamma   89.73046794
_symmetry_Int_Tables_number   1
_chemical_formula_structural   Zr2Sc2Nb
_chemical_formula_sum   'Zr50 Sc50 Nb25'
_cell_volume   2878.52027529
_cell_formula_units_Z   25
loop_
 _symmetry_equiv_pos_site_id
 _symmetry_equiv_pos_as_xyz
  1  'x, y, z'
loop_
 _atom_site_type_symbol
 _atom_site_label
 _atom_site_symmetry_multiplicity
 _atom_site_fract_x
 _atom_site_fract_y
 _atom_site_fract_z
 _atom_site_occupancy
  Zr  Zr0  1  0.22223583  0.58873885  0.87802651  1
  Zr  Zr1  1  0.54889623  0.95482070  0.17700097  1
  Zr  Zr2  1  0.30141468  0.35879107  0.77279286  1
  Zr  Zr3  1  0.63839278  0.95426236  0.97927269  1
  Zr  Zr4  1  0.05069738  0.79078078  0.89885407  1
  Zr  Zr5  1  0.62169264  0.32433363  0.37395839  1
  Zr  Zr6  1  0.04336586  0.29922399  0.28657620  1
  Zr  Zr7  1  0.59074198  0.12596785  0.87146991  1
  Zr  Zr8  1  0.21411538  0.13620862  0.22908090  1
  Zr  Zr9  1  0.60110378  0.13820705  0.27309115  1
  Zr  Zr10  1  0.50232291  0.02729085  0.67454837  1
  Zr  Zr11  1  0.35997094  0.44558744  0.97023368  1
  Zr  Zr12  1  0.05662081  0.88937739  0.49709017  1
  Zr  Zr13  1  0.28829690  0.19098757  0.94303916  1
  Zr  Zr14  1  0.92306020  0.44610941  0.54627553  1
  Zr  Zr15  1  0.39992349  0.50658280  0.60499625  1
  Zr  Zr16  1  0.88220649  0.80548445  0.46810003  1
  Zr  Zr17  1  0.54495517  0.84200280  0.59990881  1
  Zr  Zr18  1  0.68172414  0.80573382  0.14157545  1
  Zr  Zr19  1  0.05561662  0.63917403  0.51071302  1
  Zr  Zr20  1  0.21671986  0.77253976  0.56124476  1
  Zr  Zr21  1  0.18570385  0.49191684  0.09506327  1
  Zr  Zr22  1  0.67280179  0.13707187  0.66648302  1
  Zr  Zr23  1  0.34736785  0.80720330  0.18564730  1
  Zr  Zr24  1  0.89624899  0.03352134  0.46657132  1
  Zr  Zr25  1  0.86706983  0.64741399  0.84963469  1
  Zr  Zr26  1  0.99545628  0.01547308  0.84806331  1
  Zr  Zr27  1  0.83006690  0.51301268  0.23959591  1
  Zr  Zr28  1  0.27664390  0.80861218  0.92066547  1
  Zr  Zr29  1  0.69684247  0.94935315  0.77502539  1
  Zr  Zr30  1  0.32912444  0.32519168  0.54773139  1
  Zr  Zr31  1  0.41216681  0.70693392  0.51870290  1
  Zr  Zr32  1  0.03581196  0.91930790  0.05867714  1
  Zr  Zr33  1  0.84978047  0.74278982  0.25499780  1
  Zr  Zr34  1  0.87331099  0.07117967  0.66433723  1
  Zr  Zr35  1  0.15816391  0.37895132  0.90765803  1
  Zr  Zr36  1  0.54270568  1.01208376  0.43864064  1
  Zr  Zr37  1  1.00327087  0.10494118  0.18075026  1
  Zr  Zr38  1  -0.01046343  0.45085322  0.12115240  1
  Zr  Zr39  1  0.33868109  0.64689774  0.05906403  1
  Zr  Zr40  1  0.34102420  0.09828831  0.54934085  1
  Zr  Zr41  1  0.02624195  0.47255050  0.73714446  1
  Zr  Zr42  1  0.46946601  0.64474928  0.91070748  1
  Zr  Zr43  1  0.26321321  0.12872267  0.73983099  1
  Zr  Zr44  1  0.56112596  0.39232033  0.57827417  1
  Zr  Zr45  1  0.38789227  0.21087664  0.34616475  1
  Zr  Zr46  1  1.02703715  0.55849391  0.93316383  1
  Zr  Zr47  1  0.84917276  0.31150353  0.35321811  1
  Zr  Zr48  1  0.56257101  0.48807597  0.04203220  1
  Zr  Zr49  1  0.79395505  0.11469334  0.86198226  1
  Sc  Sc50  1  0.92896898  0.25848052  0.72846662  1
  Sc  Sc51  1  0.08382240  0.09191213  0.60769835  1
  Sc  Sc52  1  0.43773705  0.11596112  0.09945732  1
  Sc  Sc53  1  0.95559461  0.92667927  0.29001140  1
  Sc  Sc54  1  0.18652106  0.21811104  0.44468820  1
  Sc  Sc55  1  0.67882826  0.53429728  0.86616616  1
  Sc  Sc56  1  0.40850475  0.01310068  0.89697379  1
  Sc  Sc57  1  0.25708718  0.57539141  0.44322463  1
  Sc  Sc58  1  0.88764375  0.63903372  0.63373382  1
  Sc  Sc59  1  0.95593143  0.33826177  0.92859875  1
  Sc  Sc60  1  0.07303256  0.75048903  0.31899867  1
  Sc  Sc61  1  0.84492458  0.86715141  0.92394501  1
  Sc  Sc62  1  0.72784790  0.93026650  0.32803036  1
  Sc  Sc63  1  0.70077570  0.13965186  0.08294575  1
  Sc  Sc64  1  0.66140199  0.32541200  0.76632505  1
  Sc  Sc65  1  0.37229282  -0.00566403  0.28971155  1
  Sc  Sc66  1  0.49009134  0.45563651  0.79997151  1
  Sc  Sc67  1  0.69783942  0.71510117  0.50283819  1
  Sc  Sc68  1  0.51190027  0.83846945  0.81599021  1
  Sc  Sc69  1  0.71609256  0.52260375  0.63699392  1
  Sc  Sc70  1  0.49614787  0.31668843  0.18896632  1
  Sc  Sc71  1  0.20472402  0.53003601  0.65350161  1
  Sc  Sc72  1  0.91034062  0.68213516  0.06530383  1
  Sc  Sc73  1  0.21179951  0.99441279  0.42575503  1
  Sc  Sc74  1  0.13815424  0.72859424  0.09322257  1
  Sc  Sc75  1  0.52159774  0.81261533  0.34895016  1
  Sc  Sc76  1  0.12534365  0.90510145  0.71502063  1
  Sc  Sc77  1  0.66387678  0.73422562  0.94077047  1
  Sc  Sc78  1  0.77331208  0.30878579  0.57800715  1
  Sc  Sc79  1  0.50534308  0.28744006  0.96370354  1
  Sc  Sc80  1  0.72340042  0.75077831  0.72167041  1
  Sc  Sc81  1  0.72495118  0.14330600  0.45457729  1
  Sc  Sc82  1  0.08067671  0.68836180  0.72685476  1
  Sc  Sc83  1  0.54981136  0.63939920  0.68983747  1
  Sc  Sc84  1  0.70498813  0.35403744  0.16733390  1
  Sc  Sc85  1  0.91417560  0.85534625  0.69600221  1
  Sc  Sc86  1  0.11179137  0.41374134  0.48119913  1
  Sc  Sc87  1  0.46002318  0.23511518  0.72832858  1
  Sc  Sc88  1  0.82628688  0.97077062  0.11677464  1
  Sc  Sc89  1  0.73118750  0.48408262  0.43010739  1
  Sc  Sc90  1  0.51753858  0.20417056  0.51576233  1
  Sc  Sc91  1  0.04420719  0.53793853  0.30782507  1
  Sc  Sc92  1  0.13103201  0.29757846  0.66283682  1
  Sc  Sc93  1  0.74658907  0.30850903  0.95372379  1
  Sc  Sc94  1  0.42399495  0.63269032  0.31573240  1
  Sc  Sc95  1  0.72639487  0.93524935  0.56198494  1
  Sc  Sc96  1  0.29713974  0.29981229  0.12203896  1
  Sc  Sc97  1  0.24414836  0.39916337  0.30474056  1
  Sc  Sc98  1  0.32884845  0.91467394  0.70545298  1
  Sc  Sc99  1  0.34211420  0.69570015  0.73249100  1
  Nb  Nb100  1  0.82788039  0.48526013  0.00941428  1
  Nb  Nb101  1  0.19341456  0.98867570  0.88924165  1
  Nb  Nb102  1  0.58775880  0.50312404  0.25937362  1
  Nb  Nb103  1  0.38311955  0.90562603  0.49665258  1
  Nb  Nb104  1  0.23477792  0.62127446  0.24439428  1
  Nb  Nb105  1  0.93232001  0.13639104  -0.00298099  1
  Nb  Nb106  1  0.88386954  0.27843838  0.13086743  1
  Nb  Nb107  1  0.15834766  0.93764920  0.22864704  1
  Nb  Nb108  1  0.04403020  0.09866086  0.37189523  1
  Nb  Nb109  1  0.87677195  0.61783889  0.41419674  1
  Nb  Nb110  1  0.67182456  0.66248668  0.30569443  1
  Nb  Nb111  1  0.55448256  0.57115449  0.46721935  1
  Nb  Nb112  1  0.13619363  0.09172447  1.03468945  1
  Nb  Nb113  1  0.09617551  0.18935569  0.85481370  1
  Nb  Nb114  1  0.71255238  0.60354422  0.10725441  1
  Nb  Nb115  1  0.83081689  0.12780171  0.27211019  1
  Nb  Nb116  1  0.43882675  0.42409225  0.39043381  1
  Nb  Nb117  1  0.84356672  0.44575097  0.78394644  1
  Nb  Nb118  1  0.27070208  0.79545408  0.36597239  1
  Nb  Nb119  1  0.39238866  0.49168606  0.17915078  1
  Nb  Nb120  1  0.46980651  0.83499043  0.02446962  1
  Nb  Nb121  1  0.52781958  0.67521944  0.13836813  1
  Nb  Nb122  1  0.09376074  0.27323782  0.07668770  1
  Nb  Nb123  1  0.96975497  0.23691616  0.50349597  1
  Nb  Nb124  1  0.28573157  -0.03234779  0.07257704  1
