# generated using pymatgen
data_Zr2Sc2Nb
_symmetry_space_group_name_H-M   'P 1'
_cell_length_a   14.56596785
_cell_length_b   14.22600876
_cell_length_c   13.92125194
_cell_angle_alpha   89.95029032
_cell_angle_beta   90.09151908
_cell_angle_gamma   89.35315101
_symmetry_Int_Tables_number   1
_chemical_formula_structural   Zr2Sc2Nb
_chemical_formula_sum   'Zr50 Sc50 Nb25'
_cell_volume   2884.51173715
_cell_formula_units_Z   25
loop_
 _symmetry_equiv_pos_site_id
 _symmetry_equiv_pos_as_xyz
  1  'x, y, z'
loop_
 _atom_site_type_symbol
 _atom_site_label
 _atom_site_symmetry_multiplicity
 _atom_site_fract_x
 _atom_site_fract_y
 _atom_site_fract_z
 _atom_site_occupancy
  Zr  Zr0  1  0.84005490  0.70904891  0.79801827  1
  Zr  Zr1  1  0.47754341  0.84833790  0.87345740  1
  Zr  Zr2  1  0.12705717  0.38156557  0.90342918  1
  Zr  Zr3  1  0.18774115  0.85725015  0.15093990  1
  Zr  Zr4  1  0.71591421  0.23225817  0.26347824  1
  Zr  Zr5  1  0.62050175  0.66177245  0.04263615  1
  Zr  Zr6  1  0.18724987  0.13931252  0.52303887  1
  Zr  Zr7  1  0.68715594  0.93442415  0.54170047  1
  Zr  Zr8  1  0.10541357  0.16497977  0.91193099  1
  Zr  Zr9  1  0.81549502  0.74319637  1.00866909  1
  Zr  Zr10  1  0.10550475  0.05443214  0.72081854  1
  Zr  Zr11  1  0.65023364  0.44479455  0.09222860  1
  Zr  Zr12  1  0.69015948  0.69341198  0.23834874  1
  Zr  Zr13  1  0.86169269  0.83125444  0.58816961  1
  Zr  Zr14  1  0.35485594  0.64272809  0.56808764  1
  Zr  Zr15  1  0.28823399  0.98826276  0.84285084  1
  Zr  Zr16  1  0.02025264  0.74145356  0.90158319  1
  Zr  Zr17  1  0.56706508  0.73231026  0.43254004  1
  Zr  Zr18  1  0.06708860  0.02980193  0.18010356  1
  Zr  Zr19  1  0.29808364  0.23191821  0.94840587  1
  Zr  Zr20  1  0.10382256  0.32495559  0.48474565  1
  Zr  Zr21  1  0.97233364  0.16731543  0.58437014  1
  Zr  Zr22  1  0.42253771  0.47121229  0.66817310  1
  Zr  Zr23  1  0.04338753  0.54073173  0.76143269  1
  Zr  Zr24  1  0.77045861  0.82849817  0.38863681  1
  Zr  Zr25  1  0.92797697  0.12708914  0.80762467  1
  Zr  Zr26  1  0.86956348  0.59995794  0.62355109  1
  Zr  Zr27  1  0.64657279  0.24094266  0.04978646  1
  Zr  Zr28  1  0.54092857  0.51166226  0.90008452  1
  Zr  Zr29  1  0.08351441  0.75670957  0.29989984  1
  Zr  Zr30  1  0.96271519  0.91435176  0.33088605  1
  Zr  Zr31  1  0.15525043  0.52390591  0.28854989  1
  Zr  Zr32  1  0.22504353  0.63973620  0.74739524  1
  Zr  Zr33  1  0.41192772  0.60415576  0.35874273  1
  Zr  Zr34  1  0.56852889  0.54612546  0.52794718  1
  Zr  Zr35  1  0.24171497  0.68978536  0.37851807  1
  Zr  Zr36  1  0.22076246  0.43043335  0.69706852  1
  Zr  Zr37  1  0.96956449  0.86365442  0.10799031  1
  Zr  Zr38  1  0.35932904  0.89233569  0.04179068  1
  Zr  Zr39  1  0.27931269  0.64138276  0.14794390  1
  Zr  Zr40  1  0.41914087  0.67840085  0.97913775  1
  Zr  Zr41  1  0.27179320  -0.03145851  0.61094986  1
  Zr  Zr42  1  0.24350301  0.06476015  0.06084844  1
  Zr  Zr43  1  0.96172083  0.56426779  0.29748624  1
  Zr  Zr44  1  0.77952490  0.24248546  0.67833583  1
  Zr  Zr45  1  0.77365087  0.61986353  0.42999898  1
  Zr  Zr46  1  0.91092103  0.12567247  0.02939312  1
  Zr  Zr47  1  0.55841811  0.88927534  0.30858545  1
  Zr  Zr48  1  0.95612220  0.54196173  0.94166719  1
  Zr  Zr49  1  0.69460730  0.06650262  0.11245520  1
  Sc  Sc50  1  0.10937207  0.23584042  0.11331421  1
  Sc  Sc51  1  0.14204847  0.85202558  0.75457533  1
  Sc  Sc52  1  0.52577534  0.13055108  0.29001574  1
  Sc  Sc53  1  0.51681722  0.32746688  0.22964717  1
  Sc  Sc54  1  0.84124064  0.32918571  0.10099726  1
  Sc  Sc55  1  0.05091091  0.65991608  0.10887137  1
  Sc  Sc56  1  0.52311803  1.00856118  0.47832016  1
  Sc  Sc57  1  0.90769894  0.32618990  0.89015322  1
  Sc  Sc58  1  0.04097906  0.94719535  0.53751024  1
  Sc  Sc59  1  0.38030903  0.84455504  0.47087699  1
  Sc  Sc60  1  0.73172445  0.11733760  0.87807243  1
  Sc  Sc61  1  0.85825847  0.03917416  0.45635160  1
  Sc  Sc62  1  0.66410275  0.33439784  0.85304171  1
  Sc  Sc63  1  0.97809175  0.31646388  0.28470954  1
  Sc  Sc64  1  0.44057750  0.28730998  0.78868334  1
  Sc  Sc65  1  0.46201585  0.33765806  0.01489346  1
  Sc  Sc66  1  0.09126113  0.27387459  0.71665667  1
  Sc  Sc67  1  0.54369075  0.86838666  0.10657057  1
  Sc  Sc68  1  0.04324725  0.44109655  0.11164361  1
  Sc  Sc69  1  0.65940162  0.91898578  0.95444421  1
  Sc  Sc70  1  0.85005820  0.26091093  0.44400798  1
  Sc  Sc71  1  0.17595363  0.78228856  0.55072325  1
  Sc  Sc72  1  0.10657894  0.57490292  0.53991299  1
  Sc  Sc73  1  0.83252987  0.55812627  0.12426079  1
  Sc  Sc74  1  0.47710588  0.07396596  0.85573105  1
  Sc  Sc75  1  0.32997244  0.28548012  0.58299487  1
  Sc  Sc76  1  0.58264445  0.33093415  0.63275641  1
  Sc  Sc77  1  0.94515694  0.46189828  0.46978376  1
  Sc  Sc78  1  0.25467378  0.41812480  0.08320095  1
  Sc  Sc79  1  0.20795654  0.12772979  0.29090629  1
  Sc  Sc80  1  0.66715681  0.53040333  0.72289930  1
  Sc  Sc81  1  0.47886041  0.66213300  0.74628668  1
  Sc  Sc82  1  0.87621866  0.10239671  0.23965330  1
  Sc  Sc83  1  0.47309621  0.09912034  0.06719995  1
  Sc  Sc84  1  0.50580199  0.89674505  0.66654018  1
  Sc  Sc85  1  0.60973857  0.10601467  0.68359343  1
  Sc  Sc86  1  0.71913580  0.89997199  0.76239011  1
  Sc  Sc87  1  0.92516856  0.38744893  0.67610552  1
  Sc  Sc88  1  0.94063669  0.91110374  0.76923239  1
  Sc  Sc89  1  0.58719045  0.51751944  0.29920087  1
  Sc  Sc90  1  0.78401081  0.43577338  0.30417896  1
  Sc  Sc91  1  0.26856100  0.46081210  0.46537972  1
  Sc  Sc92  1  0.33513730  0.48009217  0.88351282  1
  Sc  Sc93  1  0.75745073  0.52984037  0.91471902  1
  Sc  Sc94  1  0.67353576  0.72566281  0.62813215  1
  Sc  Sc95  1  0.23281561  0.77079514  0.93216552  1
  Sc  Sc96  1  0.07675407  0.95968634  0.94831008  1
  Sc  Sc97  1  0.75096349  0.42800451  0.54776040  1
  Sc  Sc98  1  0.76576230  0.88898845  0.16993153  1
  Sc  Sc99  1  0.36601948  1.00523475  0.23791127  1
  Nb  Nb100  1  0.96322403  0.71524890  0.45815440  1
  Nb  Nb101  1  0.45622059  0.52068074  0.11380962  1
  Nb  Nb102  1  0.26519115  0.17408004  0.75142411  1
  Nb  Nb103  1  0.88514876  0.73246881  0.24478353  1
  Nb  Nb104  1  0.34816818  0.26034999  0.36859491  1
  Nb  Nb105  1  0.49116503  0.69534476  0.20165030  1
  Nb  Nb106  1  0.19505739  0.93312690  0.37273213  1
  Nb  Nb107  1  0.33300805  0.80617850  0.72271306  1
  Nb  Nb108  1  0.81743390  0.04817385  0.65717580  1
  Nb  Nb109  1  0.34843470  0.07088249  0.43958376  1
  Nb  Nb110  1  0.01628705  0.72432602  0.67181017  1
  Nb  Nb111  1  0.35076293  0.44039722  0.26162480  1
  Nb  Nb112  1  0.64332086  0.71633244  0.85449828  1
  Nb  Nb113  1  0.03533888  0.12746478  0.38043536  1
  Nb  Nb114  1  0.18319729  0.32988600  0.28804335  1
  Nb  Nb115  1  0.33580969  0.23458898  0.16720374  1
  Nb  Nb116  1  0.45789799  0.40799534  0.44869900  1
  Nb  Nb117  1  0.85534109  0.94944980  0.95612306  1
  Nb  Nb118  1  0.69979511  0.02719338  0.33258875  1
  Nb  Nb119  1  0.40827742  0.09987429  0.64545046  1
  Nb  Nb120  1  0.35596720  0.80818547  0.25871765  1
  Nb  Nb121  1  0.62937694  0.33396260  0.41528901  1
  Nb  Nb122  1  0.49782372  0.20817813  0.49164910  1
  Nb  Nb123  1  0.68596223  0.15418022  0.49175619  1
  Nb  Nb124  1  0.16255780  0.57398215  0.95232833  1
