# generated using pymatgen
data_Zr2Sc2Nb
_symmetry_space_group_name_H-M   'P 1'
_cell_length_a   13.95362896
_cell_length_b   14.43871044
_cell_length_c   14.22740459
_cell_angle_alpha   89.92610371
_cell_angle_beta   90.05573324
_cell_angle_gamma   88.22618670
_symmetry_Int_Tables_number   1
_chemical_formula_structural   Zr2Sc2Nb
_chemical_formula_sum   'Zr50 Sc50 Nb25'
_cell_volume   2865.05205177
_cell_formula_units_Z   25
loop_
 _symmetry_equiv_pos_site_id
 _symmetry_equiv_pos_as_xyz
  1  'x, y, z'
loop_
 _atom_site_type_symbol
 _atom_site_label
 _atom_site_symmetry_multiplicity
 _atom_site_fract_x
 _atom_site_fract_y
 _atom_site_fract_z
 _atom_site_occupancy
  Zr  Zr0  1  0.29364064  0.69204003  0.61949554  1
  Zr  Zr1  1  0.57628806  0.41890080  0.10417763  1
  Zr  Zr2  1  0.23246850  0.64147078  0.99253703  1
  Zr  Zr3  1  0.21305528  0.29700480  0.71028350  1
  Zr  Zr4  1  0.34055210  0.22778613  0.89517875  1
  Zr  Zr5  1  0.79918441  0.04968627  0.98503212  1
  Zr  Zr6  1  0.96735375  0.19340878  0.03797149  1
  Zr  Zr7  1  0.08276746  0.74701100  0.35731082  1
  Zr  Zr8  1  0.07154164  0.91296326  0.24504316  1
  Zr  Zr9  1  0.34445504  0.02777341  0.45520477  1
  Zr  Zr10  1  0.71953383  0.93251411  0.45815101  1
  Zr  Zr11  1  0.32003451  0.92079607  0.69035787  1
  Zr  Zr12  1  0.01119051  0.08150229  0.86773579  1
  Zr  Zr13  1  0.66888200  0.56343601  -0.03843580  1
  Zr  Zr14  1  0.65655303  0.71933589  0.83064427  1
  Zr  Zr15  1  0.11375359  0.74713655  0.74702318  1
  Zr  Zr16  1  0.88233530  0.60536074  0.47119678  1
  Zr  Zr17  1  0.78779821  0.69262469  0.12664010  1
  Zr  Zr18  1  0.36276051  0.49958471  0.10754744  1
  Zr  Zr19  1  0.06046590  0.57437579  0.85949701  1
  Zr  Zr20  1  0.09939342  0.34147723  0.31197764  1
  Zr  Zr21  1  0.28863614  0.85051042  0.32489409  1
  Zr  Zr22  1  0.94440883  0.56629150  0.25651895  1
  Zr  Zr23  1  0.60635531  0.41771925  0.63491894  1
  Zr  Zr24  1  0.16095471  0.66063926  0.19185058  1
  Zr  Zr25  1  0.82851107  0.91532716  0.17763972  1
  Zr  Zr26  1  0.48674798  0.59228334  0.52333836  1
  Zr  Zr27  1  0.53941060  0.54802538  0.76666087  1
  Zr  Zr28  1  0.35169448  -0.01700559  0.92975288  1
  Zr  Zr29  1  0.79403636  0.48598415  0.10296266  1
  Zr  Zr30  1  0.50525079  0.50839389  0.30042860  1
  Zr  Zr31  1  0.23292595  0.43293263  0.91995727  1
  Zr  Zr32  1  0.97907344  0.76576223  0.15388312  1
  Zr  Zr33  1  0.16767068  0.50744484  0.69877752  1
  Zr  Zr34  1  0.45359639  0.41360864  0.91286532  1
  Zr  Zr35  1  0.82368254  0.13558533  0.18494372  1
  Zr  Zr36  1  0.93806181  0.34182267  0.18836012  1
  Zr  Zr37  1  0.70188110  0.29405472  0.46544064  1
  Zr  Zr38  1  0.05967246  0.40148460  0.54617913  1
  Zr  Zr39  1  0.18328395  0.08105338  0.01356078  1
  Zr  Zr40  1  0.89471007  0.40728059  0.40723324  1
  Zr  Zr41  1  0.54170874  0.22802661  0.95850230  1
  Zr  Zr42  1  0.60712951  0.19796902  0.14793219  1
  Zr  Zr43  1  0.47989571  0.73607292  0.68924919  1
  Zr  Zr44  1  0.90003417  1.00722771  0.35824663  1
  Zr  Zr45  1  0.31387496  0.59253379  0.79884750  1
  Zr  Zr46  1  0.38256246  0.40628057  0.70016504  1
  Zr  Zr47  1  0.26393192  0.19552107  0.32061241  1
  Zr  Zr48  1  0.82712536  0.53237613  0.82724600  1
  Zr  Zr49  1  0.73092855  0.92810281  0.82486733  1
  Sc  Sc50  1  0.71023793  0.61608293  0.64099851  1
  Sc  Sc51  1  0.11106276  0.26378195  0.89658234  1
  Sc  Sc52  1  0.28180847  0.49436525  0.52414345  1
  Sc  Sc53  1  0.04995973  0.13489366  0.23347599  1
  Sc  Sc54  1  0.25791051  0.02851130  0.21005460  1
  Sc  Sc55  1  0.72797226  0.34689940  0.25848315  1
  Sc  Sc56  1  0.46649724  0.36094611  0.49506950  1
  Sc  Sc57  1  0.71507099  0.59500954  0.28966183  1
  Sc  Sc58  1  0.99196666  0.38413408  0.75172502  1
  Sc  Sc59  1  0.40177462  0.29306501  0.14022317  1
  Sc  Sc60  1  0.76098974  0.28375693  0.02144388  1
  Sc  Sc61  1  0.13765678  0.46249622  0.12961127  1
  Sc  Sc62  1  0.19247846  0.08889695  0.58140018  1
  Sc  Sc63  1  0.36599342  0.69963576  0.16853455  1
  Sc  Sc64  1  0.22566622  0.09354358  0.78695679  1
  Sc  Sc65  1  0.30460074  0.64956062  0.38422525  1
  Sc  Sc66  1  0.57005865  0.64789420  0.13489610  1
  Sc  Sc67  1  0.44974527  0.90262634  0.18103199  1
  Sc  Sc68  1  0.54323385  0.14942777  0.50358045  1
  Sc  Sc69  1  0.95454728  0.40167310  -0.03066305  1
  Sc  Sc70  1  0.63391273  1.00024057  0.17749133  1
  Sc  Sc71  1  0.99944159  0.96576097  0.04668052  1
  Sc  Sc72  1  0.86714805  0.75054710  0.71075695  1
  Sc  Sc73  1  0.85912891  0.09037564  0.73015635  1
  Sc  Sc74  1  0.67491499  0.84021004  0.02604167  1
  Sc  Sc75  1  0.06530114  0.95125791  0.68609502  1
  Sc  Sc76  1  0.46122806  0.81485089  0.99646924  1
  Sc  Sc77  1  0.19179989  0.25961596  0.11229064  1
  Sc  Sc78  1  0.52069389  0.88961797  0.80722765  1
  Sc  Sc79  1  0.48278869  0.08148548  0.79401343  1
  Sc  Sc80  1  0.11594197  0.53087533  0.37436023  1
  Sc  Sc81  1  0.85063667  0.77040654  0.33677091  1
  Sc  Sc82  1  0.07091490  0.20551140  0.45325771  1
  Sc  Sc83  1  0.31528913  0.41025406  0.31127790  1
  Sc  Sc84  1  0.65218445  0.72981416  0.46217632  1
  Sc  Sc85  1  0.95661700  0.57024373  0.66358898  1
  Sc  Sc86  1  0.72145157  0.24412616  0.67461065  1
  Sc  Sc87  1  0.46233688  0.10914139  0.28570511  1
  Sc  Sc88  1  0.85344744  0.72960890  0.92848232  1
  Sc  Sc89  1  0.67788350  0.37626274  0.84364165  1
  Sc  Sc90  1  0.26590652  0.28440650  0.50481757  1
  Sc  Sc91  1  0.98067925  0.58972130  0.04835882  1
  Sc  Sc92  1  0.19585271  0.86191528  0.52080958  1
  Sc  Sc93  1  0.23080337  0.85599006  0.07554383  1
  Sc  Sc94  1  0.09716578  0.65722504  0.54517246  1
  Sc  Sc95  1  -0.03158684  0.84655469  0.50508449  1
  Sc  Sc96  1  0.67790238  0.49547424  0.45569534  1
  Sc  Sc97  1  0.45475829  0.62208464  0.94893269  1
  Sc  Sc98  1  0.52771948  0.92739660  0.38066006  1
  Sc  Sc99  1  0.06612797  0.77172564  0.95794525  1
  Nb  Nb100  1  0.83456786  0.93440895  0.63228399  1
  Nb  Nb101  1  0.41889208  0.80450512  0.50108926  1
  Nb  Nb102  1  0.12907233  1.01306695  0.39695784  1
  Nb  Nb103  1  0.81773338  0.42885159  0.62147070  1
  Nb  Nb104  1  0.15784164  0.92075551  0.87409640  1
  Nb  Nb105  1  0.38095253  0.16312808  0.64157941  1
  Nb  Nb106  1  0.65063968  0.04507853  0.66582854  1
  Nb  Nb107  1  0.90332399  0.26019455  0.57792251  1
  Nb  Nb108  1  0.04224957  0.18939563  0.69133850  1
  Nb  Nb109  1  0.49950867  0.95772596  0.59538065  1
  Nb  Nb110  1  0.77803277  0.10882876  0.51925378  1
  Nb  Nb111  1  0.41292580  0.09836578  0.07689386  1
  Nb  Nb112  1  0.87153509  0.25332169  0.83896574  1
  Nb  Nb113  1  0.65389114  0.80748901  0.25319316  1
  Nb  Nb114  1  -0.03082541  0.06045282  0.53920376  1
  Nb  Nb115  1  0.52007563  0.26337523  0.74023225  1
  Nb  Nb116  1  0.57041884  0.01863671  0.97862580  1
  Nb  Nb117  1  0.88155660  0.21014613  0.36843794  1
  Nb  Nb118  1  0.53043535  0.29878353  0.31473053  1
  Nb  Nb119  1  0.49575479  0.72000862  0.32966256  1
  Nb  Nb120  1  0.30658589  0.78615339  0.84654106  1
  Nb  Nb121  1  0.68551160  0.14611918  0.84867651  1
  Nb  Nb122  1  0.65921662  0.83577608  0.64360473  1
  Nb  Nb123  1  0.68397911  0.12375877  0.33908803  1
  Nb  Nb124  1  0.93673867  0.90227356  0.83898751  1
