# generated using pymatgen
data_Zr2Sc2Nb
_symmetry_space_group_name_H-M   'P 1'
_cell_length_a   13.69382548
_cell_length_b   14.28236376
_cell_length_c   14.66318729
_cell_angle_alpha   89.10870342
_cell_angle_beta   88.58641511
_cell_angle_gamma   90.22034061
_symmetry_Int_Tables_number   1
_chemical_formula_structural   Zr2Sc2Nb
_chemical_formula_sum   'Zr50 Sc50 Nb25'
_cell_volume   2866.58374377
_cell_formula_units_Z   25
loop_
 _symmetry_equiv_pos_site_id
 _symmetry_equiv_pos_as_xyz
  1  'x, y, z'
loop_
 _atom_site_type_symbol
 _atom_site_label
 _atom_site_symmetry_multiplicity
 _atom_site_fract_x
 _atom_site_fract_y
 _atom_site_fract_z
 _atom_site_occupancy
  Zr  Zr0  1  1.01015618  0.33711685  0.68443232  1
  Zr  Zr1  1  0.51125037  0.62093761  0.22979150  1
  Zr  Zr2  1  0.52419744  0.19455977  0.17977975  1
  Zr  Zr3  1  0.05969648  0.15304063  0.38749810  1
  Zr  Zr4  1  0.93031301  0.99308474  0.70961464  1
  Zr  Zr5  1  0.42063857  0.70535665  0.45003472  1
  Zr  Zr6  1  0.87843035  0.70766632  0.04519253  1
  Zr  Zr7  1  0.46447491  0.92945858  0.95225802  1
  Zr  Zr8  1  0.41733484  0.48383964  0.85430080  1
  Zr  Zr9  1  0.29520742  0.09775553  0.28578503  1
  Zr  Zr10  1  0.20350479  0.80431777  0.54539752  1
  Zr  Zr11  1  0.72633353  0.11997250  0.12888284  1
  Zr  Zr12  1  0.41289045  0.89599426  0.53567386  1
  Zr  Zr13  1  0.67903295  0.68892687  0.94207028  1
  Zr  Zr14  1  0.44782972  0.35979205  0.52137812  1
  Zr  Zr15  1  0.69053240  0.95359479  0.24917354  1
  Zr  Zr16  1  0.13907956  0.89072818  0.19239131  1
  Zr  Zr17  1  0.84940117  0.37997983  0.83483561  1
  Zr  Zr18  1  0.52633411  0.54657598  0.02714452  1
  Zr  Zr19  1  0.76343337  0.32224415  0.21249875  1
  Zr  Zr20  1  0.44185469  0.72479379  0.89924554  1
  Zr  Zr21  1  0.63553042  0.85753237  0.82035251  1
  Zr  Zr22  1  0.02842548  0.87173498  0.02216963  1
  Zr  Zr23  1  0.29267511  0.62699815  0.29362943  1
  Zr  Zr24  1  0.26778803  0.43609964  0.41828921  1
  Zr  Zr25  1  0.29760396  0.03042711  0.86393092  1
  Zr  Zr26  1  0.35438363  0.44081499  0.20660867  1
  Zr  Zr27  1  0.33922303  0.61668727  0.07494911  1
  Zr  Zr28  1  0.90888342  0.04647397  0.92649887  1
  Zr  Zr29  1  0.57015903  0.63639680  0.76784407  1
  Zr  Zr30  1  0.67604854  0.25217308  0.78687456  1
  Zr  Zr31  1  0.25042352  0.43399593  0.00358918  1
  Zr  Zr32  1  0.11423927  0.97298095  0.61945274  1
  Zr  Zr33  1  0.17312575  0.63231494  0.69646457  1
  Zr  Zr34  1  0.67295900  0.87834134  0.45714418  1
  Zr  Zr35  1  0.52234517  0.57045478  0.57418115  1
  Zr  Zr36  1  0.84300639  0.56701392  0.90481323  1
  Zr  Zr37  1  0.94247651  0.84594078  0.52773968  1
  Zr  Zr38  1  0.52495666  0.82164853  0.30236072  1
  Zr  Zr39  1  0.24868717  0.04316631  0.48245064  1
  Zr  Zr40  1  0.73355306  0.04602673  0.76974921  1
  Zr  Zr41  1  0.96235848  0.76787962  0.21181819  1
  Zr  Zr42  1  0.50422090  0.08343603  0.79271931  1
  Zr  Zr43  1  0.02343139  0.27499578  0.90314292  1
  Zr  Zr44  1  0.47809177  0.01136248  0.35590634  1
  Zr  Zr45  1  1.03934009  0.49756046  0.97832409  1
  Zr  Zr46  1  -0.03411604  0.55046084  0.72977923  1
  Zr  Zr47  1  0.12290767  0.09912108  0.99342827  1
  Zr  Zr48  1  0.56189042  0.40522981  0.69792607  1
  Zr  Zr49  1  0.16391181  0.43100756  0.80305583  1
  Sc  Sc50  1  0.78292781  0.67380072  0.56389677  1
  Sc  Sc51  1  0.63514434  0.22392981  0.58241842  1
  Sc  Sc52  1  0.91697281  0.54007513  0.19197900  1
  Sc  Sc53  1  0.41143360  0.24374981  0.70771185  1
  Sc  Sc54  1  0.11846148  0.13961790  0.76563264  1
  Sc  Sc55  1  0.86906829  0.89752882  0.34847784  1
  Sc  Sc56  1  0.35105747  0.80698812  0.16065329  1
  Sc  Sc57  1  0.10308109  0.11119325  0.19458156  1
  Sc  Sc58  1  0.65752487  0.31285684  0.02614221  1
  Sc  Sc59  1  0.51236862  0.99022709  0.14184849  1
  Sc  Sc60  1  0.02365487  0.65194060  0.54162297  1
  Sc  Sc61  1  0.24942472  0.83173800  0.97240717  1
  Sc  Sc62  1  0.44191322  0.35345813  0.04327400  1
  Sc  Sc63  1  0.22088431  0.27765652  0.62964405  1
  Sc  Sc64  1  0.14082525  0.48873041  0.18137985  1
  Sc  Sc65  1  0.08970186  0.94293264  0.84291028  1
  Sc  Sc66  1  0.86934370  0.65437663  0.37654659  1
  Sc  Sc67  1  1.03808497  0.69878274  0.88696952  1
  Sc  Sc68  1  0.12519648  0.68273744  0.09124088  1
  Sc  Sc69  1  0.99807258  0.78354350  0.70744941  1
  Sc  Sc70  1  0.62739567  0.31980727  0.37736569  1
  Sc  Sc71  1  0.84009415  0.25046429  0.45971669  1
  Sc  Sc72  1  0.44304942  0.88331167  0.74026521  1
  Sc  Sc73  1  0.58955073  1.00322995  0.60669961  1
  Sc  Sc74  1  0.74131276  0.51645525  0.70159594  1
  Sc  Sc75  1  0.06214194  0.52369181  0.37530483  1
  Sc  Sc76  1  0.63047872  0.08870459  0.95560559  1
  Sc  Sc77  1  0.27211744  0.25160165  0.89658981  1
  Sc  Sc78  1  0.29411817  0.01237258  0.09009391  1
  Sc  Sc79  1  0.23807943  0.83097220  0.75264504  1
  Sc  Sc80  1  -0.02249736  0.32724189  0.25293930  1
  Sc  Sc81  1  0.84108997  0.04522315  0.52826333  1
  Sc  Sc82  1  0.33271436  0.48032501  0.65738033  1
  Sc  Sc83  1  0.72838407  0.52445113  0.09082843  1
  Sc  Sc84  1  0.63651916  0.66602074  0.41559792  1
  Sc  Sc85  1  0.73594289  0.90297879  0.03796469  1
  Sc  Sc86  1  0.66252630  0.10640186  0.39384206  1
  Sc  Sc87  1  0.10837202  0.73657233  0.36164863  1
  Sc  Sc88  1  0.86274668  0.11944088  0.29576324  1
  Sc  Sc89  1  0.04100105  0.33933369  0.46690190  1
  Sc  Sc90  1  0.43765003  0.14535849  0.51125992  1
  Sc  Sc91  1  0.08080482  0.94951389  0.38969373  1
  Sc  Sc92  1  0.55384068  0.77652309  0.08430917  1
  Sc  Sc93  1  0.41111130  0.27880294  0.32780615  1
  Sc  Sc94  1  0.85988354  0.84762926  0.86924121  1
  Sc  Sc95  1  0.24751182  0.62334687  0.88469569  1
  Sc  Sc96  1  0.29675641  0.86673798  0.35267215  1
  Sc  Sc97  1  0.73002264  0.73264979  0.21788628  1
  Sc  Sc98  1  0.93022762  0.18877268  0.09423599  1
  Sc  Sc99  1  0.91395748  0.97749444  0.14990915  1
  Nb  Nb100  1  0.84418196  0.43807562  0.37969542  1
  Nb  Nb101  1  0.76844127  0.86993079  0.65120228  1
  Nb  Nb102  1  0.10605230  0.30706531  0.07880551  1
  Nb  Nb103  1  0.50431979  0.28882217  0.87719573  1
  Nb  Nb104  1  0.88278728  0.38020466  0.04093848  1
  Nb  Nb105  1  0.43065221  0.14373572  0.99403549  1
  Nb  Nb106  1  0.90221526  0.48381263  0.54719020  1
  Nb  Nb107  1  0.69636116  0.51773412  0.29567614  1
  Nb  Nb108  1  0.28947410  0.22944731  0.11969508  1
  Nb  Nb109  1  0.80516691  0.33816648  0.63167833  1
  Nb  Nb110  1  0.56289616  0.40999390  0.20062323  1
  Nb  Nb111  1  0.88897832  0.18446988  0.74041844  1
  Nb  Nb112  1  0.03458303  0.15722003  0.57660726  1
  Nb  Nb113  1  0.37824929  0.69694322  0.66223140  1
  Nb  Nb114  1  0.24655720  0.61387618  0.50160500  1
  Nb  Nb115  1  0.78506113  0.70580828  0.75734062  1
  Nb  Nb116  1  0.68323874  0.45769159  0.50665905  1
  Nb  Nb117  1  0.18931748  0.30098813  0.27402356  1
  Nb  Nb118  1  0.48643338  0.49731610  0.37976046  1
  Nb  Nb119  1  0.80918134  0.20743435  0.93236953  1
  Nb  Nb120  1  0.23945483  0.23594735  0.44877808  1
  Nb  Nb121  1  0.31560353  0.04848610  0.66902475  1
  Nb  Nb122  1  0.64394884  0.46191520  0.88502463  1
  Nb  Nb123  1  0.58664611  0.77320875  0.61540300  1
  Nb  Nb124  1  0.12769622  0.47239888  0.58593836  1
