# generated using pymatgen
data_Zr2Sc2Nb
_symmetry_space_group_name_H-M   'P 1'
_cell_length_a   14.27339892
_cell_length_b   14.26368237
_cell_length_c   14.10687353
_cell_angle_alpha   87.00391624
_cell_angle_beta   88.61872997
_cell_angle_gamma   92.78847497
_symmetry_Int_Tables_number   1
_chemical_formula_structural   Zr2Sc2Nb
_chemical_formula_sum   'Zr50 Sc50 Nb25'
_cell_volume   2863.69141103
_cell_formula_units_Z   25
loop_
 _symmetry_equiv_pos_site_id
 _symmetry_equiv_pos_as_xyz
  1  'x, y, z'
loop_
 _atom_site_type_symbol
 _atom_site_label
 _atom_site_symmetry_multiplicity
 _atom_site_fract_x
 _atom_site_fract_y
 _atom_site_fract_z
 _atom_site_occupancy
  Zr  Zr0  1  0.90648283  0.45244321  0.15002916  1
  Zr  Zr1  1  0.08868660  0.56368923  0.10150045  1
  Zr  Zr2  1  0.11621072  0.04925495  0.37434997  1
  Zr  Zr3  1  0.29280162  0.07699423  0.01297369  1
  Zr  Zr4  1  0.74527091  0.89267200  0.68990336  1
  Zr  Zr5  1  0.41406801  0.54620588  0.68038947  1
  Zr  Zr6  1  0.31240522  0.90167409  0.65173108  1
  Zr  Zr7  1  0.98367244  0.05436379  0.20017928  1
  Zr  Zr8  1  0.29474982  0.38710055  0.53006224  1
  Zr  Zr9  1  0.83968532  0.49169844  0.53733243  1
  Zr  Zr10  1  0.68395942  0.14939175  0.96886372  1
  Zr  Zr11  1  0.48072815  0.54405230  0.48157864  1
  Zr  Zr12  1  0.28351888  0.19555984  0.40811204  1
  Zr  Zr13  1  0.63485733  0.50582155  0.65888395  1
  Zr  Zr14  1  0.23969722  0.12120697  0.81304892  1
  Zr  Zr15  1  0.46251456  0.16326188  0.09307363  1
  Zr  Zr16  1  0.46415660  0.20883839  0.85257095  1
  Zr  Zr17  1  0.72097864  0.28049592  0.61094124  1
  Zr  Zr18  1  0.87444681  0.30707259  0.45433604  1
  Zr  Zr19  1  0.08418693  0.92765379  0.95541680  1
  Zr  Zr20  1  0.17988325  0.71679555  0.63245050  1
  Zr  Zr21  1  0.70308810  0.52210188  -0.09421724  1
  Zr  Zr22  1  0.55799036  0.71715045  0.61331878  1
  Zr  Zr23  1  0.56331501  0.57299198  0.27582992  1
  Zr  Zr24  1  0.18774413  0.50838545  0.91275077  1
  Zr  Zr25  1  0.53071700  0.92407447  0.53576210  1
  Zr  Zr26  1  0.68125735  0.30299265  0.81925445  1
  Zr  Zr27  1  0.61061832  0.09619266  0.73345726  1
  Zr  Zr28  1  0.39557081  0.56868639  0.93311410  1
  Zr  Zr29  1  0.09041061  0.67869342  0.82006669  1
  Zr  Zr30  1  0.59444828  0.63454255  0.04369432  1
  Zr  Zr31  1  0.78728450  0.32521424  0.26539889  1
  Zr  Zr32  1  0.66432145  0.19076759  0.17760276  1
  Zr  Zr33  1  0.07998351  0.45193891  0.53480232  1
  Zr  Zr34  1  0.73051290  0.82841061  0.07322807  1
  Zr  Zr35  1  0.37070536  0.70317042  0.31009712  1
  Zr  Zr36  1  0.82591742  0.45512245  0.75740987  1
  Zr  Zr37  1  0.41049881  0.05370696  0.71452482  1
  Zr  Zr38  1  0.77477912  0.01816054  0.14887933  1
  Zr  Zr39  1  0.15002760  0.76542094  0.17029508  1
  Zr  Zr40  1  0.55965790  0.98246368  0.12500391  1
  Zr  Zr41  1  0.95590299  0.49336284  0.94567324  1
  Zr  Zr42  1  0.65451704  0.41729054  0.44858274  1
  Zr  Zr43  1  0.98671385  0.60298189  0.63067234  1
  Zr  Zr44  1  0.65548226  0.03907908  0.36041660  1
  Zr  Zr45  1  0.32008052  0.05542791  0.24477470  1
  Zr  Zr46  1  0.13442678  0.88406624  0.51728807  1
  Zr  Zr47  1  0.48752150  0.14394575  0.31537558  1
  Zr  Zr48  1  0.08834365  0.13456720  0.00190296  1
  Zr  Zr49  1  0.20508621  0.51388045  0.69835710  1
  Sc  Sc50  1  0.14536959  0.27852435  0.66466969  1
  Sc  Sc51  1  0.93698731  0.30653290  0.66258129  1
  Sc  Sc52  1  0.48221255  0.78863407  0.96460658  1
  Sc  Sc53  1  0.72073054  0.84019547  0.48077609  1
  Sc  Sc54  1  0.34410689  0.71536404  0.77665659  1
  Sc  Sc55  1  0.19711395  0.58799814  0.27818194  1
  Sc  Sc56  1  0.57947683  0.32732903  0.02122127  1
  Sc  Sc57  1  0.51932930  0.13176475  0.53166299  1
  Sc  Sc58  1  0.47028335  0.46175343  0.10854202  1
  Sc  Sc59  1  0.85770411  0.11769412  0.35282110  1
  Sc  Sc60  1  0.76865304  0.67450884  0.66131365  1
  Sc  Sc61  1  0.51431375  0.32135310  0.64639283  1
  Sc  Sc62  1  0.15430586  0.96878481  0.15525260  1
  Sc  Sc63  1  0.26419333  0.45763474  0.11836865  1
  Sc  Sc64  1  0.95881294  0.11030131  0.59028991  1
  Sc  Sc65  1  0.35049400  0.86925158  0.12347646  1
  Sc  Sc66  1  0.32573000  0.35013625  0.76575088  1
  Sc  Sc67  1  0.89692899  0.03927651  0.96538937  1
  Sc  Sc68  1  0.11995727  0.91028383  0.75161315  1
  Sc  Sc69  1  0.32435719  0.30405915  0.99250443  1
  Sc  Sc70  1  0.94997434  0.67985271  0.22906203  1
  Sc  Sc71  1  0.51375879  0.43092694  0.84389566  1
  Sc  Sc72  1  0.13214212  0.30708507  0.87034846  1
  Sc  Sc73  1  0.45967609  0.32117647  0.43028847  1
  Sc  Sc74  1  0.18925124  0.37644919  0.31902676  1
  Sc  Sc75  1  0.49407568  1.01456658  0.92531246  1
  Sc  Sc76  1  0.65511916  0.86807177  0.27707494  1
  Sc  Sc77  1  0.36438961  0.77902150  0.50597477  1
  Sc  Sc78  1  0.82544954  0.64118936  0.04952354  1
  Sc  Sc79  1  0.08142573  0.24638174  0.46145448  1
  Sc  Sc80  1  0.71001190  0.74653105  0.86604378  1
  Sc  Sc81  1  0.17796671  0.19504010  0.19270040  1
  Sc  Sc82  1  0.88165235  0.71257288  0.43866193  1
  Sc  Sc83  1  0.26913325  0.58398526  0.48610261  1
  Sc  Sc84  1  0.30327439  0.90801682  0.88028839  1
  Sc  Sc85  1  0.52772971  0.87059211  0.75858131  1
  Sc  Sc86  1  0.07339715  0.34378555  0.07628090  1
  Sc  Sc87  1  0.81059848  0.13609589  0.76326748  1
  Sc  Sc88  1  0.91897104  0.27020603  0.88744601  1
  Sc  Sc89  1  0.74285772  0.06789141  0.55405800  1
  Sc  Sc90  1  0.88600272  0.21396097  0.10528757  1
  Sc  Sc91  1  0.71077782  0.95886605  0.89098674  1
  Sc  Sc92  1  0.45175066  0.91391883  0.32480308  1
  Sc  Sc93  1  0.09305807  0.69126736  0.42696434  1
  Sc  Sc94  1  -0.00363720  0.48244275  0.34490847  1
  Sc  Sc95  1  0.79044062  0.52827486  0.31955466  1
  Sc  Sc96  1  0.17376001  0.07524707  0.60071216  1
  Sc  Sc97  1  0.95737418  0.79973475  0.66800501  1
  Sc  Sc98  1  0.92211276  0.93516080  0.48717851  1
  Sc  Sc99  1  0.23838963  0.71212615  0.98388612  1
  Nb  Nb100  1  0.37524800  0.64221539  0.12973358  1
  Nb  Nb101  1  -0.00307251  0.27567645  0.27293420  1
  Nb  Nb102  1  0.37169640  0.29292705  0.22186443  1
  Nb  Nb103  1  0.23683737  0.86484585  0.33942674  1
  Nb  Nb104  1  0.01822540  0.71612217  1.00293515  1
  Nb  Nb105  1  0.68369665  0.62588731  0.46503776  1
  Nb  Nb106  1  0.55035288  0.64319521  0.80752715  1
  Nb  Nb107  1  0.03547748  0.86428770  0.31448497  1
  Nb  Nb108  1  0.56858866  0.35278359  0.25356850  1
  Nb  Nb109  1  0.89219515  0.64261352  0.83029449  1
  Nb  Nb110  1  0.94340194  0.86353625  0.11280502  1
  Nb  Nb111  1  0.52971819  0.76263642  0.17645024  1
  Nb  Nb112  1  0.89973485  0.82907655  0.90103276  1
  Nb  Nb113  1  0.77977208  0.36026888  1.01134116  1
  Nb  Nb114  1  0.37875904  0.47875667  0.30628040  1
  Nb  Nb115  1  0.72948885  0.69949825  0.24572327  1
  Nb  Nb116  1  0.02724810  0.46112748  0.76609570  1
  Nb  Nb117  1  0.03916262  0.11632789  0.79391005  1
  Nb  Nb118  1  0.55125271  0.73806558  0.39985224  1
  Nb  Nb119  1  0.66700839  0.22855144  0.40761152  1
  Nb  Nb120  1  0.91750662  0.97095535  0.76168613  1
  Nb  Nb121  1  0.69238510  0.47925049  0.13690388  1
  Nb  Nb122  1  0.33860980  0.20369011  0.60968291  1
  Nb  Nb123  1  0.33438776  0.01131204  0.47263065  1
  Nb  Nb124  1  0.85048880  0.88353687  0.28939251  1
