# generated using pymatgen
data_Zr2Sc2Nb
_symmetry_space_group_name_H-M   'P 1'
_cell_length_a   14.64426432
_cell_length_b   14.21159161
_cell_length_c   13.83001397
_cell_angle_alpha   90.36056219
_cell_angle_beta   91.31087427
_cell_angle_gamma   89.91366902
_symmetry_Int_Tables_number   1
_chemical_formula_structural   Zr2Sc2Nb
_chemical_formula_sum   'Zr50 Sc50 Nb25'
_cell_volume   2877.46611408
_cell_formula_units_Z   25
loop_
 _symmetry_equiv_pos_site_id
 _symmetry_equiv_pos_as_xyz
  1  'x, y, z'
loop_
 _atom_site_type_symbol
 _atom_site_label
 _atom_site_symmetry_multiplicity
 _atom_site_fract_x
 _atom_site_fract_y
 _atom_site_fract_z
 _atom_site_occupancy
  Zr  Zr0  1  0.18651209  0.22020816  0.76208684  1
  Zr  Zr1  1  0.64189036  0.02075359  0.67447652  1
  Zr  Zr2  1  0.54997141  0.74928078  0.80933135  1
  Zr  Zr3  1  0.20629196  0.11379982  0.08113690  1
  Zr  Zr4  1  0.79042466  0.14893365  0.68270582  1
  Zr  Zr5  1  0.26244148  0.70889300  0.95786454  1
  Zr  Zr6  1  0.28659865  0.05981581  0.88543542  1
  Zr  Zr7  1  0.57656130  0.21825186  0.71690962  1
  Zr  Zr8  1  0.58452443  0.70322974  0.44498618  1
  Zr  Zr9  1  0.84901430  0.31695618  0.25039393  1
  Zr  Zr10  1  0.15722213  0.31000053  0.38206256  1
  Zr  Zr11  1  0.01469156  0.52613103  0.99413226  1
  Zr  Zr12  1  0.73198254  0.93921048  0.09771725  1
  Zr  Zr13  1  0.65458059  0.76967564  0.00621133  1
  Zr  Zr14  1  0.84491163  0.92273315  0.68319428  1
  Zr  Zr15  1  0.46701186  0.68207414  0.60471349  1
  Zr  Zr16  1  0.32987529  0.70411774  0.18547125  1
  Zr  Zr17  1  0.64187316  0.15475519  0.49083251  1
  Zr  Zr18  1  0.34522615  0.45201653  0.49281681  1
  Zr  Zr19  1  0.48749951  0.45623566  0.68750988  1
  Zr  Zr20  1  0.89481322  0.35547548  0.63442732  1
  Zr  Zr21  1  0.06619375  0.00476141  0.75592485  1
  Zr  Zr22  1  0.95023577  0.39992525  0.42275646  1
  Zr  Zr23  1  0.56014256  0.24260524  0.31025917  1
  Zr  Zr24  1  0.10050644  0.34781028  0.59441286  1
  Zr  Zr25  1  0.56095253  0.49984820  0.45631516  1
  Zr  Zr26  1  0.93472667  0.61835174  0.82031945  1
  Zr  Zr27  1  0.31552407  0.90060317  0.01754166  1
  Zr  Zr28  1  0.27581923  0.95544571  0.22465146  1
  Zr  Zr29  1  0.72061801  0.59142449  0.32591447  1
  Zr  Zr30  1  0.77913379  0.49116889  0.96525826  1
  Zr  Zr31  1  0.98942635  0.19132565  0.71548912  1
  Zr  Zr32  1  0.63200269  0.36604708  0.85328309  1
  Zr  Zr33  1  0.16114702  0.37248023  0.07173269  1
  Zr  Zr34  1  0.63806519  0.97856804  0.30264362  1
  Zr  Zr35  1  0.02076818  0.78729013  0.70729103  1
  Zr  Zr36  1  0.74730023  0.15107002  0.28805251  1
  Zr  Zr37  1  0.64792027  0.42165077  0.22555774  1
  Zr  Zr38  1  0.70607920  0.29255543  0.06307849  1
  Zr  Zr39  1  0.79285665  0.49231541  0.75368388  1
  Zr  Zr40  1  0.22762292  0.80501926  0.38057630  1
  Zr  Zr41  1  0.81900922  0.74728759  0.20702016  1
  Zr  Zr42  1  0.46680260  0.66083772  0.01114723  1
  Zr  Zr43  1  0.14240360  0.51025272  0.45363932  1
  Zr  Zr44  1  0.93605370  0.62090870  0.37144023  1
  Zr  Zr45  1  0.76061612  0.98728698  0.49028693  1
  Zr  Zr46  1  0.08629562  0.71047485  0.50278389  1
  Zr  Zr47  1  0.48515933  0.89899693  0.14454134  1
  Zr  Zr48  1  0.29833407  0.25396732  0.57370734  1
  Zr  Zr49  1  0.43234962  0.42906640  0.89338323  1
  Sc  Sc50  1  0.05928076  0.24030531  0.18427031  1
  Sc  Sc51  1  0.30348568  0.27178249  0.96093330  1
  Sc  Sc52  1  0.01723896  0.80701823  0.29750570  1
  Sc  Sc53  1  0.86210474  0.96047531  0.29465932  1
  Sc  Sc54  1  0.50724647  0.59602018  0.23253548  1
  Sc  Sc55  1  0.55616489  0.91702687  0.48694103  1
  Sc  Sc56  1  0.98441438  0.14876854  0.35064952  1
  Sc  Sc57  1  0.05495226  1.01447937  0.18159717  1
  Sc  Sc58  1  0.28417402  0.02978950  0.67969209  1
  Sc  Sc59  1  0.13764903  0.90719911  0.57651469  1
  Sc  Sc60  1  0.90453708  0.83904177  0.87480159  1
  Sc  Sc61  1  0.79058267  0.51996918  0.51164433  1
  Sc  Sc62  1  0.83520600  0.28682721  0.84975851  1
  Sc  Sc63  1  0.64698845  0.60029393  0.65263883  1
  Sc  Sc64  1  0.26024590  0.63626072  0.59021281  1
  Sc  Sc65  1  0.29761975  0.01477151  0.44716973  1
  Sc  Sc66  1  0.22926645  0.49203499  0.91732808  1
  Sc  Sc67  1  0.37218247  0.62721257  0.79369696  1
  Sc  Sc68  1  0.15025249  0.80751265  0.13419038  1
  Sc  Sc69  1  0.25970034  0.46668974  0.27170624  1
  Sc  Sc70  1  0.42920847  0.82735699  0.34413015  1
  Sc  Sc71  1  0.33370402  0.83735584  0.58119833  1
  Sc  Sc72  1  0.43930080  0.07070890  0.29870250  1
  Sc  Sc73  1  0.93797262  0.85064767  0.48640117  1
  Sc  Sc74  1  0.13693515  0.13642062  0.53294774  1
  Sc  Sc75  1  0.50233091  0.31101175  0.51939566  1
  Sc  Sc76  1  0.14125482  0.62063422  0.77134761  1
  Sc  Sc77  1  0.68581550  0.12167827  0.90058713  1
  Sc  Sc78  1  0.04506898  0.46151602  0.23396334  1
  Sc  Sc79  1  0.52043022  0.95333822  0.94640441  1
  Sc  Sc80  1  0.68695713  0.35788625  0.62012543  1
  Sc  Sc81  1  0.45332531  0.10029043  0.56598798  1
  Sc  Sc82  1  0.05922634  0.18628180  0.93816784  1
  Sc  Sc83  1  0.85222771  0.51703436  0.17373440  1
  Sc  Sc84  1  0.10331988  0.94267508  0.95660492  1
  Sc  Sc85  1  0.93862934  0.86816675  0.08313233  1
  Sc  Sc86  1  0.70052412  0.90819892  0.84450146  1
  Sc  Sc87  1  0.88934751  0.05618502  0.87753061  1
  Sc  Sc88  1  0.86540669  0.12486097  0.10241767  1
  Sc  Sc89  1  0.47853738  0.30121850  0.11968146  1
  Sc  Sc90  1  0.50233728  0.20830210  0.93499731  1
  Sc  Sc91  1  0.95858848  0.04537411  0.55186627  1
  Sc  Sc92  1  0.03533313  0.39955910  0.81000572  1
  Sc  Sc93  1  0.62300638  0.77728682  0.23571042  1
  Sc  Sc94  1  0.99444214  0.54610599  0.61314001  1
  Sc  Sc95  1  0.84378956  0.70325543  0.61339489  1
  Sc  Sc96  1  0.27054786  0.43195196  0.70741102  1
  Sc  Sc97  1  0.92809959  0.33845421  0.04252258  1
  Sc  Sc98  1  0.59852333  0.10434876  0.12072679  1
  Sc  Sc99  1  0.84210020  0.21721998  0.48133450  1
  Nb  Nb100  1  0.15312998  0.64293574  0.29874300  1
  Nb  Nb101  1  0.38708125  0.24791541  0.75629902  1
  Nb  Nb102  1  0.35546825  0.24888165  0.38008535  1
  Nb  Nb103  1  0.37262841  0.85573046  0.81899044  1
  Nb  Nb104  1  0.75087266  0.69788880  0.82027014  1
  Nb  Nb105  1  0.71079438  0.35486528  0.40730500  1
  Nb  Nb106  1  0.46345327  0.06211178  0.78608552  1
  Nb  Nb107  1  0.19715813  0.83498146  0.79111001  1
  Nb  Nb108  1  0.67640796  0.60575056  0.10365037  1
  Nb  Nb109  1  0.67140669  0.81003916  0.63127913  1
  Nb  Nb110  1  0.29987898  0.26890103  0.19373264  1
  Nb  Nb111  1  0.36513749  0.62649289  0.39481965  1
  Nb  Nb112  1  0.44459801  0.41340793  0.30394931  1
  Nb  Nb113  1  0.49750385  0.89810666  0.68719887  1
  Nb  Nb114  1  0.06464432  0.72520423  0.94736397  1
  Nb  Nb115  1  0.39544169  0.09535061  0.08589894  1
  Nb  Nb116  1  0.75608100  0.79366122  0.41607758  1
  Nb  Nb117  1  0.60606693  0.57005788  0.87532599  1
  Nb  Nb118  1  0.09971175  -0.02607228  0.38258447  1
  Nb  Nb119  1  0.36167537  0.47888020  0.09473838  1
  Nb  Nb120  1  1.00211233  0.66079605  0.14816949  1
  Nb  Nb121  1  0.20402306  0.13088200  0.30252124  1
  Nb  Nb122  1  0.56618374  0.46415944  0.04010711  1
  Nb  Nb123  1  0.17938826  0.58727153  0.10276728  1
  Nb  Nb124  1  0.85158491  0.68110234  1.00730117  1
