# generated using pymatgen
data_Zr2Sc2Nb
_symmetry_space_group_name_H-M   'P 1'
_cell_length_a   14.10942568
_cell_length_b   14.10956269
_cell_length_c   14.52530034
_cell_angle_alpha   89.36237167
_cell_angle_beta   90.62451024
_cell_angle_gamma   89.38389638
_symmetry_Int_Tables_number   1
_chemical_formula_structural   Zr2Sc2Nb
_chemical_formula_sum   'Zr50 Sc50 Nb25'
_cell_volume   2891.14340461
_cell_formula_units_Z   25
loop_
 _symmetry_equiv_pos_site_id
 _symmetry_equiv_pos_as_xyz
  1  'x, y, z'
loop_
 _atom_site_type_symbol
 _atom_site_label
 _atom_site_symmetry_multiplicity
 _atom_site_fract_x
 _atom_site_fract_y
 _atom_site_fract_z
 _atom_site_occupancy
  Zr  Zr0  1  0.20045465  0.29078392  0.74259514  1
  Zr  Zr1  1  0.11746012  0.32822518  0.92051657  1
  Zr  Zr2  1  0.93340008  0.22184419  0.37319327  1
  Zr  Zr3  1  0.35434299  0.33293409  0.29274456  1
  Zr  Zr4  1  0.91129817  0.74274497  0.08418567  1
  Zr  Zr5  1  0.83618348  0.03456608  0.19762381  1
  Zr  Zr6  1  0.18379041  0.64152029  0.33191270  1
  Zr  Zr7  1  0.94796109  0.88383144  0.88842539  1
  Zr  Zr8  1  0.39958875  0.14602927  0.43036412  1
  Zr  Zr9  1  0.76145651  0.57279387  0.18535735  1
  Zr  Zr10  1  0.68490750  0.70678703  0.01347884  1
  Zr  Zr11  1  0.83129010  0.70702017  0.86875164  1
  Zr  Zr12  1  0.50881297  0.22802908  0.93463152  1
  Zr  Zr13  1  0.74332108  0.32022555  0.89153996  1
  Zr  Zr14  1  0.63181733  0.68064000  0.78157596  1
  Zr  Zr15  1  0.19943640  0.15725004  0.40667228  1
  Zr  Zr16  1  0.75548071  0.36956924  0.31796813  1
  Zr  Zr17  1  0.68584469  0.41681747  0.52281650  1
  Zr  Zr18  1  0.22683455  0.66631559  0.68359079  1
  Zr  Zr19  1  0.90881766  0.85859080  0.28625461  1
  Zr  Zr20  1  0.46059463  0.92378027  0.45631972  1
  Zr  Zr21  1  0.63319562  0.87593901  0.90482256  1
  Zr  Zr22  1  0.09752502  0.83517933  0.57238821  1
  Zr  Zr23  1  0.47795362  0.90466381  0.24047964  1
  Zr  Zr24  1  0.31883117  0.45070214  0.70689531  1
  Zr  Zr25  1  0.47781867  0.83036229  0.05248104  1
  Zr  Zr26  1  0.86676013  0.14689400  0.78997067  1
  Zr  Zr27  1  0.61301718  0.28679749  0.74474487  1
  Zr  Zr28  1  0.42409681  0.64053841  0.74877550  1
  Zr  Zr29  1  0.09609725  0.11598096  0.66279250  1
  Zr  Zr30  1  0.08120475  0.15867242  0.07886105  1
  Zr  Zr31  1  0.56775613  0.42056634  0.22261300  1
  Zr  Zr32  1  0.68569098  0.21530728  0.08042388  1
  Zr  Zr33  1  0.53059755  0.72720800  0.37356761  1
  Zr  Zr34  1  0.72201570  0.52542522  0.93332982  1
  Zr  Zr35  1  0.00906796  0.93950757  0.10554503  1
  Zr  Zr36  1  0.70860114  0.17402042  0.28207683  1
  Zr  Zr37  1  0.45291261  0.26053120  0.12545591  1
  Zr  Zr38  1  0.30367341  0.93216272  0.93662959  1
  Zr  Zr39  1  0.37569043  0.47246936  0.10131047  1
  Zr  Zr40  1  0.38459500  0.55411169  0.29762636  1
  Zr  Zr41  1  0.05321095  0.47878181  0.41935315  1
  Zr  Zr42  1  0.17702667  0.47843559  0.22499008  1
  Zr  Zr43  1  0.46234780  0.06061307  0.63038168  1
  Zr  Zr44  1  0.25227859  0.99472923  0.54641080  1
  Zr  Zr45  1  0.76713987  0.72767414  0.37838947  1
  Zr  Zr46  1  0.05004111  0.05764452  0.26873883  1
  Zr  Zr47  1  0.88363419  0.13635391  0.58411883  1
  Zr  Zr48  1  0.47729225  0.02696481  0.84354266  1
  Zr  Zr49  1  0.50171248  0.10470085  0.26659246  1
  Sc  Sc50  1  0.87303600  0.09515484  0.99797600  1
  Sc  Sc51  1  0.04191813  0.02888075  0.47289864  1
  Sc  Sc52  1  0.04621929  0.67548226  0.91921657  1
  Sc  Sc53  1  0.11411333  0.84512014  0.35093345  1
  Sc  Sc54  1  0.49379499  0.72250633  0.57625606  1
  Sc  Sc55  1  0.88233121  0.52553025  0.61959345  1
  Sc  Sc56  1  0.93994434  0.43170447  0.25183069  1
  Sc  Sc57  1  0.32061897  0.54288822  0.89995701  1
  Sc  Sc58  1  0.61301274  0.07856068  0.46712926  1
  Sc  Sc59  1  0.23649282  0.92193811  0.14902246  1
  Sc  Sc60  1  0.99036487  0.31406160  0.72735941  1
  Sc  Sc61  1  0.52712162  0.64437721  0.17134796  1
  Sc  Sc62  1  0.50343218  0.62034283  0.95761291  1
  Sc  Sc63  1  0.96813371  0.64426285  0.28100316  1
  Sc  Sc64  1  0.42955647  0.04860129  0.06288714  1
  Sc  Sc65  1  0.68968000  0.79183453  0.19266470  1
  Sc  Sc66  1  0.10532436  0.47807810  0.62287173  1
  Sc  Sc67  1  0.33156872  0.57893059  0.51140128  1
  Sc  Sc68  1  0.25643159  0.73093906  0.87861014  1
  Sc  Sc69  1  0.29411581  0.78831785  0.48081385  1
  Sc  Sc70  1  0.51732086  0.48772922  0.63186279  1
  Sc  Sc71  1  0.07099725  0.07245042  0.88345701  1
  Sc  Sc72  1  0.09504281  0.28195824  0.53091711  1
  Sc  Sc73  1  0.81597759  0.74659842  0.65869079  1
  Sc  Sc74  1  0.67832572  0.09937652  0.88271977  1
  Sc  Sc75  1  0.92582594  0.53529505  0.04086645  1
  Sc  Sc76  1  0.67088297  0.86730639  0.52563123  1
  Sc  Sc77  1  0.34920207  0.86176778  0.69192855  1
  Sc  Sc78  1  0.79620224  0.90109457  0.02581048  1
  Sc  Sc79  1  0.27558919  0.16178589  0.95714389  1
  Sc  Sc80  1  0.40806771  0.24427021  0.75565003  1
  Sc  Sc81  1  0.27551319  0.06521826  0.76357925  1
  Sc  Sc82  1  0.51350787  0.26889879  0.56409794  1
  Sc  Sc83  1  0.27737299  0.13491707  0.20312029  1
  Sc  Sc84  1  0.63075698  1.00497952  0.10532149  1
  Sc  Sc85  1  0.01654157  0.68052157  0.70912033  1
  Sc  Sc86  1  0.96683359  0.95555946  0.68833119  1
  Sc  Sc87  1  0.57067506  0.88755724  0.70094125  1
  Sc  Sc88  1  0.33190149  0.77121307  0.27282814  1
  Sc  Sc89  1  0.77308877  0.94020021  0.75360795  1
  Sc  Sc90  1  0.11105195  0.28172889  0.26849027  1
  Sc  Sc91  1  0.30051905  0.69261714  0.08292413  1
  Sc  Sc92  1  0.91511399  0.47860802  0.83441906  1
  Sc  Sc93  1  0.67681009  0.94177749  0.32557670  1
  Sc  Sc94  1  0.88378068  0.88494529  0.50354047  1
  Sc  Sc95  1  0.57566336  0.41113214  0.02046083  1
  Sc  Sc96  1  0.14533914  0.88257942  0.77754392  1
  Sc  Sc97  1  0.68466877  0.62495047  0.54545081  1
  Sc  Sc98  1  0.15684047  0.52592726  0.02785217  1
  Sc  Sc99  1  0.30479310  0.36720012  0.49383206  1
  Nb  Nb100  1  0.29206929  0.18820480  0.59413443  1
  Nb  Nb101  1  0.10577934  0.72943597  0.14800053  1
  Nb  Nb102  1  0.79234683  0.38252895  0.09825039  1
  Nb  Nb103  1  0.49918206  0.46417218  0.42893284  1
  Nb  Nb104  1  0.13844277  0.50518218  0.81642719  1
  Nb  Nb105  1  0.67576601  0.11214942  0.66333859  1
  Nb  Nb106  1  0.92301164  0.28829380  0.96048520  1
  Nb  Nb107  1  0.83729178  0.53073816  0.40987619  1
  Nb  Nb108  1  0.12361311  0.65219313  0.50980950  1
  Nb  Nb109  1  0.45545895  0.80363347  0.86093069  1
  Nb  Nb110  1  0.89802730  0.35712107  0.50983417  1
  Nb  Nb111  1  0.79240220  0.31400386  0.67432744  1
  Nb  Nb112  1  0.73576065  0.23046334  0.48902533  1
  Nb  Nb113  1  0.55826356  0.28462010  0.36993683  1
  Nb  Nb114  1  0.03295506  0.36277167  0.09526087  1
  Nb  Nb115  1  0.70600609  0.48969864  0.73616190  1
  Nb  Nb116  1  0.94236613  0.68480780  0.48577458  1
  Nb  Nb117  1  0.51242126  0.44643111  0.83265737  1
  Nb  Nb118  1  0.23978282  0.32101297  0.09734440  1
  Nb  Nb119  1  0.64133866  0.56080560  0.34617655  1
  Nb  Nb120  1  0.90000356  0.22812654  0.17128671  1
  Nb  Nb121  1  0.33623757  0.35514901  0.92032995  1
  Nb  Nb122  1  0.29459029  0.97624537  0.34481959  1
  Nb  Nb123  1  0.83565625  0.05195642  0.39816740  1
  Nb  Nb124  1  0.12493027  0.84934231  0.98778275  1
