# generated using pymatgen
data_Zr2Sc2Nb
_symmetry_space_group_name_H-M   'P 1'
_cell_length_a   13.91233698
_cell_length_b   14.21870702
_cell_length_c   14.56227622
_cell_angle_alpha   88.87113442
_cell_angle_beta   90.77877914
_cell_angle_gamma   89.83000480
_symmetry_Int_Tables_number   1
_chemical_formula_structural   Zr2Sc2Nb
_chemical_formula_sum   'Zr50 Sc50 Nb25'
_cell_volume   2879.80291630
_cell_formula_units_Z   25
loop_
 _symmetry_equiv_pos_site_id
 _symmetry_equiv_pos_as_xyz
  1  'x, y, z'
loop_
 _atom_site_type_symbol
 _atom_site_label
 _atom_site_symmetry_multiplicity
 _atom_site_fract_x
 _atom_site_fract_y
 _atom_site_fract_z
 _atom_site_occupancy
  Zr  Zr0  1  0.79783934  0.27922326  0.67667211  1
  Zr  Zr1  1  0.37884234  0.63692563  0.44318312  1
  Zr  Zr2  1  0.71350758  0.75055259  0.81268232  1
  Zr  Zr3  1  0.46735275  0.52016699  0.07531491  1
  Zr  Zr4  1  0.91902808  0.39177547  0.80723371  1
  Zr  Zr5  1  0.00827543  0.28269365  -0.01812471  1
  Zr  Zr6  1  0.27649807  0.62984365  0.07448482  1
  Zr  Zr7  1  0.49496365  0.82534201  0.49167583  1
  Zr  Zr8  1  0.79425363  0.56286797  0.86836994  1
  Zr  Zr9  1  0.68209186  0.38016946  0.80630707  1
  Zr  Zr10  1  0.90407557  0.20333989  0.28670496  1
  Zr  Zr11  1  0.08396802  0.46450433  0.07458726  1
  Zr  Zr12  1  0.09795112  0.16480448  0.16131222  1
  Zr  Zr13  1  0.12834959  0.09969411  0.95753986  1
  Zr  Zr14  1  0.86589506  0.45370205  0.01650379  1
  Zr  Zr15  1  0.50390336  0.25299399  0.78129379  1
  Zr  Zr16  1  0.14329700  0.36526968  0.50932924  1
  Zr  Zr17  1  0.92896450  0.47416898  0.24950150  1
  Zr  Zr18  1  0.71683626  0.13003272  0.36607817  1
  Zr  Zr19  1  1.01153529  0.52597686  0.42824440  1
  Zr  Zr20  1  0.02522932  0.55000243  0.88891389  1
  Zr  Zr21  1  0.58146697  0.60556553  0.50227485  1
  Zr  Zr22  1  0.81407338  0.88567935  0.30164825  1
  Zr  Zr23  1  1.00786484  0.05731265  0.61263231  1
  Zr  Zr24  1  0.39560033  1.02801058  0.28364842  1
  Zr  Zr25  1  0.96750913  0.96942230  0.87378822  1
  Zr  Zr26  1  0.14926535  0.11055313  0.76654553  1
  Zr  Zr27  1  0.72326155  0.25420254  0.13770715  1
  Zr  Zr28  1  0.28266046  0.23922792  0.38576080  1
  Zr  Zr29  1  0.13784677  0.30495357  0.84505779  1
  Zr  Zr30  1  0.42587617  0.23435915  0.54697488  1
  Zr  Zr31  1  0.42346255  0.31136733  0.02625303  1
  Zr  Zr32  1  0.75873243  0.53767556  0.36870900  1
  Zr  Zr33  1  0.53841140  0.13992367  0.14794693  1
  Zr  Zr34  1  0.40522642  0.42204768  0.31454725  1
  Zr  Zr35  1  0.12220227  0.71560160  0.97698124  1
  Zr  Zr36  1  0.66748724  0.88263137  0.11205950  1
  Zr  Zr37  1  0.72748659  0.48434422  0.17089397  1
  Zr  Zr38  1  0.71790805  0.12737245  0.81566112  1
  Zr  Zr39  1  0.92740763  0.76553323  0.90044657  1
  Zr  Zr40  1  0.43454336  0.93957788  0.66199282  1
  Zr  Zr41  1  0.36531371  0.64660600  0.89176112  1
  Zr  Zr42  1  0.90412149  0.03049992  0.41894556  1
  Zr  Zr43  1  0.27358620  0.82466745  0.19293394  1
  Zr  Zr44  1  0.19249205  0.01870457  0.28218634  1
  Zr  Zr45  1  0.96532209  0.48653103  0.61903233  1
  Zr  Zr46  1  0.75315349  0.92210172  0.91657975  1
  Zr  Zr47  1  0.84097241  0.91206424  0.71353016  1
  Zr  Zr48  1  0.69688404  0.94089123  0.49317062  1
  Zr  Zr49  1  0.69043145  0.77155546  0.60757131  1
  Sc  Sc50  1  0.65781715  0.57264159  0.70312859  1
  Sc  Sc51  1  0.31759341  -0.00062268  0.86401281  1
  Sc  Sc52  1  0.51766886  0.05643430  0.87775887  1
  Sc  Sc53  1  0.49068201  0.78967187  0.28258861  1
  Sc  Sc54  1  0.92588690  0.64671940  0.09162523  1
  Sc  Sc55  1  0.78888355  0.09074315  0.59869069  1
  Sc  Sc56  1  0.71301564  0.68700458  0.01508157  1
  Sc  Sc57  1  0.49191145  0.72319544  0.08206107  1
  Sc  Sc58  1  0.53704260  0.40610055  0.63622093  1
  Sc  Sc59  1  0.51341754  0.22352088  0.34222566  1
  Sc  Sc60  1  0.64009541  0.43293886  0.99608783  1
  Sc  Sc61  1  0.10375072  0.92411695  0.07245492  1
  Sc  Sc62  1  0.74488589  0.44321010  0.55555922  1
  Sc  Sc63  1  0.90256295  0.31853739  0.46560136  1
  Sc  Sc64  1  0.04117717  0.85210598  0.68700734  1
  Sc  Sc65  1  0.11064866  0.33747532  0.26821302  1
  Sc  Sc66  1  0.89200697  0.84077326  0.51295037  1
  Sc  Sc67  1  0.02765014  0.27426191  0.65234612  1
  Sc  Sc68  1  0.36247147  0.56083898  0.69906249  1
  Sc  Sc69  1  0.14533214  0.47091390  0.72285779  1
  Sc  Sc70  1  0.88420749  0.87717968  0.09244862  1
  Sc  Sc71  1  0.21284325  0.50201602  0.35610140  1
  Sc  Sc72  1  0.26239894  0.45856194  0.92781307  1
  Sc  Sc73  1  0.30493320  1.03110845  0.48126265  1
  Sc  Sc74  1  0.93358713  0.16444233  0.80912448  1
  Sc  Sc75  1  0.65226061  0.25146934  0.51734249  1
  Sc  Sc76  1  0.47204429  0.94625628  0.08814343  1
  Sc  Sc77  1  0.21829506  0.95933740  0.65911253  1
  Sc  Sc78  1  0.11183607  0.63054831  0.21116788  1
  Sc  Sc79  1  0.30270273  0.07712203  0.07932769  1
  Sc  Sc80  1  0.30774341  0.83477736  0.99021753  1
  Sc  Sc81  1  0.06088616  0.83941465  0.27115984  1
  Sc  Sc82  1  0.51832583  0.82992197  0.89326968  1
  Sc  Sc83  1  0.14970762  0.67947830  0.75430039  1
  Sc  Sc84  1  0.35643601  0.43332092  0.51779809  1
  Sc  Sc85  1  0.82768153  0.63756905  0.52879997  1
  Sc  Sc86  1  0.90808435  0.67283576  0.71804562  1
  Sc  Sc87  1  0.60228739  0.96313796  0.29629822  1
  Sc  Sc88  1  0.27081130  0.76775344  0.57922653  1
  Sc  Sc89  1  0.49602980  0.72734930  0.70286529  1
  Sc  Sc90  1  0.73334411  0.70168012  0.21619403  1
  Sc  Sc91  1  0.30689567  0.33032078  0.70721362  1
  Sc  Sc92  1  0.08162967  0.15410742  0.41461293  1
  Sc  Sc93  1  0.28369036  0.43476902  0.15679260  1
  Sc  Sc94  1  0.55467026  0.57957093  0.27816203  1
  Sc  Sc95  1  0.90343382  0.10031561  0.04325442  1
  Sc  Sc96  1  0.92250639  0.69563767  0.34163327  1
  Sc  Sc97  1  0.63250290  0.93632159  0.72620569  1
  Sc  Sc98  1  0.10645988  0.91010274  0.46789956  1
  Sc  Sc99  1  0.51733188  0.05075054  0.47956620  1
  Nb  Nb100  1  0.68472008  0.75338710  0.40189345  1
  Nb  Nb101  1  0.68485678  0.07299192  1.01864729  1
  Nb  Nb102  1  0.32495498  0.20816379  0.88776734  1
  Nb  Nb103  1  0.20857983  0.18000694  0.58408832  1
  Nb  Nb104  1  0.56543628  0.60289041  0.88592619  1
  Nb  Nb105  1  0.54957869  0.35994571  0.19132110  1
  Nb  Nb106  1  0.19016454  0.56937153  0.55253279  1
  Nb  Nb107  1  0.33997457  0.23359313  0.20449959  1
  Nb  Nb108  1  0.59276295  0.24068214  0.95993033  1
  Nb  Nb109  1  0.30512267  0.84327322  0.37976331  1
  Nb  Nb110  1  0.77035077  0.05277406  0.19481424  1
  Nb  Nb111  1  0.04525582  0.69326477  0.54845015  1
  Nb  Nb112  1  0.36404872  0.11958067  0.70086558  1
  Nb  Nb113  1  0.21325137  0.27858784  0.04466753  1
  Nb  Nb114  1  0.57304715  0.41727960  0.41904569  1
  Nb  Nb115  1  0.14359990  0.88471125  0.85931343  1
  Nb  Nb116  1  0.79580528  0.26728437  0.94619970  1
  Nb  Nb117  1  0.31309993  0.80717888  0.78119289  1
  Nb  Nb118  1  0.34091334  0.63787084  0.25478756  1
  Nb  Nb119  1  0.57850142  0.12195121  0.65998514  1
  Nb  Nb120  1  0.91775257  0.31536837  0.14102632  1
  Nb  Nb121  1  0.17032632  0.70284855  0.39344550  1
  Nb  Nb122  1  -0.02555137  0.01969685  0.23422937  1
  Nb  Nb123  1  0.46803055  0.43588470  0.85661213  1
  Nb  Nb124  1  0.73212175  0.34062009  0.32305183  1
