# generated using pymatgen
data_Zr2Sc2Nb
_symmetry_space_group_name_H-M   'P 1'
_cell_length_a   14.36940186
_cell_length_b   14.35644772
_cell_length_c   13.92977992
_cell_angle_alpha   89.47507823
_cell_angle_beta   90.44490225
_cell_angle_gamma   91.88982943
_symmetry_Int_Tables_number   1
_chemical_formula_structural   Zr2Sc2Nb
_chemical_formula_sum   'Zr50 Sc50 Nb25'
_cell_volume   2871.86037475
_cell_formula_units_Z   25
loop_
 _symmetry_equiv_pos_site_id
 _symmetry_equiv_pos_as_xyz
  1  'x, y, z'
loop_
 _atom_site_type_symbol
 _atom_site_label
 _atom_site_symmetry_multiplicity
 _atom_site_fract_x
 _atom_site_fract_y
 _atom_site_fract_z
 _atom_site_occupancy
  Zr  Zr0  1  0.67376614  0.88400749  0.90119000  1
  Zr  Zr1  1  0.06914473  0.34228395  0.56535995  1
  Zr  Zr2  1  0.29077120  0.50989896  0.71870316  1
  Zr  Zr3  1  0.12856019  0.40506317  0.30699898  1
  Zr  Zr4  1  0.40230209  0.48771055  0.51136533  1
  Zr  Zr5  1  0.13924110  0.84505916  0.27971057  1
  Zr  Zr6  1  0.32843010  0.10651478  0.50231599  1
  Zr  Zr7  1  0.73466098  0.25564253  0.66508218  1
  Zr  Zr8  1  0.89480724  0.61628111  0.76159300  1
  Zr  Zr9  1  0.93026423  0.15012896  0.07468957  1
  Zr  Zr10  1  0.15949321  0.17295419  0.58449709  1
  Zr  Zr11  1  0.82175348  0.07966952  0.24206716  1
  Zr  Zr12  1  0.55401457  0.31010283  0.25399669  1
  Zr  Zr13  1  0.50067477  0.68056899  0.37924466  1
  Zr  Zr14  1  0.07517468  0.89205326  0.87301189  1
  Zr  Zr15  1  0.32294911  0.86151978  0.11408656  1
  Zr  Zr16  1  0.56706540  0.79936447  0.21772497  1
  Zr  Zr17  1  0.17763802  0.49254936  0.92245025  1
  Zr  Zr18  1  0.93213345  0.96218023  0.67767409  1
  Zr  Zr19  1  0.40103514  0.20005470  0.13637671  1
  Zr  Zr20  1  0.17335578  0.31730763  0.77489028  1
  Zr  Zr21  1  0.47731020  0.11758834  0.35111318  1
  Zr  Zr22  1  0.88096128  0.29287701  0.45434412  1
  Zr  Zr23  1  0.33988687  0.30593344  0.63413859  1
  Zr  Zr24  1  0.53850994  0.68700585  0.87186945  1
  Zr  Zr25  1  0.76266738  0.07666853  0.62241084  1
  Zr  Zr26  1  0.17776620  0.69541783  0.08136605  1
  Zr  Zr27  1  0.68177479  -0.01926499  0.08680826  1
  Zr  Zr28  1  0.27236593  0.97423443  0.92410369  1
  Zr  Zr29  1  0.26226506  0.52492264  0.13716593  1
  Zr  Zr30  1  0.46489735  0.31510875  0.44142285  1
  Zr  Zr31  1  0.46937094  -0.01563347  0.18421357  1
  Zr  Zr32  1  0.33176267  0.75881826  0.93747863  1
  Zr  Zr33  1  0.53204305  0.16560599  0.57038522  1
  Zr  Zr34  1  0.25488983  0.86326602  0.74844113  1
  Zr  Zr35  1  0.59261326  0.56297395  0.50398667  1
  Zr  Zr36  1  0.48816339  0.51298989  0.27576580  1
  Zr  Zr37  1  0.37734379  0.55929983  0.93181210  1
  Zr  Zr38  1  0.98784098  0.64127981  0.57429656  1
  Zr  Zr39  1  0.95283133  0.09304673  0.46512791  1
  Zr  Zr40  1  0.25885475  0.05933114  0.12436293  1
  Zr  Zr41  1  0.13750260  0.68993030  0.41830510  1
  Zr  Zr42  1  0.68014761  0.78043598  0.46189031  1
  Zr  Zr43  1  0.14509247  0.97521411  0.63158474  1
  Zr  Zr44  1  0.02709534  0.85815346  0.50255245  1
  Zr  Zr45  1  0.86867213  0.82371079  0.85830222  1
  Zr  Zr46  1  0.45935884  0.42626495  0.07662373  1
  Zr  Zr47  1  0.07414433  0.27482627  0.95627318  1
  Zr  Zr48  1  0.56192324  0.07228828  0.74615770  1
  Zr  Zr49  1  0.89124828  0.41239021  0.66416928  1
  Sc  Sc50  1  0.93633486  0.75791215  0.15213761  1
  Sc  Sc51  1  0.88142774  0.45598826  0.27096096  1
  Sc  Sc52  1  0.90769530  0.72298031  0.37910044  1
  Sc  Sc53  1  0.97835854  0.64626975  0.96575035  1
  Sc  Sc54  1  0.18655720  0.70301865  0.62767382  1
  Sc  Sc55  1  0.67374417  0.36761914  0.48678766  1
  Sc  Sc56  1  0.08052427  0.51079406  0.71237849  1
  Sc  Sc57  1  0.76103234  0.27786249  0.24740173  1
  Sc  Sc58  1  0.72857809  0.09382955  0.85266291  1
  Sc  Sc59  1  0.79506191  0.56560449  0.49836843  1
  Sc  Sc60  1  0.29142805  0.56323064  0.34094777  1
  Sc  Sc61  1  0.07017862  0.07245883  0.22575726  1
  Sc  Sc62  1  0.46904110  0.88229392  0.81709811  1
  Sc  Sc63  1  0.64197892  0.98266721  0.32006563  1
  Sc  Sc64  1  0.26604108  0.34677956  0.03971772  1
  Sc  Sc65  1  0.38070082  0.35439859  0.85948520  1
  Sc  Sc66  1  0.69559404  0.46512797  0.70568401  1
  Sc  Sc67  1  0.53217310  0.23986212  0.96770693  1
  Sc  Sc68  1  0.32606664  0.76186591  0.29819341  1
  Sc  Sc69  1  0.95308868  0.18618482  0.66708860  1
  Sc  Sc70  1  0.52607806  0.76845631  0.61431381  1
  Sc  Sc71  1  0.49566607  0.54164213  0.70880195  1
  Sc  Sc72  1  0.05805215  0.60626729  0.24322571  1
  Sc  Sc73  1  0.95630398  0.92700890  0.30165125  1
  Sc  Sc74  1  0.81439026  0.57116678  0.10818320  1
  Sc  Sc75  1  0.92250656  0.04363346  0.88163613  1
  Sc  Sc76  1  0.80951669  0.93813280  0.46530567  1
  Sc  Sc77  1  0.69503208  0.67084207  0.69266306  1
  Sc  Sc78  1  0.66761561  0.38758693  0.07968067  1
  Sc  Sc79  1  0.98946182  0.48959833  0.44090085  1
  Sc  Sc80  1  0.15380802  0.67984951  0.84145835  1
  Sc  Sc81  1  0.48209198  0.03431184  0.97413564  1
  Sc  Sc82  1  0.41322746  0.94834889  0.61913151  1
  Sc  Sc83  1  0.79519394  0.47080907  0.90031782  1
  Sc  Sc84  1  0.53592981  0.31665864  0.72051636  1
  Sc  Sc85  1  0.05430531  0.44765591  0.09860821  1
  Sc  Sc86  1  0.69945372  0.88893140  0.69148935  1
  Sc  Sc87  1  0.73593849  0.66197506  0.91347605  1
  Sc  Sc88  1  0.88251742  0.26190291  0.85426180  1
  Sc  Sc89  1  0.46458465  0.88988370  0.41154755  1
  Sc  Sc90  1  0.59791889  0.60492931  0.09074581  1
  Sc  Sc91  1  0.69542397  0.16133731  0.42416375  1
  Sc  Sc92  1  0.19149099  0.51111757  0.52353885  1
  Sc  Sc93  1  0.87451401  0.35294673  0.05826361  1
  Sc  Sc94  1  0.71716638  0.66215254  0.28477395  1
  Sc  Sc95  1  0.12151216  0.10291776  0.79831852  1
  Sc  Sc96  1  0.33949803  0.11184239  0.74580286  1
  Sc  Sc97  1  0.33386813  0.35957418  0.26246851  1
  Sc  Sc98  1  0.09578434  0.89467563  0.08188402  1
  Sc  Sc99  1  0.25725139  0.86366647  0.48845670  1
  Nb  Nb100  1  0.27314662  0.17717047  0.94371377  1
  Nb  Nb101  1  0.73730893  0.78174526  0.07531389  1
  Nb  Nb102  1  0.57778737  0.46819380  0.89837048  1
  Nb  Nb103  1  0.09796049  0.07914998  0.00339166  1
  Nb  Nb104  1  0.30029120  0.98110265  0.31033830  1
  Nb  Nb105  1  0.67634374  0.47103369  0.29835870  1
  Nb  Nb106  1  0.26302794  0.17369733  0.31441994  1
  Nb  Nb107  1  0.35794072  0.68025557  0.52657069  1
  Nb  Nb108  1  0.52235006  0.82017947  1.02704843  1
  Nb  Nb109  1  0.14573501  0.24343375  0.15620278  1
  Nb  Nb110  1  0.88590024  0.94309509  0.06779035  1
  Nb  Nb111  1  0.68897404  0.30375325  0.86543151  1
  Nb  Nb112  1  0.60572621  0.14385593  0.16793893  1
  Nb  Nb113  1  0.85209295  0.77747343  0.60628285  1
  Nb  Nb114  1  0.08722535  0.22454073  0.38695888  1
  Nb  Nb115  1  0.96646209  0.26644412  0.24609697  1
  Nb  Nb116  1  0.73921214  0.18831301  0.03693447  1
  Nb  Nb117  1  -0.00993905  0.44609670  0.87885166  1
  Nb  Nb118  1  0.60282137  0.98536396  0.53122463  1
  Nb  Nb119  1  0.02541241  0.78925378  0.71361842  1
  Nb  Nb120  1  0.25498498  0.32229376  0.45684320  1
  Nb  Nb121  1  0.40701645  0.66528054  0.12804495  1
  Nb  Nb122  1  0.36635000  0.69979610  0.74001977  1
  Nb  Nb123  1  0.77728492  0.85965973  0.24816943  1
  Nb  Nb124  1  0.14033664  0.02664788  0.41787535  1
