# generated using pymatgen
data_Zr2Sc2Nb
_symmetry_space_group_name_H-M   'P 1'
_cell_length_a   13.31958393
_cell_length_b   15.11312836
_cell_length_c   14.20725797
_cell_angle_alpha   91.50167496
_cell_angle_beta   90.89730815
_cell_angle_gamma   86.44492022
_symmetry_Int_Tables_number   1
_chemical_formula_structural   Zr2Sc2Nb
_chemical_formula_sum   'Zr50 Sc50 Nb25'
_cell_volume   2853.16311588
_cell_formula_units_Z   25
loop_
 _symmetry_equiv_pos_site_id
 _symmetry_equiv_pos_as_xyz
  1  'x, y, z'
loop_
 _atom_site_type_symbol
 _atom_site_label
 _atom_site_symmetry_multiplicity
 _atom_site_fract_x
 _atom_site_fract_y
 _atom_site_fract_z
 _atom_site_occupancy
  Zr  Zr0  1  0.81790366  0.41737515  0.28854373  1
  Zr  Zr1  1  0.29642935  0.44778798  0.06066083  1
  Zr  Zr2  1  0.49239247  0.37330283  0.11664349  1
  Zr  Zr3  1  0.73465524  0.62458743  0.31731737  1
  Zr  Zr4  1  0.52928737  0.89129421  0.86181713  1
  Zr  Zr5  1  0.93845522  0.26618070  0.89067058  1
  Zr  Zr6  1  0.31925112  0.02502851  0.73805952  1
  Zr  Zr7  1  0.05279515  0.89703793  0.23574900  1
  Zr  Zr8  1  0.95667151  0.31349341  0.68427115  1
  Zr  Zr9  1  0.31635776  0.33925538  0.46193191  1
  Zr  Zr10  1  0.88893768  0.79000444  0.42712862  1
  Zr  Zr11  1  0.93329976  0.39680628  0.48643483  1
  Zr  Zr12  1  0.88665513  0.39103921  0.07723213  1
  Zr  Zr13  1  0.10852306  0.33551271  0.02959205  1
  Zr  Zr14  1  0.53047563  0.89664071  0.62709790  1
  Zr  Zr15  1  0.47297510  0.04491687  0.41891328  1
  Zr  Zr16  1  0.85524944  0.88033138  0.04789722  1
  Zr  Zr17  1  0.70152590  0.12670192  0.54819347  1
  Zr  Zr18  1  0.19524747  0.74070012  0.90364165  1
  Zr  Zr19  1  0.81040825  0.66575772  0.78296672  1
  Zr  Zr20  1  0.16053650  0.86577014  0.70723954  1
  Zr  Zr21  1  0.51568222  0.30499531  0.89828929  1
  Zr  Zr22  1  0.68404802  0.27082331  0.19315722  1
  Zr  Zr23  1  0.60275987  0.73406325  0.72681896  1
  Zr  Zr24  1  0.51940145  0.08647150  0.20915241  1
  Zr  Zr25  1  0.89299978  0.03777447  0.91974540  1
  Zr  Zr26  1  0.43923411  0.90458230  0.23028522  1
  Zr  Zr27  1  0.08802257  0.54365536  0.00126657  1
  Zr  Zr28  1  0.74877227  0.54556243  -0.02241695  1
  Zr  Zr29  1  0.30164178  0.91294417  0.92732518  1
  Zr  Zr30  1  0.46841331  0.82800463  0.42534182  1
  Zr  Zr31  1  0.36455603  0.50412388  0.28931020  1
  Zr  Zr32  1  0.66144617  0.94515220  0.47011034  1
  Zr  Zr33  1  0.61115426  0.54951655  0.82658877  1
  Zr  Zr34  1  0.10398095  0.19268152  0.19397682  1
  Zr  Zr35  1  0.62815739  0.21671917  0.72365256  1
  Zr  Zr36  1  0.51500871  0.24023765  0.52462392  1
  Zr  Zr37  1  0.48312119  0.26857316  0.31146210  1
  Zr  Zr38  1  0.70335144  0.29815822  0.41655678  1
  Zr  Zr39  1  0.13687257  0.45705297  0.42350943  1
  Zr  Zr40  1  0.96760567  0.04791189  0.14830511  1
  Zr  Zr41  1  0.06965038  0.73004944  0.09334511  1
  Zr  Zr42  1  0.90835698  0.57441026  0.14779847  1
  Zr  Zr43  1  0.25419163  0.02365095  0.13307780  1
  Zr  Zr44  1  0.70040997  0.69694095  0.11746974  1
  Zr  Zr45  1  0.25545511  0.34576212  0.25110563  1
  Zr  Zr46  1  0.52296544  0.56099055  1.03896398  1
  Zr  Zr47  1  0.08220822  0.07690599  0.61412679  1
  Zr  Zr48  1  0.10440591  1.01610461  0.82443605  1
  Zr  Zr49  1  0.87974448  0.76455326  0.21625355  1
  Sc  Sc50  1  0.08540543  0.87561027  0.50014494  1
  Sc  Sc51  1  0.51225493  0.09480259  0.83806505  1
  Sc  Sc52  1  0.72524342  0.49906580  0.47009015  1
  Sc  Sc53  1  0.92355846  0.47416368  0.88808019  1
  Sc  Sc54  1  0.29862315  0.55689578  0.49755623  1
  Sc  Sc55  1  0.82276319  0.96379159  0.29681654  1
  Sc  Sc56  1  0.28062395  0.14998167  0.53733032  1
  Sc  Sc57  1  0.57659090  0.45729051  0.31449346  1
  Sc  Sc58  1  0.90613123  0.19880622  0.50940713  1
  Sc  Sc59  1  0.65813526  0.81839892  0.30392045  1
  Sc  Sc60  1  0.70022804  0.00898478  0.72980477  1
  Sc  Sc61  1  0.63802072  0.89921821  0.10760675  1
  Sc  Sc62  1  0.50727615  0.44029395  0.51580303  1
  Sc  Sc63  1  0.28463427  0.33412671  0.88768228  1
  Sc  Sc64  1  0.86920872  0.63004701  0.55109528  1
  Sc  Sc65  1  0.73966456  0.08049551  0.12763728  1
  Sc  Sc66  1  0.88586904  0.20391973  0.28920590  1
  Sc  Sc67  1  0.73954227  0.36935550  0.81378387  1
  Sc  Sc68  1  0.99085540  0.75426804  0.66147717  1
  Sc  Sc69  1  0.15113867  0.55108338  0.21751135  1
  Sc  Sc70  1  0.09517358  0.13458428  0.99423275  1
  Sc  Sc71  1  0.03078765  0.38249702  0.24287773  1
  Sc  Sc72  1  0.42967584  0.59515048  0.67555384  1
  Sc  Sc73  1  0.31010189  0.95157835  0.54909209  1
  Sc  Sc74  1  0.30163074  0.64026194  0.07381493  1
  Sc  Sc75  1  0.31268431  0.12717406  0.92440207  1
  Sc  Sc76  1  0.65934467  0.72374832  0.50635073  1
  Sc  Sc77  1  0.51611317  0.65984493  0.23713416  1
  Sc  Sc78  1  0.09032776  0.92140521  0.01906642  1
  Sc  Sc79  1  0.25117004  0.92608604  0.34114009  1
  Sc  Sc80  1  -0.00834908  0.82155674  0.86464454  1
  Sc  Sc81  1  0.29732689  0.14134864  0.31397616  1
  Sc  Sc82  1  0.78072021  0.83668066  0.63093645  1
  Sc  Sc83  1  0.86713089  0.14049678  0.72406496  1
  Sc  Sc84  1  0.07840811  0.50965604  0.62987549  1
  Sc  Sc85  1  0.85620529  0.49026731  0.68758021  1
  Sc  Sc86  1  0.09687804  0.73047234  0.32264254  1
  Sc  Sc87  1  0.05138056  0.05787116  0.37468794  1
  Sc  Sc88  1  0.29737080  0.43544499  0.68148389  1
  Sc  Sc89  1  0.31633438  0.71506082  0.30633830  1
  Sc  Sc90  1  0.34266546  0.21812975  0.10717367  1
  Sc  Sc91  1  0.14594749  0.20645070  0.77553534  1
  Sc  Sc92  1  0.46083324  0.78924326  0.05304931  1
  Sc  Sc93  1  0.36816328  0.80591950  0.72678292  1
  Sc  Sc94  1  0.10506538  0.25099812  0.40791003  1
  Sc  Sc95  1  0.42161154  0.68018277  0.87836984  1
  Sc  Sc96  1  0.37791329  0.23992686  0.70927955  1
  Sc  Sc97  1  0.29343020  0.75084459  0.52488744  1
  Sc  Sc98  1  0.95694188  0.57674048  0.35946612  1
  Sc  Sc99  1  0.88262779  -0.00949068  0.51608055  1
  Nb  Nb100  1  0.67554413  0.12154312  0.34918778  1
  Nb  Nb101  1  0.88759991  0.69100680  0.97645440  1
  Nb  Nb102  1  0.42319400  0.47806186  0.87946419  1
  Nb  Nb103  1  0.67508508  1.00359704  0.94686944  1
  Nb  Nb104  1  0.55911690  0.17480152  0.03548444  1
  Nb  Nb105  1  0.03471239  0.61862166  0.81112818  1
  Nb  Nb106  1  0.09559660  0.66169169  0.50762248  1
  Nb  Nb107  1  0.65336461  0.73634679  0.93384780  1
  Nb  Nb108  1  0.49944114  0.62189795  0.44577688  1
  Nb  Nb109  1  0.23754709  0.54843125  0.85569839  1
  Nb  Nb110  1  0.10050014  0.41016875  0.80621235  1
  Nb  Nb111  1  0.72514776  0.34439624  0.60476060  1
  Nb  Nb112  1  0.69234504  0.34703995  1.01122310  1
  Nb  Nb113  1  0.72865747  0.18035379  0.91495746  1
  Nb  Nb114  1  0.20593370  0.65981669  0.69425664  1
  Nb  Nb115  1  0.45875725  1.00574895  0.03317297  1
  Nb  Nb116  1  0.25258151  0.83085000  0.13650733  1
  Nb  Nb117  1  0.53028087  0.39782716  0.71158156  1
  Nb  Nb118  1  0.93858218  0.94901411  0.71563218  1
  Nb  Nb119  1  0.77364835  0.85533751  0.84713873  1
  Nb  Nb120  1  0.14585104  0.31302498  0.60002581  1
  Nb  Nb121  1  0.68582457  0.49162657  0.15442069  1
  Nb  Nb122  1  0.64756797  0.55404142  0.63609440  1
  Nb  Nb123  1  0.88536502  0.21027396  0.07091584  1
  Nb  Nb124  1  0.49472188  0.07585186  0.61998380  1
