# generated using pymatgen
data_Zr2Sc2Nb
_symmetry_space_group_name_H-M   'P 1'
_cell_length_a   14.19744521
_cell_length_b   14.34521745
_cell_length_c   14.05164076
_cell_angle_alpha   88.90050073
_cell_angle_beta   90.44318205
_cell_angle_gamma   89.19995659
_symmetry_Int_Tables_number   1
_chemical_formula_structural   Zr2Sc2Nb
_chemical_formula_sum   'Zr50 Sc50 Nb25'
_cell_volume   2860.93605053
_cell_formula_units_Z   25
loop_
 _symmetry_equiv_pos_site_id
 _symmetry_equiv_pos_as_xyz
  1  'x, y, z'
loop_
 _atom_site_type_symbol
 _atom_site_label
 _atom_site_symmetry_multiplicity
 _atom_site_fract_x
 _atom_site_fract_y
 _atom_site_fract_z
 _atom_site_occupancy
  Zr  Zr0  1  0.13087794  0.31769451  0.11220755  1
  Zr  Zr1  1  0.00403514  0.88893880  0.05677053  1
  Zr  Zr2  1  0.05147569  0.95912723  0.47308489  1
  Zr  Zr3  1  0.64040384  0.94034152  0.36823264  1
  Zr  Zr4  1  0.49294516  0.34712743  0.32578004  1
  Zr  Zr5  1  0.66178689  0.33408879  0.91445024  1
  Zr  Zr6  1  0.33479444  0.29824672  0.20047481  1
  Zr  Zr7  1  0.47605916  0.09881688  0.03239408  1
  Zr  Zr8  1  0.32284387  0.91251830  0.75438577  1
  Zr  Zr9  1  0.14223697  0.18824104  0.29370444  1
  Zr  Zr10  1  0.13352801  0.88042647  0.87398440  1
  Zr  Zr11  1  0.26563615  0.57218763  0.85689466  1
  Zr  Zr12  1  0.56490361  0.76236422  0.46587983  1
  Zr  Zr13  1  0.92913988  0.75960364  0.45812426  1
  Zr  Zr14  1  0.07031919  0.83573182  0.66323309  1
  Zr  Zr15  1  0.51644468  0.80332470  0.83284076  1
  Zr  Zr16  1  0.90974507  0.36535111  0.82757017  1
  Zr  Zr17  1  0.73295009  0.68635466  0.88628093  1
  Zr  Zr18  1  0.29314035  0.54602654  0.64462112  1
  Zr  Zr19  1  1.00721445  0.02585592  0.24695462  1
  Zr  Zr20  1  0.07376290  0.53121211  0.13629621  1
  Zr  Zr21  1  0.48362579  0.02088515  0.82025120  1
  Zr  Zr22  1  0.19780187  0.12802355  0.51238868  1
  Zr  Zr23  1  0.64483246  0.93643331  0.95309130  1
  Zr  Zr24  1  0.53411591  0.55975593  0.58916183  1
  Zr  Zr25  1  0.58605779  0.11498304  0.46345144  1
  Zr  Zr26  1  0.67570994  0.47988100  0.23864928  1
  Zr  Zr27  1  0.07205650  0.09383370  0.06090604  1
  Zr  Zr28  1  0.54294573  0.16527108  0.67062077  1
  Zr  Zr29  1  0.59121098  0.52969353  0.81587000  1
  Zr  Zr30  1  0.76143053  0.53227012  0.69234858  1
  Zr  Zr31  1  0.77441167  0.09651700  0.26356518  1
  Zr  Zr32  1  0.52517577  0.31962457  0.09092429  1
  Zr  Zr33  1  0.25248545  0.33542910  0.62133348  1
  Zr  Zr34  1  0.89695249  0.38957687  0.39222319  1
  Zr  Zr35  1  0.85782866  0.17378583  0.75111243  1
  Zr  Zr36  1  0.82513207  0.59459717  0.33891997  1
  Zr  Zr37  1  0.97466875  0.12187738  0.58870899  1
  Zr  Zr38  1  0.70024197  0.73632842  0.28369917  1
  Zr  Zr39  1  0.29241749  0.82579032  0.33441550  1
  Zr  Zr40  1  0.92612704  0.54953307  0.54242234  1
  Zr  Zr41  1  0.90753870  0.95310158  0.68590593  1
  Zr  Zr42  1  0.75486237  0.35272070  0.09983833  1
  Zr  Zr43  1  0.77023607  0.22001449  0.51903010  1
  Zr  Zr44  1  0.31024341  0.25848369  0.99118790  1
  Zr  Zr45  1  0.74642813  0.85284884  0.54467584  1
  Zr  Zr46  1  0.20974061  0.89894737  0.12351054  1
  Zr  Zr47  1  0.72489739  0.05234709  0.64680019  1
  Zr  Zr48  1  0.71765528  0.28720799  0.31789421  1
  Zr  Zr49  1  0.08615966  0.23257086  0.71538271  1
  Sc  Sc50  1  0.64330697  0.94055951  0.16078448  1
  Sc  Sc51  1  0.29776737  0.48661977  0.29042762  1
  Sc  Sc52  1  0.27214085  0.02917604  0.93713316  1
  Sc  Sc53  1  0.40424758  0.78059138  0.59771301  1
  Sc  Sc54  1  0.69332245  0.32900859  0.70745477  1
  Sc  Sc55  1  0.15596866  0.72762604  0.48063416  1
  Sc  Sc56  1  0.18702466  0.65987945  0.26138141  1
  Sc  Sc57  1  0.49204515  0.76664359  0.26588786  1
  Sc  Sc58  1  0.93402060  0.24166121  0.17881384  1
  Sc  Sc59  1  0.33998892  0.71494073  0.12408452  1
  Sc  Sc60  1  0.08163385  0.62352671  0.64610696  1
  Sc  Sc61  1  0.45438066  0.63447956  0.96469505  1
  Sc  Sc62  1  0.09227964  0.48087702  0.92024143  1
  Sc  Sc63  1  0.60496215  0.72383606  0.07628236  1
  Sc  Sc64  1  0.41780057  0.96436100  0.21375443  1
  Sc  Sc65  1  0.94407532  0.70092576  0.18661488  1
  Sc  Sc66  1  0.80212311  0.81406004  0.05201651  1
  Sc  Sc67  1  0.13824943  0.70927343  0.03655588  1
  Sc  Sc68  1  0.26996701  0.10525109  0.14475577  1
  Sc  Sc69  1  0.29841883  0.16289520  0.76088880  1
  Sc  Sc70  1  0.92078321  0.80877072  0.86375245  1
  Sc  Sc71  1  0.67025998  0.12588180  0.84749553  1
  Sc  Sc72  1  0.16825964  0.50010667  0.48022172  1
  Sc  Sc73  1  0.36517710  0.13123346  0.35378971  1
  Sc  Sc74  1  0.72328476  0.45608699  0.48169603  1
  Sc  Sc75  1  0.87786128  0.20188617  0.96990263  1
  Sc  Sc76  1  0.35851529  0.64394885  0.43783857  1
  Sc  Sc77  1  0.63075356  0.71726260  0.68204594  1
  Sc  Sc78  1  0.57409335  0.33469468  0.52305813  1
  Sc  Sc79  1  0.09142787  0.39694378  0.30226694  1
  Sc  Sc80  1  0.94565104  0.18166022  0.38407234  1
  Sc  Sc81  1  0.09391426  0.26382130  0.91718578  1
  Sc  Sc82  1  0.90110384  0.35698668  0.62154847  1
  Sc  Sc83  1  0.07277686  0.31031070  0.50601088  1
  Sc  Sc84  1  0.86729536  0.72629085  0.67561147  1
  Sc  Sc85  1  0.46932944  0.52454741  0.16354656  1
  Sc  Sc86  1  0.43525586  0.88445819  0.01525900  1
  Sc  Sc87  1  0.44962874  0.39618051  0.70927387  1
  Sc  Sc88  1  0.55417890  0.93202105  0.62757296  1
  Sc  Sc89  1  0.47412298  0.24108802  0.86463457  1
  Sc  Sc90  1  0.55223958  0.56577752  0.37623955  1
  Sc  Sc91  1  0.83566019  0.01324675  0.45389134  1
  Sc  Sc92  1  0.68573442  0.14376700  0.06084186  1
  Sc  Sc93  1  0.84727590  0.88443077  0.27109167  1
  Sc  Sc94  1  0.07107077  0.83001980  0.29510048  1
  Sc  Sc95  1  0.28004505  0.47474720  0.05830080  1
  Sc  Sc96  1  0.43169219  0.94348749  0.43498015  1
  Sc  Sc97  1  0.55470349  0.14609815  0.24229258  1
  Sc  Sc98  1  0.02295971  0.06104510  0.85116158  1
  Sc  Sc99  1  0.40175728  0.23010168  0.53092943  1
  Nb  Nb100  1  0.93540781  0.56461389  0.79368135  1
  Nb  Nb101  1  0.42787348  0.64012954  0.75853890  1
  Nb  Nb102  1  0.72165420  0.88201443  0.77317944  1
  Nb  Nb103  1  0.44069548  0.43576584  0.92585511  1
  Nb  Nb104  1  0.83173073  -0.00214111  0.89435193  1
  Nb  Nb105  1  0.20748979  0.99690044  0.33052067  1
  Nb  Nb106  1  0.24010925  0.74098637  0.71152966  1
  Nb  Nb107  1  0.61961665  0.50858364  0.02309482  1
  Nb  Nb108  1  0.90011712  0.46307235  0.20775930  1
  Nb  Nb109  1  0.93644101  0.41261149  0.02662460  1
  Nb  Nb110  1  0.15269270  0.01959829  0.68515274  1
  Nb  Nb111  1  0.08923233  0.68480903  0.83732877  1
  Nb  Nb112  1  0.37345532  0.04221577  0.60579139  1
  Nb  Nb113  1  0.78725146  0.49559257  0.91780294  1
  Nb  Nb114  1  0.09322752  0.43694595  0.71348500  1
  Nb  Nb115  1  0.26309943  0.37177378  0.82593744  1
  Nb  Nb116  1  0.73263702  0.65669096  0.50599035  1
  Nb  Nb117  1  0.30018911  0.76912447  0.90452555  1
  Nb  Nb118  1  0.02108034  0.58946978  0.35510045  1
  Nb  Nb119  1  0.24102620  0.90947792  0.53909293  1
  Nb  Nb120  1  0.39169165  0.44129669  0.48695649  1
  Nb  Nb121  1  0.85694461  1.02177631  0.08932501  1
  Nb  Nb122  1  0.78520679  0.58971695  0.10177066  1
  Nb  Nb123  1  0.26527108  0.31387804  0.40128994  1
  Nb  Nb124  1  0.93808928  0.62608956  0.98502032  1
