# generated using pymatgen
data_Zr2Sc2Nb
_symmetry_space_group_name_H-M   'P 1'
_cell_length_a   14.13541939
_cell_length_b   14.28445461
_cell_length_c   14.20295947
_cell_angle_alpha   88.63168834
_cell_angle_beta   90.03388377
_cell_angle_gamma   89.50340209
_symmetry_Int_Tables_number   1
_chemical_formula_structural   Zr2Sc2Nb
_chemical_formula_sum   'Zr50 Sc50 Nb25'
_cell_volume   2866.88915155
_cell_formula_units_Z   25
loop_
 _symmetry_equiv_pos_site_id
 _symmetry_equiv_pos_as_xyz
  1  'x, y, z'
loop_
 _atom_site_type_symbol
 _atom_site_label
 _atom_site_symmetry_multiplicity
 _atom_site_fract_x
 _atom_site_fract_y
 _atom_site_fract_z
 _atom_site_occupancy
  Zr  Zr0  1  0.01428827  0.28100215  0.84330852  1
  Zr  Zr1  1  0.71486822  0.12000056  0.07515651  1
  Zr  Zr2  1  0.08870668  0.05979333  0.88399075  1
  Zr  Zr3  1  0.63211881  0.38491582  0.42510975  1
  Zr  Zr4  1  0.63397855  0.09882301  0.89680654  1
  Zr  Zr5  1  0.09650873  0.97440402  0.67193167  1
  Zr  Zr6  1  0.67721427  0.74759572  0.54121138  1
  Zr  Zr7  1  0.97848352  0.44585032  0.66595006  1
  Zr  Zr8  1  0.90831650  0.24186258  0.64387167  1
  Zr  Zr9  1  0.24809472  0.28893996  0.59133950  1
  Zr  Zr10  1  0.85632969  0.00574786  0.97219892  1
  Zr  Zr11  1  0.89631936  0.66603558  0.59527056  1
  Zr  Zr12  1  0.47525008  0.04312113  0.04155104  1
  Zr  Zr13  1  0.82937370  0.30486613  0.41815145  1
  Zr  Zr14  1  0.60362004  0.23183126  0.57882466  1
  Zr  Zr15  1  0.88943036  0.44960434  0.05674713  1
  Zr  Zr16  1  0.72777021  0.11865894  0.69596743  1
  Zr  Zr17  1  0.76120479  0.92594593  0.18078732  1
  Zr  Zr18  1  0.74881591  0.70666108  0.13385835  1
  Zr  Zr19  1  0.66023823  0.51572911  0.08179042  1
  Zr  Zr20  1  0.41977383  0.28820493  0.69172180  1
  Zr  Zr21  1  0.43363263  0.82118592  1.02933624  1
  Zr  Zr22  1  0.13100735  0.44167408  0.31380731  1
  Zr  Zr23  1  0.11414160  0.50104069  0.11825193  1
  Zr  Zr24  1  0.85762986  0.72963801  0.37541851  1
  Zr  Zr25  1  0.18092637  0.86641845  0.50601591  1
  Zr  Zr26  1  0.26500704  0.28149325  0.38870764  1
  Zr  Zr27  1  0.47649156  0.41264554  0.07718309  1
  Zr  Zr28  1  0.18755493  0.39135303  0.75248808  1
  Zr  Zr29  1  0.51613867  0.58304694  0.49519150  1
  Zr  Zr30  1  0.23380666  0.89232907  0.79782950  1
  Zr  Zr31  1  0.46474053  0.30908651  0.26545746  1
  Zr  Zr32  1  0.97284255  0.03123065  0.16051116  1
  Zr  Zr33  1  0.63663673  0.90390554  0.03479067  1
  Zr  Zr34  1  0.54795117  0.83823472  0.67823246  1
  Zr  Zr35  1  0.94924510  0.65125291  0.02259142  1
  Zr  Zr36  1  0.40871700  0.14959705  0.51547486  1
  Zr  Zr37  1  0.95088323  0.36687383  0.24642062  1
  Zr  Zr38  1  0.13362224  0.71459208  0.86785073  1
  Zr  Zr39  1  0.91996432  0.05842066  0.74989030  1
  Zr  Zr40  1  0.35395961  0.49264538  0.62639891  1
  Zr  Zr41  1  -0.01561086  0.07638841  0.52317128  1
  Zr  Zr42  1  0.98005821  0.60710170  0.25312938  1
  Zr  Zr43  1  0.70778767  0.33436898  0.99563255  1
  Zr  Zr44  1  0.75885882  0.36583118  0.62002193  1
  Zr  Zr45  1  0.84346971  0.41729275  0.83444433  1
  Zr  Zr46  1  0.54623255  0.50392352  0.28010859  1
  Zr  Zr47  1  0.33877676  0.54017410  0.17503448  1
  Zr  Zr48  1  0.74838967  0.74419094  0.74771626  1
  Zr  Zr49  1  0.42171654  0.38274938  0.87268262  1
  Sc  Sc50  1  0.16952223  0.09339942  0.09413026  1
  Sc  Sc51  1  0.73877080  0.55150828  0.48199716  1
  Sc  Sc52  1  0.78212112  0.92213648  0.61015798  1
  Sc  Sc53  1  0.64011428  0.69930706  0.32932922  1
  Sc  Sc54  1  0.43847176  0.17264558  0.87488362  1
  Sc  Sc55  1  0.52598172  0.66803682  0.13695766  1
  Sc  Sc56  1  0.90775855  0.22359470  0.09606896  1
  Sc  Sc57  1  0.61089626  0.48857268  0.86233284  1
  Sc  Sc58  1  0.33663930  0.14324902  0.25526889  1
  Sc  Sc59  1  0.10519905  0.30343359  0.04714139  1
  Sc  Sc60  1  0.33720086  0.96220561  0.16947576  1
  Sc  Sc61  1  0.59995476  0.73313574  0.90985212  1
  Sc  Sc62  1  0.30881965  0.73434728  0.66975080  1
  Sc  Sc63  1  0.06997140  0.49091633  0.90245579  1
  Sc  Sc64  1  0.94352857  0.48935370  0.44393365  1
  Sc  Sc65  1  0.22926376  0.23212716  0.87886712  1
  Sc  Sc66  1  0.82585037  0.20336416  0.87803776  1
  Sc  Sc67  1  0.34027801  0.48390583  0.38044548  1
  Sc  Sc68  1  0.07080221  0.66286354  0.47900746  1
  Sc  Sc69  1  0.62494018  0.29151912  0.79499271  1
  Sc  Sc70  1  0.11698807  0.71193471  0.11738411  1
  Sc  Sc71  1  0.58534598  0.17067847  0.38614959  1
  Sc  Sc72  1  0.93321549  0.81296969  0.17361601  1
  Sc  Sc73  1  0.71130232  0.92814817  0.81959908  1
  Sc  Sc74  1  0.56718891  0.05605630  0.21931481  1
  Sc  Sc75  1  0.96564411  0.85538861  0.52685143  1
  Sc  Sc76  1  0.29928124  0.56041208  0.81739624  1
  Sc  Sc77  1  0.46117013  0.93610420  0.84888209  1
  Sc  Sc78  1  0.28888280  0.66792550  0.48527032  1
  Sc  Sc79  1  0.05261580  0.28704660  0.47466401  1
  Sc  Sc80  1  0.13854829  0.02239528  0.32848119  1
  Sc  Sc81  1  0.36816987  0.93478341  0.58902457  1
  Sc  Sc82  1  0.77722588  0.10817080  0.48634800  1
  Sc  Sc83  1  0.73544277  0.55438186  0.69599780  1
  Sc  Sc84  1  0.94249677  0.63081068  0.79521913  1
  Sc  Sc85  1  0.77318188  0.60353006  0.92686559  1
  Sc  Sc86  1  0.78001223  0.12876035  0.27126516  1
  Sc  Sc87  1  0.27245731  0.64240591  0.00728084  1
  Sc  Sc88  1  0.43871884  0.98786806  0.38388546  1
  Sc  Sc89  1  0.69143283  0.32187912  0.21105515  1
  Sc  Sc90  1  0.03013753  0.87727042  0.98795799  1
  Sc  Sc91  1  0.67373943  0.91125112  0.37911941  1
  Sc  Sc92  1  0.90822079  0.95443099  0.34936917  1
  Sc  Sc93  1  0.28788396  0.09501015  0.72337338  1
  Sc  Sc94  1  0.93868642  0.85069757  0.78983986  1
  Sc  Sc95  1  0.78095564  0.51688722  0.26824269  1
  Sc  Sc96  1  0.51270235  0.07360288  0.70149621  1
  Sc  Sc97  1  0.51141413  0.63025414  0.72537760  1
  Sc  Sc98  1  0.16308016  0.47341971  0.52117199  1
  Sc  Sc99  1  0.20002498  0.09513929  0.51135101  1
  Nb  Nb100  1  0.45679958  0.58149661  0.96255684  1
  Nb  Nb101  1  0.09667619  0.18498598  0.69034859  1
  Nb  Nb102  1  0.11971652  0.23063014  0.24631953  1
  Nb  Nb103  1  0.29680992  0.83906828  0.34646094  1
  Nb  Nb104  1  0.23768233  0.86008632  0.99919771  1
  Nb  Nb105  1  0.56288947  0.43806208  0.63887609  1
  Nb  Nb106  1  0.07804537  0.80396374  0.33009751  1
  Nb  Nb107  1  0.09156299  0.76546376  0.67019604  1
  Nb  Nb108  1  0.44749069  0.35155113  0.48886089  1
  Nb  Nb109  1  0.58751626  0.99473360  0.53934143  1
  Nb  Nb110  1  0.50622856  0.84856331  0.24056133  1
  Nb  Nb111  1  0.19691164  0.64492457  0.29970255  1
  Nb  Nb112  1  0.34188636  0.22662589  0.05577990  1
  Nb  Nb113  1  0.96678159  0.16347049  0.33048735  1
  Nb  Nb114  1  0.42295183  0.67759976  0.32427257  1
  Nb  Nb115  1  0.48514798  0.80036576  0.46575500  1
  Nb  Nb116  1  0.14462425  0.89321265  0.17731097  1
  Nb  Nb117  1  0.37825747  0.74718618  0.85683557  1
  Nb  Nb118  1  0.31168275  0.75611825  0.17870884  1
  Nb  Nb119  1  0.27275635  0.34897571  0.18263825  1
  Nb  Nb120  1  0.27130861  0.42725499  -0.01021075  1
  Nb  Nb121  1  0.13298640  0.58661350  0.68775876  1
  Nb  Nb122  1  0.29636164  0.03321351  0.94579482  1
  Nb  Nb123  1  0.81707183  0.80641874  0.96901254  1
  Nb  Nb124  1  0.54231899  0.23190040  0.05706488  1
