# generated using pymatgen
data_Zr2Sc2Nb
_symmetry_space_group_name_H-M   'P 1'
_cell_length_a   14.14465997
_cell_length_b   14.51828989
_cell_length_c   14.00830888
_cell_angle_alpha   91.64401990
_cell_angle_beta   89.71711692
_cell_angle_gamma   90.06215361
_symmetry_Int_Tables_number   1
_chemical_formula_structural   Zr2Sc2Nb
_chemical_formula_sum   'Zr50 Sc50 Nb25'
_cell_volume   2875.47364610
_cell_formula_units_Z   25
loop_
 _symmetry_equiv_pos_site_id
 _symmetry_equiv_pos_as_xyz
  1  'x, y, z'
loop_
 _atom_site_type_symbol
 _atom_site_label
 _atom_site_symmetry_multiplicity
 _atom_site_fract_x
 _atom_site_fract_y
 _atom_site_fract_z
 _atom_site_occupancy
  Zr  Zr0  1  0.69392579  0.00418357  0.03833180  1
  Zr  Zr1  1  0.21251524  0.86017488  0.69375155  1
  Zr  Zr2  1  0.21285010  0.56980913  0.34990715  1
  Zr  Zr3  1  0.46542310  0.89525456  0.38552971  1
  Zr  Zr4  1  1.05746054  0.21140465  0.46360187  1
  Zr  Zr5  1  0.28760161  0.08743930  0.11697295  1
  Zr  Zr6  1  0.74449505  0.78088254  0.84795203  1
  Zr  Zr7  1  0.03905421  0.93180965  0.57909720  1
  Zr  Zr8  1  0.10756026  0.43602405  0.52074749  1
  Zr  Zr9  1  0.34526947  0.71837554  0.40823000  1
  Zr  Zr10  1  0.97678806  0.31111643  0.82410974  1
  Zr  Zr11  1  0.09239367  0.78241908  0.44605765  1
  Zr  Zr12  1  0.52517015  0.64719013  0.32179593  1
  Zr  Zr13  1  0.89345011  0.11382505  0.88347780  1
  Zr  Zr14  1  0.98865917  0.42048210  0.06032041  1
  Zr  Zr15  1  0.30912641  0.59972039  0.14443870  1
  Zr  Zr16  1  0.83392967  0.29921801  0.39365471  1
  Zr  Zr17  1  0.71514080  0.63471083  0.22130447  1
  Zr  Zr18  1  0.67235093  0.99088582  0.38139813  1
  Zr  Zr19  1  0.88665317  0.48066258  0.52364411  1
  Zr  Zr20  1  0.87283760  0.50578923  0.28582667  1
  Zr  Zr21  1  0.78815381  0.19663364  0.72456414  1
  Zr  Zr22  1  0.02548315  0.59208429  0.41468003  1
  Zr  Zr23  1  0.19665973  0.43164121  0.13410609  1
  Zr  Zr24  1  0.86849071  0.10165599  0.09083872  1
  Zr  Zr25  1  0.29898035  0.54821349  0.91634392  1
  Zr  Zr26  1  0.27753728  0.95813968  0.29858693  1
  Zr  Zr27  1  0.81107910  0.31652890  0.93582628  1
  Zr  Zr28  1  0.26289316  0.01213426  0.85809387  1
  Zr  Zr29  1  0.67208081  0.11720299  0.23453198  1
  Zr  Zr30  1  0.52905231  0.64377245  0.54270069  1
  Zr  Zr31  1  0.40640943  0.78205553  0.18086531  1
  Zr  Zr32  1  0.19547723  0.75579541  0.26047609  1
  Zr  Zr33  1  0.59993518  0.37026151  0.99777917  1
  Zr  Zr34  1  0.46869335  0.28591250  0.84939561  1
  Zr  Zr35  1  0.25087591  0.73485760  1.01383651  1
  Zr  Zr36  1  0.52873744  0.55354995  0.12245421  1
  Zr  Zr37  1  0.51878081  0.30906588  0.20106587  1
  Zr  Zr38  1  0.88333934  0.10020143  0.32674594  1
  Zr  Zr39  1  0.65763338  0.65240587  0.00100938  1
  Zr  Zr40  1  0.47339397  0.28576935  0.58778744  1
  Zr  Zr41  1  0.89017873  0.07370017  0.53171465  1
  Zr  Zr42  1  0.08027777  0.05374359  -0.01171187  1
  Zr  Zr43  1  0.37807005  0.91150957  0.00908310  1
  Zr  Zr44  1  0.86100648  0.91106650  0.69470218  1
  Zr  Zr45  1  0.87488660  0.69996392  0.51820044  1
  Zr  Zr46  1  0.71913586  0.15838326  0.51947424  1
  Zr  Zr47  1  0.50580743  0.47055996  0.67439481  1
  Zr  Zr48  1  0.15269837  0.39571977  0.90672086  1
  Zr  Zr49  1  0.04282012  0.74896528  0.10635636  1
  Sc  Sc50  1  0.29787909  0.41482579  0.72552682  1
  Sc  Sc51  1  0.06509416  0.52012545  0.72952885  1
  Sc  Sc52  1  0.32997116  0.19280602  0.72444175  1
  Sc  Sc53  1  0.80994409  0.92742165  0.22846873  1
  Sc  Sc54  1  0.50348231  0.97893952  0.17161866  1
  Sc  Sc55  1  0.85847815  0.62752364  0.72956258  1
  Sc  Sc56  1  0.51430026  0.08866248  0.48861978  1
  Sc  Sc57  1  0.70494789  0.99497191  0.82125924  1
  Sc  Sc58  1  0.38476081  0.63791023  0.73168248  1
  Sc  Sc59  1  0.67560016  0.42639381  0.27412162  1
  Sc  Sc60  1  0.49368359  0.16050384  0.05729189  1
  Sc  Sc61  1  0.11447112  0.30186500  0.67119533  1
  Sc  Sc62  1  0.03412930  0.38107905  0.30370360  1
  Sc  Sc63  1  0.87965390  0.28771943  0.18384876  1
  Sc  Sc64  1  0.41581113  0.80386257  0.59843319  1
  Sc  Sc65  1  0.57347232  0.14234394  0.70711568  1
  Sc  Sc66  1  0.06226201  0.07868803  0.21251788  1
  Sc  Sc67  1  0.79697026  0.80143938  0.06088816  1
  Sc  Sc68  1  0.39076806  0.40372564  0.03965150  1
  Sc  Sc69  1  0.76434177  0.45876165  0.08394362  1
  Sc  Sc70  1  0.70131468  0.35805532  0.56286668  1
  Sc  Sc71  1  0.88804356  0.61172580  0.07274554  1
  Sc  Sc72  1  0.02617417  0.75396666  0.68859501  1
  Sc  Sc73  1  0.20703466  0.65768157  0.58309083  1
  Sc  Sc74  1  0.39506322  -0.00546601  0.66706651  1
  Sc  Sc75  1  0.69775033  0.54682996  0.63666340  1
  Sc  Sc76  1  0.34041516  0.48740485  0.51627285  1
  Sc  Sc77  1  0.60668073  0.24967376  0.38205233  1
  Sc  Sc78  1  0.22787024  0.37007486  0.35346217  1
  Sc  Sc79  1  0.29468177  0.22649388  0.96173529  1
  Sc  Sc80  1  0.87322380  0.89109928  0.43714662  1
  Sc  Sc81  1  0.69747979  0.75903190  0.62777738  1
  Sc  Sc82  1  0.10563392  0.24395124  0.08928755  1
  Sc  Sc83  1  0.66153063  0.96300191  0.59767671  1
  Sc  Sc84  1  0.21661556  0.17330687  0.31775648  1
  Sc  Sc85  1  0.67643531  0.78142274  0.40929746  1
  Sc  Sc86  1  0.54260869  0.85045939  0.77181223  1
  Sc  Sc87  1  0.64839167  0.35070045  0.77569620  1
  Sc  Sc88  1  0.48800045  0.03772326  0.87819151  1
  Sc  Sc89  1  0.61764693  0.81363353  0.19448421  1
  Sc  Sc90  1  0.13161534  0.17426910  0.83523437  1
  Sc  Sc91  1  0.40111567  0.46904208  0.28265215  1
  Sc  Sc92  1  0.17647636  0.07972003  0.62746955  1
  Sc  Sc93  1  0.18147586  0.91295805  0.11642100  1
  Sc  Sc94  1  0.95911719  0.72179201  0.89939127  1
  Sc  Sc95  1  0.31560599  0.09262389  0.47499902  1
  Sc  Sc96  1  0.12050133  0.85296214  0.91112810  1
  Sc  Sc97  1  0.54480903  0.45211899  0.44803280  1
  Sc  Sc98  1  0.90181215  0.72287989  0.28522407  1
  Sc  Sc99  1  0.50935852  0.50931404  0.88519382  1
  Nb  Nb100  1  0.91484915  0.28893195  0.58647925  1
  Nb  Nb101  1  0.98411844  0.13129552  0.68959962  1
  Nb  Nb102  1  0.59424112  0.65670538  0.78507715  1
  Nb  Nb103  1  0.34767718  0.81680991  0.83263176  1
  Nb  Nb104  1  0.02935612  0.89333750  0.28181446  1
  Nb  Nb105  1  0.73374226  0.52011956  0.86867870  1
  Nb  Nb106  1  0.93120683  0.50338826  0.89245139  1
  Nb  Nb107  1  0.04288758  -0.02202080  0.78486152  1
  Nb  Nb108  1  0.66175048  0.17627161  0.91403243  1
  Nb  Nb109  1  0.18568274  0.67889394  0.81381620  1
  Nb  Nb110  1  0.32295786  0.27321406  0.18161144  1
  Nb  Nb111  1  0.72042733  0.58174470  0.42868705  1
  Nb  Nb112  1  0.06813428  0.57607386  0.19976809  1
  Nb  Nb113  1  0.25548492  0.89492841  0.49349860  1
  Nb  Nb114  1  0.69828185  0.24245118  0.10211914  1
  Nb  Nb115  1  0.40250794  0.28175921  0.39202171  1
  Nb  Nb116  1  0.96668067  0.92554601  0.08692132  1
  Nb  Nb117  1  0.45112162  0.69978724  0.95767974  1
  Nb  Nb118  1  0.26283299  0.28181639  0.53640860  1
  Nb  Nb119  1  0.84574381  0.41642581  0.72540817  1
  Nb  Nb120  1  0.10399027  0.58237928  0.98534070  1
  Nb  Nb121  1  0.09971535  1.01523895  0.41515827  1
  Nb  Nb122  1  0.43685397  0.12407043  0.28795882  1
  Nb  Nb123  1  0.88954953  0.92497342  0.91426474  1
  Nb  Nb124  1  0.57447853  0.84496629  0.98009484  1
