# generated using pymatgen
data_Zr2Sc2Nb
_symmetry_space_group_name_H-M   'P 1'
_cell_length_a   14.31807623
_cell_length_b   14.12171587
_cell_length_c   14.29523276
_cell_angle_alpha   89.41196919
_cell_angle_beta   90.25790202
_cell_angle_gamma   90.39299124
_symmetry_Int_Tables_number   1
_chemical_formula_structural   Zr2Sc2Nb
_chemical_formula_sum   'Zr50 Sc50 Nb25'
_cell_volume   2890.18749958
_cell_formula_units_Z   25
loop_
 _symmetry_equiv_pos_site_id
 _symmetry_equiv_pos_as_xyz
  1  'x, y, z'
loop_
 _atom_site_type_symbol
 _atom_site_label
 _atom_site_symmetry_multiplicity
 _atom_site_fract_x
 _atom_site_fract_y
 _atom_site_fract_z
 _atom_site_occupancy
  Zr  Zr0  1  0.12873288  0.98015258  0.46497699  1
  Zr  Zr1  1  0.55324451  0.57006644  0.45194183  1
  Zr  Zr2  1  0.34457383  0.11973736  0.92824478  1
  Zr  Zr3  1  0.11196847  0.29265047  0.67061677  1
  Zr  Zr4  1  0.05447473  0.16965587  0.49109108  1
  Zr  Zr5  1  0.14728381  0.10144503  0.29324860  1
  Zr  Zr6  1  0.62929869  0.08554339  0.55412270  1
  Zr  Zr7  1  0.82834555  0.86376001  0.92614778  1
  Zr  Zr8  1  0.19408704  0.56060107  0.50689953  1
  Zr  Zr9  1  0.48629601  0.35209353  0.44761343  1
  Zr  Zr10  1  0.72035196  0.89549436  0.56898350  1
  Zr  Zr11  1  0.19105226  0.94705534  0.15483695  1
  Zr  Zr12  1  0.49388138  0.32684333  0.25077871  1
  Zr  Zr13  1  0.61152991  0.03014141  0.75042342  1
  Zr  Zr14  1  0.03226861  0.71141762  0.41266621  1
  Zr  Zr15  1  0.44758382  0.49052280  0.79729894  1
  Zr  Zr16  1  0.48740060  0.77360853  0.05308543  1
  Zr  Zr17  1  0.90176854  0.21386593  0.35866512  1
  Zr  Zr18  1  0.75670810  0.48914710  0.51192021  1
  Zr  Zr19  1  0.37537336  0.06601530  0.21883986  1
  Zr  Zr20  1  0.70514098  0.26629176  0.25637746  1
  Zr  Zr21  1  0.24323058  0.20045297  0.11489606  1
  Zr  Zr22  1  0.38879324  0.49999263  0.56782906  1
  Zr  Zr23  1  0.65997389  0.66570668  0.04658785  1
  Zr  Zr24  1  0.31974753  0.24726553  0.74808299  1
  Zr  Zr25  1  0.14864125  0.04370050  0.99272305  1
  Zr  Zr26  1  0.21561319  0.11181157  0.61811163  1
  Zr  Zr27  1  0.10262396  0.35942422  0.05953645  1
  Zr  Zr28  1  0.81015424  0.70623028  0.46241865  1
  Zr  Zr29  1  0.98236500  0.14294332  0.71126872  1
  Zr  Zr30  1  0.91181767  0.23529594  0.94694965  1
  Zr  Zr31  1  0.30924573  0.11993149  0.41779696  1
  Zr  Zr32  1  0.70748005  0.30253545  0.86565273  1
  Zr  Zr33  1  0.54382170  0.89964006  0.22990645  1
  Zr  Zr34  1  0.98603048  0.89045757  0.09117587  1
  Zr  Zr35  1  0.51516016  0.94386952  0.43264098  1
  Zr  Zr36  1  0.64091168  0.49532821  0.90146960  1
  Zr  Zr37  1  0.93296739  0.88490982  0.48293064  1
  Zr  Zr38  1  0.09251003  0.51983383  0.33406892  1
  Zr  Zr39  1  0.59589415  0.40049668  0.09168863  1
  Zr  Zr40  1  0.88200312  0.41035001  0.34833799  1
  Zr  Zr41  1  0.85534841  0.08918912  0.52947637  1
  Zr  Zr42  1  0.96913436  0.03280333  0.89636720  1
  Zr  Zr43  1  0.70338733  0.27871797  0.47328392  1
  Zr  Zr44  1  0.46740126  0.55053408  -0.00045703  1
  Zr  Zr45  1  0.33660000  0.95623628  0.56257672  1
  Zr  Zr46  1  0.25564073  0.52856734  0.96924800  1
  Zr  Zr47  1  0.06526746  0.69319171  0.19409087  1
  Zr  Zr48  1  0.06244396  0.70240591  0.64148307  1
  Zr  Zr49  1  0.14576874  0.63732516  0.81820521  1
  Sc  Sc50  1  0.82591547  0.05518190  0.10511714  1
  Sc  Sc51  1  0.28515097  0.30508811  0.29838507  1
  Sc  Sc52  1  0.57684096  0.42311983  0.62841556  1
  Sc  Sc53  1  0.51213785  0.65711047  0.66812290  1
  Sc  Sc54  1  0.66459573  0.45632882  0.32482864  1
  Sc  Sc55  1  0.46880396  0.89307090  0.85219234  1
  Sc  Sc56  1  0.09422485  0.85937760  0.88167453  1
  Sc  Sc57  1  0.75744973  0.21062674  0.68412659  1
  Sc  Sc58  1  0.25408079  0.45326959  0.73658936  1
  Sc  Sc59  1  0.87849434  0.68261566  0.08261079  1
  Sc  Sc60  1  0.39270184  0.72775174  0.49176875  1
  Sc  Sc61  1  0.26093554  0.86285575  0.74146797  1
  Sc  Sc62  1  0.96378701  0.69503933  0.88310907  1
  Sc  Sc63  1  0.35219601  0.70551236  0.88543190  1
  Sc  Sc64  1  0.05388876  0.93878585  0.66710482  1
  Sc  Sc65  1  0.82945615  0.98953025  0.72321350  1
  Sc  Sc66  1  0.88521352  0.30561357  0.14560808  1
  Sc  Sc67  1  0.35513075  0.51344560  0.33728266  1
  Sc  Sc68  1  0.76862574  0.49923534  0.14725856  1
  Sc  Sc69  1  0.31049063  0.90052941  0.35207320  1
  Sc  Sc70  1  0.60833505  0.07872953  0.15342036  1
  Sc  Sc71  1  0.11496399  0.22421428  0.87998816  1
  Sc  Sc72  1  0.76057852  0.07930446  0.89802421  1
  Sc  Sc73  1  0.51422833  0.87318777  0.63947593  1
  Sc  Sc74  1  0.72894777  0.87954910  0.35798848  1
  Sc  Sc75  1  0.19648820  0.79073678  0.50872176  1
  Sc  Sc76  1  0.46378523  0.72127394  0.30041072  1
  Sc  Sc77  1  0.94149765  0.00750678  0.30042588  1
  Sc  Sc78  1  0.55433591  0.11871601  0.92946858  1
  Sc  Sc79  1  0.07546383  0.31149448  0.26571091  1
  Sc  Sc80  1  0.26799740  0.32488734  0.52334146  1
  Sc  Sc81  1  0.75239565  0.45507702  0.72362254  1
  Sc  Sc82  1  0.95173013  0.54515596  0.51045471  1
  Sc  Sc83  1  0.29303225  0.66070429  0.67233688  1
  Sc  Sc84  1  0.53548849  0.24267901  0.74512076  1
  Sc  Sc85  1  0.71007648  0.65910711  0.64317191  1
  Sc  Sc86  1  0.76601950  0.65899183  0.85201535  1
  Sc  Sc87  1  0.68286178  0.68245507  0.27378529  1
  Sc  Sc88  1  0.74534140  0.85397226  0.13619893  1
  Sc  Sc89  1  0.29525160  0.33095577  0.94200123  1
  Sc  Sc90  1  0.52611915  0.14744910  0.35831638  1
  Sc  Sc91  1  0.07284629  0.43953855  0.86199198  1
  Sc  Sc92  1  0.87143811  0.47522304  0.94785233  1
  Sc  Sc93  1  0.70052814  0.23405616  0.04896723  1
  Sc  Sc94  1  0.43823552  0.17007213  0.57017264  1
  Sc  Sc95  1  0.72652950  0.07928399  0.35252974  1
  Sc  Sc96  1  0.87720300  0.78501476  0.69088805  1
  Sc  Sc97  1  0.02124913  0.13769024  0.12418198  1
  Sc  Sc98  1  0.91892602  0.34722543  0.76350287  1
  Sc  Sc99  1  0.19596532  0.74022418  0.04128983  1
  Nb  Nb100  1  0.63411481  0.90684633  0.97002574  1
  Nb  Nb101  1  0.45367615  0.21602322  0.08774948  1
  Nb  Nb102  1  0.67671995  0.83744631  0.77758768  1
  Nb  Nb103  1  0.90375421  0.32465829  0.56140119  1
  Nb  Nb104  1  0.29470528  0.90940746  0.95595871  1
  Nb  Nb105  1  0.91825767  0.56947693  0.72462661  1
  Nb  Nb106  1  0.44632765  0.98326193  0.05209647  1
  Nb  Nb107  1  0.06582450  0.36907885  0.47096923  1
  Nb  Nb108  1  0.39442043  0.05087252  0.74178484  1
  Nb  Nb109  1  0.06443184  0.57504867  0.01888013  1
  Nb  Nb110  1  0.19767883  0.50831931  0.17227435  1
  Nb  Nb111  1  0.88226845  0.60338108  0.29969533  1
  Nb  Nb112  1  0.34463594  0.83663448  0.16218359  1
  Nb  Nb113  1  0.36656768  0.40960999  0.11920491  1
  Nb  Nb114  1  0.89928058  0.79903693  0.27304788  1
  Nb  Nb115  1  0.60232915  0.75791060  0.47425370  1
  Nb  Nb116  1  0.06990353  0.48336775  0.65419263  1
  Nb  Nb117  1  0.98058276  0.49165342  0.16295236  1
  Nb  Nb118  1  0.52363421  0.55117012  0.20098929  1
  Nb  Nb119  1  0.09825867  0.86524251  0.30518985  1
  Nb  Nb120  1  0.18802021  0.04888564  0.79889282  1
  Nb  Nb121  1  0.56467259  0.70054920  0.86434057  1
  Nb  Nb122  1  0.34524057  0.63042320  0.14398597  1
  Nb  Nb123  1  0.23887887  0.69693449  0.30614303  1
  Nb  Nb124  1  0.49649318  0.33093917  0.93268863  1
