# generated using pymatgen
data_Zr2Sc2Nb
_symmetry_space_group_name_H-M   'P 1'
_cell_length_a   13.68149780
_cell_length_b   14.63520851
_cell_length_c   14.30930826
_cell_angle_alpha   90.33848627
_cell_angle_beta   90.82282421
_cell_angle_gamma   87.80670284
_symmetry_Int_Tables_number   1
_chemical_formula_structural   Zr2Sc2Nb
_chemical_formula_sum   'Zr50 Sc50 Nb25'
_cell_volume   2862.73987889
_cell_formula_units_Z   25
loop_
 _symmetry_equiv_pos_site_id
 _symmetry_equiv_pos_as_xyz
  1  'x, y, z'
loop_
 _atom_site_type_symbol
 _atom_site_label
 _atom_site_symmetry_multiplicity
 _atom_site_fract_x
 _atom_site_fract_y
 _atom_site_fract_z
 _atom_site_occupancy
  Zr  Zr0  1  0.29616138  0.92014270  0.61435695  1
  Zr  Zr1  1  0.05401377  0.92616958  0.28400766  1
  Zr  Zr2  1  0.72403885  0.65035394  0.32964699  1
  Zr  Zr3  1  0.09660055  0.26417823  0.01735322  1
  Zr  Zr4  1  0.95137433  -0.01467239  0.73376540  1
  Zr  Zr5  1  0.17585226  0.93259698  0.81388208  1
  Zr  Zr6  1  0.05994206  0.24771854  0.59146857  1
  Zr  Zr7  1  0.51112210  0.16143596  0.45317221  1
  Zr  Zr8  1  0.82452888  0.90723423  0.88135867  1
  Zr  Zr9  1  0.70198883  0.66974020  0.12813624  1
  Zr  Zr10  1  0.85551740  0.98602198  0.30073387  1
  Zr  Zr11  1  0.53315161  0.94057537  0.39032772  1
  Zr  Zr12  1  0.59427920  0.44181347  0.00555017  1
  Zr  Zr13  1  0.98495996  0.64823733  0.62763380  1
  Zr  Zr14  1  0.47976992  0.56334499  0.85292245  1
  Zr  Zr15  1  0.37455574  0.55420907  0.48661603  1
  Zr  Zr16  1  0.47284270  0.14967126  0.24345908  1
  Zr  Zr17  1  0.41778895  0.75164469  0.89359442  1
  Zr  Zr18  1  0.69809514  0.47400902  0.81339408  1
  Zr  Zr19  1  0.99272426  0.47569819  0.02051821  1
  Zr  Zr20  1  0.08165187  0.37891995  0.82826340  1
  Zr  Zr21  1  0.66698444  0.07762541  0.32202546  1
  Zr  Zr22  1  0.02215808  0.99114705  0.95130889  1
  Zr  Zr23  1  0.91354748  0.54510805  0.42812870  1
  Zr  Zr24  1  0.33469759  0.92628856  0.96600524  1
  Zr  Zr25  1  0.70883937  0.07865200  0.96625928  1
  Zr  Zr26  1  0.43493178  0.94795349  0.18476251  1
  Zr  Zr27  1  0.12271970  0.10529093  0.40676346  1
  Zr  Zr28  1  0.77610571  0.68467441  0.53624763  1
  Zr  Zr29  1  0.53320555  0.80708063  0.05997807  1
  Zr  Zr30  1  0.88605041  0.33410082  0.91710956  1
  Zr  Zr31  1  0.68061331  0.47500107  0.43187460  1
  Zr  Zr32  1  0.77989488  0.16316686  0.18157796  1
  Zr  Zr33  1  0.29311630  0.26504982  0.91610084  1
  Zr  Zr34  1  0.02250666  0.44519537  0.61458562  1
  Zr  Zr35  1  0.12107766  0.72081816  0.28127376  1
  Zr  Zr36  1  0.06037958  0.35749999  0.41188692  1
  Zr  Zr37  1  0.82815040  0.85368895  0.63791365  1
  Zr  Zr38  1  0.09969122  0.59590653  0.87788278  1
  Zr  Zr39  1  -0.09102088  0.15608652  1.00883950  1
  Zr  Zr40  1  0.97447557  0.76706546  0.43935661  1
  Zr  Zr41  1  0.84947728  0.32880848  0.70529040  1
  Zr  Zr42  1  0.29685973  0.54526324  0.17724520  1
  Zr  Zr43  1  0.88155271  0.15076785  0.58852483  1
  Zr  Zr44  1  0.56357851  0.23685369  0.06615867  1
  Zr  Zr45  1  0.28153779  0.47216355  0.83420285  1
  Zr  Zr46  1  0.74518638  0.84748348  0.41849274  1
  Zr  Zr47  1  0.07237155  0.16368432  0.81911649  1
  Zr  Zr48  1  0.10544882  0.64335722  0.08885937  1
  Zr  Zr49  1  0.28298928  0.86512089  0.30680352  1
  Sc  Sc50  1  0.49153907  0.60241460  0.09096779  1
  Sc  Sc51  1  1.00225683  0.78646520  0.82831066  1
  Sc  Sc52  1  0.20239397  0.54817800  0.64929386  1
  Sc  Sc53  1  0.92131040  0.18590481  0.36447523  1
  Sc  Sc54  1  0.31374879  0.23443530  0.36862088  1
  Sc  Sc55  1  0.68469907  0.27442139  0.88345961  1
  Sc  Sc56  1  0.44152459  0.92181676  0.76540154  1
  Sc  Sc57  1  0.41309902  0.09987529  1.02688815  1
  Sc  Sc58  1  0.91169196  0.51754308  0.80772139  1
  Sc  Sc59  1  0.28666195  0.14184978  0.56449454  1
  Sc  Sc60  1  0.55466060  0.67605330  0.47205405  1
  Sc  Sc61  1  0.70631134  0.02494691  0.52992887  1
  Sc  Sc62  1  0.84137152  0.13986475  0.80338292  1
  Sc  Sc63  1  0.50932829  0.75493301  0.27654616  1
  Sc  Sc64  1  0.98483375  0.82812993  0.06814169  1
  Sc  Sc65  1  0.31861188  0.75241034  0.12708987  1
  Sc  Sc66  1  0.70750108  0.24598543  0.46269036  1
  Sc  Sc67  1  0.24139888  0.29893078  0.71359574  1
  Sc  Sc68  1  0.26101596  0.37122488  0.52360448  1
  Sc  Sc69  1  0.46411510  0.38133447  0.20191932  1
  Sc  Sc70  1  0.58823245  0.84707085  0.59618888  1
  Sc  Sc71  1  0.42700564  0.47003890  0.66131277  1
  Sc  Sc72  1  0.61253918  0.61431268  0.67824403  1
  Sc  Sc73  1  0.80367229  0.68988713  0.76679987  1
  Sc  Sc74  1  0.62504986  0.80182696  0.81726659  1
  Sc  Sc75  1  0.63271811  0.39187198  0.61545141  1
  Sc  Sc76  1  0.48285403  0.34530815  0.82999716  1
  Sc  Sc77  1  0.50185017  0.54150737  0.31163333  1
  Sc  Sc78  1  0.82680158  0.37614842  0.30865763  1
  Sc  Sc79  1  0.13063521  0.25834145  0.24516474  1
  Sc  Sc80  1  0.22980266  0.72266155  0.76782530  1
  Sc  Sc81  1  0.29829921  0.09377069  0.78695974  1
  Sc  Sc82  1  0.09408783  0.47561976  0.23035531  1
  Sc  Sc83  1  0.65775350  0.18855662  0.66777945  1
  Sc  Sc84  1  0.07354896  0.83657929  0.63244503  1
  Sc  Sc85  1  0.17472216  0.92100115  0.11210806  1
  Sc  Sc86  1  0.87920993  0.67556362  -0.02258849  1
  Sc  Sc87  1  0.11289857  0.04965225  0.62611786  1
  Sc  Sc88  1  0.88555367  0.55492602  0.19579635  1
  Sc  Sc89  1  0.21557699  0.72491065  0.51671619  1
  Sc  Sc90  1  0.44948428  0.25632645  0.63152674  1
  Sc  Sc91  1  0.94789075  0.97226551  0.49521759  1
  Sc  Sc92  1  0.41137767  0.70997946  0.65478093  1
  Sc  Sc93  1  0.67194931  -0.00603778  0.74651197  1
  Sc  Sc94  1  0.87810548  0.77567893  0.23610511  1
  Sc  Sc95  1  0.51298947  0.12999527  0.82902681  1
  Sc  Sc96  1  0.14179145  0.55572677  0.42947615  1
  Sc  Sc97  1  0.30570433  0.27148404  0.12748411  1
  Sc  Sc98  1  0.94630187  0.31742165  0.15456089  1
  Sc  Sc99  1  0.24871388  0.07634771  0.22177368  1
  Nb  Nb100  1  0.19325447  0.44120392  0.02732690  1
  Nb  Nb101  1  0.67229422  0.47835038  0.19882708  1
  Nb  Nb102  1  0.02283563  0.09053578  0.16600069  1
  Nb  Nb103  1  0.19090427  0.09512664  1.00124311  1
  Nb  Nb104  1  0.29211921  0.43146000  0.33015874  1
  Nb  Nb105  1  0.17831923  0.78408695  0.95892087  1
  Nb  Nb106  1  0.32170236  0.66532578  0.33876979  1
  Nb  Nb107  1  0.65213690  0.64697016  0.93473965  1
  Nb  Nb108  1  0.39521676  0.82351461  0.47172257  1
  Nb  Nb109  1  0.84476159  -0.02125897  0.10509907  1
  Nb  Nb110  1  0.55660188  0.95271912  0.94178071  1
  Nb  Nb111  1  0.48081441  0.03324552  0.59803217  1
  Nb  Nb112  1  0.34541769  0.02227864  0.41386500  1
  Nb  Nb113  1  0.39087949  0.42647792  0.00856700  1
  Nb  Nb114  1  0.62953662  0.29588580  0.27967505  1
  Nb  Nb115  1  0.67935292  0.87157576  0.22343489  1
  Nb  Nb116  1  0.16383867  0.91330570  0.45752917  1
  Nb  Nb117  1  0.78454331  0.50030418  0.00879400  1
  Nb  Nb118  1  0.74905574  0.32909651  0.09026210  1
  Nb  Nb119  1  0.48354359  0.36591882  0.43220275  1
  Nb  Nb120  1  0.61811374  1.01983179  0.12606978  1
  Nb  Nb121  1  0.29367379  0.61320849  0.97303843  1
  Nb  Nb122  1  0.80890091  0.51617229  0.61882332  1
  Nb  Nb123  1  0.86849246  0.35608480  0.51147876  1
  Nb  Nb124  1  0.73040918  0.84317152  1.02961980  1
