# generated using pymatgen
data_Zr2Sc2Nb
_symmetry_space_group_name_H-M   'P 1'
_cell_length_a   14.08464609
_cell_length_b   14.77933675
_cell_length_c   13.79823249
_cell_angle_alpha   89.34556205
_cell_angle_beta   90.48473338
_cell_angle_gamma   89.48948371
_symmetry_Int_Tables_number   1
_chemical_formula_structural   Zr2Sc2Nb
_chemical_formula_sum   'Zr50 Sc50 Nb25'
_cell_volume   2871.85725061
_cell_formula_units_Z   25
loop_
 _symmetry_equiv_pos_site_id
 _symmetry_equiv_pos_as_xyz
  1  'x, y, z'
loop_
 _atom_site_type_symbol
 _atom_site_label
 _atom_site_symmetry_multiplicity
 _atom_site_fract_x
 _atom_site_fract_y
 _atom_site_fract_z
 _atom_site_occupancy
  Zr  Zr0  1  0.66873098  0.63322157  0.60570760  1
  Zr  Zr1  1  0.90899716  0.69644729  0.26566049  1
  Zr  Zr2  1  0.42770364  0.61435896  0.62759083  1
  Zr  Zr3  1  0.40416253  0.26728655  0.73107539  1
  Zr  Zr4  1  0.59849478  0.06213056  0.23149275  1
  Zr  Zr5  1  0.16770405  0.78815822  0.48640700  1
  Zr  Zr6  1  0.65714230  0.06484048  0.51394855  1
  Zr  Zr7  1  0.43259068  0.13122546  0.53439006  1
  Zr  Zr8  1  0.33098005  0.35950240  0.12810819  1
  Zr  Zr9  1  0.06375974  -0.02791210  0.44884415  1
  Zr  Zr10  1  0.27056250  0.96542320  0.88395458  1
  Zr  Zr11  1  0.06772882  0.82119115  0.27317657  1
  Zr  Zr12  1  0.81943441  0.11723211  0.69599770  1
  Zr  Zr13  1  0.97247999  0.28339831  0.67756984  1
  Zr  Zr14  1  0.29352538  0.52122087  0.24340601  1
  Zr  Zr15  1  0.68810780  0.74336929  0.82481142  1
  Zr  Zr16  1  0.18759952  0.69702678  0.17487966  1
  Zr  Zr17  1  0.48390457  0.88336132  0.86997245  1
  Zr  Zr18  1  0.34561164  0.66623448  0.39161780  1
  Zr  Zr19  1  0.50662616  0.85299811  0.25381438  1
  Zr  Zr20  1  1.06280264  0.10544136  0.78263002  1
  Zr  Zr21  1  0.83915703  0.74925214  0.66098024  1
  Zr  Zr22  1  0.57701406  0.38982227  0.06017493  1
  Zr  Zr23  1  0.55555691  0.01704252  0.69114151  1
  Zr  Zr24  1  0.53681805  0.98715980  0.05270020  1
  Zr  Zr25  1  0.70934147  0.91094328  0.94770525  1
  Zr  Zr26  1  0.07346778  0.89169426  0.86078132  1
  Zr  Zr27  1  0.48660335  0.92780117  0.48329109  1
  Zr  Zr28  1  0.55303124  0.72883765  0.44334625  1
  Zr  Zr29  1  0.83583246  0.94742309  0.51621454  1
  Zr  Zr30  1  0.75010579  0.93038345  0.73574547  1
  Zr  Zr31  1  0.59562524  0.17974648  0.02524340  1
  Zr  Zr32  1  0.74336487  0.56784260  0.40640169  1
  Zr  Zr33  1  0.70017628  0.48606666  0.19821957  1
  Zr  Zr34  1  0.51761066  0.79435778  0.67866915  1
  Zr  Zr35  1  -0.03200797  0.79259785  0.47687293  1
  Zr  Zr36  1  0.16856857  0.28829901  0.72328290  1
  Zr  Zr37  1  0.94760070  0.15262249  0.12827352  1
  Zr  Zr38  1  0.23621803  0.39860123  0.88940329  1
  Zr  Zr39  1  0.23010322  0.19339770  0.91645671  1
  Zr  Zr40  1  0.28734879  0.77721146  0.75487929  1
  Zr  Zr41  1  0.32042360  0.74380822  0.97084291  1
  Zr  Zr42  1  0.14692904  0.85579618  0.05426772  1
  Zr  Zr43  1  0.01704703  0.49437154  0.95321780  1
  Zr  Zr44  1  0.51400018  0.43284848  0.66086029  1
  Zr  Zr45  1  0.50169019  0.40516081  0.27885013  1
  Zr  Zr46  1  0.87304310  0.63324153  0.87867763  1
  Zr  Zr47  1  0.93106483  0.90789463  0.07432492  1
  Zr  Zr48  1  0.23653664  0.55501011  0.02624024  1
  Zr  Zr49  1  0.40674912  0.05614582  0.30936944  1
  Sc  Sc50  1  0.06206757  0.27076033  0.46586727  1
  Sc  Sc51  1  0.72045242  0.26640223  0.17884982  1
  Sc  Sc52  1  0.13262503  0.38596187  0.29415634  1
  Sc  Sc53  1  0.69511273  0.70985396  0.23273190  1
  Sc  Sc54  1  0.86081327  0.56305849  0.09973998  1
  Sc  Sc55  1  0.11102590  0.68388801  0.89904067  1
  Sc  Sc56  1  0.34711228  0.11331574  0.09350558  1
  Sc  Sc57  1  0.93564118  0.36008539  0.11449393  1
  Sc  Sc58  1  0.15403392  0.20968100  0.16691974  1
  Sc  Sc59  1  0.44098881  0.09462634  0.86565925  1
  Sc  Sc60  1  0.89459634  0.02452954  0.88932630  1
  Sc  Sc61  1  0.83877927  0.22181868  0.93127420  1
  Sc  Sc62  1  0.04897403  0.73634921  0.69418094  1
  Sc  Sc63  1  0.69490130  0.37331283  0.37327553  1
  Sc  Sc64  1  0.87355521  0.50204158  0.70734916  1
  Sc  Sc65  1  0.55581431  0.77160124  0.05344429  1
  Sc  Sc66  1  0.27800706  -0.01287046  0.49644128  1
  Sc  Sc67  1  0.27874336  0.27657879  0.54405110  1
  Sc  Sc68  1  0.76823575  0.06752666  0.08155013  1
  Sc  Sc69  1  0.14494458  1.00372682  0.21493599  1
  Sc  Sc70  1  0.10660931  0.44691923  0.53857503  1
  Sc  Sc71  1  0.09304369  0.49946439  0.75124901  1
  Sc  Sc72  1  0.48423846  0.66341996  0.85199648  1
  Sc  Sc73  1  0.66639183  0.52318608  0.79028968  1
  Sc  Sc74  1  0.93461778  0.59685260  0.51885123  1
  Sc  Sc75  1  0.09311483  0.06394942  1.00238041  1
  Sc  Sc76  1  0.20513896  0.13805125  0.37955415  1
  Sc  Sc77  1  0.66948668  0.10880197  0.84497594  1
  Sc  Sc78  1  0.44713050  0.55335674  0.06540236  1
  Sc  Sc79  1  0.44248416  0.46455989  0.86493578  1
  Sc  Sc80  1  0.92189588  0.48590491  0.31416373  1
  Sc  Sc81  1  0.66031872  0.59453410  1.00147919  1
  Sc  Sc82  1  0.35322852  0.27301227  0.33613284  1
  Sc  Sc83  1  0.67369322  0.91037974  0.36529231  1
  Sc  Sc84  1  0.10896578  0.61211238  0.37012962  1
  Sc  Sc85  1  0.77371258  0.31962816  0.73057635  1
  Sc  Sc86  1  0.60234624  0.31634278  0.84633002  1
  Sc  Sc87  1  0.21556897  0.61925197  0.59628836  1
  Sc  Sc88  1  0.16388199  0.92700911  0.66429116  1
  Sc  Sc89  1  0.89043793  0.92921687  0.29255699  1
  Sc  Sc90  1  0.34103342  0.46554072  0.46407047  1
  Sc  Sc91  1  0.29157377  0.85865128  0.31636821  1
  Sc  Sc92  1  0.92939530  0.12504369  0.51832038  1
  Sc  Sc93  1  0.34777552  0.90656546  0.10340948  1
  Sc  Sc94  1  0.78688694  0.10670083  0.32514103  1
  Sc  Sc95  1  0.79057036  0.42153372  0.94589524  1
  Sc  Sc96  1  0.52411229  0.60541297  0.26486088  1
  Sc  Sc97  1  0.41657950  0.27984704  0.96291249  1
  Sc  Sc98  1  0.89891775  0.28494780  0.32329681  1
  Sc  Sc99  1  0.75846639  0.24180844  0.51476508  1
  Nb  Nb100  1  0.37561784  0.94867519  0.68528945  1
  Nb  Nb101  1  0.00628744  0.11566007  0.32039686  1
  Nb  Nb102  1  0.04172664  0.28166319  0.92109378  1
  Nb  Nb103  1  0.12363942  0.11864071  0.58861698  1
  Nb  Nb104  1  0.06444514  0.54275845  0.16022696  1
  Nb  Nb105  1  0.49290913  0.22993417  0.18473649  1
  Nb  Nb106  1  0.29989152  0.44435440  0.68058716  1
  Nb  Nb107  1  0.14103550  0.37989553  0.06908571  1
  Nb  Nb108  1  0.35150897  0.79335127  0.55150493  1
  Nb  Nb109  1  0.88524138  0.39647593  0.51417266  1
  Nb  Nb110  1  0.79472762  0.75225945  0.04214975  1
  Nb  Nb111  1  0.66822939  0.84957988  0.57454603  1
  Nb  Nb112  1  0.77938200  0.75190525  0.43759602  1
  Nb  Nb113  1  0.59837887  0.22472597  0.64570143  1
  Nb  Nb114  1  0.95918975  0.94696645  0.67591908  1
  Nb  Nb115  1  0.54568186  0.52161159  0.46007671  1
  Nb  Nb116  1  0.28089487  0.10755280  0.70870029  1
  Nb  Nb117  1  0.57393195  0.20110938  0.37530129  1
  Nb  Nb118  1  0.71466260  0.89376285  0.15992495  1
  Nb  Nb119  1  0.28322201  0.59087306  0.80938500  1
  Nb  Nb120  1  0.50981912  0.32607985  0.49580661  1
  Nb  Nb121  1  0.69567443  0.43100689  0.57617470  1
  Nb  Nb122  1  0.99375671  0.71364944  0.06194285  1
  Nb  Nb123  1  0.37877694  0.71431580  0.17370398  1
  Nb  Nb124  1  0.89565766  0.81740182  0.86458642  1
