# generated using pymatgen
data_Zr2Sc2Nb
_symmetry_space_group_name_H-M   'P 1'
_cell_length_a   14.08154585
_cell_length_b   14.57480133
_cell_length_c   14.13383192
_cell_angle_alpha   90.30076088
_cell_angle_beta   90.62866257
_cell_angle_gamma   89.99190072
_symmetry_Int_Tables_number   1
_chemical_formula_structural   Zr2Sc2Nb
_chemical_formula_sum   'Zr50 Sc50 Nb25'
_cell_volume   2900.55277550
_cell_formula_units_Z   25
loop_
 _symmetry_equiv_pos_site_id
 _symmetry_equiv_pos_as_xyz
  1  'x, y, z'
loop_
 _atom_site_type_symbol
 _atom_site_label
 _atom_site_symmetry_multiplicity
 _atom_site_fract_x
 _atom_site_fract_y
 _atom_site_fract_z
 _atom_site_occupancy
  Zr  Zr0  1  0.09272229  0.66277599  0.91222233  1
  Zr  Zr1  1  0.11431752  0.45731293  0.85447627  1
  Zr  Zr2  1  0.09259475  0.57223263  0.67520680  1
  Zr  Zr3  1  0.52196158  0.81066249  0.93019830  1
  Zr  Zr4  1  0.37441688  0.31679534  0.13845359  1
  Zr  Zr5  1  0.09193341  0.76662833  0.72517682  1
  Zr  Zr6  1  0.58339128  0.33703529  0.20641082  1
  Zr  Zr7  1  0.90897246  0.45571128  0.95692229  1
  Zr  Zr8  1  0.91295550  0.67845161  0.60297584  1
  Zr  Zr9  1  0.94064154  0.47199583  0.53853433  1
  Zr  Zr10  1  0.47926258  0.64611608  0.25593296  1
  Zr  Zr11  1  0.71278107  0.68085872  0.50942779  1
  Zr  Zr12  1  0.42733524  0.05470393  0.66192215  1
  Zr  Zr13  1  0.49380313  0.62380338  0.88340381  1
  Zr  Zr14  1  0.12087445  0.15695662  0.50443723  1
  Zr  Zr15  1  0.45003824  0.87825173  0.54878322  1
  Zr  Zr16  1  0.66917951  0.50160768  0.87969115  1
  Zr  Zr17  1  0.27237143  0.82700680  0.43801391  1
  Zr  Zr18  1  0.36667137  0.42423164  0.50577161  1
  Zr  Zr19  1  0.26286481  0.89352588  0.65315071  1
  Zr  Zr20  1  0.58655293  0.97355994  0.06251801  1
  Zr  Zr21  1  0.12340546  0.89025181  0.95181377  1
  Zr  Zr22  1  0.52235529  0.79540318  0.13580596  1
  Zr  Zr23  1  0.93729981  0.87474240  0.05240803  1
  Zr  Zr24  1  0.92381969  0.91374198  0.67730858  1
  Zr  Zr25  1  0.88763583  0.66699299  0.01922807  1
  Zr  Zr26  1  0.44225930  0.24376953  0.35634650  1
  Zr  Zr27  1  0.34775682  0.67987483  0.04466450  1
  Zr  Zr28  1  0.09737019  0.94528024  0.53870320  1
  Zr  Zr29  1  0.67051263  0.24513905  0.37999314  1
  Zr  Zr30  1  0.92549466  0.07667337  0.50260011  1
  Zr  Zr31  1  0.56662795  0.70418569  0.67931342  1
  Zr  Zr32  1  0.94100193  0.33311660  0.14054718  1
  Zr  Zr33  1  0.63563488  0.12655123  0.21831800  1
  Zr  Zr34  1  0.06730789  0.04585863  0.33064250  1
  Zr  Zr35  1  0.73135344  0.44380103  0.07787419  1
  Zr  Zr36  1  0.28123585  0.28591407  0.92137737  1
  Zr  Zr37  1  0.79274667  0.03910313  0.08433690  1
  Zr  Zr38  1  0.54531961  0.29547598  0.55530029  1
  Zr  Zr39  1  0.28633102  0.76161386  0.23215942  1
  Zr  Zr40  1  0.90350309  0.62716801  0.80414156  1
  Zr  Zr41  1  0.07910420  0.30653652  0.98331465  1
  Zr  Zr42  1  0.75714015  0.04222095  0.38629952  1
  Zr  Zr43  1  0.25655371  0.45061119  0.67315729  1
  Zr  Zr44  1  0.92905661  0.43763286  0.74134772  1
  Zr  Zr45  1  0.66127266  0.52782418  0.28610985  1
  Zr  Zr46  1  0.76306143  0.32855194  0.68504759  1
  Zr  Zr47  1  0.80076640  0.37332905  0.28023025  1
  Zr  Zr48  1  0.02860625  0.12628468  0.12451575  1
  Zr  Zr49  1  0.58403729  0.33750384  0.77669328  1
  Sc  Sc50  1  0.46853566  0.85940826  0.33059466  1
  Sc  Sc51  1  0.44923934  0.18528060  0.85450396  1
  Sc  Sc52  1  0.31815974  0.04007227  0.46139891  1
  Sc  Sc53  1  0.07966655  0.83976564  0.31521099  1
  Sc  Sc54  1  0.33832920  0.62643211  0.41073370  1
  Sc  Sc55  1  0.55824339  0.06973209  0.47246688  1
  Sc  Sc56  1  0.74314809  0.92655423  0.86901146  1
  Sc  Sc57  1  0.24896039  0.16338829  0.29309301  1
  Sc  Sc58  1  0.12255513  0.12413361  0.89602185  1
  Sc  Sc59  1  0.01789629  0.43579537  0.32487588  1
  Sc  Sc60  1  0.27945171  0.78789555  0.86495962  1
  Sc  Sc61  1  0.23464664  0.10989745  0.68808917  1
  Sc  Sc62  1  0.73044536  0.54961511  0.67757916  1
  Sc  Sc63  1  0.16800028  0.33276126  0.16728761  1
  Sc  Sc64  1  0.60745510  0.91206164  0.68754078  1
  Sc  Sc65  1  0.11334183  0.35076761  0.52039103  1
  Sc  Sc66  1  0.43716474  0.44946283  0.30631550  1
  Sc  Sc67  1  0.87014837  0.84691321  0.45876583  1
  Sc  Sc68  1  0.89536179  0.95340052  0.24688655  1
  Sc  Sc69  1  0.71310755  0.71588694  0.87551029  1
  Sc  Sc70  1  0.88425267  0.74356496  0.22506993  1
  Sc  Sc71  1  0.06620412  0.52251353  0.09061541  1
  Sc  Sc72  1  0.37917025  0.29051520  0.70051659  1
  Sc  Sc73  1  0.44489115  0.04317362  0.24667807  1
  Sc  Sc74  1  0.52451902  -0.00120412  0.85824899  1
  Sc  Sc75  1  0.82009979  0.12487205  0.75190870  1
  Sc  Sc76  1  0.25768299  0.53741961  0.22295564  1
  Sc  Sc77  1  0.09399804  0.72835850  0.50530677  1
  Sc  Sc78  1  0.47220315  0.14711384  0.06032450  1
  Sc  Sc79  1  0.55502215  0.52648834  0.48303177  1
  Sc  Sc80  1  0.26854505  0.47665443  0.01308799  1
  Sc  Sc81  1  0.56374277  0.32684184  0.99145787  1
  Sc  Sc82  1  0.34034171  0.90861607  0.06818551  1
  Sc  Sc83  1  0.85762874  0.59019792  0.38247725  1
  Sc  Sc84  1  0.31008007  1.00083803  0.86351887  1
  Sc  Sc85  1  0.10968710  0.73933292  0.11006211  1
  Sc  Sc86  1  0.66596911  0.64058096  0.08563233  1
  Sc  Sc87  1  0.61383918  0.13749023  0.69746905  1
  Sc  Sc88  1  0.13804981  0.28551597  0.72831338  1
  Sc  Sc89  1  0.73895563  0.41703584  0.49047826  1
  Sc  Sc90  1  0.07007515  0.63245132  0.29528939  1
  Sc  Sc91  1  0.32678924  0.68234725  0.62505535  1
  Sc  Sc92  1  0.67178817  0.14441119  0.92378844  1
  Sc  Sc93  1  0.94336005  1.02010861  0.89403612  1
  Sc  Sc94  1  0.48595298  0.50773050  0.08069294  1
  Sc  Sc95  1  0.28891916  0.58905859  0.82589697  1
  Sc  Sc96  1  0.67783945  0.73697631  0.29988228  1
  Sc  Sc97  1  0.25107676  0.11344964  0.08136943  1
  Sc  Sc98  1  0.47866486  0.50648773  0.69006615  1
  Sc  Sc99  1  0.16797404  0.53257138  0.46855480  1
  Nb  Nb100  1  0.24374765  0.35715165  0.35679405  1
  Nb  Nb101  1  0.89559498  0.27415644  0.43278692  1
  Nb  Nb102  1  0.66635665  0.92762072  0.24776594  1
  Nb  Nb103  1  0.51339156  0.71766630  0.46808942  1
  Nb  Nb104  1  0.65097834  0.86878623  0.47379072  1
  Nb  Nb105  1  0.77231439  0.32281030  0.89434438  1
  Nb  Nb106  1  0.87355805  0.54099307  0.18009512  1
  Nb  Nb107  1  0.93108886  0.81224112  0.85440681  1
  Nb  Nb108  1  0.43033073  0.83774160  0.75141937  1
  Nb  Nb109  1  0.02188788  0.10203127  0.69508956  1
  Nb  Nb110  1  0.74209145  0.24736503  0.10179707  1
  Nb  Nb111  1  0.94446815  0.26269745  0.61630956  1
  Nb  Nb112  1  0.75625121  -0.00912230  0.59118658  1
  Nb  Nb113  1  0.10945505  0.95181512  0.76984771  1
  Nb  Nb114  1  0.76941863  0.78798339  0.68064604  1
  Nb  Nb115  1  0.11936593  0.94970581  0.14312630  1
  Nb  Nb116  1  0.89084036  0.19571348  0.98809012  1
  Nb  Nb117  1  0.95600098  0.26314061  0.82394524  1
  Nb  Nb118  1  0.42050297  0.42493203  0.87342900  1
  Nb  Nb119  1  0.75122182  0.18534329  0.54838836  1
  Nb  Nb120  1  0.30791241  0.23925996  0.51755406  1
  Nb  Nb121  1  0.05013326  0.24115251  0.31991109  1
  Nb  Nb122  1  0.86169859  0.16621159  0.25426817  1
  Nb  Nb123  1  0.25828597  0.95492958  0.27115474  1
  Nb  Nb124  1  0.73771187  0.83156008  0.08132744  1
