# generated using pymatgen
data_Zr2Sc2Nb
_symmetry_space_group_name_H-M   'P 1'
_cell_length_a   13.71554966
_cell_length_b   14.72675268
_cell_length_c   14.17746423
_cell_angle_alpha   89.59661297
_cell_angle_beta   90.05316146
_cell_angle_gamma   90.27664350
_symmetry_Int_Tables_number   1
_chemical_formula_structural   Zr2Sc2Nb
_chemical_formula_sum   'Zr50 Sc50 Nb25'
_cell_volume   2863.53681420
_cell_formula_units_Z   25
loop_
 _symmetry_equiv_pos_site_id
 _symmetry_equiv_pos_as_xyz
  1  'x, y, z'
loop_
 _atom_site_type_symbol
 _atom_site_label
 _atom_site_symmetry_multiplicity
 _atom_site_fract_x
 _atom_site_fract_y
 _atom_site_fract_z
 _atom_site_occupancy
  Zr  Zr0  1  0.43909520  0.91661780  0.72636148  1
  Zr  Zr1  1  0.97160898  0.88854918  0.41781674  1
  Zr  Zr2  1  0.92526910  0.71136012  0.25995078  1
  Zr  Zr3  1  0.25689234  0.59581719  0.94996384  1
  Zr  Zr4  1  0.34580304  0.96440602  0.53495017  1
  Zr  Zr5  1  0.07816045  0.11896031  0.81377601  1
  Zr  Zr6  1  0.35479996  0.29139427  0.12642485  1
  Zr  Zr7  1  0.14017699  0.02584545  -0.01517746  1
  Zr  Zr8  1  0.44067669  0.13508971  0.63610400  1
  Zr  Zr9  1  0.11078888  0.82828276  0.26493415  1
  Zr  Zr10  1  0.29304738  0.17910737  0.89617334  1
  Zr  Zr11  1  0.39614864  0.76532343  0.54413861  1
  Zr  Zr12  1  0.05968673  0.65346524  1.02826977  1
  Zr  Zr13  1  0.73980510  0.42319489  0.21969827  1
  Zr  Zr14  1  0.61478166  0.46647911  0.62526870  1
  Zr  Zr15  1  0.01706539  0.19182430  0.26839899  1
  Zr  Zr16  1  0.27345018  0.49272766  0.75333620  1
  Zr  Zr17  1  0.72293158  0.60566810  0.34402018  1
  Zr  Zr18  1  0.13009013  0.28750118  0.44626118  1
  Zr  Zr19  1  0.23483086  0.85504894  0.69220482  1
  Zr  Zr20  1  1.02806099  0.86277577  0.06135768  1
  Zr  Zr21  1  0.26540114  0.86894338  0.10611176  1
  Zr  Zr22  1  0.96079014  0.38661672  0.53332349  1
  Zr  Zr23  1  0.30753061  0.59238774  0.39103491  1
  Zr  Zr24  1  0.88729581  0.30098800  0.12260974  1
  Zr  Zr25  1  0.85100690  0.59476276  0.90326557  1
  Zr  Zr26  1  0.49809941  0.54162219  0.80580343  1
  Zr  Zr27  1  0.32613884  0.07349304  0.10167586  1
  Zr  Zr28  1  0.88956604  0.90872215  0.22499905  1
  Zr  Zr29  1  0.84624249  0.07160362  0.33779831  1
  Zr  Zr30  1  0.72776627  0.06241924  0.90275645  1
  Zr  Zr31  1  0.93045181  0.19024475  0.94388794  1
  Zr  Zr32  1  0.92538590  0.07312576  0.10852158  1
  Zr  Zr33  1  0.08680922  0.43546327  0.03801508  1
  Zr  Zr34  1  0.06079049  0.51225391  0.84839951  1
  Zr  Zr35  1  0.91100306  0.30147867  0.76277986  1
  Zr  Zr36  1  0.89826182  0.91078031  0.74126169  1
  Zr  Zr37  1  0.60097653  0.67013441  0.51638595  1
  Zr  Zr38  1  0.86291314  0.11534130  0.71810392  1
  Zr  Zr39  1  0.07981238  0.21859593  0.63980082  1
  Zr  Zr40  1  0.11007303  0.68966881  0.77993777  1
  Zr  Zr41  1  0.33852885  0.69708938  0.76588276  1
  Zr  Zr42  1  0.92875656  0.16610192  0.50417364  1
  Zr  Zr43  1  0.50944472  0.86733710  0.38139542  1
  Zr  Zr44  1  0.77534573  0.31662699  0.58952401  1
  Zr  Zr45  1  0.79236331  0.54658774  0.54901692  1
  Zr  Zr46  1  0.01743873  0.58628996  0.59057128  1
  Zr  Zr47  1  0.53343266  0.99232310  0.04264308  1
  Zr  Zr48  1  0.70701615  0.11196128  0.52072052  1
  Zr  Zr49  1  0.49407729  0.47898783  0.24188321  1
  Sc  Sc50  1  0.82858652  0.73069665  0.06257510  1
  Sc  Sc51  1  0.57884566  0.32034792  0.13210693  1
  Sc  Sc52  1  0.26802672  0.18744963  0.29977031  1
  Sc  Sc53  1  0.66811305  0.21122825  0.31482847  1
  Sc  Sc54  1  0.12736900  0.60609055  0.23751181  1
  Sc  Sc55  1  0.72502511  0.26890552  -0.06364296  1
  Sc  Sc56  1  0.64744141  0.22639095  0.73220981  1
  Sc  Sc57  1  0.68097475  0.98947172  0.71877680  1
  Sc  Sc58  1  0.65277438  0.60319838  0.14336368  1
  Sc  Sc59  1  0.92545915  0.52519223  0.36200965  1
  Sc  Sc60  1  0.30867879  0.78304783  0.33199616  1
  Sc  Sc61  1  0.55093578  0.74706522  0.72630521  1
  Sc  Sc62  1  0.70079034  0.78824325  0.24762879  1
  Sc  Sc63  1  0.50861888  0.67726409  0.30931274  1
  Sc  Sc64  1  0.73830864  0.88925484  0.41841951  1
  Sc  Sc65  1  0.09498337  0.05206703  0.40709225  1
  Sc  Sc66  1  0.46769159  0.51490246  0.02510139  1
  Sc  Sc67  1  0.64251239  -0.00832448  0.24692782  1
  Sc  Sc68  1  0.44277146  0.36075468  0.67920659  1
  Sc  Sc69  1  0.47965760  0.09730617  0.41577072  1
  Sc  Sc70  1  0.90063632  0.53015682  0.12704912  1
  Sc  Sc71  1  0.41959238  0.75867209  0.94359438  1
  Sc  Sc72  1  0.29106878  0.38458063  0.93321622  1
  Sc  Sc73  1  0.57362732  0.78999627  0.08309906  1
  Sc  Sc74  1  0.88674989  0.48659736  0.72335795  1
  Sc  Sc75  1  0.28587232  0.39570720  0.32929775  1
  Sc  Sc76  1  0.74180260  0.80424972  0.62436659  1
  Sc  Sc77  1  0.71264783  0.14071357  0.11127299  1
  Sc  Sc78  1  0.06509148  0.39343779  0.25083346  1
  Sc  Sc79  1  0.75630502  0.91843792  0.04529223  1
  Sc  Sc80  1  0.57090902  0.94031877  0.55645985  1
  Sc  Sc81  1  0.51428600  0.34648915  0.88540735  1
  Sc  Sc82  1  0.35903161  0.68094824  0.14483574  1
  Sc  Sc83  1  0.02788098  0.80147358  0.61165365  1
  Sc  Sc84  1  0.46783436  0.46376946  0.45441074  1
  Sc  Sc85  1  0.87088994  0.71802814  0.47425376  1
  Sc  Sc86  1  0.22163978  0.64350327  0.58453871  1
  Sc  Sc87  1  0.07359946  1.00499573  0.61682805  1
  Sc  Sc88  1  0.27554536  0.48476046  0.14114612  1
  Sc  Sc89  1  0.30389741  0.98821664  0.32287865  1
  Sc  Sc90  1  0.69770254  0.46001695  1.00498468  1
  Sc  Sc91  1  0.56605193  0.27058899  0.51750553  1
  Sc  Sc92  1  0.12086337  0.02452516  0.19564411  1
  Sc  Sc93  1  0.63167070  0.65816574  0.92456933  1
  Sc  Sc94  1  0.86484679  0.30797843  0.35734098  1
  Sc  Sc95  1  0.12678315  0.22807864  0.06516451  1
  Sc  Sc96  1  0.33757088  0.95453664  0.90882476  1
  Sc  Sc97  1  0.67158759  0.41464079  0.41023064  1
  Sc  Sc98  1  0.50254193  0.08617530  0.83062496  1
  Sc  Sc99  1  0.50159399  0.18348983  0.00649719  1
  Nb  Nb100  1  0.10621538  0.41436973  0.66612648  1
  Nb  Nb101  1  0.85605454  -0.01850737  0.55494795  1
  Nb  Nb102  1  0.10571675  0.31540319  0.85290116  1
  Nb  Nb103  1  0.12545613  0.49562917  0.44043857  1
  Nb  Nb104  1  0.19707781  0.79130141  0.93130926  1
  Nb  Nb105  1  0.70836209  0.42958221  0.80172385  1
  Nb  Nb106  1  0.09217391  0.69655136  0.42018052  1
  Nb  Nb107  1  0.27346655  0.43466553  0.55317135  1
  Nb  Nb108  1  0.75917342  0.80560520  0.85130315  1
  Nb  Nb109  1  0.26291442  0.05995405  0.72903959  1
  Nb  Nb110  1  0.96236420  0.77910361  0.89188712  1
  Nb  Nb111  1  0.44746647  0.89963623  0.19978901  1
  Nb  Nb112  1  0.47139489  0.29309462  0.31937932  1
  Nb  Nb113  1  0.58490916  0.88816153  0.88320103  1
  Nb  Nb114  1  0.09913063  0.91607646  0.82245812  1
  Nb  Nb115  1  0.48314674  0.12657154  0.20897619  1
  Nb  Nb116  1  0.70485709  0.61629885  0.72875846  1
  Nb  Nb117  1  0.35312462  0.27158697  0.49322559  1
  Nb  Nb118  1  0.26206947  0.26866635  0.70400798  1
  Nb  Nb119  1  0.92378260  -0.01722904  0.91964309  1
  Nb  Nb120  1  0.24397504  0.12723737  0.53376512  1
  Nb  Nb121  1  0.42964863  0.57919903  0.61620048  1
  Nb  Nb122  1  0.88949233  0.69088641  0.72176176  1
  Nb  Nb123  1  0.90137690  0.40007943  0.93899811  1
  Nb  Nb124  1  0.18307565  0.86088402  0.47784130  1
