# generated using pymatgen
data_Zr2Sc2Nb
_symmetry_space_group_name_H-M   'P 1'
_cell_length_a   14.23185452
_cell_length_b   14.18862706
_cell_length_c   14.32511665
_cell_angle_alpha   91.01584794
_cell_angle_beta   88.31765118
_cell_angle_gamma   91.40571955
_symmetry_Int_Tables_number   1
_chemical_formula_structural   Zr2Sc2Nb
_chemical_formula_sum   'Zr50 Sc50 Nb25'
_cell_volume   2890.14179788
_cell_formula_units_Z   25
loop_
 _symmetry_equiv_pos_site_id
 _symmetry_equiv_pos_as_xyz
  1  'x, y, z'
loop_
 _atom_site_type_symbol
 _atom_site_label
 _atom_site_symmetry_multiplicity
 _atom_site_fract_x
 _atom_site_fract_y
 _atom_site_fract_z
 _atom_site_occupancy
  Zr  Zr0  1  0.52332451  0.28503229  0.15864729  1
  Zr  Zr1  1  0.09045574  0.12103228  0.79222908  1
  Zr  Zr2  1  0.51611479  0.10087511  0.80942643  1
  Zr  Zr3  1  0.17947807  0.92208571  0.75804755  1
  Zr  Zr4  1  0.85366965  0.27952381  0.46717823  1
  Zr  Zr5  1  0.06114894  0.85956374  0.60475467  1
  Zr  Zr6  1  0.37536592  0.45049998  0.25317436  1
  Zr  Zr7  1  0.45131008  0.60134614  0.62407554  1
  Zr  Zr8  1  0.85283867  0.10468986  0.11883553  1
  Zr  Zr9  1  0.34134998  0.71617512  0.77877906  1
  Zr  Zr10  1  0.71892715  0.55722131  0.92523122  1
  Zr  Zr11  1  0.72706785  0.69359863  0.11308436  1
  Zr  Zr12  1  0.74093903  0.11486231  0.76654670  1
  Zr  Zr13  1  0.59854042  -0.03380212  0.66562415  1
  Zr  Zr14  1  0.86563066  0.49937100  0.49603384  1
  Zr  Zr15  1  0.66775099  0.58320494  0.59163196  1
  Zr  Zr16  1  0.82327973  0.79791520  0.27664047  1
  Zr  Zr17  1  0.86989794  0.41396768  0.28182903  1
  Zr  Zr18  1  0.69025764  0.45499957  0.41315931  1
  Zr  Zr19  1  0.28582392  0.22257798  0.86012545  1
  Zr  Zr20  1  0.55705137  0.42782779  -0.01457307  1
  Zr  Zr21  1  0.11879588  0.62880780  -0.00552926  1
  Zr  Zr22  1  0.41022898  0.24556966  0.48159300  1
  Zr  Zr23  1  0.67173265  0.94586184  0.24222377  1
  Zr  Zr24  1  0.92117808  0.89835473  0.10730278  1
  Zr  Zr25  1  0.49221349  0.04965911  0.10522774  1
  Zr  Zr26  1  0.42701670  0.38061397  0.81877181  1
  Zr  Zr27  1  0.40290437  0.91347369  0.76593723  1
  Zr  Zr28  1  0.71154555  0.92782408  0.04697677  1
  Zr  Zr29  1  0.94324733  0.29904581  0.11915918  1
  Zr  Zr30  1  0.23274377  0.82427373  0.93138437  1
  Zr  Zr31  1  0.28929648  0.15460765  0.09031885  1
  Zr  Zr32  1  0.78392352  0.68670701  0.44948557  1
  Zr  Zr33  1  0.53446960  0.11962618  0.31871728  1
  Zr  Zr34  1  0.63215352  0.23369610  0.47023052  1
  Zr  Zr35  1  0.41946935  0.82789351  0.58987937  1
  Zr  Zr36  1  0.92140976  0.20978927  0.68609883  1
  Zr  Zr37  1  0.91584407  0.86522573  0.46943907  1
  Zr  Zr38  1  0.09083306  0.26290159  0.56451498  1
  Zr  Zr39  1  0.03663137  0.38765201  0.38920467  1
  Zr  Zr40  1  0.68821371  0.10774682  0.95961969  1
  Zr  Zr41  1  0.90886077  -0.00193602  0.30174246  1
  Zr  Zr42  1  0.30341934  0.71828137  0.09319765  1
  Zr  Zr43  1  0.98123716  0.61727416  0.35110457  1
  Zr  Zr44  1  0.62736146  0.46393767  0.75432328  1
  Zr  Zr45  1  0.74671864  0.34245462  0.63641262  1
  Zr  Zr46  1  0.90708642  0.20926645  0.91214898  1
  Zr  Zr47  1  0.48453180  0.21269773  0.97287653  1
  Zr  Zr48  1  0.26177991  0.92244698  0.52167675  1
  Zr  Zr49  1  0.73401721  0.30947399  0.05077410  1
  Sc  Sc50  1  0.90199874  0.99280575  0.90713945  1
  Sc  Sc51  1  0.68568687  0.92222665  0.44547358  1
  Sc  Sc52  1  0.11827015  0.17069599  0.35495471  1
  Sc  Sc53  1  0.84186141  0.50162953  0.07914168  1
  Sc  Sc54  1  0.62487799  0.48768333  0.20333602  1
  Sc  Sc55  1  0.22406850  0.71081500  0.61624425  1
  Sc  Sc56  1  0.28002905  0.31255795  0.64962169  1
  Sc  Sc57  1  0.27342046  0.51386850  0.72403522  1
  Sc  Sc58  1  0.46650299  0.87503905  0.35918168  1
  Sc  Sc59  1  0.91036888  0.99148548  0.68730353  1
  Sc  Sc60  1  0.91429841  0.78630968  0.76522234  1
  Sc  Sc61  1  0.85977675  0.39648601  0.83347888  1
  Sc  Sc62  1  0.82696057  0.77296983  0.95185298  1
  Sc  Sc63  1  0.95280757  0.09316596  0.48371312  1
  Sc  Sc64  1  0.11584832  0.23525751  0.99277353  1
  Sc  Sc65  1  0.76157546  0.81796281  0.62557100  1
  Sc  Sc66  1  0.10985092  0.71023239  0.78805476  1
  Sc  Sc67  1  0.34431900  0.23697103  0.27586830  1
  Sc  Sc68  1  0.57147917  0.76584682  0.73644082  1
  Sc  Sc69  1  0.39462902  0.65835607  0.25892543  1
  Sc  Sc70  1  0.31475414  0.03833603  0.31835003  1
  Sc  Sc71  1  0.14622950  0.66810782  0.21920953  1
  Sc  Sc72  1  0.52949108  0.41213844  0.56710313  1
  Sc  Sc73  1  0.57774478  0.74450664  0.50198795  1
  Sc  Sc74  1  0.33176677  0.56942730  0.94415292  1
  Sc  Sc75  1  0.12037445  1.01048395  0.97293330  1
  Sc  Sc76  1  0.61539964  0.71155165  0.29250209  1
  Sc  Sc77  1  0.02474135  0.43154168  0.97655604  1
  Sc  Sc78  1  0.83177715  0.57499152  0.72368509  1
  Sc  Sc79  1  0.12968099  0.73720809  0.43518277  1
  Sc  Sc80  1  0.25283001  0.83701674  0.29607713  1
  Sc  Sc81  1  0.50826642  0.61699808  0.07321949  1
  Sc  Sc82  1  0.09013678  0.04921607  0.18360150  1
  Sc  Sc83  1  0.53613989  0.23340418  0.66737449  1
  Sc  Sc84  1  0.51263008  0.83275039  0.13113226  1
  Sc  Sc85  1  0.98504106  0.65292191  0.58844354  1
  Sc  Sc86  1  0.75322738  0.09165682  0.56298341  1
  Sc  Sc87  1  0.30707533  0.93654313  0.11292740  1
  Sc  Sc88  1  0.31749999  0.09355796  0.68410544  1
  Sc  Sc89  1  0.34163093  0.02556389  0.92626529  1
  Sc  Sc90  1  0.46492758  0.04006342  0.51848418  1
  Sc  Sc91  1  0.15274925  0.32435245  0.20328866  1
  Sc  Sc92  1  0.34161138  0.67394490  0.45030975  1
  Sc  Sc93  1  0.50713471  0.59554257  0.84458519  1
  Sc  Sc94  1  0.05393663  0.51479739  0.77137480  1
  Sc  Sc95  1  0.71159284  0.28647071  0.26962713  1
  Sc  Sc96  1  0.62543403  0.75422683  0.93795735  1
  Sc  Sc97  1  0.34603336  0.35923709  0.04346207  1
  Sc  Sc98  1  0.14431448  0.50060759  0.54448044  1
  Sc  Sc99  1  0.65780435  0.29039028  0.85040691  1
  Nb  Nb100  1  0.93150556  0.61341455  0.91409293  1
  Nb  Nb101  1  0.25025426  0.13346785  0.49321183  1
  Nb  Nb102  1  0.95090737  0.68939393  0.12328133  1
  Nb  Nb103  1  0.23420851  0.33744578  0.41706279  1
  Nb  Nb104  1  0.80426603  0.59322682  0.26958495  1
  Nb  Nb105  1  0.51903260  0.55753843  0.40715803  1
  Nb  Nb106  1  0.95811091  0.40345177  0.62838799  1
  Nb  Nb107  1  0.02875991  0.50098263  0.18290351  1
  Nb  Nb108  1  0.42813584  0.78934953  0.94391049  1
  Nb  Nb109  1  0.08304690  0.31557963  0.78298990  1
  Nb  Nb110  1  0.11927087  0.83759055  0.11036603  1
  Nb  Nb111  1  0.02686886  0.83071980  0.28194486  1
  Nb  Nb112  1  0.92926655  0.20712271  0.29053943  1
  Nb  Nb113  1  0.66335575  0.12793525  0.15442577  1
  Nb  Nb114  1  0.72526705  0.91528679  0.82102237  1
  Nb  Nb115  1  0.51473969  0.35686979  0.35460170  1
  Nb  Nb116  1  0.21842233  0.50382233  0.11312921  1
  Nb  Nb117  1  0.35423386  0.46513709  0.47728524  1
  Nb  Nb118  1  0.21112980  0.41153529  0.89701912  1
  Nb  Nb119  1  0.11053518  0.05917077  0.60285556  1
  Nb  Nb120  1  0.10900135  0.96702566  0.40696280  1
  Nb  Nb121  1  0.75545287  0.10808231  0.34809322  1
  Nb  Nb122  1  0.19973295  0.52050194  0.33389131  1
  Nb  Nb123  1  0.02475395  0.81424054  -0.05582335  1
  Nb  Nb124  1  0.55004756  0.94539199  0.91570642  1
