# generated using pymatgen
data_Zr2Sc2Nb
_symmetry_space_group_name_H-M   'P 1'
_cell_length_a   14.10872757
_cell_length_b   14.08993974
_cell_length_c   14.48794731
_cell_angle_alpha   87.65253097
_cell_angle_beta   90.79577017
_cell_angle_gamma   89.15979845
_symmetry_Int_Tables_number   1
_chemical_formula_structural   Zr2Sc2Nb
_chemical_formula_sum   'Zr50 Sc50 Nb25'
_cell_volume   2877.04632963
_cell_formula_units_Z   25
loop_
 _symmetry_equiv_pos_site_id
 _symmetry_equiv_pos_as_xyz
  1  'x, y, z'
loop_
 _atom_site_type_symbol
 _atom_site_label
 _atom_site_symmetry_multiplicity
 _atom_site_fract_x
 _atom_site_fract_y
 _atom_site_fract_z
 _atom_site_occupancy
  Zr  Zr0  1  0.23265538  0.88852197  0.65821636  1
  Zr  Zr1  1  0.87422553  0.48244169  0.16840556  1
  Zr  Zr2  1  0.72259031  0.73468860  0.72136232  1
  Zr  Zr3  1  0.10045742  0.95181260  0.08230978  1
  Zr  Zr4  1  0.14768602  0.89926088  0.86737845  1
  Zr  Zr5  1  0.08278933  0.85295877  0.51019568  1
  Zr  Zr6  1  0.08380755  0.09979464  0.90825778  1
  Zr  Zr7  1  0.07970887  0.57893484  0.09560773  1
  Zr  Zr8  1  0.08513317  0.06551730  0.49284202  1
  Zr  Zr9  1  0.03662688  -0.01168677  0.68816115  1
  Zr  Zr10  1  0.95087899  0.06006610  0.13949401  1
  Zr  Zr11  1  0.59201125  0.44709644  0.90661553  1
  Zr  Zr12  1  0.48789450  0.09832214  0.26264614  1
  Zr  Zr13  1  0.07317358  0.75899559  0.19458762  1
  Zr  Zr14  1  0.44823501  0.70651291  0.03487494  1
  Zr  Zr15  1  0.28357531  0.74070842  0.50972113  1
  Zr  Zr16  1  0.62784743  0.23516359  0.95515430  1
  Zr  Zr17  1  0.06496207  0.57428671  0.84121153  1
  Zr  Zr18  1  0.60671077  0.27308774  0.56018783  1
  Zr  Zr19  1  0.79128739  0.35219320  0.48482366  1
  Zr  Zr20  1  0.09108679  0.65145020  0.58650275  1
  Zr  Zr21  1  0.25308740  0.82034071  0.07009445  1
  Zr  Zr22  1  0.42637905  0.58589290  0.85671574  1
  Zr  Zr23  1  0.68037457  0.77486777  0.10813045  1
  Zr  Zr24  1  0.69366682  0.18723662  0.39567960  1
  Zr  Zr25  1  0.46412964  0.10847111  0.87500436  1
  Zr  Zr26  1  0.27087705  0.05364147  0.78139239  1
  Zr  Zr27  1  0.87017098  0.94066819  0.47996866  1
  Zr  Zr28  1  0.51985287  0.70545350  0.46152120  1
  Zr  Zr29  1  0.17313365  0.51933605  0.45784442  1
  Zr  Zr30  1  0.89658055  0.77277236  0.60914987  1
  Zr  Zr31  1  1.01941604  0.27018175  0.49962527  1
  Zr  Zr32  1  0.29586766  0.18434140  0.38067364  1
  Zr  Zr33  1  0.43244674  0.91212444  0.14554480  1
  Zr  Zr34  1  0.17673367  0.41452606  0.00523228  1
  Zr  Zr35  1  0.24268582  0.64147786  0.95870892  1
  Zr  Zr36  1  0.48818098  0.09906789  0.46541881  1
  Zr  Zr37  1  0.08460344  0.93525341  0.30635693  1
  Zr  Zr38  1  0.29812757  0.81614530  0.28962969  1
  Zr  Zr39  1  0.91674644  0.15271063  0.79464178  1
  Zr  Zr40  1  0.10900287  0.19496113  0.69184193  1
  Zr  Zr41  1  0.10875492  0.43386287  0.65539232  1
  Zr  Zr42  1  0.60325753  0.57303778  0.72079396  1
  Zr  Zr43  1  0.88653677  0.11942503  0.35658061  1
  Zr  Zr44  1  0.02291263  0.54661584  0.30074263  1
  Zr  Zr45  1  0.28384747  0.10395191  0.58226388  1
  Zr  Zr46  1  0.04116204  0.34825606  0.82935369  1
  Zr  Zr47  1  0.91444213  0.55811573  0.68788151  1
  Zr  Zr48  1  0.76288045  0.38207867  0.03204629  1
  Zr  Zr49  1  0.62314210  0.55338190  0.35007145  1
  Sc  Sc50  1  0.79303554  0.53354170  0.84881772  1
  Sc  Sc51  1  0.88102906  0.25622105  0.17134227  1
  Sc  Sc52  1  0.67595351  0.05593154  0.57397820  1
  Sc  Sc53  1  0.51952997  0.77390867  0.77443990  1
  Sc  Sc54  1  0.06608444  0.36435801  0.16969661  1
  Sc  Sc55  1  0.90244406  0.73422648  0.82794331  1
  Sc  Sc56  1  0.94109777  0.71759726  0.41128602  1
  Sc  Sc57  1  0.51737959  0.48090721  0.51763051  1
  Sc  Sc58  1  0.05266838  0.75220431  0.97178499  1
  Sc  Sc59  1  0.85345225  0.69027683  0.21959154  1
  Sc  Sc60  1  0.87460110  0.13779404  0.57415303  1
  Sc  Sc61  1  0.74051431  0.84528586  0.90020149  1
  Sc  Sc62  1  0.70544184  0.13764743  0.19439854  1
  Sc  Sc63  1  0.08515210  0.16202081  0.29532854  1
  Sc  Sc64  1  0.27607217  0.96204232  0.43352612  1
  Sc  Sc65  1  0.37644432  0.48601402  0.04970739  1
  Sc  Sc66  1  0.84911789  0.64481333  1.01736550  1
  Sc  Sc67  1  0.54378776  0.33539042  0.11832219  1
  Sc  Sc68  1  0.66027933  0.84656606  0.55272057  1
  Sc  Sc69  1  0.44869589  0.49751932  0.24334892  1
  Sc  Sc70  1  0.24733501  0.67206532  0.73918239  1
  Sc  Sc71  1  0.92855008  0.95456175  0.90729088  1
  Sc  Sc72  1  0.54506391  0.89659315  -0.04513525  1
  Sc  Sc73  1  0.50647195  0.71930388  0.24191728  1
  Sc  Sc74  1  0.16131400  0.17005605  0.10441551  1
  Sc  Sc75  1  0.34678957  0.83921828  0.86503996  1
  Sc  Sc76  1  0.95978404  0.48496940  0.50060989  1
  Sc  Sc77  1  0.82606052  0.15872401  0.98495276  1
  Sc  Sc78  1  0.30022222  0.31767943  0.20711344  1
  Sc  Sc79  1  0.72058741  0.41470534  0.67649676  1
  Sc  Sc80  1  0.29760398  0.01931271  -0.00445272  1
  Sc  Sc81  1  0.63143293  0.66012356  0.92915331  1
  Sc  Sc82  1  0.23687483  0.23648290  0.91131819  1
  Sc  Sc83  1  0.48849472  0.11380711  0.67377738  1
  Sc  Sc84  1  0.71062532  0.36872152  0.26726068  1
  Sc  Sc85  1  0.25992581  0.45659666  0.81423118  1
  Sc  Sc86  1  0.48629225  0.90199181  0.37181478  1
  Sc  Sc87  1  0.64871548  0.55246706  0.13138293  1
  Sc  Sc88  1  0.84756973  0.91358333  0.26419474  1
  Sc  Sc89  1  0.38868895  0.18976268  0.07448997  1
  Sc  Sc90  1  0.81907617  0.95333518  0.71374784  1
  Sc  Sc91  1  0.44469190  0.90318665  0.59617984  1
  Sc  Sc92  1  0.73916739  0.60944699  0.53701725  1
  Sc  Sc93  1  0.70729141  0.76566000  0.35675234  1
  Sc  Sc94  1  0.32570171  0.26922210  0.72931898  1
  Sc  Sc95  1  0.42948260  0.65338924  0.63429898  1
  Sc  Sc96  1  0.75347784  0.97714079  0.06002208  1
  Sc  Sc97  1  0.55970542  0.06737881  0.06205733  1
  Sc  Sc98  1  0.56459301  0.28400557  0.76807933  1
  Sc  Sc99  1  0.50872255  0.30316244  0.35108667  1
  Nb  Nb100  1  0.21752540  0.30512798  0.54002513  1
  Nb  Nb101  1  0.35977940  0.60716926  0.38670763  1
  Nb  Nb102  1  0.15804693  0.69937418  0.36036105  1
  Nb  Nb103  1  0.33583128  0.40470946  0.40350925  1
  Nb  Nb104  1  0.81529912  0.32473629  0.85040338  1
  Nb  Nb105  1  0.90553451  0.84105549  0.08011334  1
  Nb  Nb106  1  0.99634925  0.26245426  0.99732100  1
  Nb  Nb107  1  0.68109387  0.99279256  0.37833224  1
  Nb  Nb108  1  0.27414959  0.02633895  0.22060342  1
  Nb  Nb109  1  0.42346057  0.33742938  0.91256994  1
  Nb  Nb110  1  0.73325300  0.18885872  0.72015806  1
  Nb  Nb111  1  0.68991259  0.06416986  0.86375229  1
  Nb  Nb112  1  0.45307485  0.43886900  0.71623363  1
  Nb  Nb113  1  0.62441819  0.92593435  0.21482969  1
  Nb  Nb114  1  0.22105621  0.50564575  0.25068647  1
  Nb  Nb115  1  0.60728578  0.95243337  0.74653235  1
  Nb  Nb116  1  0.13943932  0.35101450  0.35922072  1
  Nb  Nb117  1  0.81642624  0.53300496  0.35616736  1
  Nb  Nb118  1  0.06444583  0.78185638  0.73089179  1
  Nb  Nb119  1  0.92616316  0.34891254  0.33690130  1
  Nb  Nb120  1  0.29384845  0.65498503  0.17561434  1
  Nb  Nb121  1  0.95377463  0.45336091  0.97848700  1
  Nb  Nb122  1  0.41190397  0.29060961  0.55182474  1
  Nb  Nb123  1  0.91244817  0.32955608  0.66844265  1
  Nb  Nb124  1  0.31004233  0.49035682  0.59425551  1
