# generated using pymatgen
data_Zr2Sc2Nb
_symmetry_space_group_name_H-M   'P 1'
_cell_length_a   14.36387939
_cell_length_b   14.18121612
_cell_length_c   14.11505897
_cell_angle_alpha   89.80288831
_cell_angle_beta   89.11430957
_cell_angle_gamma   89.72460045
_symmetry_Int_Tables_number   1
_chemical_formula_structural   Zr2Sc2Nb
_chemical_formula_sum   'Zr50 Sc50 Nb25'
_cell_volume   2874.80607449
_cell_formula_units_Z   25
loop_
 _symmetry_equiv_pos_site_id
 _symmetry_equiv_pos_as_xyz
  1  'x, y, z'
loop_
 _atom_site_type_symbol
 _atom_site_label
 _atom_site_symmetry_multiplicity
 _atom_site_fract_x
 _atom_site_fract_y
 _atom_site_fract_z
 _atom_site_occupancy
  Zr  Zr0  1  0.37755380  0.66474922  0.30463356  1
  Zr  Zr1  1  0.07950817  0.94641472  0.34405649  1
  Zr  Zr2  1  0.72478692  0.45101489  0.58875082  1
  Zr  Zr3  1  0.32681283  0.55385348  0.12934211  1
  Zr  Zr4  1  0.08422305  0.41862172  0.66647018  1
  Zr  Zr5  1  0.53797407  0.55023963  0.87345547  1
  Zr  Zr6  1  0.18784820  0.23572974  0.93563159  1
  Zr  Zr7  1  0.20066964  0.63060662  0.95512414  1
  Zr  Zr8  1  0.34906668  0.05373135  0.51127301  1
  Zr  Zr9  1  0.55593437  0.51400085  0.23441844  1
  Zr  Zr10  1  0.81394716  0.34381392  -0.02600287  1
  Zr  Zr11  1  0.80434039  0.84141180  0.89647756  1
  Zr  Zr12  1  0.77485083  0.63009158  0.91630578  1
  Zr  Zr13  1  0.26255475  0.36040341  0.06806277  1
  Zr  Zr14  1  0.48204922  0.21610257  0.11957932  1
  Zr  Zr15  1  0.98679311  0.39757264  0.28866039  1
  Zr  Zr16  1  0.35164811  0.11483832  0.76728875  1
  Zr  Zr17  1  0.84410942  0.04930604  0.90588695  1
  Zr  Zr18  1  0.78427116  0.46331358  0.23284102  1
  Zr  Zr19  1  0.16418914  0.30267842  0.25105840  1
  Zr  Zr20  1  0.85309305  0.12155458  0.63820583  1
  Zr  Zr21  1  0.49548733  0.38025775  0.74161249  1
  Zr  Zr22  1  0.56386109  0.15170578  0.44740238  1
  Zr  Zr23  1  0.44442203  0.23005427  0.61994680  1
  Zr  Zr24  1  0.27162452  0.15477996  0.12961226  1
  Zr  Zr25  1  0.12090654  0.50998078  0.13634457  1
  Zr  Zr26  1  0.29905365  0.76259930  0.13098367  1
  Zr  Zr27  1  0.00805502  0.16398211  0.39768395  1
  Zr  Zr28  1  0.75554469  0.68005786  0.28606396  1
  Zr  Zr29  1  0.66511819  0.15065759  0.00578500  1
  Zr  Zr30  1  0.10726795  0.43984319  0.90845322  1
  Zr  Zr31  1  0.41812145  0.90443757  0.83325344  1
  Zr  Zr32  1  0.75606360  0.66900887  0.53608377  1
  Zr  Zr33  1  0.86059376  0.15656967  0.08255332  1
  Zr  Zr34  1  0.04144416  0.52459116  0.46041935  1
  Zr  Zr35  1  0.25279898  0.75233216  0.75719085  1
  Zr  Zr36  1  0.20439345  0.94800682  0.75229283  1
  Zr  Zr37  1  0.32558384  0.42916505  0.55941156  1
  Zr  Zr38  1  0.66260673  0.79638803  0.09385714  1
  Zr  Zr39  1  0.97914847  0.00773319  0.74968460  1
  Zr  Zr40  1  0.04703624  0.12471786  0.19356796  1
  Zr  Zr41  1  0.48561347  0.83536183  0.22246738  1
  Zr  Zr42  1  0.87236493  1.02082870  0.27369636  1
  Zr  Zr43  1  0.86994068  0.33826629  0.70011038  1
  Zr  Zr44  1  0.36857685  0.37413627  0.24452686  1
  Zr  Zr45  1  0.69067175  0.98201024  0.53361197  1
  Zr  Zr46  1  0.59092104  0.33087948  0.93284074  1
  Zr  Zr47  1  0.88897566  0.68982565  0.74514563  1
  Zr  Zr48  1  0.92775571  0.82271445  0.28237852  1
  Zr  Zr49  1  0.36725220  0.26876530  0.41939035  1
  Sc  Sc50  1  0.22761401  0.50874946  0.34515903  1
  Sc  Sc51  1  0.30037920  0.89880841  0.32127728  1
  Sc  Sc52  1  0.67639181  0.65230057  0.72638386  1
  Sc  Sc53  1  0.32485107  0.55871717  0.72934786  1
  Sc  Sc54  1  0.26789469  0.33538524  0.76148393  1
  Sc  Sc55  1  0.08955160  0.60850736  0.75255903  1
  Sc  Sc56  1  0.79277392  0.13797529  0.43329801  1
  Sc  Sc57  1  0.52723355  0.55620669  0.60362626  1
  Sc  Sc58  1  0.23771587  0.21101619  0.59399001  1
  Sc  Sc59  1  0.99098894  0.64857322  0.93908655  1
  Sc  Sc60  1  0.92748091  -0.03795231  0.49202202  1
  Sc  Sc61  1  0.91183729  0.34050978  0.48866149  1
  Sc  Sc62  1  0.62330497  0.86211613  0.74281363  1
  Sc  Sc63  1  0.96752006  0.61086918  0.26116594  1
  Sc  Sc64  1  0.15865988  0.94370955  0.13931320  1
  Sc  Sc65  1  0.62753433  0.96058535  0.92648695  1
  Sc  Sc66  1  0.66714280  0.23256343  0.62664722  1
  Sc  Sc67  1  0.03158867  0.21678078  0.62458179  1
  Sc  Sc68  1  0.21720571  0.11373717  0.35369451  1
  Sc  Sc69  1  0.02252194  0.30806455  0.07806191  1
  Sc  Sc70  1  0.11960037  0.03070933  0.56432976  1
  Sc  Sc71  1  0.14858113  0.72125684  0.32930886  1
  Sc  Sc72  1  0.18726480  0.62631531  0.55892899  1
  Sc  Sc73  1  0.91527802  0.50205623  0.06404819  1
  Sc  Sc74  1  0.49854203  0.91993255  0.43254791  1
  Sc  Sc75  1  0.08428327  0.73935004  0.11398044  1
  Sc  Sc76  1  0.67701069  0.13804097  0.24214039  1
  Sc  Sc77  1  0.72182457  0.32910637  0.39038593  1
  Sc  Sc78  1  0.05045459  0.81565183  0.65849255  1
  Sc  Sc79  1  0.20882373  0.84279173  0.51203656  1
  Sc  Sc80  1  0.26163676  0.03829940  0.94470800  1
  Sc  Sc81  1  0.04831099  0.84414603  0.88436330  1
  Sc  Sc82  1  0.34961239  0.46851799  0.91603702  1
  Sc  Sc83  1  0.64448770  0.52331376  0.41334717  1
  Sc  Sc84  1  0.43439408  0.08830653  0.29105762  1
  Sc  Sc85  1  0.05622591  0.06365203  0.96405681  1
  Sc  Sc86  1  0.97631633  0.24078708  0.85408807  1
  Sc  Sc87  1  0.67378901  0.92099013  0.29116002  1
  Sc  Sc88  1  0.67635697  0.51448238  0.04758276  1
  Sc  Sc89  1  0.96031164  0.72484673  0.48088748  1
  Sc  Sc90  1  0.38915050  0.68974875  0.52228122  1
  Sc  Sc91  1  0.71831070  0.44818259  0.80169370  1
  Sc  Sc92  1  0.82025975  0.86554239  0.65229589  1
  Sc  Sc93  1  0.52574695  0.02995651  0.64773665  1
  Sc  Sc94  1  0.57222555  0.71442285  0.38104042  1
  Sc  Sc95  1  0.14289040  0.33556508  0.45838293  1
  Sc  Sc96  1  0.38636338  0.87656187  0.62659493  1
  Sc  Sc97  1  0.50413191  0.65180835  0.08425704  1
  Sc  Sc98  1  -0.04997499  0.92397242  0.08118851  1
  Sc  Sc99  1  0.85787252  0.72542378  0.09540850  1
  Nb  Nb100  1  0.77403294  0.83230371  0.43164918  1
  Nb  Nb101  1  0.43755447  0.49622794  0.40394299  1
  Nb  Nb102  1  0.58904445  0.78860748  0.56803464  1
  Nb  Nb103  1  0.53876365  0.36355948  0.50624419  1
  Nb  Nb104  1  0.86531404  0.24963587  0.25369632  1
  Nb  Nb105  1  0.55881297  0.16228176  0.81042575  1
  Nb  Nb106  1  0.75821180  0.97157075  0.09628437  1
  Nb  Nb107  1  0.56029583  1.00240780  0.12651531  1
  Nb  Nb108  1  0.24805246  0.84052695  0.95835392  1
  Nb  Nb109  1  0.84879207  0.52952994  0.41760746  1
  Nb  Nb110  1  0.54523189  0.31741783  0.30083225  1
  Nb  Nb111  1  0.67652017  0.32133470  0.14365860  1
  Nb  Nb112  1  0.38325509  0.69149473  0.91896394  1
  Nb  Nb113  1  0.71903860  0.03978371  0.75008295  1
  Nb  Nb114  1  0.14612149  0.13506460  0.77168149  1
  Nb  Nb115  1  0.46976289  0.71525390  0.73747534  1
  Nb  Nb116  1  0.75429787  0.22062079  0.82360193  1
  Nb  Nb117  1  0.39679910  0.25786887  0.92440469  1
  Nb  Nb118  1  0.45707315  0.07578515  0.96642996  1
  Nb  Nb119  1  0.59229073  0.74204092  0.90702489  1
  Nb  Nb120  1  0.91162337  0.53573434  0.62366468  1
  Nb  Nb121  1  0.36098657  0.97533422  0.12058712  1
  Nb  Nb122  1  0.46174606  0.85437831  0.01482175  1
  Nb  Nb123  1  0.92509408  0.48317344  0.83001696  1
  Nb  Nb124  1  0.48358353  0.41739543  0.07208042  1
