# generated using pymatgen
data_Zr2Sc2Nb
_symmetry_space_group_name_H-M   'P 1'
_cell_length_a   13.99776744
_cell_length_b   14.71969324
_cell_length_c   14.02263159
_cell_angle_alpha   89.89116691
_cell_angle_beta   90.39993944
_cell_angle_gamma   89.72989430
_symmetry_Int_Tables_number   1
_chemical_formula_structural   Zr2Sc2Nb
_chemical_formula_sum   'Zr50 Sc50 Nb25'
_cell_volume   2889.15498912
_cell_formula_units_Z   25
loop_
 _symmetry_equiv_pos_site_id
 _symmetry_equiv_pos_as_xyz
  1  'x, y, z'
loop_
 _atom_site_type_symbol
 _atom_site_label
 _atom_site_symmetry_multiplicity
 _atom_site_fract_x
 _atom_site_fract_y
 _atom_site_fract_z
 _atom_site_occupancy
  Zr  Zr0  1  0.09916177  0.94283510  0.98035324  1
  Zr  Zr1  1  0.53189200  0.77744097  0.21849779  1
  Zr  Zr2  1  0.59285950  0.90049500  0.79745594  1
  Zr  Zr3  1  0.25839081  0.19403913  0.29138232  1
  Zr  Zr4  1  0.00828891  0.63668179  0.69565208  1
  Zr  Zr5  1  0.41015022  0.92065147  0.09157291  1
  Zr  Zr6  1  0.72423814  0.74975916  0.87244747  1
  Zr  Zr7  1  0.31771366  0.03832718  0.90572480  1
  Zr  Zr8  1  0.33889691  0.25404495  0.08256687  1
  Zr  Zr9  1  0.91108337  0.35893208  0.13321510  1
  Zr  Zr10  1  0.92355237  0.74278601  0.49989421  1
  Zr  Zr11  1  0.26467295  0.66022403  0.42600998  1
  Zr  Zr12  1  0.23695798  0.99001448  0.31367654  1
  Zr  Zr13  1  0.91597468  0.63527952  0.89247337  1
  Zr  Zr14  1  0.03319293  0.17051007  0.11405011  1
  Zr  Zr15  1  0.64084845  0.64225779  0.34292095  1
  Zr  Zr16  1  0.61491781  0.09665589  0.34716790  1
  Zr  Zr17  1  0.73297183  0.49600566  0.21463418  1
  Zr  Zr18  1  0.87102503  0.55396805  0.55502333  1
  Zr  Zr19  1  0.34264363  0.73174934  0.64749181  1
  Zr  Zr20  1  0.85331481  0.93734924  0.51838751  1
  Zr  Zr21  1  0.95442491  0.89432477  0.34182260  1
  Zr  Zr22  1  0.11070421  0.52095742  0.86532286  1
  Zr  Zr23  1  0.13898604  0.32929038  0.00396676  1
  Zr  Zr24  1  0.76639887  0.90039523  0.70087574  1
  Zr  Zr25  1  0.26735904  0.83813524  0.93285141  1
  Zr  Zr26  1  0.90784219  0.24326413  0.93825506  1
  Zr  Zr27  1  0.73901223  0.54920403  -0.00371360  1
  Zr  Zr28  1  0.50935319  0.86881044  0.59313498  1
  Zr  Zr29  1  0.35846818  0.64312564  0.85171957  1
  Zr  Zr30  1  0.56205413  0.18359370  0.12703789  1
  Zr  Zr31  1  0.73113901  0.09214679  0.80921208  1
  Zr  Zr32  1  0.69826592  0.77371034  0.52165287  1
  Zr  Zr33  1  0.19375290  0.12177567  0.49036612  1
  Zr  Zr34  1  0.55027186  0.38035414  0.53403228  1
  Zr  Zr35  1  0.76028835  0.10533691  0.60250684  1
  Zr  Zr36  1  0.95704615  0.13928499  0.52841667  1
  Zr  Zr37  1  0.74506566  0.94756038  0.95333607  1
  Zr  Zr38  1  0.42636495  0.28970735  0.69827702  1
  Zr  Zr39  1  0.62653773  -0.00608604  0.15763908  1
  Zr  Zr40  1  0.68709643  0.29053199  0.28462408  1
  Zr  Zr41  1  0.97780063  0.84582191  0.67286572  1
  Zr  Zr42  1  0.55053125  0.69939643  0.72946075  1
  Zr  Zr43  1  0.47687663  0.25550990  0.32767352  1
  Zr  Zr44  1  0.38707017  0.70814504  0.07009266  1
  Zr  Zr45  1  0.30563639  0.88152201  0.49563929  1
  Zr  Zr46  1  0.15912186  0.75698065  0.78035690  1
  Zr  Zr47  1  0.80678986  0.15202021  0.15745069  1
  Zr  Zr48  1  0.73554132  0.36398602  0.86405864  1
  Zr  Zr49  1  0.36045664  0.90642317  0.74019042  1
  Sc  Sc50  1  0.51232506  0.25635701  0.91160587  1
  Sc  Sc51  1  0.11572667  0.33005439  0.22005990  1
  Sc  Sc52  1  0.08422015  0.95386614  0.51455927  1
  Sc  Sc53  1  0.31827051  0.49089807  0.07511967  1
  Sc  Sc54  1  0.14859988  -0.02450657  0.76146811  1
  Sc  Sc55  1  0.87986447  0.26242332  0.71432208  1
  Sc  Sc56  1  0.83566529  0.93052226  0.15839125  1
  Sc  Sc57  1  0.30797415  0.10826036  0.67271979  1
  Sc  Sc58  1  0.95376578  0.47426268  0.32188390  1
  Sc  Sc59  1  0.70547314  0.34398757  0.06771898  1
  Sc  Sc60  1  0.40970975  0.05839818  0.46857498  1
  Sc  Sc61  1  0.13829501  0.32688738  0.43605357  1
  Sc  Sc62  1  0.20760380  0.67434532  0.19158886  1
  Sc  Sc63  1  0.64115012  0.25548034  0.71485679  1
  Sc  Sc64  1  0.04699799  0.65902534  0.33650278  1
  Sc  Sc65  1  0.51915864  0.07093801  0.71132343  1
  Sc  Sc66  1  0.52289561  0.47204163  0.95092187  1
  Sc  Sc67  1  0.74363807  0.44951952  0.42201539  1
  Sc  Sc68  1  0.53484192  0.03923160  0.95034282  1
  Sc  Sc69  1  0.34924273  0.26779138  0.49143657  1
  Sc  Sc70  1  0.47208023  0.70527181  0.45825398  1
  Sc  Sc71  1  0.09709697  0.52899964  0.49485189  1
  Sc  Sc72  1  0.94160185  0.05065975  0.75485226  1
  Sc  Sc73  1  0.31663630  0.43441224  0.84178442  1
  Sc  Sc74  1  0.01155708  0.78601557  0.15721829  1
  Sc  Sc75  1  0.10902043  0.70491297  0.98798333  1
  Sc  Sc76  1  0.41429609  0.53373237  0.61930157  1
  Sc  Sc77  1  0.39168176  0.59222442  0.26980074  1
  Sc  Sc78  1  0.21454746  0.56819566  0.67344527  1
  Sc  Sc79  1  0.93868164  0.84562652  0.87332477  1
  Sc  Sc80  1  0.10067175  0.19363750  0.68228141  1
  Sc  Sc81  1  0.92966285  0.35209998  0.52350004  1
  Sc  Sc82  1  0.04623769  0.10900916  0.33184733  1
  Sc  Sc83  1  0.22947406  0.07604872  0.09821930  1
  Sc  Sc84  1  0.71028035  0.87357052  0.33011845  1
  Sc  Sc85  1  0.84006227  0.70510317  0.29755736  1
  Sc  Sc86  1  0.90938969  0.59119594  0.12539359  1
  Sc  Sc87  1  0.13611367  0.75168039  0.55369227  1
  Sc  Sc88  1  0.55141563  0.44990443  0.74837364  1
  Sc  Sc89  1  0.27065483  0.23615021  0.85114777  1
  Sc  Sc90  1  0.42315680  0.06281562  0.23778178  1
  Sc  Sc91  1  0.50398151  0.37970476  0.14487094  1
  Sc  Sc92  1  0.55647776  0.18208794  0.53488286  1
  Sc  Sc93  1  0.90523377  0.26717125  0.32886764  1
  Sc  Sc94  1  0.53145917  0.46088454  0.34260570  1
  Sc  Sc95  1  0.09566754  0.50948503  0.09926365  1
  Sc  Sc96  1  0.63967227  0.57877984  0.57237443  1
  Sc  Sc97  1  0.91651154  0.04696637  0.98614901  1
  Sc  Sc98  1  0.81790150  0.07466504  0.36506037  1
  Sc  Sc99  1  0.23054897  0.36057658  0.64372674  1
  Nb  Nb100  1  0.14584343  0.82818701  0.33843666  1
  Nb  Nb101  1  0.04044590  0.43314635  0.66898002  1
  Nb  Nb102  1  0.80859762  0.69571899  0.69086055  1
  Nb  Nb103  1  0.50295114  0.90656116  0.37203727  1
  Nb  Nb104  1  0.56391229  0.66398716  -0.04755992  1
  Nb  Nb105  1  0.32273792  0.46297850  0.44832346  1
  Nb  Nb106  1  0.88707253  0.47639308  0.76757762  1
  Nb  Nb107  1  0.60800740  0.83555412  0.03278671  1
  Nb  Nb108  1  0.18767360  0.50246702  0.29977643  1
  Nb  Nb109  1  0.74492944  0.41165662  0.63994008  1
  Nb  Nb110  1  0.34544601  0.81098622  0.28836787  1
  Nb  Nb111  1  0.06393356  0.33251931  0.82470022  1
  Nb  Nb112  1  0.70964481  0.15999314  0.98471229  1
  Nb  Nb113  1  0.55254662  0.57525057  0.13733128  1
  Nb  Nb114  1  0.10171956  0.13635459  0.90823676  1
  Nb  Nb115  1  0.69972535  0.69782740  0.13861815  1
  Nb  Nb116  1  0.45643510  0.82204117  0.90007112  1
  Nb  Nb117  1  0.93346279  0.43961238  0.95765280  1
  Nb  Nb118  1  0.21631277  0.86497480  0.13701265  1
  Nb  Nb119  1  0.63958717  0.98096352  0.51381508  1
  Nb  Nb120  1  0.70744849  0.56441507  0.79402830  1
  Nb  Nb121  1  0.74468221  0.25759709  0.48919551  1
  Nb  Nb122  1  0.05310018  0.97876420  0.17922654  1
  Nb  Nb123  1  0.32650003  0.37908169  0.26771295  1
  Nb  Nb124  1  0.83708754  0.76636123  0.03843953  1
