# generated using pymatgen
data_Zr2Sc2Nb
_symmetry_space_group_name_H-M   'P 1'
_cell_length_a   14.26014831
_cell_length_b   14.17190811
_cell_length_c   14.27601731
_cell_angle_alpha   88.77788832
_cell_angle_beta   91.60332582
_cell_angle_gamma   91.48300374
_symmetry_Int_Tables_number   1
_chemical_formula_structural   Zr2Sc2Nb
_chemical_formula_sum   'Zr50 Sc50 Nb25'
_cell_volume   2882.38202487
_cell_formula_units_Z   25
loop_
 _symmetry_equiv_pos_site_id
 _symmetry_equiv_pos_as_xyz
  1  'x, y, z'
loop_
 _atom_site_type_symbol
 _atom_site_label
 _atom_site_symmetry_multiplicity
 _atom_site_fract_x
 _atom_site_fract_y
 _atom_site_fract_z
 _atom_site_occupancy
  Zr  Zr0  1  0.18538295  0.90203932  0.57528337  1
  Zr  Zr1  1  0.51622528  0.47073797  0.13709321  1
  Zr  Zr2  1  0.97195761  0.90149990  0.52785927  1
  Zr  Zr3  1  0.19345602  0.65750293  0.02814664  1
  Zr  Zr4  1  0.70839023  0.14793043  0.41531611  1
  Zr  Zr5  1  0.59052748  0.02871114  0.26505691  1
  Zr  Zr6  1  0.43319554  0.45293309  0.34097783  1
  Zr  Zr7  1  0.21828628  0.73942033  0.25304265  1
  Zr  Zr8  1  0.76825171  0.19463722  0.02094357  1
  Zr  Zr9  1  0.27107011  0.11030442  0.53682394  1
  Zr  Zr10  1  0.97447661  0.54648948  0.97159489  1
  Zr  Zr11  1  0.74272235  0.33250353  0.59976386  1
  Zr  Zr12  1  0.60880916  0.57308127  0.31626998  1
  Zr  Zr13  1  0.01116128  0.22535709  0.31612166  1
  Zr  Zr14  1  0.46894409  0.22105023  0.91941370  1
  Zr  Zr15  1  0.29155148  -0.00061446  0.15279726  1
  Zr  Zr16  1  0.16117452  0.43110821  0.95246422  1
  Zr  Zr17  1  0.97132619  0.30171332  0.54929219  1
  Zr  Zr18  1  0.49941937  0.91897057  0.10430015  1
  Zr  Zr19  1  0.32289700  0.75033101  0.45251155  1
  Zr  Zr20  1  0.39199288  0.93025097  0.52344254  1
  Zr  Zr21  1  0.06680215  0.08988110  0.62380667  1
  Zr  Zr22  1  0.20380980  0.37751321  0.30646939  1
  Zr  Zr23  1  0.51893969  0.41889664  0.55428979  1
  Zr  Zr24  1  0.86225553  0.72605411  0.01949951  1
  Zr  Zr25  1  0.72624068  0.80216102  0.81477269  1
  Zr  Zr26  1  0.34781740  0.54918989  0.91441241  1
  Zr  Zr27  1  0.75848433  0.92096406  0.36259904  1
  Zr  Zr28  1  0.44136196  0.13837120  0.13558298  1
  Zr  Zr29  1  0.10527546  0.24194066  0.88058230  1
  Zr  Zr30  1  0.30259213  0.13543097  0.77694837  1
  Zr  Zr31  1  1.01346825  0.62534568  0.33771054  1
  Zr  Zr32  1  0.08367414  0.83121022  0.74283183  1
  Zr  Zr33  1  0.88918127  0.49058284  0.52320744  1
  Zr  Zr34  1  0.73008577  0.60886586  0.90353882  1
  Zr  Zr35  1  0.75367835  0.19217520  0.22197576  1
  Zr  Zr36  1  0.51329076  0.28005526  0.72345720  1
  Zr  Zr37  1  0.91677054  0.89479640  0.87933699  1
  Zr  Zr38  1  0.83407430  0.31982376  0.38636383  1
  Zr  Zr39  1  0.41905577  0.08950909  0.36883528  1
  Zr  Zr40  1  0.87255068  0.79289898  0.68006572  1
  Zr  Zr41  1  0.34220330  0.79493783  0.07525827  1
  Zr  Zr42  1  0.16109823  0.28032596  0.47914472  1
  Zr  Zr43  1  0.41795290  0.51401262  0.71499005  1
  Zr  Zr44  1  0.88600817  0.54601742  0.16565748  1
  Zr  Zr45  1  0.88335259  0.71098153  0.47977427  1
  Zr  Zr46  1  0.61644128  0.80168028  0.23646075  1
  Zr  Zr47  1  0.71221427  0.40563949  0.21529479  1
  Zr  Zr48  1  0.22668914  0.89265063  0.92424148  1
  Zr  Zr49  1  -0.01198555  0.44261945  0.75173264  1
  Sc  Sc50  1  0.23989500  0.68392540  0.64613315  1
  Sc  Sc51  1  0.20058578  0.47258385  0.71389578  1
  Sc  Sc52  1  0.31983973  0.34444846  0.82691531  1
  Sc  Sc53  1  0.54490512  0.22431602  0.50967979  1
  Sc  Sc54  1  0.91316758  0.34158508  0.15544723  1
  Sc  Sc55  1  0.74823696  0.42671516  1.00258295  1
  Sc  Sc56  1  0.22799625  0.57270789  0.36043864  1
  Sc  Sc57  1  0.31316635  0.47571077  0.52330799  1
  Sc  Sc58  1  0.87830155  0.10337097  0.51792755  1
  Sc  Sc59  1  0.12070598  0.26605015  0.12049126  1
  Sc  Sc60  1  0.10054562  0.49363678  0.51630592  1
  Sc  Sc61  1  0.58618296  0.28908922  0.07259455  1
  Sc  Sc62  1  0.68711152  0.11753963  0.65710652  1
  Sc  Sc63  1  0.13800650  0.86660854  0.12491695  1
  Sc  Sc64  1  0.43687664  0.75014118  0.66357330  1
  Sc  Sc65  1  0.72491949  0.01886198  0.86408103  1
  Sc  Sc66  1  0.49315409  0.61944816  0.49230311  1
  Sc  Sc67  1  0.10028198  0.03232213  0.81088689  1
  Sc  Sc68  1  0.50101104  0.86431052  0.88893010  1
  Sc  Sc69  1  0.22256694  0.92885357  0.35725915  1
  Sc  Sc70  1  0.31405968  0.53038889  0.15184496  1
  Sc  Sc71  1  0.83122194  0.75026768  0.24266268  1
  Sc  Sc72  1  0.68518346  0.26096705  0.84273147  1
  Sc  Sc73  1  0.13373503  0.62615097  0.83192572  1
  Sc  Sc74  1  0.65428153  0.71033465  0.63119996  1
  Sc  Sc75  1  0.74725522  0.91309167  0.56409791  1
  Sc  Sc76  1  0.27220880  0.18799809  0.00419198  1
  Sc  Sc77  1  0.09813879  0.49817185  0.16112234  1
  Sc  Sc78  1  0.67826398  0.82848058  1.01867105  1
  Sc  Sc79  1  0.93823831  0.91809810  0.10465253  1
  Sc  Sc80  1  0.50092449  0.66781087  0.03356945  1
  Sc  Sc81  1  0.54733939  0.82244165  0.44409624  1
  Sc  Sc82  1  0.33938264  0.93113956  0.74176521  1
  Sc  Sc83  1  0.54600196  0.26091671  0.28731272  1
  Sc  Sc84  1  0.69217318  0.61768430  0.12494549  1
  Sc  Sc85  1  0.90647616  0.21850363  0.73423936  1
  Sc  Sc86  1  0.14277651  0.27337698  0.68760206  1
  Sc  Sc87  1  0.57340375  0.92029140  0.68134321  1
  Sc  Sc88  1  0.93258787  0.32761435  0.93985802  1
  Sc  Sc89  1  0.10424226  0.05033848  0.01822006  1
  Sc  Sc90  1  1.01255207  0.85507934  0.31470247  1
  Sc  Sc91  1  0.75113393  0.99448225  0.13521369  1
  Sc  Sc92  1  0.63553310  0.47140106  0.73860924  1
  Sc  Sc93  1  0.53790602  0.65359587  0.82756969  1
  Sc  Sc94  1  0.81474625  0.57394684  0.70217854  1
  Sc  Sc95  1  0.02272079  0.64223151  0.63928500  1
  Sc  Sc96  1  0.92201677  0.10429514  0.91396133  1
  Sc  Sc97  1  0.23400658  0.16099228  0.29631338  1
  Sc  Sc98  1  0.07769506  0.05773992  0.42565353  1
  Sc  Sc99  1  0.43146728  0.68309686  0.26540658  1
  Nb  Nb100  1  0.32449033  0.73538264  0.85229470  1
  Nb  Nb101  1  0.37369096  0.37220894  0.02464996  1
  Nb  Nb102  1  0.53236809  0.44059637  0.91367623  1
  Nb  Nb103  1  1.00051970  0.42681707  0.34358873  1
  Nb  Nb104  1  0.57865126  1.01623111  0.48170104  1
  Nb  Nb105  1  0.36607458  0.28467374  0.42281952  1
  Nb  Nb106  1  0.38403409  0.02020388  0.95437503  1
  Nb  Nb107  1  0.80675729  0.54315186  0.34734478  1
  Nb  Nb108  1  0.93717086  0.13762654  0.12241281  1
  Nb  Nb109  1  0.08009757  1.04512921  0.21969499  1
  Nb  Nb110  1  -0.10587249  0.05023700  0.30267346  1
  Nb  Nb111  1  0.89168621  1.00054687  0.70994285  1
  Nb  Nb112  1  0.92935360  0.68025956  0.83211245  1
  Nb  Nb113  1  0.65285989  0.38748991  0.41140999  1
  Nb  Nb114  1  0.34469393  0.29258315  0.62066934  1
  Nb  Nb115  1  0.11716159  0.73896460  0.46962437  1
  Nb  Nb116  1  0.35665243  0.30924156  0.20009295  1
  Nb  Nb117  1  0.59035400  0.07216686  1.01020965  1
  Nb  Nb118  1  0.70502493  0.71477357  0.41744382  1
  Nb  Nb119  1  0.02453403  0.69933735  0.14299270  1
  Nb  Nb120  1  0.69514532  0.53967434  0.52402533  1
  Nb  Nb121  1  0.41543148  0.89119228  0.29420489  1
  Nb  Nb122  1  0.45100835  0.09619604  0.62841778  1
  Nb  Nb123  1  0.05670016  0.78076890  0.95479970  1
  Nb  Nb124  1  0.52168064  0.07090330  0.81174337  1
