# generated using pymatgen
data_Zr2Sc2Nb
_symmetry_space_group_name_H-M   'P 1'
_cell_length_a   14.55336269
_cell_length_b   14.23287694
_cell_length_c   13.98228119
_cell_angle_alpha   90.58950674
_cell_angle_beta   89.17060694
_cell_angle_gamma   89.53811445
_symmetry_Int_Tables_number   1
_chemical_formula_structural   Zr2Sc2Nb
_chemical_formula_sum   'Zr50 Sc50 Nb25'
_cell_volume   2895.68252260
_cell_formula_units_Z   25
loop_
 _symmetry_equiv_pos_site_id
 _symmetry_equiv_pos_as_xyz
  1  'x, y, z'
loop_
 _atom_site_type_symbol
 _atom_site_label
 _atom_site_symmetry_multiplicity
 _atom_site_fract_x
 _atom_site_fract_y
 _atom_site_fract_z
 _atom_site_occupancy
  Zr  Zr0  1  0.11800154  0.30948863  0.31005566  1
  Zr  Zr1  1  0.70538150  0.83656812  0.24962052  1
  Zr  Zr2  1  0.81208825  0.90975439  0.07644116  1
  Zr  Zr3  1  0.76469229  0.78029961  0.46420391  1
  Zr  Zr4  1  0.58289956  0.51472500  0.12213092  1
  Zr  Zr5  1  0.09282508  0.95658984  0.25571244  1
  Zr  Zr6  1  0.57198337  0.41773965  0.90567803  1
  Zr  Zr7  1  0.45729018  0.91804944  0.66613301  1
  Zr  Zr8  1  0.98098341  0.73458980  0.72630771  1
  Zr  Zr9  1  0.78217331  0.70305190  0.66267642  1
  Zr  Zr10  1  0.34612422  0.32870765  0.65477077  1
  Zr  Zr11  1  0.95327446  0.11120323  0.34591583  1
  Zr  Zr12  1  0.68215597  0.55007666  0.52644887  1
  Zr  Zr13  1  0.56495072  0.20678052  0.90044466  1
  Zr  Zr14  1  0.64445883  0.44766691  0.34403021  1
  Zr  Zr15  1  0.02496329  -0.02130840  0.05700141  1
  Zr  Zr16  1  0.39186043  0.35915716  0.86661501  1
  Zr  Zr17  1  0.96017219  0.14090687  0.94064452  1
  Zr  Zr18  1  0.44662269  0.33642304  0.07454736  1
  Zr  Zr19  1  0.92384239  0.32621064  0.30187221  1
  Zr  Zr20  1  0.21221904  0.49864615  0.32589810  1
  Zr  Zr21  1  0.65520303  0.91917468  0.68729435  1
  Zr  Zr22  1  0.12671998  0.61228457  0.10328378  1
  Zr  Zr23  1  0.43170435  0.24190457  0.48285835  1
  Zr  Zr24  1  0.71813428  0.33865384  0.76129075  1
  Zr  Zr25  1  0.10317794  0.94065038  0.85591948  1
  Zr  Zr26  1  0.57409224  0.71336911  0.68575202  1
  Zr  Zr27  1  0.45604529  0.14264781  0.72000387  1
  Zr  Zr28  1  0.22165248  0.47653330  0.96247106  1
  Zr  Zr29  1  0.05585105  0.51960454  0.84060549  1
  Zr  Zr30  1  0.46957811  0.51892429  0.72179101  1
  Zr  Zr31  1  0.75375966  0.47314962  0.96181042  1
  Zr  Zr32  1  0.47529162  0.45634875  0.50718402  1
  Zr  Zr33  1  0.79810935  0.49851504  0.16943810  1
  Zr  Zr34  1  0.13296534  0.74143543  0.29089852  1
  Zr  Zr35  1  0.06650799  0.17739376  0.14367107  1
  Zr  Zr36  1  0.24664950  0.26885458  0.05502453  1
  Zr  Zr37  1  0.24491462  0.05842595  0.13116995  1
  Zr  Zr38  1  0.18312155  0.11367875  0.34587528  1
  Zr  Zr39  1  0.60743153  0.88763046  0.04567249  1
  Zr  Zr40  1  0.74659930  0.98991778  0.48869168  1
  Zr  Zr41  1  0.07501479  0.57589275  0.63239082  1
  Zr  Zr42  1  0.05388881  0.15531361  0.75182738  1
  Zr  Zr43  1  0.21462764  0.28702611  0.82274639  1
  Zr  Zr44  1  0.51245345  0.81630342  0.86181070  1
  Zr  Zr45  1  0.91027872  0.86460402  0.89447593  1
  Zr  Zr46  1  0.30785316  0.68140760  0.40619833  1
  Zr  Zr47  1  0.88194449  0.68800103  0.08786227  1
  Zr  Zr48  1  0.89477384  0.59818707  0.51303132  1
  Zr  Zr49  1  0.47767949  0.72044593  0.06550417  1
  Sc  Sc50  1  0.16751919  0.89629256  0.44587572  1
  Sc  Sc51  1  0.69773928  0.13405899  0.68823346  1
  Sc  Sc52  1  0.68696652  0.68798978  0.06470388  1
  Sc  Sc53  1  0.67949623  0.64165162  0.30089729  1
  Sc  Sc54  1  0.66006141  0.31504473  0.09516674  1
  Sc  Sc55  1  0.56432079  0.90467220  0.44117484  1
  Sc  Sc56  1  0.59085651  0.12956679  0.35859814  1
  Sc  Sc57  1  0.36435773  0.66544392  0.87650491  1
  Sc  Sc58  1  0.67892991  0.53406399  0.74473801  1
  Sc  Sc59  1  0.12278655  0.09047881  0.54661401  1
  Sc  Sc60  1  0.30787728  0.87805556  0.25927495  1
  Sc  Sc61  1  0.88508276  0.24920730  0.68024054  1
  Sc  Sc62  1  0.73988388  0.26204622  0.28530568  1
  Sc  Sc63  1  0.88395191  0.48353216  0.69208645  1
  Sc  Sc64  1  0.00409728  0.53315227  0.25662301  1
  Sc  Sc65  1  0.71823361  0.78375142  0.86033661  1
  Sc  Sc66  1  0.44213979  0.53071921  0.28643869  1
  Sc  Sc67  1  0.07743871  0.36091906  0.67482537  1
  Sc  Sc68  1  0.25173234  0.89681258  0.65679343  1
  Sc  Sc69  1  0.71383929  0.00308089  0.89216677  1
  Sc  Sc70  1  0.31054552  0.66151032  0.17466403  1
  Sc  Sc71  1  0.26259293  0.51387263  0.53887371  1
  Sc  Sc72  1  0.51392475  0.31521233  0.28146624  1
  Sc  Sc73  1  0.25571554  0.51047105  0.75243327  1
  Sc  Sc74  1  0.36702922  0.69982853  0.63895819  1
  Sc  Sc75  1  0.39534505  0.05200762  0.34252304  1
  Sc  Sc76  1  0.31850811  0.26400262  0.27158975  1
  Sc  Sc77  1  0.45668242  0.13362685  0.13778300  1
  Sc  Sc78  1  0.85885082  0.62080509  0.86758192  1
  Sc  Sc79  1  0.04854178  0.71798644  0.94264979  1
  Sc  Sc80  1  0.48797384  0.76631471  0.27977786  1
  Sc  Sc81  1  0.76986770  0.21314402  0.92359082  1
  Sc  Sc82  1  0.33933524  0.06201375  0.54271990  1
  Sc  Sc83  1  0.18493064  0.72902504  0.78353514  1
  Sc  Sc84  1  0.09265653  0.39727939  0.12741414  1
  Sc  Sc85  1  0.90896691  0.71442971  0.31347605  1
  Sc  Sc86  1  0.89038459  0.32191297  0.07783831  1
  Sc  Sc87  1  0.41068912  0.93196584  0.06251319  1
  Sc  Sc88  1  0.31991837  0.91968647  0.86721735  1
  Sc  Sc89  1  0.87879494  0.03693636  0.77367858  1
  Sc  Sc90  1  0.65633913  0.09128197  0.09513901  1
  Sc  Sc91  1  0.86314101  0.11677060  0.14361099  1
  Sc  Sc92  1  0.63031572  0.29719225  0.50983606  1
  Sc  Sc93  1  0.20916889  0.83418184  0.05183412  1
  Sc  Sc94  1  0.04741681  0.92381165  0.65311312  1
  Sc  Sc95  1  0.21287748  0.29525984  0.49510597  1
  Sc  Sc96  1  0.52179494  0.67970022  0.47536859  1
  Sc  Sc97  1  0.36451122  0.13803589  0.93344907  1
  Sc  Sc98  1  0.25161155  0.08937118  0.74461637  1
  Sc  Sc99  1  0.82459810  0.37489296  0.51273027  1
  Nb  Nb100  1  0.79302712  0.17486083  0.46704185  1
  Nb  Nb101  1  0.90847048  0.36429181  0.86130708  1
  Nb  Nb102  1  0.83154915  0.50314767  0.36034744  1
  Nb  Nb103  1  0.15955341  0.11320399  0.94554362  1
  Nb  Nb104  1  0.94808638  0.93315326  0.44296507  1
  Nb  Nb105  1  0.55533666  0.08755708  0.55384597  1
  Nb  Nb106  1  0.17721016  0.73323818  0.56741295  1
  Nb  Nb107  1  0.06527748  0.31541028  0.93937596  1
  Nb  Nb108  1  0.09151342  0.62037433  0.43305112  1
  Nb  Nb109  1  0.36871503  0.85242783  0.47624308  1
  Nb  Nb110  1  0.84970854  0.88331138  0.63978000  1
  Nb  Nb111  1  0.00048255  0.24744737  0.49394336  1
  Nb  Nb112  1  0.41488269  0.52779751  0.02037019  1
  Nb  Nb113  1  0.53863516  0.32401833  0.69325862  1
  Nb  Nb114  1  1.01813731  0.80266097  0.13547972  1
  Nb  Nb115  1  0.89785747  0.91588456  0.25455506  1
  Nb  Nb116  1  0.91792141  0.07741847  0.57443052  1
  Nb  Nb117  1  0.98525550  0.76798801  0.51831264  1
  Nb  Nb118  1  0.03022466  0.43772494  0.46302252  1
  Nb  Nb119  1  0.74748936  0.02918035  0.28890388  1
  Nb  Nb120  1  0.57260139  0.61851596  0.90333388  1
  Nb  Nb121  1  0.54775491  0.96102097  0.22965066  1
  Nb  Nb122  1  0.96501211  0.50815016  1.01658259  1
  Nb  Nb123  1  0.29196549  0.44746796  0.15501820  1
  Nb  Nb124  1  0.51800605  1.00907200  0.87083547  1
