# generated using pymatgen
data_Zr2Sc2Nb
_symmetry_space_group_name_H-M   'P 1'
_cell_length_a   13.71191438
_cell_length_b   14.66831504
_cell_length_c   14.22099338
_cell_angle_alpha   91.86377518
_cell_angle_beta   88.56276350
_cell_angle_gamma   89.41805099
_symmetry_Int_Tables_number   1
_chemical_formula_structural   Zr2Sc2Nb
_chemical_formula_sum   'Zr50 Sc50 Nb25'
_cell_volume   2857.69321810
_cell_formula_units_Z   25
loop_
 _symmetry_equiv_pos_site_id
 _symmetry_equiv_pos_as_xyz
  1  'x, y, z'
loop_
 _atom_site_type_symbol
 _atom_site_label
 _atom_site_symmetry_multiplicity
 _atom_site_fract_x
 _atom_site_fract_y
 _atom_site_fract_z
 _atom_site_occupancy
  Zr  Zr0  1  0.33307920  0.78157172  0.52081056  1
  Zr  Zr1  1  0.36385377  0.71464874  0.74021741  1
  Zr  Zr2  1  0.33993290  0.09506661  0.33282511  1
  Zr  Zr3  1  0.27459967  -0.00203978  0.92359129  1
  Zr  Zr4  1  0.48668649  0.22257035  0.18807673  1
  Zr  Zr5  1  0.66672664  0.11194157  0.94328216  1
  Zr  Zr6  1  0.10735639  0.84834390  0.23524892  1
  Zr  Zr7  1  0.14234438  0.29943488  0.71257165  1
  Zr  Zr8  1  0.47985171  0.38152667  0.89351548  1
  Zr  Zr9  1  0.83402579  0.70126993  0.41974881  1
  Zr  Zr10  1  0.92185208  0.17385427  0.10916667  1
  Zr  Zr11  1  0.72239965  0.95861572  0.32271721  1
  Zr  Zr12  1  0.27558928  0.28350983  0.28265196  1
  Zr  Zr13  1  0.32119422  0.87558599  0.32312104  1
  Zr  Zr14  1  0.64386827  0.34841323  0.28530785  1
  Zr  Zr15  1  0.44338517  0.64817970  0.32216419  1
  Zr  Zr16  1  0.71838309  0.86736311  0.50780403  1
  Zr  Zr17  1  0.26556167  0.22014194  0.91299809  1
  Zr  Zr18  1  0.11795296  0.79228665  0.46146902  1
  Zr  Zr19  1  0.03848711  0.46467488  0.83485557  1
  Zr  Zr20  1  0.28107550  0.43135514  0.63543933  1
  Zr  Zr21  1  0.48372962  0.25831974  0.40596397  1
  Zr  Zr22  1  0.85070714  0.36684727  0.24243921  1
  Zr  Zr23  1  0.98569286  0.62915313  0.55058506  1
  Zr  Zr24  1  0.77230948  0.21061904  0.68637891  1
  Zr  Zr25  1  0.82128181  0.50808996  0.85986016  1
  Zr  Zr26  1  0.63885765  0.54431655  0.24671473  1
  Zr  Zr27  1  0.41651829  0.59443394  0.54682055  1
  Zr  Zr28  1  0.18566165  0.47901539  0.31209220  1
  Zr  Zr29  1  0.19078932  0.58498971  0.50453153  1
  Zr  Zr30  1  0.62721744  0.53611293  0.59449252  1
  Zr  Zr31  1  0.10708120  0.05999713  0.05251095  1
  Zr  Zr32  1  0.19365954  0.59528275  0.73611808  1
  Zr  Zr33  1  0.35064175  0.80526774  0.94900274  1
  Zr  Zr34  1  0.68255958  0.86977905  0.10404524  1
  Zr  Zr35  1  0.14327932  0.09640010  0.25483444  1
  Zr  Zr36  1  0.35056707  0.42659864  0.43970214  1
  Zr  Zr37  1  0.14408838  0.35455238  0.48339572  1
  Zr  Zr38  1  0.14960099  0.81368834  0.83705898  1
  Zr  Zr39  1  0.50809478  0.94528651  0.60315756  1
  Zr  Zr40  1  0.58988435  0.66042745  0.77755320  1
  Zr  Zr41  1  0.61182499  0.54041174  0.93623078  1
  Zr  Zr42  1  0.39084947  0.59541595  0.94389763  1
  Zr  Zr43  1  0.08236004  1.01720627  0.84071837  1
  Zr  Zr44  1  0.07957186  -0.04473868  0.61666838  1
  Zr  Zr45  1  0.73518231  0.05532389  0.14046915  1
  Zr  Zr46  1  0.31118333  0.14287086  0.10545951  1
  Zr  Zr47  1  0.23621039  0.68424543  0.31065926  1
  Zr  Zr48  1  0.82144289  0.18397355  0.32054361  1
  Zr  Zr49  1  0.70750283  0.24772275  0.11420044  1
  Sc  Sc50  1  0.16627087  0.64627900  0.95252952  1
  Sc  Sc51  1  0.94416985  1.01191055  0.24625469  1
  Sc  Sc52  1  0.49981104  0.97176265  0.00739617  1
  Sc  Sc53  1  0.70832065  0.08392120  0.51217896  1
  Sc  Sc54  1  0.43094072  0.44053407  0.24502918  1
  Sc  Sc55  1  0.75489719  0.46287483  0.07911080  1
  Sc  Sc56  1  0.48258924  0.20489071  -0.02256784  1
  Sc  Sc57  1  0.68899428  0.30659825  0.50161550  1
  Sc  Sc58  1  0.02459610  0.46796760  0.19161807  1
  Sc  Sc59  1  0.03098432  0.27538456  0.31876476  1
  Sc  Sc60  1  0.26752816  0.42672464  0.85558578  1
  Sc  Sc61  1  0.97172082  0.65750916  0.76724872  1
  Sc  Sc62  1  0.86675635  0.10359573  0.85634603  1
  Sc  Sc63  1  0.99765876  0.15127830  0.68109801  1
  Sc  Sc64  1  0.84629768  0.47667464  0.63345937  1
  Sc  Sc65  1  0.52255561  0.84055245  0.39299956  1
  Sc  Sc66  1  0.77297818  0.71210022  0.86648844  1
  Sc  Sc67  1  0.44657033  0.51047010  0.74263064  1
  Sc  Sc68  1  0.92625987  0.29895799  0.53090666  1
  Sc  Sc69  1  0.66352661  0.40699977  0.74094963  1
  Sc  Sc70  1  0.30591408  -0.00486720  0.51792134  1
  Sc  Sc71  1  0.77691962  0.49531083  0.42195200  1
  Sc  Sc72  1  0.51214074  0.15562064  0.60133680  1
  Sc  Sc73  1  0.86115172  0.59174223  0.22947992  1
  Sc  Sc74  1  0.66812813  0.74717971  0.26212372  1
  Sc  Sc75  1  0.23448025  0.11028267  0.70833954  1
  Sc  Sc76  1  0.04903188  0.22637994  0.90234514  1
  Sc  Sc77  1  0.91553368  0.95935901  1.02505852  1
  Sc  Sc78  1  0.72260298  0.84632665  0.71085806  1
  Sc  Sc79  1  0.13398258  0.14695303  0.48670180  1
  Sc  Sc80  1  0.44004647  0.07631252  0.80417293  1
  Sc  Sc81  1  0.95776420  0.75367777  0.98295709  1
  Sc  Sc82  1  0.93008215  0.88356730  0.41405377  1
  Sc  Sc83  1  0.13976916  0.44808392  1.01891327  1
  Sc  Sc84  1  0.55089819  0.75154411  0.60061804  1
  Sc  Sc85  1  0.72219345  0.31446511  0.91268544  1
  Sc  Sc86  1  0.28523522  0.54592633  0.13511095  1
  Sc  Sc87  1  0.93263564  0.87597600  0.80355237  1
  Sc  Sc88  1  0.92527839  0.36009840  0.00830488  1
  Sc  Sc89  1  0.51443443  -0.00229289  0.21951921  1
  Sc  Sc90  1  0.12890913  0.27137498  0.11705592  1
  Sc  Sc91  1  0.65743492  0.04196733  0.73436922  1
  Sc  Sc92  1  0.73748455  0.66635557  0.06643855  1
  Sc  Sc93  1  0.29647600  0.94595484  0.13447169  1
  Sc  Sc94  1  0.93201776  0.08079656  0.47260049  1
  Sc  Sc95  1  0.31952947  0.22903872  0.54005793  1
  Sc  Sc96  1  0.89122626  0.79915667  0.19856626  1
  Sc  Sc97  1  0.29961604  0.90865975  0.71570320  1
  Sc  Sc98  1  0.51615202  0.86947230  0.80815377  1
  Sc  Sc99  1  0.72205831  0.91714762  0.91095045  1
  Nb  Nb100  1  0.77217869  0.67432471  0.62086585  1
  Nb  Nb101  1  0.57582100  0.23332775  0.77823476  1
  Nb  Nb102  1  0.85771607  0.99588544  0.64872109  1
  Nb  Nb103  1  0.94748037  0.56566741  0.01505723  1
  Nb  Nb104  1  0.47524930  0.80204398  0.15918142  1
  Nb  Nb105  1  0.13275898  0.85519742  0.03342574  1
  Nb  Nb106  1  0.05358670  0.45908454  0.63237519  1
  Nb  Nb107  1  0.55010793  0.40005069  0.08207547  1
  Nb  Nb108  1  0.91014391  0.32959716  0.76837072  1
  Nb  Nb109  1  0.34188311  0.35208951  0.06696449  1
  Nb  Nb110  1  0.51328287  0.03840281  0.42721931  1
  Nb  Nb111  1  0.14084258  0.76048708  0.64988313  1
  Nb  Nb112  1  0.63081824  0.14728008  0.31465712  1
  Nb  Nb113  1  0.29062221  0.73901420  0.12338742  1
  Nb  Nb114  1  0.62801771  0.65676426  0.43960107  1
  Nb  Nb115  1  0.13213814  0.97098448  0.39461780  1
  Nb  Nb116  1  0.50179839  0.61500218  0.11462469  1
  Nb  Nb117  1  0.08140039  0.66171344  0.14358311  1
  Nb  Nb118  1  0.55844874  0.74941446  0.97577842  1
  Nb  Nb119  1  -0.01157354  0.47406095  0.41273115  1
  Nb  Nb120  1  0.03162552  0.65117294  0.33610238  1
  Nb  Nb121  1  0.54963067  0.47110750  0.42454524  1
  Nb  Nb122  1  0.37854731  0.27564848  0.74302087  1
  Nb  Nb123  1  0.49484203  0.36262670  0.60208110  1
  Nb  Nb124  1  0.92352236  0.81057046  0.60519215  1
