# generated using pymatgen
data_Zr2Sc2Nb
_symmetry_space_group_name_H-M   'P 1'
_cell_length_a   14.28605604
_cell_length_b   13.94554745
_cell_length_c   14.49522949
_cell_angle_alpha   90.26624236
_cell_angle_beta   90.07491219
_cell_angle_gamma   90.30162570
_symmetry_Int_Tables_number   1
_chemical_formula_structural   Zr2Sc2Nb
_chemical_formula_sum   'Zr50 Sc50 Nb25'
_cell_volume   2887.76547962
_cell_formula_units_Z   25
loop_
 _symmetry_equiv_pos_site_id
 _symmetry_equiv_pos_as_xyz
  1  'x, y, z'
loop_
 _atom_site_type_symbol
 _atom_site_label
 _atom_site_symmetry_multiplicity
 _atom_site_fract_x
 _atom_site_fract_y
 _atom_site_fract_z
 _atom_site_occupancy
  Zr  Zr0  1  0.92835087  0.19493828  0.68297659  1
  Zr  Zr1  1  0.27930330  1.04219990  0.66418625  1
  Zr  Zr2  1  0.07638339  0.27350254  0.42316838  1
  Zr  Zr3  1  0.88437078  0.33947430  0.52417747  1
  Zr  Zr4  1  0.52312602  0.75686135  0.06569832  1
  Zr  Zr5  1  0.27343379  0.11127075  0.30134523  1
  Zr  Zr6  1  0.34805069  0.61801068  0.07106050  1
  Zr  Zr7  1  0.47477339  0.70786447  0.50040557  1
  Zr  Zr8  1  0.30891230  0.55745247  0.85978927  1
  Zr  Zr9  1  0.11201734  0.23628260  0.22223857  1
  Zr  Zr10  1  0.54271480  0.12802750  0.82690603  1
  Zr  Zr11  1  0.10327741  0.68394802  0.59343096  1
  Zr  Zr12  1  0.31356637  0.77255665  0.94958690  1
  Zr  Zr13  1  0.16623480  0.45784966  0.29181430  1
  Zr  Zr14  1  0.49074440  0.33487576  0.37852983  1
  Zr  Zr15  1  0.31060320  0.03424903  0.11371350  1
  Zr  Zr16  1  0.97685125  0.47722686  0.36201299  1
  Zr  Zr17  1  0.78595866  0.84687348  0.27469016  1
  Zr  Zr18  1  0.70531248  0.05659600  0.17073769  1
  Zr  Zr19  1  0.24636132  -0.00648872  0.46855574  1
  Zr  Zr20  1  0.89168966  0.70060471  0.45239383  1
  Zr  Zr21  1  0.66421556  0.03641610  0.37096681  1
  Zr  Zr22  1  0.92701862  0.77314665  0.11391425  1
  Zr  Zr23  1  0.24913875  0.66352664  0.25187240  1
  Zr  Zr24  1  0.72823101  0.91875927  0.63467035  1
  Zr  Zr25  1  0.29267794  0.30859851  0.35989787  1
  Zr  Zr26  1  0.71933196  0.08881397  0.96595369  1
  Zr  Zr27  1  0.41593068  0.91269521  0.55475325  1
  Zr  Zr28  1  0.24462000  0.93355186  0.84490970  1
  Zr  Zr29  1  0.73171916  0.26079418  0.09380106  1
  Zr  Zr30  1  0.90404267  0.12446291  0.46352452  1
  Zr  Zr31  1  0.73078857  0.13820645  0.55593144  1
  Zr  Zr32  1  0.65572255  0.43994795  0.00156149  1
  Zr  Zr33  1  0.36929740  0.83850020  0.15784262  1
  Zr  Zr34  1  0.48310285  0.14459552  0.24970721  1
  Zr  Zr35  1  0.40241116  0.36561369  0.56301105  1
  Zr  Zr36  1  0.61255236  0.86711707  0.45728403  1
  Zr  Zr37  1  0.21117785  0.88490634  0.30210458  1
  Zr  Zr38  1  0.09731285  0.65587191  0.39341048  1
  Zr  Zr39  1  0.92011342  0.17503349  0.10530143  1
  Zr  Zr40  1  0.70122605  0.86783893  0.04028980  1
  Zr  Zr41  1  0.18190968  0.44742183  0.50920733  1
  Zr  Zr42  1  0.04625414  0.88170214  0.49984757  1
  Zr  Zr43  1  0.37897871  0.46349000  0.22128256  1
  Zr  Zr44  1  0.30970510  0.26232543  0.12962440  1
  Zr  Zr45  1  0.07285326  0.05766427  0.36190256  1
  Zr  Zr46  1  0.78477134  0.52190617  0.63516692  1
  Zr  Zr47  1  0.88121849  0.04017759  0.27271450  1
  Zr  Zr48  1  0.07785468  0.01749956  0.16021234  1
  Zr  Zr49  1  0.08111203  0.27993874  0.03115798  1
  Sc  Sc50  1  0.05248257  0.91649473  0.73485144  1
  Sc  Sc51  1  0.58271764  0.27452831  0.66866325  1
  Sc  Sc52  1  0.86982421  0.56751476  0.05210327  1
  Sc  Sc53  1  0.69937262  0.70072370  0.55664485  1
  Sc  Sc54  1  0.05083996  0.88849209  0.94481696  1
  Sc  Sc55  1  0.96186558  0.62379156  0.76042527  1
  Sc  Sc56  1  0.64173005  0.92850129  0.83251303  1
  Sc  Sc57  1  0.72322289  0.71166589  0.76363536  1
  Sc  Sc58  1  0.35440724  0.76718350  0.72346277  1
  Sc  Sc59  1  0.88062951  0.74505941  0.91313553  1
  Sc  Sc60  1  0.51371846  0.76571170  0.86078158  1
  Sc  Sc61  1  0.89313916  0.27319361  0.29733750  1
  Sc  Sc62  1  0.51072628  0.18888869  0.02956560  1
  Sc  Sc63  1  0.36161409  0.53559645  0.41310512  1
  Sc  Sc64  1  0.70720237  0.67489682  0.16223638  1
  Sc  Sc65  1  0.74709716  0.11259848  0.76040860  1
  Sc  Sc66  1  0.63266880  0.47447867  0.78448660  1
  Sc  Sc67  1  0.94498503  0.10685591  0.88704791  1
  Sc  Sc68  1  0.97528122  0.41572833  0.15418370  1
  Sc  Sc69  1  0.75333011  0.45602706  0.21283203  1
  Sc  Sc70  1  0.86642262  0.31633006  0.92882124  1
  Sc  Sc71  1  0.68644394  0.24175060  0.30980046  1
  Sc  Sc72  1  0.49865066  0.60604668  0.70922913  1
  Sc  Sc73  1  0.10569780  0.66083310  0.98993681  1
  Sc  Sc74  1  0.46374479  0.68694091  0.28497818  1
  Sc  Sc75  1  0.15827201  0.81732792  0.11443169  1
  Sc  Sc76  1  0.42931466  0.93883028  0.33822743  1
  Sc  Sc77  1  0.54914701  0.34358516  0.17428470  1
  Sc  Sc78  1  0.68336438  0.64952041  0.95589069  1
  Sc  Sc79  1  0.15088561  0.09374385  0.98021585  1
  Sc  Sc80  1  0.02639142  0.47892400  0.92859557  1
  Sc  Sc81  1  0.88417201  0.97156359  0.05051446  1
  Sc  Sc82  1  0.94188967  0.41595496  0.72796936  1
  Sc  Sc83  1  0.67120696  0.34041504  0.49693942  1
  Sc  Sc84  1  0.45479497  0.35474887  0.82471964  1
  Sc  Sc85  1  0.89934288  0.78677396  0.64558544  1
  Sc  Sc86  1  0.77690140  0.51246090  0.42116116  1
  Sc  Sc87  1  0.19392317  0.46953416  0.08706075  1
  Sc  Sc88  1  0.25529906  0.34609949  0.92460137  1
  Sc  Sc89  1  0.14270578  0.49659737  0.72678599  1
  Sc  Sc90  1  0.56729546  0.51793937  0.52650053  1
  Sc  Sc91  1  0.45295089  0.13442031  0.47000525  1
  Sc  Sc92  1  0.33476081  0.14243841  0.87426373  1
  Sc  Sc93  1  0.06937416  0.29903405  0.82997651  1
  Sc  Sc94  1  0.44644478  0.95841513  0.95874037  1
  Sc  Sc95  1  0.00137120  0.83334361  0.29650024  1
  Sc  Sc96  1  0.12797625  0.12251469  0.76264090  1
  Sc  Sc97  1  0.26346068  0.31198099  0.71342682  1
  Sc  Sc98  1  0.30468409  0.59415291  0.61182626  1
  Sc  Sc99  1  0.15776287  0.72443686  0.79572899  1
  Nb  Nb100  1  0.55527617  0.81738665  0.66391231  1
  Nb  Nb101  1  0.08479498  0.08583204  0.56868143  1
  Nb  Nb102  1  0.24862345  0.20714269  0.52793517  1
  Nb  Nb103  1  0.90502777  0.00661008  0.63277232  1
  Nb  Nb104  1  0.21183008  0.85529854  0.62068234  1
  Nb  Nb105  1  0.54518779  0.55386885  0.12850250  1
  Nb  Nb106  1  0.59550607  0.85167154  0.24406955  1
  Nb  Nb107  1  0.56510858  0.04076222  0.63017394  1
  Nb  Nb108  1  0.83590806  0.91712153  0.45899739  1
  Nb  Nb109  1  0.43697792  0.96019555  0.75815948  1
  Nb  Nb110  1  0.87691875  0.63512327  0.26856699  1
  Nb  Nb111  1  0.27598332  0.75954765  0.45706634  1
  Nb  Nb112  1  0.76759310  0.32523385  0.71413962  1
  Nb  Nb113  1  0.84878946  0.92923615  0.82269682  1
  Nb  Nb114  1  0.08152889  0.30540336  0.61471974  1
  Nb  Nb115  1  0.58055177  0.50551448  0.32092376  1
  Nb  Nb116  1  0.41464353  0.17350052  0.67253531  1
  Nb  Nb117  1  0.05307351  0.61990134  0.18962992  1
  Nb  Nb118  1  0.67005761  0.68128642  0.35868600  1
  Nb  Nb119  1  0.42395260  0.41432906  0.02319918  1
  Nb  Nb120  1  0.52803250  0.98535639  0.13391790  1
  Nb  Nb121  1  0.81113964  0.50804491  0.85581429  1
  Nb  Nb122  1  0.49328170  0.56766398  0.92676094  1
  Nb  Nb123  1  0.66400103  0.28370368  0.88031324  1
  Nb  Nb124  1  0.98737985  0.52097778  0.55630551  1
