# generated using pymatgen
data_Zr2Sc2Nb
_symmetry_space_group_name_H-M   'P 1'
_cell_length_a   13.86028031
_cell_length_b   14.40181199
_cell_length_c   14.43574820
_cell_angle_alpha   88.30296959
_cell_angle_beta   88.42394948
_cell_angle_gamma   88.88620819
_symmetry_Int_Tables_number   1
_chemical_formula_structural   Zr2Sc2Nb
_chemical_formula_sum   'Zr50 Sc50 Nb25'
_cell_volume   2878.71152996
_cell_formula_units_Z   25
loop_
 _symmetry_equiv_pos_site_id
 _symmetry_equiv_pos_as_xyz
  1  'x, y, z'
loop_
 _atom_site_type_symbol
 _atom_site_label
 _atom_site_symmetry_multiplicity
 _atom_site_fract_x
 _atom_site_fract_y
 _atom_site_fract_z
 _atom_site_occupancy
  Zr  Zr0  1  0.61006827  0.24938914  0.82991394  1
  Zr  Zr1  1  0.02341655  0.53306091  0.40271311  1
  Zr  Zr2  1  0.43591082  0.90520873  0.42722082  1
  Zr  Zr3  1  0.10116609  0.41455572  0.86986352  1
  Zr  Zr4  1  0.16192359  0.21961641  0.23359112  1
  Zr  Zr5  1  0.20094580  0.26467182  0.44707736  1
  Zr  Zr6  1  1.02609350  0.91640092  0.33742257  1
  Zr  Zr7  1  0.75987633  0.25140974  0.67376167  1
  Zr  Zr8  1  0.47341024  0.55554828  0.81495535  1
  Zr  Zr9  1  0.26759645  0.90408945  0.03151238  1
  Zr  Zr10  1  0.59765377  0.38041156  0.51531606  1
  Zr  Zr11  1  0.81085391  0.87530787  0.27900936  1
  Zr  Zr12  1  0.31036596  0.16789333  0.67497347  1
  Zr  Zr13  1  0.49351711  0.07320791  0.75767233  1
  Zr  Zr14  1  0.82859172  0.02958988  0.43070309  1
  Zr  Zr15  1  0.84994699  0.47173979  0.62476853  1
  Zr  Zr16  1  0.41913572  0.33464490  0.73939257  1
  Zr  Zr17  1  0.58698870  0.89524144  0.68559658  1
  Zr  Zr18  1  0.22182060  0.86430317  0.41370066  1
  Zr  Zr19  1  0.13435286  0.01955192  0.16758286  1
  Zr  Zr20  1  0.72467557  0.04298419  0.76971509  1
  Zr  Zr21  1  0.31066259  0.69363018  0.73050581  1
  Zr  Zr22  1  0.70916053  0.16650529  0.17825029  1
  Zr  Zr23  1  0.91692359  0.06751315  0.23353050  1
  Zr  Zr24  1  0.61403564  0.42577730  0.71858142  1
  Zr  Zr25  1  0.66019472  0.55955954  0.54182459  1
  Zr  Zr26  1  0.58187920  0.28355914  0.32402992  1
  Zr  Zr27  1  0.07898035  0.17477610  0.60910351  1
  Zr  Zr28  1  0.18245214  0.42880611  0.30668645  1
  Zr  Zr29  1  0.97049889  0.88379357  0.10883767  1
  Zr  Zr30  1  0.76463763  0.81761678  0.80221723  1
  Zr  Zr31  1  0.69415777  0.20206529  0.47888599  1
  Zr  Zr32  1  0.61209457  0.05913347  0.33597908  1
  Zr  Zr33  1  0.20326808  0.64663558  0.34510220  1
  Zr  Zr34  1  0.54887489  0.69570839  0.43641856  1
  Zr  Zr35  1  0.71902600  0.59802995  0.75395343  1
  Zr  Zr36  1  0.80675714  0.41728314  0.41939054  1
  Zr  Zr37  1  0.47107360  0.81361326  0.07063414  1
  Zr  Zr38  1  0.69521424  0.56537430  0.11966410  1
  Zr  Zr39  1  -0.00410337  0.33251771  0.32731974  1
  Zr  Zr40  1  0.97344918  0.71913330  0.29839551  1
  Zr  Zr41  1  0.63499536  0.50502154  0.33137553  1
  Zr  Zr42  1  0.31760053  0.11213134  0.10782103  1
  Zr  Zr43  1  0.08153010  0.54302114  0.66771628  1
  Zr  Zr44  1  0.52928505  0.64962620  0.21402715  1
  Zr  Zr45  1  0.43502523  0.51626630  0.60618389  1
  Zr  Zr46  1  0.91604984  0.26737981  0.14973109  1
  Zr  Zr47  1  0.74261653  0.68512724  0.31154698  1
  Zr  Zr48  1  0.89966979  0.69494432  0.10692548  1
  Zr  Zr49  1  0.10757155  0.60172344  0.17199925  1
  Sc  Sc50  1  0.14529162  0.79532003  0.65324905  1
  Sc  Sc51  1  -0.02876508  0.32310117  0.72262331  1
  Sc  Sc52  1  0.66338291  0.31866763  0.02754281  1
  Sc  Sc53  1  0.02798121  0.95039579  0.54261125  1
  Sc  Sc54  1  0.92801611  0.70655374  0.68393220  1
  Sc  Sc55  1  0.37676793  0.09955427  0.31318534  1
  Sc  Sc56  1  0.27558269  0.49298973  0.77887753  1
  Sc  Sc57  1  0.32831738  0.70359550  0.52245183  1
  Sc  Sc58  1  0.28754232  0.06655952  0.88158453  1
  Sc  Sc59  1  0.16391160  1.00874587  0.71354580  1
  Sc  Sc60  1  0.41176861  0.87878184  0.84205348  1
  Sc  Sc61  1  0.79994089  0.64388478  0.93292954  1
  Sc  Sc62  1  0.24377504  0.52692946  -0.00842860  1
  Sc  Sc63  1  0.65877404  0.88224988  0.45994957  1
  Sc  Sc64  1  0.57584077  0.85350437  0.25905255  1
  Sc  Sc65  1  0.13409647  0.19663245  1.01800139  1
  Sc  Sc66  1  0.31514423  0.32971550  0.08410730  1
  Sc  Sc67  1  0.51788230  0.70420619  0.65839338  1
  Sc  Sc68  1  0.46395773  0.09104758  0.51744146  1
  Sc  Sc69  1  0.39256308  0.31212367  0.51590814  1
  Sc  Sc70  1  0.23861202  0.05322261  0.49608566  1
  Sc  Sc71  1  0.70014727  0.78031992  0.07239108  1
  Sc  Sc72  1  0.72772088  0.73842309  0.59632552  1
  Sc  Sc73  1  0.52659177  0.42304373  0.15309022  1
  Sc  Sc74  1  0.46369194  0.17583139  0.95828371  1
  Sc  Sc75  1  0.03296613  0.12917869  0.40117244  1
  Sc  Sc76  1  0.46838666  0.58834231  0.02861075  1
  Sc  Sc77  1  0.08499548  0.39748609  0.10394776  1
  Sc  Sc78  1  0.23430614  0.49241059  0.51674070  1
  Sc  Sc79  1  0.57928786  0.72360138  0.88680353  1
  Sc  Sc80  1  0.60890882  0.93958305  0.92916059  1
  Sc  Sc81  1  0.94725601  0.28544208  0.93641700  1
  Sc  Sc82  1  0.37939682  0.74374230  0.31250550  1
  Sc  Sc83  1  0.92374228  0.11620536  0.81076201  1
  Sc  Sc84  1  0.33286103  0.52592219  0.19521856  1
  Sc  Sc85  1  0.32543624  0.70881126  0.92954728  1
  Sc  Sc86  1  0.78654400  0.39009132  0.83821582  1
  Sc  Sc87  1  0.74316672  0.97294281  0.11711448  1
  Sc  Sc88  1  0.42057404  0.51240496  0.38942304  1
  Sc  Sc89  1  0.04626426  0.38421824  0.53439604  1
  Sc  Sc90  1  0.07513614  0.98246908  0.93109522  1
  Sc  Sc91  1  0.71999999  0.12311209  0.96409232  1
  Sc  Sc92  1  0.36455621  0.31224676  0.29081836  1
  Sc  Sc93  1  0.85320822  0.45271547  0.03043342  1
  Sc  Sc94  1  0.35471040  0.90579868  0.63607958  1
  Sc  Sc95  1  0.96936922  0.91359351  0.75410837  1
  Sc  Sc96  1  0.52039291  0.02089249  0.12573580  1
  Sc  Sc97  1  0.92666429  0.09145205  0.03335038  1
  Sc  Sc98  1  0.89237386  0.51736861  0.23477171  1
  Sc  Sc99  1  0.05976373  0.71416294  0.49491023  1
  Nb  Nb100  1  0.55277609  0.22174121  0.63948323  1
  Nb  Nb101  1  0.12271994  0.75028324  0.02120253  1
  Nb  Nb102  1  0.01893795  0.57664386  0.98852061  1
  Nb  Nb103  1  0.18793047  0.84064037  0.84182766  1
  Nb  Nb104  1  0.12012814  0.65103338  0.83281560  1
  Nb  Nb105  1  0.82033179  0.22242029  0.32976881  1
  Nb  Nb106  1  0.65946065  0.04962805  0.58651180  1
  Nb  Nb107  1  0.84308511  0.93071204  0.93526023  1
  Nb  Nb108  1  0.16063078  0.81571553  0.21676068  1
  Nb  Nb109  1  0.46430136  0.38931458  0.93616410  1
  Nb  Nb110  1  0.87856007  0.09458607  0.61065165  1
  Nb  Nb111  1  0.34155945  0.91831418  0.22034933  1
  Nb  Nb112  1  0.89578102  0.25799721  0.51352564  1
  Nb  Nb113  1  0.74147087  0.37171949  0.21386577  1
  Nb  Nb114  1  0.87425476  0.81507155  0.46119866  1
  Nb  Nb115  1  0.97020825  0.76730212  0.90360760  1
  Nb  Nb116  1  0.81090627  0.91587439  0.61972421  1
  Nb  Nb117  1  0.29999884  0.71538144  0.13260342  1
  Nb  Nb118  1  0.63655814  0.50057036  0.93149622  1
  Nb  Nb119  1  0.12603536  0.19806832  0.80955006  1
  Nb  Nb120  1  0.19917879  0.33917219  0.67599175  1
  Nb  Nb121  1  0.85427831  0.62013311  0.47141960  1
  Nb  Nb122  1  0.28210094  0.28930095  0.87962552  1
  Nb  Nb123  1  0.93602282  0.53437764  0.81906075  1
  Nb  Nb124  1  0.50208865  0.21930451  0.15529549  1
