# generated using pymatgen
data_Zr2Sc2Nb
_symmetry_space_group_name_H-M   'P 1'
_cell_length_a   13.81044937
_cell_length_b   14.10943877
_cell_length_c   14.71649984
_cell_angle_alpha   89.34011348
_cell_angle_beta   88.43189013
_cell_angle_gamma   90.83257459
_symmetry_Int_Tables_number   1
_chemical_formula_structural   Zr2Sc2Nb
_chemical_formula_sum   'Zr50 Sc50 Nb25'
_cell_volume   2866.04295709
_cell_formula_units_Z   25
loop_
 _symmetry_equiv_pos_site_id
 _symmetry_equiv_pos_as_xyz
  1  'x, y, z'
loop_
 _atom_site_type_symbol
 _atom_site_label
 _atom_site_symmetry_multiplicity
 _atom_site_fract_x
 _atom_site_fract_y
 _atom_site_fract_z
 _atom_site_occupancy
  Zr  Zr0  1  0.12725795  0.13519728  0.68634785  1
  Zr  Zr1  1  0.14750405  0.27377935  0.52571582  1
  Zr  Zr2  1  0.18428435  0.87949193  0.91253113  1
  Zr  Zr3  1  0.62249432  0.92289559  0.81928618  1
  Zr  Zr4  1  0.96909830  0.78464489  0.47973462  1
  Zr  Zr5  1  0.95019992  0.19215989  0.02495422  1
  Zr  Zr6  1  0.26928981  0.96821576  0.32232587  1
  Zr  Zr7  1  0.03990273  0.96456978  0.39039387  1
  Zr  Zr8  1  0.27978609  0.31743275  0.06400850  1
  Zr  Zr9  1  0.06045788  0.45679119  0.20483747  1
  Zr  Zr10  1  0.04023797  0.06282935  0.19488503  1
  Zr  Zr11  1  0.55176084  0.90089301  0.40461525  1
  Zr  Zr12  1  0.54029849  0.70098184  0.08942421  1
  Zr  Zr13  1  0.29194376  0.47419894  0.89036466  1
  Zr  Zr14  1  0.01068255  0.28918063  0.34738606  1
  Zr  Zr15  1  0.56287601  0.89307358  1.01735573  1
  Zr  Zr16  1  0.66520575  0.76654592  0.69221140  1
  Zr  Zr17  1  0.86834698  0.45747622  0.32646566  1
  Zr  Zr18  1  0.83170720  -0.00806531  0.89120320  1
  Zr  Zr19  1  0.48311225  0.07860309  0.89548511  1
  Zr  Zr20  1  0.97040351  0.81684698  0.21818973  1
  Zr  Zr21  1  0.42780534  0.39605116  0.73972523  1
  Zr  Zr22  1  0.20767569  0.06246552  0.51257361  1
  Zr  Zr23  1  0.57172227  0.28431178  0.40707935  1
  Zr  Zr24  1  0.93576330  0.38572036  0.90295014  1
  Zr  Zr25  1  0.97933470  0.88621179  0.01870226  1
  Zr  Zr26  1  0.62672128  0.76251208  0.28126125  1
  Zr  Zr27  1  0.82552860  0.20503660  0.86669457  1
  Zr  Zr28  1  0.77782974  0.30091151  0.70098818  1
  Zr  Zr29  1  0.55860059  0.48794199  0.12833021  1
  Zr  Zr30  1  0.14635170  0.77834203  0.32319297  1
  Zr  Zr31  1  0.93563401  0.65671497  0.09088766  1
  Zr  Zr32  1  0.47876920  0.07727277  0.30843404  1
  Zr  Zr33  1  0.72235780  0.42386354  0.90440990  1
  Zr  Zr34  1  0.67828216  0.09979096  0.73583338  1
  Zr  Zr35  1  0.59319730  0.26270504  0.83932060  1
  Zr  Zr36  1  0.87440269  0.48172834  0.70970470  1
  Zr  Zr37  1  0.49343965  0.61211981  0.70570583  1
  Zr  Zr38  1  0.71414545  0.59487771  0.58224650  1
  Zr  Zr39  1  0.63336331  0.54566384  0.37726898  1
  Zr  Zr40  1  0.40171242  0.87829378  0.85716423  1
  Zr  Zr41  1  0.27986961  0.53550795  0.66631485  1
  Zr  Zr42  1  0.46596867  0.62793005  0.27603266  1
  Zr  Zr43  1  0.68828115  0.06198511  0.40147588  1
  Zr  Zr44  1  0.11732206  0.70450432  0.69304506  1
  Zr  Zr45  1  0.33528279  0.36850360  0.53286645  1
  Zr  Zr46  1  0.34155088  0.18668578  0.65150407  1
  Zr  Zr47  1  0.81903190  0.91856806  0.69304925  1
  Zr  Zr48  1  0.70830785  0.60316185  0.80126537  1
  Zr  Zr49  1  0.46303352  0.29111162  0.21306311  1
  Sc  Sc50  1  0.53228284  0.70628165  0.50737492  1
  Sc  Sc51  1  0.92244631  0.55771640  0.50320636  1
  Sc  Sc52  1  0.10937503  0.47777813  0.01472114  1
  Sc  Sc53  1  0.50897612  0.10860123  0.51645627  1
  Sc  Sc54  1  0.02873741  0.06598636  0.86011542  1
  Sc  Sc55  1  0.13108029  0.28126386  0.90829616  1
  Sc  Sc56  1  0.76501985  0.80739859  0.10323488  1
  Sc  Sc57  1  0.50022936  0.32270100  1.00933685  1
  Sc  Sc58  1  0.16215035  0.88798161  0.13265298  1
  Sc  Sc59  1  0.73532962  0.59797010  0.19313465  1
  Sc  Sc60  1  0.86211540  0.45180190  0.08992157  1
  Sc  Sc61  1  0.35705170  0.77880319  0.38815812  1
  Sc  Sc62  1  0.72681000  0.28260942  0.05352697  1
  Sc  Sc63  1  0.11289698  0.68389211  0.93261739  1
  Sc  Sc64  1  0.52251722  0.46903760  0.54135627  1
  Sc  Sc65  1  0.14684349  0.64955396  0.49356354  1
  Sc  Sc66  1  0.73746701  0.80717572  0.49952220  1
  Sc  Sc67  1  0.28743293  0.13543457  0.18902152  1
  Sc  Sc68  1  0.35153614  0.25059550  0.86988618  1
  Sc  Sc69  1  0.08243639  0.47071556  0.61896999  1
  Sc  Sc70  1  0.33930209  0.69987881  -0.00902966  1
  Sc  Sc71  1  1.00332666  0.29593740  0.72872509  1
  Sc  Sc72  1  0.51373280  0.52585454  0.91475971  1
  Sc  Sc73  1  0.64162738  0.96637234  0.20011019  1
  Sc  Sc74  1  0.91586967  0.60136785  0.88533000  1
  Sc  Sc75  1  0.33140725  0.51490678  0.12890466  1
  Sc  Sc76  1  0.56171572  0.26421945  0.62943471  1
  Sc  Sc77  1  0.73233331  0.40018169  0.51591147  1
  Sc  Sc78  1  0.32082708  0.74881421  0.18207314  1
  Sc  Sc79  1  0.35081502  0.57228475  0.46199091  1
  Sc  Sc80  1  0.67593284  0.08758804  0.98842340  1
  Sc  Sc81  1  0.26770797  0.06387133  0.83227617  1
  Sc  Sc82  1  0.24298125  0.34987546  0.27872757  1
  Sc  Sc83  1  0.82317640  0.68097475  0.35429296  1
  Sc  Sc84  1  0.30389619  0.69273379  0.79721787  1
  Sc  Sc85  1  0.38623804  0.93883761  0.53170733  1
  Sc  Sc86  1  0.03242346  0.94444018  0.62212824  1
  Sc  Sc87  1  0.11416397  0.45941297  0.41577343  1
  Sc  Sc88  1  0.24577965  0.90639043  0.69844563  1
  Sc  Sc89  1  0.78080678  0.78367342  0.89641394  1
  Sc  Sc90  1  0.49312272  0.10931892  0.10279537  1
  Sc  Sc91  1  0.34588099  0.20983717  0.39973781  1
  Sc  Sc92  1  0.81298949  0.90333898  0.32041252  1
  Sc  Sc93  1  0.68465026  0.17250069  0.22751853  1
  Sc  Sc94  1  0.84078837  0.03326049  0.12797135  1
  Sc  Sc95  1  0.68248546  0.38041514  0.24984274  1
  Sc  Sc96  1  0.16674364  0.09127824  0.02122579  1
  Sc  Sc97  1  0.34882355  0.95080547  0.04427376  1
  Sc  Sc98  1  0.89263581  0.70184254  0.67767636  1
  Sc  Sc99  1  0.99405682  0.84371656  0.81454843  1
  Nb  Nb100  1  0.75572222  0.16440707  0.55031678  1
  Nb  Nb101  1  0.54989397  0.72986326  0.87855956  1
  Nb  Nb102  1  0.98293291  0.14225608  0.50916061  1
  Nb  Nb103  1  0.46230925  0.03134217  0.70827972  1
  Nb  Nb104  1  0.23610760  0.58265865  0.29504319  1
  Nb  Nb105  1  0.80030744  0.25840407  0.38918360  1
  Nb  Nb106  1  0.14005180  0.14865365  0.34255586  1
  Nb  Nb107  1  0.01731320  0.62269466  0.30636886  1
  Nb  Nb108  1  0.85076169  0.98964764  0.51047117  1
  Nb  Nb109  1  0.32220002  0.73345705  0.59515647  1
  Nb  Nb110  1  0.13438015  0.66184472  0.14070090  1
  Nb  Nb111  1  0.88878886  0.26600620  0.19878212  1
  Nb  Nb112  1  0.47364444  0.82653875  0.68372937  1
  Nb  Nb113  1  0.89810947  0.11250897  0.68629640  1
  Nb  Nb114  1  0.71191179  0.60961359  0.99976452  1
  Nb  Nb115  1  -0.07253840  0.32807202  0.54017180  1
  Nb  Nb116  1  0.18384005  0.85372162  0.50748006  1
  Nb  Nb117  1  0.89403048  0.10488077  0.33382074  1
  Nb  Nb118  1  0.43662073  0.43640825  0.33127882  1
  Nb  Nb119  1  0.63121796  0.96265101  0.59436900  1
  Nb  Nb120  1  0.45314677  0.89141835  0.21456550  1
  Nb  Nb121  1  0.09867633  0.25990889  0.14749086  1
  Nb  Nb122  1  0.10322810  0.50190715  0.80877901  1
  Nb  Nb123  1  0.21811023  0.34108259  0.72545569  1
  Nb  Nb124  1  0.63212148  0.44458777  0.71871473  1
