# generated using pymatgen
data_Zr2Sc2Nb
_symmetry_space_group_name_H-M   'P 1'
_cell_length_a   14.59571812
_cell_length_b   14.30900379
_cell_length_c   13.70402444
_cell_angle_alpha   88.20442739
_cell_angle_beta   89.44347899
_cell_angle_gamma   91.51860713
_symmetry_Int_Tables_number   1
_chemical_formula_structural   Zr2Sc2Nb
_chemical_formula_sum   'Zr50 Sc50 Nb25'
_cell_volume   2859.51875169
_cell_formula_units_Z   25
loop_
 _symmetry_equiv_pos_site_id
 _symmetry_equiv_pos_as_xyz
  1  'x, y, z'
loop_
 _atom_site_type_symbol
 _atom_site_label
 _atom_site_symmetry_multiplicity
 _atom_site_fract_x
 _atom_site_fract_y
 _atom_site_fract_z
 _atom_site_occupancy
  Zr  Zr0  1  0.42158758  0.30993191  0.48897211  1
  Zr  Zr1  1  1.02042342  0.79198231  0.36546189  1
  Zr  Zr2  1  0.15376441  0.51332428  0.70074312  1
  Zr  Zr3  1  0.55417404  0.54777806  0.70157903  1
  Zr  Zr4  1  0.11900458  0.60674318  0.32987076  1
  Zr  Zr5  1  0.96110830  0.92456714  0.76177648  1
  Zr  Zr6  1  0.04117882  0.38767399  0.32955799  1
  Zr  Zr7  1  0.20730065  0.80908386  0.24074434  1
  Zr  Zr8  1  0.89259851  0.64648764  0.49914488  1
  Zr  Zr9  1  0.56598764  0.23830977  0.92199922  1
  Zr  Zr10  1  0.10001411  0.67822526  0.53954673  1
  Zr  Zr11  1  0.30617856  0.61377018  0.25116442  1
  Zr  Zr12  1  0.22517472  0.40493250  0.25957956  1
  Zr  Zr13  1  0.61427247  0.31027571  0.14451112  1
  Zr  Zr14  1  0.56317764  0.53050531  0.13320369  1
  Zr  Zr15  1  0.68475469  0.39002400  0.77725409  1
  Zr  Zr16  1  0.13303955  0.08566762  0.45496668  1
  Zr  Zr17  1  0.27099628  0.01947303  0.62486393  1
  Zr  Zr18  1  0.30674279  0.01516735  0.26432833  1
  Zr  Zr19  1  0.70038667  0.44010253  0.98540502  1
  Zr  Zr20  1  0.77669871  0.78644694  0.39309315  1
  Zr  Zr21  1  0.36754855  0.23153043  0.88951060  1
  Zr  Zr22  1  0.77247486  0.01305450  0.67635569  1
  Zr  Zr23  1  0.27309014  0.22179230  0.68626552  1
  Zr  Zr24  1  0.57689844  0.15481725  0.52028362  1
  Zr  Zr25  1  0.08862123  0.89216645  0.57725709  1
  Zr  Zr26  1  0.69742667  0.76457542  0.60436347  1
  Zr  Zr27  1  0.52181418  0.23370622  0.32469200  1
  Zr  Zr28  1  0.00794059  0.30792028  0.14072434  1
  Zr  Zr29  1  0.89178569  0.77888878  0.94429541  1
  Zr  Zr30  1  0.53447471  0.93146888  0.14281602  1
  Zr  Zr31  1  0.62786655  0.75625443  0.18761270  1
  Zr  Zr32  1  0.34974372  0.11748315  0.44994802  1
  Zr  Zr33  1  0.30138489  0.80772790  0.87754433  1
  Zr  Zr34  1  0.72029812  0.99374719  0.46632102  1
  Zr  Zr35  1  0.72382055  0.88136894  0.03358856  1
  Zr  Zr36  1  0.41330495  0.32188219  0.09315400  1
  Zr  Zr37  1  0.08100147  0.41496800  0.90915553  1
  Zr  Zr38  1  0.80475373  0.58957830  0.86021922  1
  Zr  Zr39  1  0.40913311  0.63317610  0.90821377  1
  Zr  Zr40  1  0.72078861  0.61490036  0.30200870  1
  Zr  Zr41  1  0.58382861  0.94557637  0.62658896  1
  Zr  Zr42  1  0.20206231  0.30978482  0.06618541  1
  Zr  Zr43  1  0.77899948  0.63805455  0.07649891  1
  Zr  Zr44  1  0.44965418  0.04170167  0.94466605  1
  Zr  Zr45  1  0.20235349  0.28795998  0.47225221  1
  Zr  Zr46  1  0.97293278  0.21237314  0.92912444  1
  Zr  Zr47  1  0.44029298  0.71202272  0.10940537  1
  Zr  Zr48  1  0.97976403  0.91992307  0.07399001  1
  Zr  Zr49  1  0.02362505  0.47514217  0.51990672  1
  Sc  Sc50  1  0.49976551  0.44107732  0.91273227  1
  Sc  Sc51  1  1.03118950  0.71248647  0.12264731  1
  Sc  Sc52  1  0.62720055  1.02059759  0.83929033  1
  Sc  Sc53  1  0.06440391  0.32052639  0.70771347  1
  Sc  Sc54  1  0.51803917  0.84349855  0.94316552  1
  Sc  Sc55  1  0.09036897  0.10319122  0.69293392  1
  Sc  Sc56  1  0.84812988  1.01691209  0.91251868  1
  Sc  Sc57  1  0.29457350  0.70536076  0.45095296  1
  Sc  Sc58  1  0.91456017  0.72419278  0.71889541  1
  Sc  Sc59  1  0.33690059  0.62605912  0.70274493  1
  Sc  Sc60  1  0.75937568  0.20686499  0.88046091  1
  Sc  Sc61  1  0.50556538  0.63375066  0.33729485  1
  Sc  Sc62  1  0.81193507  0.45523196  0.44697902  1
  Sc  Sc63  1  0.85062449  0.79596259  0.19371484  1
  Sc  Sc64  1  0.28648926  0.41465764  0.86333134  1
  Sc  Sc65  1  0.81056296  0.27891085  0.08005492  1
  Sc  Sc66  1  0.12141003  0.71566549  0.74193625  1
  Sc  Sc67  1  0.49838320  0.32442621  0.70673236  1
  Sc  Sc68  1  0.33269043  0.42035172  0.64918470  1
  Sc  Sc69  1  0.92258947  0.57193685  0.27490282  1
  Sc  Sc70  1  0.73180547  0.82515695  0.81186791  1
  Sc  Sc71  1  0.32433829  0.50700990  0.06426148  1
  Sc  Sc72  1  0.41781617  0.91444188  0.51085110  1
  Sc  Sc73  1  0.91226941  0.48178032  0.05312453  1
  Sc  Sc74  1  0.09531962  -0.01609988  0.26151071  1
  Sc  Sc75  1  0.53002908  0.01619440  0.34952400  1
  Sc  Sc76  1  0.07291313  0.11839838  0.09291217  1
  Sc  Sc77  1  0.89447725  0.17490698  0.71684783  1
  Sc  Sc78  1  0.61598043  0.65269931  0.94090972  1
  Sc  Sc79  1  0.42503044  0.43386520  0.29275877  1
  Sc  Sc80  1  0.92895913  0.06633826  0.52315399  1
  Sc  Sc81  1  0.25302258  0.49704635  0.46394777  1
  Sc  Sc82  1  0.23398676  0.71144608  0.05932403  1
  Sc  Sc83  1  0.86443015  0.08008391  0.14007146  1
  Sc  Sc84  1  -0.01655811  0.26489808  0.50454752  1
  Sc  Sc85  1  0.27501529  0.11621709  0.06956379  1
  Sc  Sc86  1  0.47052139  0.12758517  0.14593627  1
  Sc  Sc87  1  0.46125750  0.11782764  0.71126967  1
  Sc  Sc88  1  0.76722049  0.55128241  0.65110604  1
  Sc  Sc89  1  0.71671136  0.14399626  0.29861882  1
  Sc  Sc90  1  0.52006879  0.75952685  0.75095286  1
  Sc  Sc91  1  0.89552312  0.96795094  0.33004007  1
  Sc  Sc92  1  0.48076413  0.71198479  0.55201412  1
  Sc  Sc93  1  0.62059928  0.42138208  0.35646656  1
  Sc  Sc94  1  0.41119890  0.82651672  0.30008720  1
  Sc  Sc95  1  0.84033727  0.31009918  0.30618896  1
  Sc  Sc96  1  0.88667846  0.86361385  0.55203279  1
  Sc  Sc97  1  0.88344822  0.38965623  0.85044529  1
  Sc  Sc98  1  0.11362025  0.51885098  0.10938325  1
  Sc  Sc99  1  0.66581218  0.09521404  0.06726223  1
  Nb  Nb100  1  0.59456628  0.82134769  0.40996637  1
  Nb  Nb101  1  0.96596580  0.52906944  0.70932816  1
  Nb  Nb102  1  0.15419934  0.19972451  0.27191927  1
  Nb  Nb103  1  0.64224748  0.37670559  0.56231502  1
  Nb  Nb104  1  0.16451844  0.20951010  0.88310199  1
  Nb  Nb105  1  0.22417234  0.89937428  0.43174167  1
  Nb  Nb106  1  0.35208356  0.90380426  0.07727565  1
  Nb  Nb107  1  0.64962793  0.60142855  0.49294394  1
  Nb  Nb108  1  0.97476299  0.16241633  0.31354836  1
  Nb  Nb109  1  0.33168556  0.23501329  0.27450475  1
  Nb  Nb110  1  0.06657452  0.02619091  0.90352560  1
  Nb  Nb111  1  0.75400514  0.45695413  0.19118473  1
  Nb  Nb112  1  0.28042975  0.81177916  0.63660655  1
  Nb  Nb113  1  0.40553673  0.92626687  0.75374433  1
  Nb  Nb114  1  0.00784383  0.60638978  0.90095516  1
  Nb  Nb115  1  0.77525032  0.21667220  0.51115670  1
  Nb  Nb116  1  0.16932581  0.91401667  0.77657501  1
  Nb  Nb117  1  0.67534939  0.19936059  0.68950056  1
  Nb  Nb118  1  0.70546951  0.94035285  0.24817151  1
  Nb  Nb119  1  0.08411705  0.79825575  0.92260219  1
  Nb  Nb120  1  0.17863354  0.92701564  0.03637893  1
  Nb  Nb121  1  0.27142379  0.04392338  0.85891468  1
  Nb  Nb122  1  0.47584263  0.50085833  0.51414669  1
  Nb  Nb123  1  0.84250014  0.35823563  0.63818836  1
  Nb  Nb124  1  0.20026615  0.59978451  0.89582199  1
