# generated using pymatgen
data_Zr2Sc2Nb
_symmetry_space_group_name_H-M   'P 1'
_cell_length_a   14.18483810
_cell_length_b   14.05011322
_cell_length_c   14.44295000
_cell_angle_alpha   89.30240827
_cell_angle_beta   90.83715229
_cell_angle_gamma   89.70358104
_symmetry_Int_Tables_number   1
_chemical_formula_structural   Zr2Sc2Nb
_chemical_formula_sum   'Zr50 Sc50 Nb25'
_cell_volume   2877.89765480
_cell_formula_units_Z   25
loop_
 _symmetry_equiv_pos_site_id
 _symmetry_equiv_pos_as_xyz
  1  'x, y, z'
loop_
 _atom_site_type_symbol
 _atom_site_label
 _atom_site_symmetry_multiplicity
 _atom_site_fract_x
 _atom_site_fract_y
 _atom_site_fract_z
 _atom_site_occupancy
  Zr  Zr0  1  0.36416088  0.13176002  0.52749895  1
  Zr  Zr1  1  0.11642726  0.34247559  0.29313227  1
  Zr  Zr2  1  0.70217172  0.32325986  0.14962206  1
  Zr  Zr3  1  0.76400886  0.09732876  0.39420408  1
  Zr  Zr4  1  0.16925496  0.14164678  0.17606039  1
  Zr  Zr5  1  0.55312458  0.79871470  0.92745135  1
  Zr  Zr6  1  -0.00106877  0.51551323  0.78879370  1
  Zr  Zr7  1  0.41856263  0.16813487  0.26459610  1
  Zr  Zr8  1  0.61881270  0.20414547  0.29447577  1
  Zr  Zr9  1  0.47701317  0.24161839  0.85602839  1
  Zr  Zr10  1  0.50321292  0.29985354  0.64895516  1
  Zr  Zr11  1  0.12606908  0.93736743  0.27286165  1
  Zr  Zr12  1  0.81872741  0.29435297  0.33230546  1
  Zr  Zr13  1  0.44478407  0.66824151  0.03926015  1
  Zr  Zr14  1  0.33200945  0.81244367  0.88016064  1
  Zr  Zr15  1  0.64760518  0.36837982  0.93102276  1
  Zr  Zr16  1  0.95897689  0.19501759  0.20470371  1
  Zr  Zr17  1  0.92764332  0.66785317  0.93209036  1
  Zr  Zr18  1  0.51883845  0.59872025  0.25941101  1
  Zr  Zr19  1  0.17123705  0.72492767  0.29492019  1
  Zr  Zr20  1  0.15752522  0.65304255  0.50192359  1
  Zr  Zr21  1  0.29273352  0.87616084  0.42016494  1
  Zr  Zr22  1  0.26044917  0.09910304  0.35501368  1
  Zr  Zr23  1  1.03195226  0.70722957  0.65101129  1
  Zr  Zr24  1  0.63296521  0.42263764  0.37026321  1
  Zr  Zr25  1  -0.00796251  0.51588105  0.58204634  1
  Zr  Zr26  1  0.71408808  -0.00717337  0.82062231  1
  Zr  Zr27  1  0.74264095  0.70375612  0.31137293  1
  Zr  Zr28  1  0.78106410  0.49940506  0.03044208  1
  Zr  Zr29  1  0.15253566  0.02512443  0.50754450  1
  Zr  Zr30  1  0.14075901  0.35888973  0.68683640  1
  Zr  Zr31  1  0.73571981  0.51618942  0.23147975  1
  Zr  Zr32  1  0.03773596  0.85027705  0.96621942  1
  Zr  Zr33  1  0.05163804  0.14836735  0.36461616  1
  Zr  Zr34  1  0.88788570  0.88218145  0.57404838  1
  Zr  Zr35  1  0.74758274  0.06587846  0.62272891  1
  Zr  Zr36  1  0.73390298  0.90978509  0.24980251  1
  Zr  Zr37  1  0.96584254  0.97181495  0.14734913  1
  Zr  Zr38  1  0.12114224  0.61275563  0.97963285  1
  Zr  Zr39  1  0.91517621  0.84658980  0.78935595  1
  Zr  Zr40  1  0.10201538  0.33803719  0.06911125  1
  Zr  Zr41  1  0.10938528  0.14068207  0.68492683  1
  Zr  Zr42  1  0.68262723  0.92958630  0.03235880  1
  Zr  Zr43  1  0.58381738  0.10560952  0.50719271  1
  Zr  Zr44  1  0.24673730  0.75099500  0.07425462  1
  Zr  Zr45  1  0.54471789  0.82312731  0.18230398  1
  Zr  Zr46  1  0.30882269  0.20126495  0.71748353  1
  Zr  Zr47  1  1.02810552  0.12594217  0.01734102  1
  Zr  Zr48  1  0.77451766  0.54399702  0.83563006  1
  Zr  Zr49  1  0.42699380  0.48451854  0.44325055  1
  Sc  Sc50  1  0.29406063  0.31233333  0.15043038  1
  Sc  Sc51  1  0.77790252  0.10018220  0.15870047  1
  Sc  Sc52  1  0.47237892  0.91143672  0.53953715  1
  Sc  Sc53  1  0.04284358  0.28170658  0.86346308  1
  Sc  Sc54  1  0.67579779  0.68530050  0.09521556  1
  Sc  Sc55  1  0.10380174  0.54231304  0.16708298  1
  Sc  Sc56  1  0.68855353  0.15683130  0.96650299  1
  Sc  Sc57  1  0.33956026  0.94599045  0.22213643  1
  Sc  Sc58  1  0.49180960  0.28212003  0.44393844  1
  Sc  Sc59  1  0.51420748  0.02121044  0.91799828  1
  Sc  Sc60  1  0.87229796  0.27948607  0.03123279  1
  Sc  Sc61  1  0.70919133  0.67415523  0.52482266  1
  Sc  Sc62  1  0.30668019  0.52483859  0.09178170  1
  Sc  Sc63  1  0.30533824  0.03160532  0.86681127  1
  Sc  Sc64  1  0.35738575  0.10705369  0.06142102  1
  Sc  Sc65  1  0.92735461  0.41578039  0.19648331  1
  Sc  Sc66  1  0.70169488  0.89679078  0.45906355  1
  Sc  Sc67  1  0.52461983  0.98679673  0.34221053  1
  Sc  Sc68  1  0.59069216  0.49376658  0.57284092  1
  Sc  Sc69  1  0.14100965  0.73977073  0.81742479  1
  Sc  Sc70  1  0.92245654  0.97207472  0.36335127  1
  Sc  Sc71  1  0.09084088  0.91233438  0.67447001  1
  Sc  Sc72  1  0.69154047  0.24254370  0.75100488  1
  Sc  Sc73  1  0.29901164  0.74605990  0.65853295  1
  Sc  Sc74  1  0.50857056  0.26550987  0.07303030  1
  Sc  Sc75  1  0.82028260  0.50257247  0.43498156  1
  Sc  Sc76  1  0.01012695  0.56266086  0.35108248  1
  Sc  Sc77  1  0.49273674  0.85688015  0.74109196  1
  Sc  Sc78  1  0.53910814  0.76305877  0.39042811  1
  Sc  Sc79  1  0.42842578  0.44092800  0.94552795  1
  Sc  Sc80  1  0.46478395  0.38839411  0.24651029  1
  Sc  Sc81  1  0.35597624  0.67821225  0.45066421  1
  Sc  Sc82  1  0.55481916  0.04811626  0.13936189  1
  Sc  Sc83  1  0.51356217  0.07765415  0.70711806  1
  Sc  Sc84  1  0.74693386  0.76616552  0.88096967  1
  Sc  Sc85  1  -0.02152779  0.33168909  0.47347698  1
  Sc  Sc86  1  0.07930207  0.02712376  0.85443130  1
  Sc  Sc87  1  0.07065085  0.83640774  0.46210058  1
  Sc  Sc88  1  0.19159327  0.96038177  0.05302967  1
  Sc  Sc89  1  0.69656345  0.84358723  0.66944360  1
  Sc  Sc90  1  0.78956921  0.46226577  0.65142927  1
  Sc  Sc91  1  0.17890832  0.45121998  0.48376774  1
  Sc  Sc92  1  0.25734795  0.24979720  0.92379665  1
  Sc  Sc93  1  0.72304170  0.28146553  0.52810835  1
  Sc  Sc94  1  0.30026792  0.97227237  0.66544008  1
  Sc  Sc95  1  0.91805385  0.27180330  0.67937957  1
  Sc  Sc96  1  0.94085910  0.77412873  0.29169476  1
  Sc  Sc97  1  0.27445755  0.52741107  0.30312956  1
  Sc  Sc98  1  0.84794716  0.80943730  0.08571832  1
  Sc  Sc99  1  0.94278165  0.11173658  0.53637527  1
  Nb  Nb100  1  0.97524243  0.46538181  0.98490782  1
  Nb  Nb101  1  0.34457097  0.40924528  0.76981397  1
  Nb  Nb102  1  0.36631648  0.73407920  0.23985751  1
  Nb  Nb103  1  0.84500226  0.67305414  0.68976113  1
  Nb  Nb104  1  0.19630169  0.55232492  0.69639252  1
  Nb  Nb105  1  0.86984932  0.15689374  0.85737219  1
  Nb  Nb106  1  0.63770399  0.64790330  0.72750977  1
  Nb  Nb107  1  0.90654359  0.61835135  0.14608813  1
  Nb  Nb108  1  0.55697725  0.45780923  0.77114042  1
  Nb  Nb109  1  0.05466371  0.75826347  0.13137249  1
  Nb  Nb110  1  0.84292393  0.36138974  0.85065439  1
  Nb  Nb111  1  0.29868031  0.59943066  0.87099019  1
  Nb  Nb112  1  0.18344133  0.44376098  0.89006576  1
  Nb  Nb113  1  0.59676787  0.58554746  0.92487372  1
  Nb  Nb114  1  0.40936613  0.89133506  0.04636421  1
  Nb  Nb115  1  0.56785838  0.48760179  0.09668211  1
  Nb  Nb116  1  0.38783659  0.54259905  0.63844737  1
  Nb  Nb117  1  0.91414268  0.03671606  0.72724684  1
  Nb  Nb118  1  0.50813677  0.70014445  0.59429572  1
  Nb  Nb119  1  0.29826520  0.30833959  0.37356254  1
  Nb  Nb120  1  0.32690117  0.35446125  0.57718624  1
  Nb  Nb121  1  0.87192319  0.98598691  0.95096269  1
  Nb  Nb122  1  0.91119109  0.69445001  0.48535917  1
  Nb  Nb123  1  0.17166678  0.23479223  0.51276746  1
  Nb  Nb124  1  0.45686537  0.64336575  0.79389819  1
