# generated using pymatgen
data_Zr2Sc2Nb
_symmetry_space_group_name_H-M   'P 1'
_cell_length_a   14.18304182
_cell_length_b   13.95110804
_cell_length_c   14.49057309
_cell_angle_alpha   89.58420110
_cell_angle_beta   90.18357893
_cell_angle_gamma   90.42601580
_symmetry_Int_Tables_number   1
_chemical_formula_structural   Zr2Sc2Nb
_chemical_formula_sum   'Zr50 Sc50 Nb25'
_cell_volume   2867.06837810
_cell_formula_units_Z   25
loop_
 _symmetry_equiv_pos_site_id
 _symmetry_equiv_pos_as_xyz
  1  'x, y, z'
loop_
 _atom_site_type_symbol
 _atom_site_label
 _atom_site_symmetry_multiplicity
 _atom_site_fract_x
 _atom_site_fract_y
 _atom_site_fract_z
 _atom_site_occupancy
  Zr  Zr0  1  0.52750791  0.37420528  0.91247398  1
  Zr  Zr1  1  0.69213094  0.71885221  0.94971343  1
  Zr  Zr2  1  0.92259899  0.40905019  0.51772395  1
  Zr  Zr3  1  0.27190352  0.45866303  0.28271521  1
  Zr  Zr4  1  0.71792503  0.98796776  0.22509051  1
  Zr  Zr5  1  0.26688897  0.38184038  0.49100290  1
  Zr  Zr6  1  0.52166383  0.27693554  0.09083256  1
  Zr  Zr7  1  0.64911613  0.64712618  0.61020420  1
  Zr  Zr8  1  0.61694065  0.03690240  0.72196428  1
  Zr  Zr9  1  0.95591284  0.42218000  0.86483553  1
  Zr  Zr10  1  0.08492462  0.84684758  0.32020651  1
  Zr  Zr11  1  0.97582403  0.73232985  0.60812083  1
  Zr  Zr12  1  0.37010955  0.16685445  0.44725320  1
  Zr  Zr13  1  0.87582731  0.16012914  0.16339002  1
  Zr  Zr14  1  0.29168588  0.80329641  0.33949140  1
  Zr  Zr15  1  0.16229388  0.64360648  0.94120148  1
  Zr  Zr16  1  0.45387081  0.53099990  0.53296845  1
  Zr  Zr17  1  0.65191609  0.94763055  0.89755458  1
  Zr  Zr18  1  0.59298250  0.43579831  0.67642243  1
  Zr  Zr19  1  0.11115500  0.73536878  0.12269154  1
  Zr  Zr20  1  0.23038031  0.23339453  0.32232887  1
  Zr  Zr21  1  0.90384309  0.27137499  0.72717666  1
  Zr  Zr22  1  0.24040930  0.17917515  0.58665675  1
  Zr  Zr23  1  0.41433184  0.62956874  0.29903415  1
  Zr  Zr24  1  0.53513681  0.14269980  0.91732237  1
  Zr  Zr25  1  0.90645285  0.22323594  0.94984726  1
  Zr  Zr26  1  -0.02614428  0.06178614  0.84719643  1
  Zr  Zr27  1  1.05613641  0.87546277  0.95122229  1
  Zr  Zr28  1  0.83471227  0.04131932  0.68491292  1
  Zr  Zr29  1  0.32150622  0.64055386  0.11081906  1
  Zr  Zr30  1  0.98679473  0.69481609  0.84323908  1
  Zr  Zr31  1  0.17295367  0.02412073  0.43951884  1
  Zr  Zr32  1  0.41755211  0.98036007  0.95527209  1
  Zr  Zr33  1  0.47717125  0.58542253  0.95010950  1
  Zr  Zr34  1  0.83979505  0.87262976  0.83196939  1
  Zr  Zr35  1  0.48532564  0.66105839  0.71218888  1
  Zr  Zr36  1  0.48575351  0.10622110  0.59230662  1
  Zr  Zr37  1  0.27321041  0.82246695  0.98952261  1
  Zr  Zr38  1  0.66971571  0.39158436  0.24843054  1
  Zr  Zr39  1  0.22594953  0.83905233  0.80415742  1
  Zr  Zr40  1  0.10746670  0.22863972  0.81903104  1
  Zr  Zr41  1  0.91607331  0.92422150  0.22864265  1
  Zr  Zr42  1  0.74412648  0.14924350  0.84553567  1
  Zr  Zr43  1  0.60950491  0.88510751  0.07643448  1
  Zr  Zr44  1  0.78720461  0.84628249  0.59869746  1
  Zr  Zr45  1  0.14337892  0.78794291  0.50490067  1
  Zr  Zr46  1  0.89015915  0.78210630  0.40517742  1
  Zr  Zr47  1  0.68737323  0.10414297  0.05255650  1
  Zr  Zr48  1  0.09498811  0.31156530  0.20060188  1
  Zr  Zr49  1  0.70173710  0.25398732  0.63956045  1
  Sc  Sc50  1  0.73053555  0.30794043  0.05513299  1
  Sc  Sc51  1  0.22813856  0.96319214  0.63700721  1
  Sc  Sc52  1  0.31094197  0.46056255  -0.04118202  1
  Sc  Sc53  1  0.37839648  0.93914528  0.48706149  1
  Sc  Sc54  1  0.30337083  0.11162509  0.09384272  1
  Sc  Sc55  1  0.70258034  0.08226100  0.50930936  1
  Sc  Sc56  1  0.54668732  0.84178578  0.30063768  1
  Sc  Sc57  1  0.29381807  0.31445088  0.73417150  1
  Sc  Sc58  1  0.88280757  0.76736305  0.03898376  1
  Sc  Sc59  1  0.50707937  0.05329564  0.15851399  1
  Sc  Sc60  1  0.16610467  0.94314933  0.14079110  1
  Sc  Sc61  1  0.31894918  0.64629415  0.82198829  1
  Sc  Sc62  1  0.95609127  0.96976213  0.49386755  1
  Sc  Sc63  1  0.05006213  0.10817571  0.64465315  1
  Sc  Sc64  1  0.68150032  0.71100450  0.41880761  1
  Sc  Sc65  1  0.36195403  0.09758322  0.76290516  1
  Sc  Sc66  1  0.64148422  0.50252202  0.04557578  1
  Sc  Sc67  1  0.30477700  0.32704604  0.12615536  1
  Sc  Sc68  1  0.05837646  0.09009830  0.26997673  1
  Sc  Sc69  1  0.48573689  0.78777190  0.90682104  1
  Sc  Sc70  1  0.66517170  0.46833515  0.47224022  1
  Sc  Sc71  1  0.82925426  0.53402339  0.34148785  1
  Sc  Sc72  1  0.46755659  0.73062814  0.47395495  1
  Sc  Sc73  1  0.57377315  0.25437863  0.45395610  1
  Sc  Sc74  1  0.80443583  0.57013837  0.13920351  1
  Sc  Sc75  1  0.80574555  0.67515904  0.74515470  1
  Sc  Sc76  1  -0.00951552  0.57481472  1.03093431  1
  Sc  Sc77  1  0.03073742  0.89511361  0.72226154  1
  Sc  Sc78  1  0.86197739  0.99063362  0.01918903  1
  Sc  Sc79  1  0.12090669  0.34568772  -0.01076120  1
  Sc  Sc80  1  0.20130026  0.03630759  0.89996609  1
  Sc  Sc81  1  0.67222237  0.18398162  0.26874053  1
  Sc  Sc82  1  0.47183762  0.41953829  0.35670368  1
  Sc  Sc83  1  0.91250793  0.32471583  0.30389480  1
  Sc  Sc84  1  0.05577227  0.22486666  0.44149738  1
  Sc  Sc85  1  0.84197505  0.60190528  0.53570769  1
  Sc  Sc86  1  0.15660967  0.47555941  0.79778795  1
  Sc  Sc87  1  0.31194526  0.74117155  0.61332635  1
  Sc  Sc88  1  0.39027137  0.85986566  0.15168749  1
  Sc  Sc89  1  0.72969572  0.36537474  0.85157675  1
  Sc  Sc90  1  0.43948170  0.89563250  0.72509250  1
  Sc  Sc91  1  0.92315980  0.38356298  0.08834503  1
  Sc  Sc92  1  0.09032522  0.34527110  0.63027311  1
  Sc  Sc93  1  0.74307363  0.76429997  0.22038524  1
  Sc  Sc94  1  0.44633740  0.22693860  0.26822897  1
  Sc  Sc95  1  0.58671246  0.89257477  0.55135983  1
  Sc  Sc96  1  0.32510672  0.02195040  0.28987102  1
  Sc  Sc97  1  0.06985319  0.12788725  0.04877570  1
  Sc  Sc98  1  0.33879914  0.24151917  0.92417724  1
  Sc  Sc99  1  0.54215635  0.68918354  0.12450870  1
  Nb  Nb100  1  0.29074633  0.52097280  0.64492774  1
  Nb  Nb101  1  0.79252337  0.46848497  0.69153441  1
  Nb  Nb102  1  0.26017227  0.60456395  0.45126203  1
  Nb  Nb103  1  0.16846079  0.50715871  0.11710089  1
  Nb  Nb104  1  0.81822865  0.55511248  0.91341661  1
  Nb  Nb105  1  0.64138554  0.80583488  0.75283673  1
  Nb  Nb106  1  0.63497506  0.56935603  0.82268853  1
  Nb  Nb107  1  0.10884138  0.55042470  0.56327778  1
  Nb  Nb108  1  0.02405365  0.62709807  0.41255178  1
  Nb  Nb109  1  0.61370873  0.57692522  0.27558197  1
  Nb  Nb110  1  0.09920896  0.43667869  0.38981667  1
  Nb  Nb111  1  0.14062962  0.67549573  0.71113331  1
  Nb  Nb112  1  0.54332655  0.04200382  0.37674675  1
  Nb  Nb113  1  0.95208310  0.69996874  0.23240241  1
  Nb  Nb114  1  0.74308330  0.92077345  0.39746264  1
  Nb  Nb115  1  0.42716167  0.46431456  0.77058266  1
  Nb  Nb116  1  0.77057429  0.28911004  0.43046705  1
  Nb  Nb117  1  0.01526940  0.51417237  0.23306562  1
  Nb  Nb118  1  0.43439848  0.32810300  0.58935307  1
  Nb  Nb119  1  0.88546929  0.18886944  0.54224287  1
  Nb  Nb120  1  0.46214496  0.47311044  0.14884247  1
  Nb  Nb121  1  0.17138495  0.64036753  0.28606347  1
  Nb  Nb122  1  0.51967090  0.24987978  0.75072570  1
  Nb  Nb123  1  0.85739466  0.10613895  0.35964585  1
  Nb  Nb124  1  0.97034832  0.53290579  0.70149619  1
