# generated using pymatgen
data_Zr2Sc2Nb
_symmetry_space_group_name_H-M   'P 1'
_cell_length_a   14.23488048
_cell_length_b   14.22017017
_cell_length_c   14.18538941
_cell_angle_alpha   88.40735008
_cell_angle_beta   91.12145272
_cell_angle_gamma   94.32280152
_symmetry_Int_Tables_number   1
_chemical_formula_structural   Zr2Sc2Nb
_chemical_formula_sum   'Zr50 Sc50 Nb25'
_cell_volume   2861.72616700
_cell_formula_units_Z   25
loop_
 _symmetry_equiv_pos_site_id
 _symmetry_equiv_pos_as_xyz
  1  'x, y, z'
loop_
 _atom_site_type_symbol
 _atom_site_label
 _atom_site_symmetry_multiplicity
 _atom_site_fract_x
 _atom_site_fract_y
 _atom_site_fract_z
 _atom_site_occupancy
  Zr  Zr0  1  0.33470284  0.68716995  0.30605691  1
  Zr  Zr1  1  0.42915052  0.38669981  0.54117732  1
  Zr  Zr2  1  0.49931860  0.39695966  0.91242981  1
  Zr  Zr3  1  0.48690296  0.34854565  0.32782093  1
  Zr  Zr4  1  0.77263513  0.27171321  0.18559177  1
  Zr  Zr5  1  0.09351872  -0.00539921  0.83290029  1
  Zr  Zr6  1  0.30299552  0.29995935  0.19831978  1
  Zr  Zr7  1  0.37016714  0.09334689  0.74360344  1
  Zr  Zr8  1  0.74342657  0.02723129  0.18971351  1
  Zr  Zr9  1  0.48652475  0.99387671  0.91403200  1
  Zr  Zr10  1  0.91561836  0.25693502  0.33810440  1
  Zr  Zr11  1  0.73300829  0.73365797  0.90399276  1
  Zr  Zr12  1  0.29731462  0.22049751  0.58151322  1
  Zr  Zr13  1  0.04022482  0.77110157  0.16628422  1
  Zr  Zr14  1  0.27828103  0.51764899  0.16545617  1
  Zr  Zr15  1  0.47611277  0.19405129  0.90696369  1
  Zr  Zr16  1  0.33436033  0.72519849  0.89240918  1
  Zr  Zr17  1  0.21580244  0.61434633  0.48052396  1
  Zr  Zr18  1  0.51795734  0.20318686  0.47808466  1
  Zr  Zr19  1  0.31711280  0.30589555  0.99343355  1
  Zr  Zr20  1  0.98262036  0.10212042  0.70526225  1
  Zr  Zr21  1  0.53083535  0.25195483  0.68273463  1
  Zr  Zr22  1  0.71775960  0.68939857  0.32904674  1
  Zr  Zr23  1  0.87384607  0.98227524  0.54202865  1
  Zr  Zr24  1  0.98819675  0.32257907  0.12257161  1
  Zr  Zr25  1  0.54423590  0.47234154  0.70776453  1
  Zr  Zr26  1  0.23806579  0.43268311  0.60656009  1
  Zr  Zr27  1  0.85425981  0.25296713  0.75008306  1
  Zr  Zr28  1  0.10582359  0.17916822  0.29620723  1
  Zr  Zr29  1  0.98325479  0.46272502  0.92627225  1
  Zr  Zr30  1  0.72427262  0.89194855  0.35974844  1
  Zr  Zr31  1  0.90929546  0.66518952  0.01148923  1
  Zr  Zr32  1  0.35280615  0.53601609  0.76506861  1
  Zr  Zr33  1  0.31666231  0.82646378  0.46943777  1
  Zr  Zr34  1  0.83729536  0.85323051  0.11165097  1
  Zr  Zr35  1  0.53483710  0.01757093  0.12826117  1
  Zr  Zr36  1  0.32861946  0.52196721  0.96800721  1
  Zr  Zr37  1  0.03833204  0.98640659  0.02288116  1
  Zr  Zr38  1  0.22109532  0.93508653  0.13171777  1
  Zr  Zr39  1  0.67038364  0.16194480  0.02477422  1
  Zr  Zr40  1  0.72067740  0.31395712  0.42477483  1
  Zr  Zr41  1  0.31145151  0.70650950  0.66026506  1
  Zr  Zr42  1  0.88612680  0.64449403  0.23398539  1
  Zr  Zr43  1  0.91700770  0.04876264  0.35060245  1
  Zr  Zr44  1  0.26891773  0.93216648  0.91334168  1
  Zr  Zr45  1  0.71845997  0.16973816  0.60778157  1
  Zr  Zr46  1  0.61104687  0.89198268  0.76739350  1
  Zr  Zr47  1  0.83734291  0.29954203  0.97086588  1
  Zr  Zr48  1  0.17377509  0.39248772  0.83477561  1
  Zr  Zr49  1  0.76979498  0.51784978  0.91004793  1
  Sc  Sc50  1  0.48454920  0.46191601  0.12678945  1
  Sc  Sc51  1  0.85843652  0.08410732  0.92810764  1
  Sc  Sc52  1  0.78521343  0.78964314  0.69903921  1
  Sc  Sc53  1  0.98752551  0.86432177  0.68816284  1
  Sc  Sc54  1  0.53115182  0.69385126  0.73133745  1
  Sc  Sc55  1  0.73653367  0.58368669  0.70611719  1
  Sc  Sc56  1  0.12108771  0.75464529  0.57309587  1
  Sc  Sc57  1  0.12034969  0.57377739  0.71298043  1
  Sc  Sc58  1  0.69073193  0.46185774  0.26496406  1
  Sc  Sc59  1  0.85154358  0.47238672  0.11358249  1
  Sc  Sc60  1  0.92556175  0.12226094  0.13502881  1
  Sc  Sc61  1  0.81557596  0.55996124  0.48353430  1
  Sc  Sc62  1  0.44674186  0.67362220  0.11267131  1
  Sc  Sc63  1  0.09965690  0.33093167  0.46228839  1
  Sc  Sc64  1  0.12053505  0.59900940  0.29348325  1
  Sc  Sc65  1  0.89467091  0.87279819  0.89144243  1
  Sc  Sc66  1  0.61161529  0.48573580  0.48351981  1
  Sc  Sc67  1  0.04538602  0.32542537  0.66504873  1
  Sc  Sc68  1  0.30822673  0.45832850  0.37742143  1
  Sc  Sc69  1  0.43794897  0.61819804  0.52000943  1
  Sc  Sc70  1  0.38868814  0.88678693  0.73698155  1
  Sc  Sc71  1  0.50140910  0.25398765  0.11260775  1
  Sc  Sc72  1  0.65060899  0.11339422  0.81624454  1
  Sc  Sc73  1  0.93350785  0.46458369  0.33320617  1
  Sc  Sc74  1  0.39645343  0.12032438  0.27516001  1
  Sc  Sc75  1  0.60876668  0.82451054  0.17216338  1
  Sc  Sc76  1  0.73343488  0.10030669  0.41728371  1
  Sc  Sc77  1  0.23339320  0.71417198  0.09910376  1
  Sc  Sc78  1  0.36883999  0.03490743  0.52033222  1
  Sc  Sc79  1  0.51323119  0.58145679  0.30976763  1
  Sc  Sc80  1  0.05108030  0.97160481  0.23231681  1
  Sc  Sc81  1  0.64966342  0.70369461  0.53678394  1
  Sc  Sc82  1  0.90757361  0.47105702  0.72443911  1
  Sc  Sc83  1  0.68949446  0.62424328  0.10393819  1
  Sc  Sc84  1  0.19793434  0.96665085  0.64974488  1
  Sc  Sc85  1  0.22613632  0.01460175  0.35830283  1
  Sc  Sc86  1  0.35112700  0.31716094  0.76771677  1
  Sc  Sc87  1  0.53780859  -0.00914712  0.40222968  1
  Sc  Sc88  1  0.55605835  0.58910998  0.92528307  1
  Sc  Sc89  1  0.38779986  0.89380639  0.26518473  1
  Sc  Sc90  1  0.10249775  0.11879856  0.51475286  1
  Sc  Sc91  1  0.79359194  1.00248748  0.73545127  1
  Sc  Sc92  1  0.04329435  0.21890266  0.90892194  1
  Sc  Sc93  1  0.15702134  0.16256626  0.09408343  1
  Sc  Sc94  1  0.60693582  0.17763532  0.27389218  1
  Sc  Sc95  1  0.08880323  0.79393399  -0.04004079  1
  Sc  Sc96  1  0.54320718  0.79689684  0.95401830  1
  Sc  Sc97  1  0.12604857  0.38926185  0.26067721  1
  Sc  Sc98  1  0.05087282  0.90656039  0.45795599  1
  Sc  Sc99  1  0.67709081  0.33269551  0.83493636  1
  Nb  Nb100  1  0.03427619  0.52003535  0.52651090  1
  Nb  Nb101  1  0.69462851  0.94826262  0.97873193  1
  Nb  Nb102  1  0.49351661  0.84120778  0.56946094  1
  Nb  Nb103  1  0.88529639  0.37060538  0.53606457  1
  Nb  Nb104  1  0.16244341  0.77816333  0.77801939  1
  Nb  Nb105  1  0.28964618  0.24355088  0.39396296  1
  Nb  Nb106  1  0.15361584  0.39742845  0.03919894  1
  Nb  Nb107  1  0.05931562  0.55336662  0.10424389  1
  Nb  Nb108  1  -0.00459462  0.68768493  0.41521504  1
  Nb  Nb109  1  0.16480178  0.80316433  0.32581400  1
  Nb  Nb110  1  0.67786123  0.91931131  0.55638110  1
  Nb  Nb111  1  0.14594089  0.59804664  0.92264240  1
  Nb  Nb112  1  0.52775175  0.78214387  0.38414191  1
  Nb  Nb113  1  0.54824961  0.03799557  0.63258474  1
  Nb  Nb114  1  0.39481954  0.87021896  0.06104290  1
  Nb  Nb115  1  0.95598004  0.67171039  0.81885539  1
  Nb  Nb116  1  0.90769842  0.18903199  0.53208639  1
  Nb  Nb117  1  0.90753038  0.83517816  0.31262200  1
  Nb  Nb118  1  0.84979706  0.78389485  0.49782851  1
  Nb  Nb119  1  0.93921201  0.66071694  0.62584555  1
  Nb  Nb120  1  0.66304021  0.39219664  0.04625167  1
  Nb  Nb121  1  0.35592735  0.08770113  0.06265859  1
  Nb  Nb122  1  0.71554923  0.37897900  0.63029940  1
  Nb  Nb123  1  0.17269711  0.18438168  0.73189191  1
  Nb  Nb124  1  0.24734937  0.13745618  0.90176791  1
