# generated using pymatgen
data_Zr2Sc2Nb
_symmetry_space_group_name_H-M   'P 1'
_cell_length_a   14.62114708
_cell_length_b   13.76888302
_cell_length_c   14.29964814
_cell_angle_alpha   95.07636136
_cell_angle_beta   89.47483149
_cell_angle_gamma   90.46184945
_symmetry_Int_Tables_number   1
_chemical_formula_structural   Zr2Sc2Nb
_chemical_formula_sum   'Zr50 Sc50 Nb25'
_cell_volume   2867.27242332
_cell_formula_units_Z   25
loop_
 _symmetry_equiv_pos_site_id
 _symmetry_equiv_pos_as_xyz
  1  'x, y, z'
loop_
 _atom_site_type_symbol
 _atom_site_label
 _atom_site_symmetry_multiplicity
 _atom_site_fract_x
 _atom_site_fract_y
 _atom_site_fract_z
 _atom_site_occupancy
  Zr  Zr0  1  0.40936941  0.04659752  0.89872807  1
  Zr  Zr1  1  0.26568319  0.46098125  0.55035809  1
  Zr  Zr2  1  0.88894108  0.50362908  0.55728216  1
  Zr  Zr3  1  0.47503417  0.81403751  0.89590172  1
  Zr  Zr4  1  0.23128698  0.66587771  0.07229449  1
  Zr  Zr5  1  0.60501423  0.71133343  0.74782198  1
  Zr  Zr6  1  0.95768144  0.49769830  0.94107870  1
  Zr  Zr7  1  0.47997613  0.15392122  0.32818770  1
  Zr  Zr8  1  0.93551465  0.28563067  0.62388806  1
  Zr  Zr9  1  0.43892341  0.77330182  0.37721272  1
  Zr  Zr10  1  0.48112440  0.43765048  0.04651596  1
  Zr  Zr11  1  0.04436730  0.09443703  0.55740288  1
  Zr  Zr12  1  0.71212661  0.62402383  0.52645479  1
  Zr  Zr13  1  0.17505524  0.26060730  0.19099593  1
  Zr  Zr14  1  0.13296538  0.58295541  0.88966638  1
  Zr  Zr15  1  0.61932673  0.02162741  0.94178142  1
  Zr  Zr16  1  0.52451277  0.71898612  0.54746358  1
  Zr  Zr17  1  0.58353712  0.57696735  0.37011410  1
  Zr  Zr18  1  0.51427409  0.38557408  0.24904147  1
  Zr  Zr19  1  0.35286229  0.86872187  0.57365202  1
  Zr  Zr20  1  0.51196784  0.21611443  1.01473389  1
  Zr  Zr21  1  0.54774249  0.94502332  0.51282987  1
  Zr  Zr22  1  0.83003460  0.19741792  0.25370378  1
  Zr  Zr23  1  0.88144354  0.09090686  0.45795342  1
  Zr  Zr24  1  0.14985094  0.82984592  0.18961401  1
  Zr  Zr25  1  0.38235292  0.53758963  0.39687350  1
  Zr  Zr26  1  0.73234525  0.29615927  0.74299620  1
  Zr  Zr27  1  0.24528369  0.88475937  0.37707313  1
  Zr  Zr28  1  0.26347304  0.68424677  0.49836598  1
  Zr  Zr29  1  0.93595579  0.29833631  0.84445506  1
  Zr  Zr30  1  0.86559619  0.87511073  0.41376075  1
  Zr  Zr31  1  0.61086353  0.61239183  0.95389706  1
  Zr  Zr32  1  0.25846838  0.14774421  0.81517789  1
  Zr  Zr33  1  0.72445282  0.20144116  0.91272951  1
  Zr  Zr34  1  0.80276329  0.87332692  0.01304905  1
  Zr  Zr35  1  0.42584728  0.08649223  0.66453562  1
  Zr  Zr36  1  0.46759061  0.51580207  0.61921726  1
  Zr  Zr37  1  0.06542401  0.60296156  0.19441433  1
  Zr  Zr38  1  0.63556931  0.09144455  0.17844271  1
  Zr  Zr39  1  0.38919756  0.70515678  0.69973669  1
  Zr  Zr40  1  0.10179073  0.85191506  0.53990314  1
  Zr  Zr41  1  0.14571855  0.03956452  0.19651326  1
  Zr  Zr42  1  0.97859573  0.70174393  0.02028679  1
  Zr  Zr43  1  0.14010958  1.02325431  0.94602064  1
  Zr  Zr44  1  0.91590253  0.71102628  0.51692132  1
  Zr  Zr45  1  0.69562768  0.40714169  0.54421788  1
  Zr  Zr46  1  0.80089471  0.07683292  0.07045264  1
  Zr  Zr47  1  0.38221102  0.23398482  0.17621709  1
  Zr  Zr48  1  0.85354641  0.47629861  0.75133750  1
  Zr  Zr49  1  0.76213828  0.45661689  0.33595024  1
  Sc  Sc50  1  0.66080546  0.07262566  0.68179631  1
  Sc  Sc51  1  0.94106138  0.78909363  0.22312854  1
  Sc  Sc52  1  0.80493519  0.66448452  0.88732280  1
  Sc  Sc53  1  0.50107810  0.36663221  0.45410754  1
  Sc  Sc54  1  0.71530867  0.84742672  0.59008448  1
  Sc  Sc55  1  0.54580402  0.30960609  0.66228155  1
  Sc  Sc56  1  0.46234349  0.01445017  0.10039464  1
  Sc  Sc57  1  0.18417477  0.27193761  0.63725387  1
  Sc  Sc58  1  -0.00318844  0.36745251  0.24846876  1
  Sc  Sc59  1  0.79303348  0.66858714  0.31747785  1
  Sc  Sc60  1  0.29503634  0.33270465  0.36138839  1
  Sc  Sc61  1  0.21181644  0.12724097  0.40038460  1
  Sc  Sc62  1  0.08362233  0.35382158  0.46209468  1
  Sc  Sc63  1  0.31469916  0.49512602  0.94982340  1
  Sc  Sc64  1  0.26076256  0.67060749  0.28077576  1
  Sc  Sc65  1  0.43913441  0.67253409  0.03915144  1
  Sc  Sc66  1  0.29489609  0.45310448  0.17597128  1
  Sc  Sc67  1  0.65512895  0.51196543  0.74099042  1
  Sc  Sc68  1  0.37695149  0.33827329  0.78208442  1
  Sc  Sc69  1  0.52394673  0.91828412  0.73217678  1
  Sc  Sc70  1  0.36377640  0.23443578  0.53901805  1
  Sc  Sc71  1  0.86480306  0.10962165  0.70887904  1
  Sc  Sc72  1  0.75192971  0.44010007  0.95245907  1
  Sc  Sc73  1  0.91185283  0.90574420  0.63453133  1
  Sc  Sc74  1  0.98861478  0.65301831  0.75118245  1
  Sc  Sc75  1  0.87461679  0.51400242  0.15276733  1
  Sc  Sc76  1  0.06588949  0.44948560  0.70086001  1
  Sc  Sc77  1  0.74072348  0.89208833  0.22483239  1
  Sc  Sc78  1  0.76730674  0.69033826  0.09995395  1
  Sc  Sc79  1  0.22997740  0.04232078  0.59902755  1
  Sc  Sc80  1  0.11778955  0.42782410  0.06021681  1
  Sc  Sc81  1  0.93435505  0.07931315  0.90870772  1
  Sc  Sc82  1  0.99926882  0.15086919  0.12481605  1
  Sc  Sc83  1  0.68451571  0.30101868  0.12129951  1
  Sc  Sc84  1  0.89226924  0.30139223  0.04844728  1
  Sc  Sc85  1  0.73782904  0.89335713  0.80736765  1
  Sc  Sc86  1  0.17816190  0.72534129  0.70463651  1
  Sc  Sc87  1  0.69441553  0.03875812  0.38644305  1
  Sc  Sc88  1  0.08738601  0.58840684  0.54128450  1
  Sc  Sc89  1  0.64887508  0.52356186  0.15575223  1
  Sc  Sc90  1  0.29233033  0.90490160  0.78670300  1
  Sc  Sc91  1  0.29760044  0.88858729  0.02879456  1
  Sc  Sc92  1  0.66520541  0.26155173  0.35876119  1
  Sc  Sc93  1  0.93761877  0.84825944  0.84731968  1
  Sc  Sc94  1  0.59668249  0.84851634  0.06544152  1
  Sc  Sc95  1  -0.00446886  0.92808022  0.06421977  1
  Sc  Sc96  1  0.87845100  0.31817921  0.42768000  1
  Sc  Sc97  1  0.16531458  0.35874633  0.84829142  1
  Sc  Sc98  1  0.08902223  0.95877090  0.74259601  1
  Sc  Sc99  1  0.13081328  0.80187524  0.91800269  1
  Nb  Nb100  1  0.30809857  0.28748324  -0.01080660  1
  Nb  Nb101  1  0.06522660  0.16796500  0.76568994  1
  Nb  Nb102  1  0.39194434  0.01968276  0.44040413  1
  Nb  Nb103  1  0.44594705  0.59462368  0.21530491  1
  Nb  Nb104  1  0.74172648  0.20961424  0.55156820  1
  Nb  Nb105  1  0.27912316  0.11385741  1.05139376  1
  Nb  Nb106  1  0.30746600  0.69747582  0.87809947  1
  Nb  Nb107  1  0.05376658  0.95655842  0.37079561  1
  Nb  Nb108  1  0.65226752  0.80139663  0.39482148  1
  Nb  Nb109  1  0.07473337  0.72767173  0.37363170  1
  Nb  Nb110  1  0.52896614  0.93607158  0.28685979  1
  Nb  Nb111  1  0.10687428  0.22143744  0.97513236  1
  Nb  Nb112  1  0.33017945  1.01725516  0.24409642  1
  Nb  Nb113  1  0.96086360  0.54751961  0.36835339  1
  Nb  Nb114  1  0.53514686  0.17732377  0.81498789  1
  Nb  Nb115  1  0.80603883  0.69449454  0.69233019  1
  Nb  Nb116  1  0.16054877  0.50844598  0.34979099  1
  Nb  Nb117  1  0.56885700  0.37599666  0.87770792  1
  Nb  Nb118  1  0.27269394  0.52731666  0.74053378  1
  Nb  Nb119  1  0.02467502  0.16928664  0.33857376  1
  Nb  Nb120  1  0.46283715  0.55808536  0.82939581  1
  Nb  Nb121  1  0.55799431  0.15651920  0.51282444  1
  Nb  Nb122  1  0.58578642  0.72731976  0.21879677  1
  Nb  Nb123  1  0.91509986  1.00873377  0.25067283  1
  Nb  Nb124  1  0.38852694  0.81822997  0.19436886  1
