# generated using pymatgen
data_Zr2Sc2Nb
_symmetry_space_group_name_H-M   'P 1'
_cell_length_a   14.29273765
_cell_length_b   14.19539419
_cell_length_c   14.22856951
_cell_angle_alpha   91.09261015
_cell_angle_beta   91.49161888
_cell_angle_gamma   88.74951123
_symmetry_Int_Tables_number   1
_chemical_formula_structural   Zr2Sc2Nb
_chemical_formula_sum   'Zr50 Sc50 Nb25'
_cell_volume   2884.68945118
_cell_formula_units_Z   25
loop_
 _symmetry_equiv_pos_site_id
 _symmetry_equiv_pos_as_xyz
  1  'x, y, z'
loop_
 _atom_site_type_symbol
 _atom_site_label
 _atom_site_symmetry_multiplicity
 _atom_site_fract_x
 _atom_site_fract_y
 _atom_site_fract_z
 _atom_site_occupancy
  Zr  Zr0  1  0.05380776  0.67342448  0.47525124  1
  Zr  Zr1  1  0.49311472  0.63951763  0.48598261  1
  Zr  Zr2  1  0.64951423  0.92615053  0.71205205  1
  Zr  Zr3  1  0.72451853  0.11140519  0.41460964  1
  Zr  Zr4  1  0.65877073  0.52700098  0.54532967  1
  Zr  Zr5  1  0.57446261  0.07805102  0.83740153  1
  Zr  Zr6  1  0.10799284  0.53507258  0.06088645  1
  Zr  Zr7  1  0.82098769  0.92079400  0.32837212  1
  Zr  Zr8  1  0.48930788  0.27720390  0.65291300  1
  Zr  Zr9  1  0.77332838  0.59167875  0.18899773  1
  Zr  Zr10  1  0.91744122  0.46287359  0.08003091  1
  Zr  Zr11  1  0.07648578  0.29395694  0.57882210  1
  Zr  Zr12  1  0.71682122  0.71997081  0.03533444  1
  Zr  Zr13  1  0.73532001  0.55193458  0.72151428  1
  Zr  Zr14  1  0.87243174  0.21731761  0.54158125  1
  Zr  Zr15  1  0.12025630  0.13844850  0.25836231  1
  Zr  Zr16  1  0.25066609  0.28853296  0.95452282  1
  Zr  Zr17  1  0.42940808  0.27630940  0.37178693  1
  Zr  Zr18  1  0.23634241  -0.01432383  0.69688539  1
  Zr  Zr19  1  0.91229820  0.81444745  0.17082371  1
  Zr  Zr20  1  0.74377970  0.15483127  0.01351066  1
  Zr  Zr21  1  0.27556854  0.65807672  0.97280886  1
  Zr  Zr22  1  0.72874325  0.10738624  0.21020244  1
  Zr  Zr23  1  0.32013503  0.64945271  0.18513722  1
  Zr  Zr24  1  0.91480487  0.43358683  0.65269357  1
  Zr  Zr25  1  0.76788130  0.98678082  0.87724741  1
  Zr  Zr26  1  0.79718941  0.55640155  0.90977475  1
  Zr  Zr27  1  0.50702593  0.08491596  0.45805811  1
  Zr  Zr28  1  0.04868752  0.46387555  0.46459670  1
  Zr  Zr29  1  0.12650419  0.74842742  0.09572144  1
  Zr  Zr30  1  0.18022220  0.91556449  0.97348768  1
  Zr  Zr31  1  0.57377126  0.71861497  0.69219366  1
  Zr  Zr32  1  -0.00089090  0.27758014  0.37174094  1
  Zr  Zr33  1  1.01895374  0.88372866  0.37163682  1
  Zr  Zr34  1  0.44486525  0.07432729  0.67208349  1
  Zr  Zr35  1  0.37139328  0.85131682  -0.01511704  1
  Zr  Zr36  1  0.92308649  0.11934313  0.89911096  1
  Zr  Zr37  1  0.33542468  0.04905399  0.88712012  1
  Zr  Zr38  1  0.25623000  0.39199789  0.57958369  1
  Zr  Zr39  1  0.16114115  0.73326929  0.31115088  1
  Zr  Zr40  1  0.52897936  0.85439566  0.52449779  1
  Zr  Zr41  1  0.33342351  0.39839734  0.76798572  1
  Zr  Zr42  1  0.31197711  0.09344656  0.32672028  1
  Zr  Zr43  1  0.50421785  0.08818909  0.24445967  1
  Zr  Zr44  1  0.73585178  0.93269165  0.53328686  1
  Zr  Zr45  1  0.92555594  0.24374103  0.15427603  1
  Zr  Zr46  1  0.11792288  0.33448417  0.16120683  1
  Zr  Zr47  1  0.26761538  0.60824406  0.72925916  1
  Zr  Zr48  1  0.33997573  0.95043985  0.52367197  1
  Zr  Zr49  1  0.42279467  0.69385770  0.84182160  1
  Sc  Sc50  1  0.91190515  0.45906333  0.29363539  1
  Sc  Sc51  1  0.26078654  0.58669553  0.49600403  1
  Sc  Sc52  1  0.43402993  0.89230789  0.76002771  1
  Sc  Sc53  1  0.21650199  0.31602814  0.36784710  1
  Sc  Sc54  1  0.11614874  0.12729584  0.05414088  1
  Sc  Sc55  1  0.61994462  0.92844424  0.33643687  1
  Sc  Sc56  1  0.03267186  0.31457723  0.96019936  1
  Sc  Sc57  1  0.26867199  0.20195181  0.72125830  1
  Sc  Sc58  1  0.05968403  0.93194633  0.80155580  1
  Sc  Sc59  1  0.13133430  0.13522231  0.85385554  1
  Sc  Sc60  1  0.35688413  0.25271666  0.16400161  1
  Sc  Sc61  1  0.76268898  0.76124451  0.83164298  1
  Sc  Sc62  1  0.31561744  0.18387061  0.52349506  1
  Sc  Sc63  1  0.74330654  0.36584762  0.14652480  1
  Sc  Sc64  1  0.50382130  0.66684362  0.05890944  1
  Sc  Sc65  1  0.60740286  0.39602327  0.83118207  1
  Sc  Sc66  1  0.62932254  0.30025704  0.46834360  1
  Sc  Sc67  1  0.59155320  0.27414022  0.24797363  1
  Sc  Sc68  1  0.50743515  0.46151418  0.15996917  1
  Sc  Sc69  1  0.07209509  0.92055533  0.57826426  1
  Sc  Sc70  1  0.93312873  0.66746788  1.01859857  1
  Sc  Sc71  1  0.69145453  0.72221725  0.42087538  1
  Sc  Sc72  1  0.08544145  0.69348630  0.87284554  1
  Sc  Sc73  1  -0.01418244  0.49187778  0.85405659  1
  Sc  Sc74  1  0.43500148  0.48457375  0.93844739  1
  Sc  Sc75  1  0.86089176  0.59172594  0.51345632  1
  Sc  Sc76  1  0.72566422  0.93368850  0.08458187  1
  Sc  Sc77  1  0.16154461  0.51348732  0.28469394  1
  Sc  Sc78  1  0.72640481  0.33415049  0.65956876  1
  Sc  Sc79  1  0.45420316  0.43154350  0.51553628  1
  Sc  Sc80  1  0.11614795  0.09640627  0.46667037  1
  Sc  Sc81  1  0.91912012  0.03512238  0.11414871  1
  Sc  Sc82  1  0.38096027  0.50048971  0.32827109  1
  Sc  Sc83  1  0.44226672  0.23797345  0.86272642  1
  Sc  Sc84  1  0.80735247  0.34470390  0.93031232  1
  Sc  Sc85  1  0.57996154  0.85355994  0.91979969  1
  Sc  Sc86  1  0.88434839  0.88053147  0.70917031  1
  Sc  Sc87  1  0.31748590  0.03713167  0.11471800  1
  Sc  Sc88  1  0.10728133  0.94121246  0.18268297  1
  Sc  Sc89  1  0.29532049  0.45238462  0.09800640  1
  Sc  Sc90  1  0.03478254  0.11438230  0.67280400  1
  Sc  Sc91  1  0.48708736  0.52994385  0.69954673  1
  Sc  Sc92  1  0.57522050  0.28873029  0.02125937  1
  Sc  Sc93  1  0.64815110  0.12868312  0.62067059  1
  Sc  Sc94  1  0.64672483  0.48104751  0.33718821  1
  Sc  Sc95  1  0.94085499  0.87408767  0.96256217  1
  Sc  Sc96  1  0.52895022  0.06578783  0.03542565  1
  Sc  Sc97  1  0.51937166  0.87394694  0.14549521  1
  Sc  Sc98  1  0.51913049  0.69637067  0.27766329  1
  Sc  Sc99  1  0.09629116  0.52851857  0.66826090  1
  Nb  Nb100  1  0.79697055  0.27472744  0.32563790  1
  Nb  Nb101  1  0.74473551  0.73795034  0.61814831  1
  Nb  Nb102  1  0.11779845  0.33914520  0.76911148  1
  Nb  Nb103  1  0.72090197  0.19890703  0.81480125  1
  Nb  Nb104  1  0.99863203  0.62857542  0.22011056  1
  Nb  Nb105  1  0.60376252  0.61849623  0.87515382  1
  Nb  Nb106  1  0.24330227  0.80809986  0.78605307  1
  Nb  Nb107  1  0.21476681  0.79257969  0.54128567  1
  Nb  Nb108  1  0.92719962  0.09488206  0.32383202  1
  Nb  Nb109  1  0.91597370  0.65823406  0.71373977  1
  Nb  Nb110  1  0.70839840  0.77737346  0.22283322  1
  Nb  Nb111  1  0.37537067  0.74056572  0.62263101  1
  Nb  Nb112  1  0.83016472  0.08135350  0.69851616  1
  Nb  Nb113  1  0.90958344  0.01932377  0.50908735  1
  Nb  Nb114  1  0.88250755  0.70884293  0.34229697  1
  Nb  Nb115  1  0.41966404  0.91438916  0.33212845  1
  Nb  Nb116  1  0.34819638  0.75233818  0.39505619  1
  Nb  Nb117  1  0.21522366  0.92498472  0.36882725  1
  Nb  Nb118  1  0.82303446  0.39778562  0.47000596  1
  Nb  Nb119  1  0.08195256  0.74573415  0.67345671  1
  Nb  Nb120  1  0.92319103  0.26861868  0.76336947  1
  Nb  Nb121  1  0.65173612  0.50164729  0.02313742  1
  Nb  Nb122  1  0.30255115  0.84519289  0.18957304  1
  Nb  Nb123  1  0.90369505  0.80055345  0.52538961  1
  Nb  Nb124  1  0.19641111  0.48173424  0.88911831  1
