# generated using pymatgen
data_Zr2Sc2Nb
_symmetry_space_group_name_H-M   'P 1'
_cell_length_a   14.21593440
_cell_length_b   14.28369305
_cell_length_c   14.11825434
_cell_angle_alpha   89.70146728
_cell_angle_beta   90.93023029
_cell_angle_gamma   88.34617844
_symmetry_Int_Tables_number   1
_chemical_formula_structural   Zr2Sc2Nb
_chemical_formula_sum   'Zr50 Sc50 Nb25'
_cell_volume   2865.17876649
_cell_formula_units_Z   25
loop_
 _symmetry_equiv_pos_site_id
 _symmetry_equiv_pos_as_xyz
  1  'x, y, z'
loop_
 _atom_site_type_symbol
 _atom_site_label
 _atom_site_symmetry_multiplicity
 _atom_site_fract_x
 _atom_site_fract_y
 _atom_site_fract_z
 _atom_site_occupancy
  Zr  Zr0  1  0.03001327  0.25278054  0.27777739  1
  Zr  Zr1  1  0.75898591  0.58374091  0.09878120  1
  Zr  Zr2  1  0.85957288  0.30965085  0.82331128  1
  Zr  Zr3  1  0.50260579  0.43857501  0.33920521  1
  Zr  Zr4  1  0.07955379  0.14105835  0.53810941  1
  Zr  Zr5  1  0.28857151  0.19509595  0.23649859  1
  Zr  Zr6  1  0.13458753  0.53284933  0.10197096  1
  Zr  Zr7  1  0.34317403  0.63139617  0.04109855  1
  Zr  Zr8  1  0.89918621  0.00055669  0.60644251  1
  Zr  Zr9  1  0.31645888  0.59156793  0.42871452  1
  Zr  Zr10  1  0.81445500  0.16387269  0.96244296  1
  Zr  Zr11  1  0.59066223  0.31782825  0.50829825  1
  Zr  Zr12  1  0.93513202  0.58690780  0.50912261  1
  Zr  Zr13  1  0.08416812  0.83256268  0.29363711  1
  Zr  Zr14  1  0.12608403  0.06475707  0.29491054  1
  Zr  Zr15  1  0.90800504  0.44375464  0.65788666  1
  Zr  Zr16  1  0.97621961  0.05649595  0.11915976  1
  Zr  Zr17  1  0.02269597  0.79754611  0.57242990  1
  Zr  Zr18  1  0.09260165  -0.06880459  0.93168338  1
  Zr  Zr19  1  0.28465543  0.09450060  0.45513803  1
  Zr  Zr20  1  0.48095680  0.73530628  0.93117813  1
  Zr  Zr21  1  0.91123861  0.12187722  0.39697397  1
  Zr  Zr22  1  0.69710566  0.41270320  0.22802328  1
  Zr  Zr23  1  0.69904964  0.81056343  0.28212989  1
  Zr  Zr24  1  0.68405373  0.04435621  0.28431540  1
  Zr  Zr25  1  0.46614092  0.08145579  0.29847289  1
  Zr  Zr26  1  0.51145929  0.63121970  0.74003528  1
  Zr  Zr27  1  0.80075225  0.77560542  0.11598455  1
  Zr  Zr28  1  0.23865968  0.46725887  0.91648343  1
  Zr  Zr29  1  0.15869391  0.12343138  0.07485615  1
  Zr  Zr30  1  0.02949665  0.14888930  0.91201545  1
  Zr  Zr31  1  0.00650900  0.34232012  0.49943518  1
  Zr  Zr32  1  0.85260947  0.53333667  0.86354046  1
  Zr  Zr33  1  0.71390810  0.12547184  0.48607683  1
  Zr  Zr34  1  0.84837517  0.75090822  0.88806225  1
  Zr  Zr35  1  0.45563057  0.15013232  0.86641357  1
  Zr  Zr36  1  0.98415898  0.83186300  0.08735271  1
  Zr  Zr37  1  0.02425293  0.42164215  0.93052555  1
  Zr  Zr38  1  0.87348769  0.22238036  0.59852124  1
  Zr  Zr39  1  0.35392491  0.43538956  0.09878330  1
  Zr  Zr40  1  0.70099030  0.14167102  0.70034788  1
  Zr  Zr41  1  0.22632191  0.79035340  0.45481579  1
  Zr  Zr42  1  0.46944968  0.94212467  0.95296889  1
  Zr  Zr43  1  0.29137965  0.42667835  0.29399097  1
  Zr  Zr44  1  0.34959175  0.01680519  0.10613065  1
  Zr  Zr45  1  0.33426930  0.10576023  0.67944040  1
  Zr  Zr46  1  0.07966027  0.63673148  0.86823253  1
  Zr  Zr47  1  0.44808825  0.51112890  0.88851896  1
  Zr  Zr48  1  0.34407426  0.71931854  0.61313390  1
  Zr  Zr49  1  0.55550709  0.78219785  0.58163821  1
  Sc  Sc50  1  0.19710690  0.28348014  0.41578151  1
  Sc  Sc51  1  0.22923804  0.67750625  0.24445205  1
  Sc  Sc52  1  0.64348942  0.06902901  0.91849034  1
  Sc  Sc53  1  0.82672233  0.58584664  0.31400515  1
  Sc  Sc54  1  0.87585810  0.95898512  0.95164539  1
  Sc  Sc55  1  0.72051957  0.49350421  0.48435168  1
  Sc  Sc56  1  0.15280004  0.72720275  0.03657865  1
  Sc  Sc57  1  0.94952248  0.65775084  0.71252641  1
  Sc  Sc58  1  0.61844070  0.60834533  0.29535844  1
  Sc  Sc59  1  0.76544075  0.94720131  0.77724060  1
  Sc  Sc60  1  0.92477188  0.44739974  0.16598252  1
  Sc  Sc61  1  0.88595545  0.93852386  0.25870677  1
  Sc  Sc62  1  0.40576665  0.92056925  0.52907253  1
  Sc  Sc63  1  0.32031694  0.92414904  0.31102719  1
  Sc  Sc64  1  0.10313239  0.05050375  0.73684326  1
  Sc  Sc65  1  0.07266416  0.46927358  0.32324425  1
  Sc  Sc66  1  0.71508711  0.71605535  0.47189277  1
  Sc  Sc67  1  0.55977432  0.51106096  0.08031658  1
  Sc  Sc68  1  0.51252522  0.33129245  0.97509720  1
  Sc  Sc69  1  0.82588504  0.19290729  0.21100654  1
  Sc  Sc70  1  0.54834548  0.91773633  0.17082331  1
  Sc  Sc71  1  0.66642165  0.85896278  0.98152548  1
  Sc  Sc72  1  0.38321175  0.38955899  0.53611376  1
  Sc  Sc73  1  0.71662878  0.36429263  0.66822262  1
  Sc  Sc74  1  0.10623829  0.45941214  0.73232576  1
  Sc  Sc75  1  0.50768110  0.10385810  0.51819477  1
  Sc  Sc76  1  0.99340344  0.65837819  0.22343927  1
  Sc  Sc77  1  0.31711872  0.51142761  0.69338979  1
  Sc  Sc78  1  0.22392990  0.28322704  0.63660524  1
  Sc  Sc79  1  0.29206502  0.67070571  0.82765183  1
  Sc  Sc80  1  0.61815881  0.23931785  0.31479101  1
  Sc  Sc81  1  0.36465538  0.87605013  0.75753781  1
  Sc  Sc82  1  0.72427518  0.60212919  0.68728837  1
  Sc  Sc83  1  0.53006748  1.00277090  0.72539205  1
  Sc  Sc84  1  0.33785368  0.23015243  0.02150317  1
  Sc  Sc85  1  0.65886474  0.23230411  0.09285556  1
  Sc  Sc86  1  0.20127604  0.93697801  0.59799433  1
  Sc  Sc87  1  0.03363167  0.95301139  0.44468112  1
  Sc  Sc88  1  0.15999048  0.33266439  0.10911914  1
  Sc  Sc89  1  0.96221828  0.27136977  0.06493701  1
  Sc  Sc90  1  0.26910582  0.04648301  0.88789281  1
  Sc  Sc91  1  0.63652489  0.79636209  0.77427067  1
  Sc  Sc92  1  0.19536541  0.26162692  0.85746157  1
  Sc  Sc93  1  0.76923871  0.38940513  0.00690499  1
  Sc  Sc94  1  0.18257278  0.91286126  0.13412695  1
  Sc  Sc95  1  0.79573839  0.92319193  0.44488072  1
  Sc  Sc96  1  0.81585915  0.32269608  0.39602972  1
  Sc  Sc97  1  0.45918510  0.75474999  0.36003244  1
  Sc  Sc98  1  0.16468451  0.48010935  0.52379322  1
  Sc  Sc99  1  0.51513195  0.57292850  0.52110122  1
  Nb  Nb100  1  0.74357188  1.01387834  0.10438399  1
  Nb  Nb101  1  0.64989526  0.47017298  0.85075681  1
  Nb  Nb102  1  0.91035269  0.76457645  0.39532015  1
  Nb  Nb103  1  0.02806396  0.26192009  0.71935787  1
  Nb  Nb104  1  0.94912915  0.61929169  0.02402657  1
  Nb  Nb105  1  0.63920804  0.27324476  0.84094350  1
  Nb  Nb106  1  0.38150576  0.79814596  0.13635923  1
  Nb  Nb107  1  0.29149056  0.84459603  0.95602924  1
  Nb  Nb108  1  0.15557074  0.81490399  0.76676392  1
  Nb  Nb109  1  0.38388075  0.32903636  0.79371316  1
  Nb  Nb110  1  0.66806482  0.64445462  0.92698739  1
  Nb  Nb111  1  0.41367373  0.25586385  0.38857557  1
  Nb  Nb112  1  0.57071087  0.71573228  0.11853122  1
  Nb  Nb113  1  0.46767545  0.29628948  0.18952388  1
  Nb  Nb114  1  0.52685393  0.42985475  0.69769794  1
  Nb  Nb115  1  0.66808119  0.94492305  0.59108020  1
  Nb  Nb116  1  0.51655812  0.11298099  0.09201059  1
  Nb  Nb117  1  0.90065453  0.09872159  0.77735418  1
  Nb  Nb118  1  0.96935187  0.87545694  0.76612462  1
  Nb  Nb119  1  0.15446966  0.65674295  0.63738034  1
  Nb  Nb120  1  0.09487045  0.65640676  0.42131472  1
  Nb  Nb121  1  0.42085257  0.59438676  0.22623971  1
  Nb  Nb122  1  0.50970587  0.23538500  0.68015852  1
  Nb  Nb123  1  0.57895471  0.92280616  0.41102321  1
  Nb  Nb124  1  0.81520841  0.79934592  0.62882122  1
