# generated using pymatgen
data_Zr2Sc2Nb
_symmetry_space_group_name_H-M   'P 1'
_cell_length_a   14.24135007
_cell_length_b   14.22154919
_cell_length_c   14.12151611
_cell_angle_alpha   91.06853736
_cell_angle_beta   89.67317360
_cell_angle_gamma   88.33732896
_symmetry_Int_Tables_number   1
_chemical_formula_structural   Zr2Sc2Nb
_chemical_formula_sum   'Zr50 Sc50 Nb25'
_cell_volume   2858.33087382
_cell_formula_units_Z   25
loop_
 _symmetry_equiv_pos_site_id
 _symmetry_equiv_pos_as_xyz
  1  'x, y, z'
loop_
 _atom_site_type_symbol
 _atom_site_label
 _atom_site_symmetry_multiplicity
 _atom_site_fract_x
 _atom_site_fract_y
 _atom_site_fract_z
 _atom_site_occupancy
  Zr  Zr0  1  0.36074915  0.15144387  0.35595591  1
  Zr  Zr1  1  0.03808680  0.48789848  0.39334641  1
  Zr  Zr2  1  0.05901924  0.90180605  0.48462659  1
  Zr  Zr3  1  0.25444180  0.95692734  0.39672790  1
  Zr  Zr4  1  0.08193230  0.73475712  0.89842840  1
  Zr  Zr5  1  0.58163853  0.11391783  0.49058428  1
  Zr  Zr6  1  0.49416953  0.81449078  0.24385765  1
  Zr  Zr7  1  0.45391046  0.62407689  0.32428149  1
  Zr  Zr8  1  0.12490754  0.30635297  0.31854755  1
  Zr  Zr9  1  0.74119736  0.04404440  0.62230256  1
  Zr  Zr10  1  0.53767204  0.02415003  0.16322193  1
  Zr  Zr11  1  0.14191502  0.48637014  0.18884309  1
  Zr  Zr12  1  0.70397748  0.92903182  0.43813848  1
  Zr  Zr13  1  0.18051405  0.88558172  0.04249247  1
  Zr  Zr14  1  0.02443376  0.21543206  0.73858427  1
  Zr  Zr15  1  0.07413456  0.68701039  0.28670685  1
  Zr  Zr16  1  0.47378601  0.72434710  0.89622428  1
  Zr  Zr17  1  0.27239289  0.61184320  0.92683286  1
  Zr  Zr18  1  0.93143949  0.27838899  0.41153030  1
  Zr  Zr19  1  0.08266758  0.93420101  0.26219143  1
  Zr  Zr20  1  0.48926394  0.32595155  0.96335340  1
  Zr  Zr21  1  0.65803689  0.48287958  0.26363360  1
  Zr  Zr22  1  0.26906077  0.87858127  0.59992825  1
  Zr  Zr23  1  0.79817020  0.49514421  0.88309999  1
  Zr  Zr24  1  0.37930759  0.61635576  0.53046849  1
  Zr  Zr25  1  0.74422398  0.66787967  0.09895839  1
  Zr  Zr26  1  0.09175415  0.28032952  0.10700252  1
  Zr  Zr27  1  0.68184312  0.84482407  0.65703714  1
  Zr  Zr28  1  0.94604501  0.39612424  0.22760547  1
  Zr  Zr29  1  0.26080095  0.09232346  0.01924257  1
  Zr  Zr30  1  0.63601654  0.26419500  0.12427180  1
  Zr  Zr31  1  0.88170894  0.88001376  0.56806824  1
  Zr  Zr32  1  0.81910485  0.47718666  0.42831145  1
  Zr  Zr33  1  0.94088395  0.52056230  0.59737961  1
  Zr  Zr34  1  0.06592473  0.32807794  0.56586773  1
  Zr  Zr35  1  0.54315085  0.24144628  0.31022633  1
  Zr  Zr36  1  0.35149245  0.07674343  0.55593131  1
  Zr  Zr37  1  0.25560675  0.32826444  0.47489295  1
  Zr  Zr38  1  0.99110055  0.57196966  0.81291546  1
  Zr  Zr39  1  0.24666400  0.24092221  0.68577355  1
  Zr  Zr40  1  0.73007542  0.00292481  0.83086532  1
  Zr  Zr41  1  0.51740533  0.45898270  0.60021886  1
  Zr  Zr42  1  0.32920141  1.00843736  0.76106181  1
  Zr  Zr43  1  0.13350972  0.43312417  0.74135178  1
  Zr  Zr44  1  0.60766142  0.56842163  0.46167248  1
  Zr  Zr45  1  0.16446308  0.67720562  0.09226341  1
  Zr  Zr46  1  0.05803039  0.06453288  0.06606004  1
  Zr  Zr47  1  0.88959089  0.99327097  0.16240899  1
  Zr  Zr48  1  0.67137205  0.70499011  0.31316267  1
  Zr  Zr49  1  0.71527885  0.07224823  0.05173097  1
  Sc  Sc50  1  0.13808779  0.05606905  0.62964823  1
  Sc  Sc51  1  0.43198716  0.77300215  0.67374690  1
  Sc  Sc52  1  0.71462068  0.09840664  0.27637763  1
  Sc  Sc53  1  0.71222915  0.88688385  0.21584192  1
  Sc  Sc54  1  0.73453598  0.47526105  0.65069271  1
  Sc  Sc55  1  1.01178776  0.71439208  0.65158979  1
  Sc  Sc56  1  0.53940465  0.10110162  0.94876410  1
  Sc  Sc57  1  0.86896604  0.60972386  0.27391181  1
  Sc  Sc58  1  0.48094639  0.42519432  0.17666192  1
  Sc  Sc59  1  0.52682366  0.10527408  0.71595508  1
  Sc  Sc60  1  0.35792532  0.18635606  0.87047139  1
  Sc  Sc61  1  -0.02363691  0.15474027  0.25581008  1
  Sc  Sc62  1  0.71075773  0.27887230  0.92085223  1
  Sc  Sc63  1  0.94799966  0.33764248  0.93995715  1
  Sc  Sc64  1  0.33493184  0.95883703  0.18918718  1
  Sc  Sc65  1  0.86698435  0.70156540  0.93344527  1
  Sc  Sc66  1  0.21945841  0.65562277  0.71090803  1
  Sc  Sc67  1  0.44697722  0.26582118  0.52914955  1
  Sc  Sc68  1  0.97511717  0.79488614  0.11469559  1
  Sc  Sc69  1  0.41238289  0.56196463  0.76211473  1
  Sc  Sc70  1  0.20085168  0.12252803  0.22579425  1
  Sc  Sc71  1  0.58565188  0.84370979  0.03596931  1
  Sc  Sc72  1  0.48717647  0.97427058  0.37539556  1
  Sc  Sc73  1  0.28433112  0.82704612  0.85767379  1
  Sc  Sc74  1  0.52242078  0.91710783  0.81334162  1
  Sc  Sc75  1  0.82010995  0.19830670  0.75204586  1
  Sc  Sc76  1  0.59153439  0.45084223  0.81797643  1
  Sc  Sc77  1  0.12864281  0.05033677  0.85444694  1
  Sc  Sc78  1  0.15760491  0.26294102  0.90126132  1
  Sc  Sc79  1  0.11698487  0.47662626  0.96413408  1
  Sc  Sc80  1  0.60361795  0.64827212  0.69358172  1
  Sc  Sc81  1  0.80097823  0.43754023  0.09651449  1
  Sc  Sc82  1  0.85746545  0.22319036  0.10169626  1
  Sc  Sc83  1  0.29095670  0.37348564  0.04808185  1
  Sc  Sc84  1  0.53986470  0.63954042  0.12321405  1
  Sc  Sc85  1  0.64944917  0.26709769  0.65078238  1
  Sc  Sc86  1  0.44636446  0.31660054  0.73653715  1
  Sc  Sc87  1  0.96505468  0.57513906  0.07753528  1
  Sc  Sc88  1  0.11370960  0.12516907  0.43388723  1
  Sc  Sc89  1  0.18545185  0.72643283  0.47335152  1
  Sc  Sc90  1  0.79597834  0.88466011  0.00254725  1
  Sc  Sc91  1  0.31569949  0.34287539  0.25811706  1
  Sc  Sc92  1  0.89400921  0.82540214  0.33612413  1
  Sc  Sc93  1  0.25466257  0.53368297  0.36832110  1
  Sc  Sc94  1  0.90365671  0.10690258  0.92547411  1
  Sc  Sc95  1  0.77603385  0.69134172  0.51826098  1
  Sc  Sc96  1  0.27333425  0.76457556  0.26508159  1
  Sc  Sc97  1  0.65207260  0.35027889  0.45595933  1
  Sc  Sc98  1  0.41470210  0.19006155  0.12539873  1
  Sc  Sc99  1  0.09910058  0.87535342  0.73728372  1
  Nb  Nb100  1  0.30534972  0.40911060  0.84595597  1
  Nb  Nb101  1  0.80831704  0.65413738  0.73607292  1
  Nb  Nb102  1  0.64595245  0.62452095  0.92072147  1
  Nb  Nb103  1  0.93926821  0.11460977  0.56503982  1
  Nb  Nb104  1  0.62579465  0.46441928  1.03120256  1
  Nb  Nb105  1  0.84984608  0.31163787  0.58365013  1
  Nb  Nb106  1  0.44430200  0.43018121  0.40604044  1
  Nb  Nb107  1  0.32987619  0.57168154  0.14880674  1
  Nb  Nb108  1  0.30849578  0.44363974  0.62168290  1
  Nb  Nb109  1  0.91968713  0.39202571  0.74417262  1
  Nb  Nb110  1  0.44368080  0.52821140  0.97768996  1
  Nb  Nb111  1  0.76955579  0.30220926  0.28398853  1
  Nb  Nb112  1  0.50453490  0.93957795  0.58436747  1
  Nb  Nb113  1  0.14381126  0.53754745  0.55392506  1
  Nb  Nb114  1  -0.06303601  0.01347140  0.73447866  1
  Nb  Nb115  1  0.56462344  0.77041098  0.48149703  1
  Nb  Nb116  1  0.89715688  0.02633023  0.39384958  1
  Nb  Nb117  1  -0.01569516  0.91242725  0.93050205  1
  Nb  Nb118  1  0.97620003  0.67441246  0.45872207  1
  Nb  Nb119  1  0.87635086  0.83745329  0.77892724  1
  Nb  Nb120  1  0.39999477  0.94688980  -0.01144710  1
  Nb  Nb121  1  0.68899313  0.78803923  0.85022364  1
  Nb  Nb122  1  0.36561318  0.75916168  0.06786326  1
  Nb  Nb123  1  0.38648315  0.80765770  0.44530251  1
  Nb  Nb124  1  0.76935118  0.17131560  0.46300495  1
