# generated using pymatgen
data_Zr2Sc2Nb
_symmetry_space_group_name_H-M   'P 1'
_cell_length_a   13.90568675
_cell_length_b   14.77331248
_cell_length_c   13.92660376
_cell_angle_alpha   91.38880851
_cell_angle_beta   88.49989541
_cell_angle_gamma   89.62902257
_symmetry_Int_Tables_number   1
_chemical_formula_structural   Zr2Sc2Nb
_chemical_formula_sum   'Zr50 Sc50 Nb25'
_cell_volume   2859.09174923
_cell_formula_units_Z   25
loop_
 _symmetry_equiv_pos_site_id
 _symmetry_equiv_pos_as_xyz
  1  'x, y, z'
loop_
 _atom_site_type_symbol
 _atom_site_label
 _atom_site_symmetry_multiplicity
 _atom_site_fract_x
 _atom_site_fract_y
 _atom_site_fract_z
 _atom_site_occupancy
  Zr  Zr0  1  0.31283354  0.20764156  0.90732866  1
  Zr  Zr1  1  0.36290051  0.91231640  0.68584423  1
  Zr  Zr2  1  0.92924282  0.22946367  0.10030557  1
  Zr  Zr3  1  0.91771595  0.72811452  0.89868872  1
  Zr  Zr4  1  0.98893325  0.02705487  0.03716260  1
  Zr  Zr5  1  0.56580563  0.91876626  0.72380355  1
  Zr  Zr6  1  0.98971319  0.81593756  0.07529018  1
  Zr  Zr7  1  0.14731723  0.88102213  0.66998898  1
  Zr  Zr8  1  0.38417432  0.35419211  0.75673859  1
  Zr  Zr9  1  0.62568954  0.43802086  0.98465554  1
  Zr  Zr10  1  0.06130804  0.14339075  0.63400288  1
  Zr  Zr11  1  0.64483801  0.58902983  0.73565755  1
  Zr  Zr12  1  0.18908365  0.67401575  0.39439655  1
  Zr  Zr13  1  0.57324256  0.58371151  0.51662578  1
  Zr  Zr14  1  0.60744669  0.10604306  0.41169887  1
  Zr  Zr15  1  0.89807557  0.29872516  0.65356924  1
  Zr  Zr16  1  0.07713060  0.06330472  0.36542793  1
  Zr  Zr17  1  0.58115135  0.41332632  0.79336875  1
  Zr  Zr18  1  0.28428867  0.22007087  0.28693751  1
  Zr  Zr19  1  0.46271791  0.46914840  0.35940002  1
  Zr  Zr20  1  0.32191289  0.13339753  0.09839202  1
  Zr  Zr21  1  0.13208436  0.68090777  0.95602731  1
  Zr  Zr22  1  0.30896027  0.80014572  0.25250594  1
  Zr  Zr23  1  0.07783753  0.50006967  0.24385922  1
  Zr  Zr24  1  0.08960973  0.68254374  0.74779703  1
  Zr  Zr25  1  0.02476278  0.04101766  0.80972725  1
  Zr  Zr26  1  0.35504247  0.66851280  0.06755438  1
  Zr  Zr27  1  -0.00490997  0.96292140  0.54533969  1
  Zr  Zr28  1  0.43620780  0.52799905  0.67406526  1
  Zr  Zr29  1  0.20374435  0.00788741  -0.01898243  1
  Zr  Zr30  1  0.03457558  0.72461011  0.55293242  1
  Zr  Zr31  1  0.48066298  0.80744506  0.96078241  1
  Zr  Zr32  1  0.81095860  0.59413741  0.48758207  1
  Zr  Zr33  1  0.39098990  0.16972068  0.47914629  1
  Zr  Zr34  1  0.44294508  0.68112102  0.35923164  1
  Zr  Zr35  1  0.50145028  0.27848750  0.33648248  1
  Zr  Zr36  1  0.19942927  0.49708492  0.68896307  1
  Zr  Zr37  1  0.28208230  0.70612735  0.64277716  1
  Zr  Zr38  1  0.42265372  0.01114175  0.89110332  1
  Zr  Zr39  1  0.66349398  0.07765311  0.82952011  1
  Zr  Zr40  1  0.68254212  0.74708247  0.60976065  1
  Zr  Zr41  1  0.93774118  0.84319227  0.71434767  1
  Zr  Zr42  1  0.12867893  0.70392308  0.18688361  1
  Zr  Zr43  1  0.95261834  0.50038338  0.66574373  1
  Zr  Zr44  1  0.89362528  0.20429459  0.88299008  1
  Zr  Zr45  1  0.05196775  0.31809656  0.78332129  1
  Zr  Zr46  1  1.00608430  0.38169794  0.99678136  1
  Zr  Zr47  1  0.22328395  0.41352155  0.36627410  1
  Zr  Zr48  1  0.01008058  0.52727048  0.86290772  1
  Zr  Zr49  1  0.95414809  0.19904425  0.46258173  1
  Sc  Sc50  1  0.84880614  0.49747250  0.26849094  1
  Sc  Sc51  1  0.49927894  0.53994467  0.15008490  1
  Sc  Sc52  1  0.39616671  0.93460866  0.11152932  1
  Sc  Sc53  1  0.64911699  0.38790220  0.20176162  1
  Sc  Sc54  1  0.24112732  0.22941065  0.68383567  1
  Sc  Sc55  1  0.84955873  0.81450446  0.48571149  1
  Sc  Sc56  1  0.78025901  0.57141876  0.90059979  1
  Sc  Sc57  1  0.19361779  0.52122614  0.06388354  1
  Sc  Sc58  1  0.96895884  0.67840625  0.33876385  1
  Sc  Sc59  1  0.28814512  1.01122611  0.33229808  1
  Sc  Sc60  1  0.84896233  0.10015035  0.68087361  1
  Sc  Sc61  1  0.33851056  0.36238313  0.53340099  1
  Sc  Sc62  1  0.09542084  0.35487652  0.56022190  1
  Sc  Sc63  1  0.54948912  0.73992143  0.17263428  1
  Sc  Sc64  1  0.70581529  0.77467693  0.82013893  1
  Sc  Sc65  1  0.20810301  0.39801550  0.88861301  1
  Sc  Sc66  1  0.66847733  0.15739429  0.19920800  1
  Sc  Sc67  1  0.48036691  0.72664457  0.75228902  1
  Sc  Sc68  1  0.32351485  0.60149390  0.85372044  1
  Sc  Sc69  1  0.34572208  0.39650483  0.18282101  1
  Sc  Sc70  1  0.13718580  0.93323834  0.19167261  1
  Sc  Sc71  1  0.82079249  0.28554367  0.29440237  1
  Sc  Sc72  1  0.69835035  0.25346438  0.98013832  1
  Sc  Sc73  1  0.81478177  0.03634685  0.46774900  1
  Sc  Sc74  1  0.71562709  0.93687937  0.30525473  1
  Sc  Sc75  1  0.32290733  0.56377832  0.49682101  1
  Sc  Sc76  1  0.64924015  0.75229900  0.38961454  1
  Sc  Sc77  1  0.43852751  0.12783620  0.70651483  1
  Sc  Sc78  1  0.22527610  0.03149894  0.54896134  1
  Sc  Sc79  1  0.79455498  0.73112708  0.22292038  1
  Sc  Sc80  1  0.84688661  0.93225853  0.89064235  1
  Sc  Sc81  1  0.69751844  0.25205785  0.74194760  1
  Sc  Sc82  1  0.93966334  0.88785487  0.29092629  1
  Sc  Sc83  1  0.28132687  0.81695971  0.84633040  1
  Sc  Sc84  1  0.74139294  0.44006026  0.62638061  1
  Sc  Sc85  1  0.74409743  0.24026645  0.50871399  1
  Sc  Sc86  1  0.71332423  0.75513629  0.02607162  1
  Sc  Sc87  1  0.30261625  0.83941883  0.47451063  1
  Sc  Sc88  1  0.05601580  0.53029917  0.47119168  1
  Sc  Sc89  1  0.76887148  0.07681491  0.03046782  1
  Sc  Sc90  1  0.45478828  0.98874360  0.51600099  1
  Sc  Sc91  1  0.49226203  0.27387921  0.09482316  1
  Sc  Sc92  1  0.93926362  0.59088447  0.07917103  1
  Sc  Sc93  1  0.88753987  0.08130854  0.24377453  1
  Sc  Sc94  1  0.41015189  0.43918473  0.96262784  1
  Sc  Sc95  1  0.47435240  0.07935174  0.25022568  1
  Sc  Sc96  1  0.54271406  0.30066926  0.58508210  1
  Sc  Sc97  1  0.67695886  0.41415766  0.41835503  1
  Sc  Sc98  1  0.17100204  0.31118554  0.10907029  1
  Sc  Sc99  1  0.04890179  0.29424825  0.30086882  1
  Nb  Nb100  1  0.07985217  0.87108695  0.88567890  1
  Nb  Nb101  1  0.22663100  0.04717553  0.78256055  1
  Nb  Nb102  1  0.70983774  0.57312181  0.11070217  1
  Nb  Nb103  1  0.89674247  0.39997710  0.46141154  1
  Nb  Nb104  1  0.49602841  0.88872640  0.33467810  1
  Nb  Nb105  1  0.11383043  0.13037119  0.16527906  1
  Nb  Nb106  1  0.18455517  0.21008152  0.45908021  1
  Nb  Nb107  1  0.64206129  0.91814551  0.50901544  1
  Nb  Nb108  1  0.48517952  0.77856696  0.54403133  1
  Nb  Nb109  1  0.63442296  0.93051335  -0.05426694  1
  Nb  Nb110  1  0.54153858  0.09092035  1.02774814  1
  Nb  Nb111  1  0.60682287  0.93611334  0.13648288  1
  Nb  Nb112  1  0.63468892  0.08823736  0.61324048  1
  Nb  Nb113  1  0.81925362  0.40928556  0.05839228  1
  Nb  Nb114  1  0.11203721  0.85719748  0.39911840  1
  Nb  Nb115  1  0.76572921  0.92681107  0.66995281  1
  Nb  Nb116  1  0.10808006  0.18808478  0.94610086  1
  Nb  Nb117  1  0.29454326  0.57817343  0.25385748  1
  Nb  Nb118  1  0.82828504  0.39027252  0.84305926  1
  Nb  Nb119  1  0.81088538  0.91177208  0.10978947  1
  Nb  Nb120  1  0.55456093  0.61947261  0.94035502  1
  Nb  Nb121  1  0.64633588  0.57772432  0.30370912  1
  Nb  Nb122  1  0.51446677  0.23527941  0.87889582  1
  Nb  Nb123  1  0.23200309  0.82056332  0.04512417  1
  Nb  Nb124  1  0.85644491  0.66265751  0.69660135  1
