# generated using pymatgen
data_Zr2Sc2Nb
_symmetry_space_group_name_H-M   'P 1'
_cell_length_a   14.48889160
_cell_length_b   14.27027236
_cell_length_c   13.97834583
_cell_angle_alpha   89.95379018
_cell_angle_beta   91.50090957
_cell_angle_gamma   92.05616735
_symmetry_Int_Tables_number   1
_chemical_formula_structural   Zr2Sc2Nb
_chemical_formula_sum   'Zr50 Sc50 Nb25'
_cell_volume   2887.31692777
_cell_formula_units_Z   25
loop_
 _symmetry_equiv_pos_site_id
 _symmetry_equiv_pos_as_xyz
  1  'x, y, z'
loop_
 _atom_site_type_symbol
 _atom_site_label
 _atom_site_symmetry_multiplicity
 _atom_site_fract_x
 _atom_site_fract_y
 _atom_site_fract_z
 _atom_site_occupancy
  Zr  Zr0  1  0.04506211  0.18458106  0.53220919  1
  Zr  Zr1  1  0.02360102  0.35944631  0.10014802  1
  Zr  Zr2  1  0.07684534  0.95379308  0.71992411  1
  Zr  Zr3  1  1.01235411  0.80838007  0.86271835  1
  Zr  Zr4  1  0.66605943  0.19473080  0.14741165  1
  Zr  Zr5  1  0.98736507  0.60871782  0.80874537  1
  Zr  Zr6  1  0.41485750  0.78529816  0.65816246  1
  Zr  Zr7  1  0.79576060  0.28285814  0.80202364  1
  Zr  Zr8  1  0.10728569  0.50784151  0.68077454  1
  Zr  Zr9  1  0.24267675  0.65510922  0.28694984  1
  Zr  Zr10  1  0.08060786  0.75459245  0.23879562  1
  Zr  Zr11  1  0.39867670  0.99742450  0.23424938  1
  Zr  Zr12  1  0.61229871  0.86847558  0.32167809  1
  Zr  Zr13  1  0.82833693  0.68660159  0.68422916  1
  Zr  Zr14  1  0.31516055  0.70140142  0.48191519  1
  Zr  Zr15  1  0.31550982  0.92437047  1.00383643  1
  Zr  Zr16  1  0.75786532  0.40671079  0.51932595  1
  Zr  Zr17  1  0.05861596  0.49088848  0.28788589  1
  Zr  Zr18  1  0.32454195  0.22384091  0.28141920  1
  Zr  Zr19  1  0.68648111  0.29156769  0.36106872  1
  Zr  Zr20  1  0.86416117  0.29048601  0.24030501  1
  Zr  Zr21  1  0.50303125  0.48257028  0.83032818  1
  Zr  Zr22  1  0.88933083  0.73499780  0.15448334  1
  Zr  Zr23  1  0.25012804  0.88235351  0.37885571  1
  Zr  Zr24  1  0.51909555  0.26521380  0.51093798  1
  Zr  Zr25  1  0.11012074  0.38116954  0.51719517  1
  Zr  Zr26  1  0.93574580  0.64223608  0.34979026  1
  Zr  Zr27  1  0.10476696  0.13855618  0.78228782  1
  Zr  Zr28  1  0.83689938  0.81014868  0.96992203  1
  Zr  Zr29  1  0.39575780  0.28797743  0.86463206  1
  Zr  Zr30  1  0.25796567  0.43847714  0.34783662  1
  Zr  Zr31  1  0.94392209  0.54936038  0.53872679  1
  Zr  Zr32  1  0.71945271  0.21052183  0.59335588  1
  Zr  Zr33  1  0.23054174  0.34827189  0.14107631  1
  Zr  Zr34  1  0.85921195  0.46849405  0.72489428  1
  Zr  Zr35  1  0.22967643  0.86874581  0.58825803  1
  Zr  Zr36  1  0.65041674  0.03584964  0.47836114  1
  Zr  Zr37  1  0.47077510  0.88343639  0.85442727  1
  Zr  Zr38  1  0.60886176  0.00554721  0.16552769  1
  Zr  Zr39  1  0.88747362  0.88848902  0.69753081  1
  Zr  Zr40  1  0.81059215  0.94191851  0.14271127  1
  Zr  Zr41  1  0.67547883  0.39578404  0.16170858  1
  Zr  Zr42  1  0.37843378  0.50987108  0.19220415  1
  Zr  Zr43  1  0.29110929  0.47691042  0.77503633  1
  Zr  Zr44  1  0.52706722  0.08563106  0.81876310  1
  Zr  Zr45  1  0.88042903  0.12785887  0.11007718  1
  Zr  Zr46  1  0.12860154  1.00165830  0.95123663  1
  Zr  Zr47  1  0.91381048  0.87326970  0.32939815  1
  Zr  Zr48  1  0.59620979  0.68757108  0.70190794  1
  Zr  Zr49  1  0.70494638  0.44245535  0.92713228  1
  Sc  Sc50  1  0.64790729  0.93277432  0.96614420  1
  Sc  Sc51  1  0.66030447  0.49237063  0.70218806  1
  Sc  Sc52  1  0.10879734  0.27060426  0.31600273  1
  Sc  Sc53  1  0.70801503  0.83267148  0.79388910  1
  Sc  Sc54  1  0.61833405  0.53682107  0.31928336  1
  Sc  Sc55  1  0.55132578  0.47807839  0.51420834  1
  Sc  Sc56  1  0.33329892  0.69477380  0.07266644  1
  Sc  Sc57  1  0.18559595  0.05198832  0.28157155  1
  Sc  Sc58  1  0.02826487  0.33154956  0.76333744  1
  Sc  Sc59  1  0.72015871  0.60517188  0.11393925  1
  Sc  Sc60  1  0.19554406  0.26485083  0.93212593  1
  Sc  Sc61  1  0.15303571  0.56313108  0.10610437  1
  Sc  Sc62  1  0.73261455  0.11974651  0.94597197  1
  Sc  Sc63  1  0.96744061  0.22034016  0.93219471  1
  Sc  Sc64  1  0.29610598  0.27949278  0.49592161  1
  Sc  Sc65  1  0.54681680  0.71152216  0.47331871  1
  Sc  Sc66  1  0.44861450  0.28534374  0.10961053  1
  Sc  Sc67  1  0.05936730  0.95881374  0.48832554  1
  Sc  Sc68  1  0.74132065  0.61783598  0.49904375  1
  Sc  Sc69  1  0.32664107  0.46839747  -0.01556590  1
  Sc  Sc70  1  0.58351819  0.28398367  0.73602783  1
  Sc  Sc71  1  0.05392048  0.73770473  0.64698293  1
  Sc  Sc72  1  0.85885174  1.00304462  0.51111484  1
  Sc  Sc73  1  0.71641829  0.83336351  0.54322941  1
  Sc  Sc74  1  0.52958018  0.14021068  0.32700913  1
  Sc  Sc75  1  0.24636540  0.84933621  0.80753497  1
  Sc  Sc76  1  0.91852375  0.00567200  0.90134559  1
  Sc  Sc77  1  0.35720573  0.08278334  0.45845175  1
  Sc  Sc78  1  0.11151663  0.45666865  0.91956699  1
  Sc  Sc79  1  0.09084068  0.16124358  0.11312313  1
  Sc  Sc80  1  0.39798243  0.66757945  0.84401911  1
  Sc  Sc81  1  0.48030451  0.85337907  0.09344406  1
  Sc  Sc82  1  0.78711231  0.62461487  0.88764450  1
  Sc  Sc83  1  0.53169788  0.49909729  0.04501030  1
  Sc  Sc84  1  0.18610759  0.65063335  0.88211119  1
  Sc  Sc85  1  0.71776856  0.04059171  0.72522020  1
  Sc  Sc86  1  0.53229281  0.67234063  0.19763239  1
  Sc  Sc87  1  0.59197147  0.70355641  0.95004294  1
  Sc  Sc88  1  0.29308679  0.12203931  0.08208638  1
  Sc  Sc89  1  0.45631960  0.90916150  0.47121196  1
  Sc  Sc90  1  0.30766586  0.08327417  0.85027910  1
  Sc  Sc91  1  0.47936801  0.36810032  0.31839080  1
  Sc  Sc92  1  0.88525941  0.49677714  0.13861054  1
  Sc  Sc93  1  0.91077949  0.12628143  0.69249801  1
  Sc  Sc94  1  0.97506098  0.09652734  0.31848420  1
  Sc  Sc95  1  0.59077197  0.27204207  0.95704945  1
  Sc  Sc96  1  0.02658744  0.94386839  0.13820567  1
  Sc  Sc97  1  0.21285081  0.08924238  0.61055555  1
  Sc  Sc98  1  0.12998685  0.78612133  0.03296859  1
  Sc  Sc99  1  0.76488878  0.07323602  0.30708387  1
  Nb  Nb100  1  0.68204883  0.80148295  0.13339300  1
  Nb  Nb101  1  0.90971057  0.44123178  0.92743319  1
  Nb  Nb102  1  0.43506364  0.58505193  0.63563259  1
  Nb  Nb103  1  0.91571477  0.32393471  0.60036583  1
  Nb  Nb104  1  0.85035421  0.20348196  0.45206177  1
  Nb  Nb105  1  0.40687416  0.78117714  0.29497086  1
  Nb  Nb106  1  0.38448233  0.19121376  0.67726995  1
  Nb  Nb107  1  0.90367946  0.77641840  0.50321991  1
  Nb  Nb108  1  0.94100219  0.37447368  0.40628875  1
  Nb  Nb109  1  0.48571728  0.07681501  0.01924684  1
  Nb  Nb110  1  0.80687184  0.49047322  0.32823859  1
  Nb  Nb111  1  0.52749587  0.09579360  0.60544065  1
  Nb  Nb112  1  0.24343056  0.66064299  0.66821571  1
  Nb  Nb113  1  0.74919128  0.72144201  0.31538888  1
  Nb  Nb114  1  0.09545674  0.75951675  0.44209705  1
  Nb  Nb115  1  0.80897481  0.30625929  0.03313783  1
  Nb  Nb116  1  0.25432692  0.86489485  0.18094806  1
  Nb  Nb117  1  0.38115280  -0.01496073  0.67753005  1
  Nb  Nb118  1  -0.02083652  0.63156901  0.00694544  1
  Nb  Nb119  1  0.29276275  0.48718992  0.55278241  1
  Nb  Nb120  1  0.22398735  0.30047271  0.69608266  1
  Nb  Nb121  1  0.56698755  0.91200630  0.65971161  1
  Nb  Nb122  1  0.42379243  0.38403456  0.65810638  1
  Nb  Nb123  1  0.13638385  0.58301003  0.47118481  1
  Nb  Nb124  1  0.41728956  0.57115962  0.38471134  1
