# generated using pymatgen
data_Zr2Sc2Nb
_symmetry_space_group_name_H-M   'P 1'
_cell_length_a   15.09809789
_cell_length_b   13.54664190
_cell_length_c   14.01971070
_cell_angle_alpha   89.55202947
_cell_angle_beta   92.25009815
_cell_angle_gamma   90.82695242
_symmetry_Int_Tables_number   1
_chemical_formula_structural   Zr2Sc2Nb
_chemical_formula_sum   'Zr50 Sc50 Nb25'
_cell_volume   2864.84598724
_cell_formula_units_Z   25
loop_
 _symmetry_equiv_pos_site_id
 _symmetry_equiv_pos_as_xyz
  1  'x, y, z'
loop_
 _atom_site_type_symbol
 _atom_site_label
 _atom_site_symmetry_multiplicity
 _atom_site_fract_x
 _atom_site_fract_y
 _atom_site_fract_z
 _atom_site_occupancy
  Zr  Zr0  1  0.31769892  0.28427703  0.10281334  1
  Zr  Zr1  1  0.15051403  0.28426163  0.90323127  1
  Zr  Zr2  1  0.20503466  0.31324329  0.51674650  1
  Zr  Zr3  1  0.28941360  0.12291684  0.61892340  1
  Zr  Zr4  1  0.51074325  0.83281834  0.57175524  1
  Zr  Zr5  1  0.40823808  0.10876403  0.21784335  1
  Zr  Zr6  1  0.75586289  0.30274948  0.78519781  1
  Zr  Zr7  1  0.77949458  0.95237708  0.08667189  1
  Zr  Zr8  1  0.28777744  0.11374675  0.83486370  1
  Zr  Zr9  1  0.57956553  0.62802252  0.15067993  1
  Zr  Zr10  1  0.45820180  0.15723198  -0.01745769  1
  Zr  Zr11  1  0.86704547  0.39241836  0.16038903  1
  Zr  Zr12  1  0.66256528  0.05873159  0.25015850  1
  Zr  Zr13  1  0.87348388  0.67462378  0.62911377  1
  Zr  Zr14  1  0.11323279  0.17287959  0.10368563  1
  Zr  Zr15  1  0.03120999  0.82120955  0.59174953  1
  Zr  Zr16  1  0.22723045  0.75710650  0.52724623  1
  Zr  Zr17  1  0.47093841  1.03787719  0.54169500  1
  Zr  Zr18  1  0.00429449  0.26245033  0.26486855  1
  Zr  Zr19  1  0.11177947  0.45964138  0.34779698  1
  Zr  Zr20  1  0.80829499  0.92528200  0.30693689  1
  Zr  Zr21  1  0.74705818  0.17038686  0.43348782  1
  Zr  Zr22  1  0.93070083  0.55451629  0.29282296  1
  Zr  Zr23  1  0.95152709  0.27188473  0.79191880  1
  Zr  Zr24  1  0.22621582  0.51852749  0.78707160  1
  Zr  Zr25  1  0.27872409  0.06787093  0.04874768  1
  Zr  Zr26  1  0.71241726  0.51098211  0.84490670  1
  Zr  Zr27  1  0.10303670  0.62678896  0.18258794  1
  Zr  Zr28  1  0.94987248  0.05734718  0.79948358  1
  Zr  Zr29  1  0.88725005  0.46267504  0.71372868  1
  Zr  Zr30  1  0.78507243  0.68798589  0.21307277  1
  Zr  Zr31  1  0.99568817  0.04195374  0.58334979  1
  Zr  Zr32  1  0.04806896  0.61570426  0.70732352  1
  Zr  Zr33  1  0.73671753  0.29017469  1.01302385  1
  Zr  Zr34  1  0.92519258  0.58962558  0.07081443  1
  Zr  Zr35  1  0.14976575  0.96696850  0.72147977  1
  Zr  Zr36  1  0.54948785  0.62489721  0.67472879  1
  Zr  Zr37  1  0.19143976  0.74727436  0.74555135  1
  Zr  Zr38  1  0.43857293  0.28819249  0.51904146  1
  Zr  Zr39  1  0.99490415  1.01566919  0.21956405  1
  Zr  Zr40  1  0.03846312  0.47208213  0.88727167  1
  Zr  Zr41  1  0.49171651  0.80021888  0.79868224  1
  Zr  Zr42  1  0.46889649  0.77046926  0.04273069  1
  Zr  Zr43  1  0.16547783  0.83391886  0.30211929  1
  Zr  Zr44  1  0.40358751  0.93813940  -0.06218857  1
  Zr  Zr45  1  0.38740619  0.46392050  0.61194643  1
  Zr  Zr46  1  0.62219390  0.15559051  0.84071138  1
  Zr  Zr47  1  0.06866612  0.41521013  0.11256199  1
  Zr  Zr48  1  0.35926164  0.67259136  0.68109172  1
  Zr  Zr49  1  0.95323055  0.24397194  1.00110904  1
  Sc  Sc50  1  0.61261416  0.69096967  0.37139349  1
  Sc  Sc51  1  0.34408278  0.88523098  0.40096425  1
  Sc  Sc52  1  0.28334723  0.69406360  0.10283490  1
  Sc  Sc53  1  0.32141798  0.12541404  0.41521487  1
  Sc  Sc54  1  0.23230450  0.48674986  -0.00421374  1
  Sc  Sc55  1  0.22680343  0.86914384  0.92265578  1
  Sc  Sc56  1  0.69512724  0.48456925  0.27217712  1
  Sc  Sc57  1  0.61454625  0.19030445  0.60100958  1
  Sc  Sc58  1  0.63302315  0.83496020  0.18601590  1
  Sc  Sc59  1  0.76671963  0.55031382  0.45807478  1
  Sc  Sc60  1  -0.02810465  0.50062064  0.51816141  1
  Sc  Sc61  1  0.20229503  0.04079157  0.26243545  1
  Sc  Sc62  1  0.66740210  0.96831218  0.70413592  1
  Sc  Sc63  1  0.54248237  0.15468128  0.37498559  1
  Sc  Sc64  1  0.97012376  0.78517884  0.23818677  1
  Sc  Sc65  1  0.85715006  0.88280273  0.69358642  1
  Sc  Sc66  1  0.55939801  0.62486377  0.91604626  1
  Sc  Sc67  1  0.28169712  0.47369941  0.20832120  1
  Sc  Sc68  1  0.01757395  0.84916983  0.84256398  1
  Sc  Sc69  1  0.71284341  0.50573798  0.05913981  1
  Sc  Sc70  1  0.11506476  0.18270718  0.70142490  1
  Sc  Sc71  1  0.42387856  0.49501171  0.81922529  1
  Sc  Sc72  1  0.10195281  0.13786038  0.42629213  1
  Sc  Sc73  1  0.58432027  0.39276452  0.69364688  1
  Sc  Sc74  1  0.48300047  0.50838796  0.30157735  1
  Sc  Sc75  1  0.70212390  0.74610805  0.78018942  1
  Sc  Sc76  1  0.19232868  0.53588032  0.55979784  1
  Sc  Sc77  1  0.42380149  0.65301426  0.46885484  1
  Sc  Sc78  1  0.72887378  0.73416789  1.00439151  1
  Sc  Sc79  1  0.47535187  0.02658282  0.75696277  1
  Sc  Sc80  1  0.26743620  0.65003157  0.32962420  1
  Sc  Sc81  1  0.61883886  0.93668458  0.93458065  1
  Sc  Sc82  1  0.55622796  0.35416953  0.92682543  1
  Sc  Sc83  1  0.06586199  0.67951217  0.41892765  1
  Sc  Sc84  1  0.93357656  0.80894180  0.03569222  1
  Sc  Sc85  1  0.70177089  0.77528588  0.55671108  1
  Sc  Sc86  1  0.52127485  0.91991629  0.34007616  1
  Sc  Sc87  1  0.84305101  0.14788960  0.16287676  1
  Sc  Sc88  1  0.12245978  0.90344527  0.09219286  1
  Sc  Sc89  1  0.11486073  0.67244235  0.95143089  1
  Sc  Sc90  1  0.86850833  0.74447624  0.42331810  1
  Sc  Sc91  1  0.96110011  0.27043938  0.55085693  1
  Sc  Sc92  1  0.33262745  0.90165881  0.66346702  1
  Sc  Sc93  1  0.44382722  0.24331256  0.74180856  1
  Sc  Sc94  1  0.43016401  0.50315766  0.05115592  1
  Sc  Sc95  1  0.88489938  0.65739718  0.85626463  1
  Sc  Sc96  1  0.21305942  0.27713257  0.28891124  1
  Sc  Sc97  1  0.53803363  0.30215257  0.15712646  1
  Sc  Sc98  1  0.85176976  0.35633455  0.37943192  1
  Sc  Sc99  1  0.80957257  0.13057521  0.64494098  1
  Nb  Nb100  1  0.00974592  0.92086773  0.40503123  1
  Nb  Nb101  1  0.71106518  0.26794369  0.24095972  1
  Nb  Nb102  1  0.50448461  -0.02143544  0.11639395  1
  Nb  Nb103  1  0.57041180  0.49757010  0.50571466  1
  Nb  Nb104  1  0.90859247  0.11153056  0.38295593  1
  Nb  Nb105  1  0.87001908  0.42812271  0.94009971  1
  Nb  Nb106  1  0.33708988  0.89482737  0.17105896  1
  Nb  Nb107  1  0.34161187  0.68258385  0.89693181  1
  Nb  Nb108  1  0.26677711  0.32733993  0.71700620  1
  Nb  Nb109  1  0.40890048  0.30841261  0.31512982  1
  Nb  Nb110  1  0.43999619  0.73877326  0.24988514  1
  Nb  Nb111  1  0.65924866  0.98753089  0.48289888  1
  Nb  Nb112  1  0.08598525  0.39726312  0.68791486  1
  Nb  Nb113  1  0.75303767  0.36053216  0.56999427  1
  Nb  Nb114  1  0.81618809  0.90803819  0.88843229  1
  Nb  Nb115  1  0.11087619  0.06403096  0.91545111  1
  Nb  Nb116  1  0.95427101  0.02670443  1.00972913  1
  Nb  Nb117  1  0.72078376  0.55288058  0.65313010  1
  Nb  Nb118  1  0.61860344  0.34520023  0.40869241  1
  Nb  Nb119  1  0.34148852  0.32298176  0.90827440  1
  Nb  Nb120  1  0.79582525  0.11025057  0.91546819  1
  Nb  Nb121  1  0.32142475  0.44921336  0.41710676  1
  Nb  Nb122  1  0.83677902  0.95348937  0.50394981  1
  Nb  Nb123  1  0.18060264  -0.04174947  0.50270730  1
  Nb  Nb124  1  0.64049388  0.12391079  0.05916064  1
