# generated using pymatgen
data_Zr2Sc2Nb
_symmetry_space_group_name_H-M   'P 1'
_cell_length_a   14.16398288
_cell_length_b   14.51226785
_cell_length_c   13.92587362
_cell_angle_alpha   89.31480587
_cell_angle_beta   88.94055595
_cell_angle_gamma   89.47082018
_symmetry_Int_Tables_number   1
_chemical_formula_structural   Zr2Sc2Nb
_chemical_formula_sum   'Zr50 Sc50 Nb25'
_cell_volume   2861.67406626
_cell_formula_units_Z   25
loop_
 _symmetry_equiv_pos_site_id
 _symmetry_equiv_pos_as_xyz
  1  'x, y, z'
loop_
 _atom_site_type_symbol
 _atom_site_label
 _atom_site_symmetry_multiplicity
 _atom_site_fract_x
 _atom_site_fract_y
 _atom_site_fract_z
 _atom_site_occupancy
  Zr  Zr0  1  0.75780506  0.63859821  0.89262043  1
  Zr  Zr1  1  0.51395546  0.01748281  0.85646318  1
  Zr  Zr2  1  0.05982404  0.24480538  0.91955206  1
  Zr  Zr3  1  0.11971114  0.82936141  0.98611576  1
  Zr  Zr4  1  0.12040597  0.56194993  0.17986509  1
  Zr  Zr5  1  1.02327316  0.49666292  0.39605744  1
  Zr  Zr6  1  0.19746558  0.21201156  0.10861967  1
  Zr  Zr7  1  0.56307331  0.76533634  0.66989331  1
  Zr  Zr8  1  0.06937491  0.78771989  0.19053800  1
  Zr  Zr9  1  0.92826409  0.63662213  0.28067949  1
  Zr  Zr10  1  -0.01360782  0.15348996  0.13548550  1
  Zr  Zr11  1  0.72961013  0.05102843  0.54048227  1
  Zr  Zr12  1  0.95780232  0.63088179  0.76041309  1
  Zr  Zr13  1  0.24743040  0.93794016  0.81963353  1
  Zr  Zr14  1  0.18373367  0.62901567  0.70752336  1
  Zr  Zr15  1  0.74451579  0.92944370  0.33374628  1
  Zr  Zr16  1  0.86508811  0.60952477  0.53053069  1
  Zr  Zr17  1  0.79020597  0.49687282  0.36690992  1
  Zr  Zr18  1  0.33826625  0.30914207  0.50238385  1
  Zr  Zr19  1  0.50321568  0.62559620  0.88136794  1
  Zr  Zr20  1  0.13484964  0.92973624  0.39713692  1
  Zr  Zr21  1  0.40614217  0.28578630  0.06247776  1
  Zr  Zr22  1  0.15353136  0.81771293  0.57102714  1
  Zr  Zr23  1  0.09078940  0.34250061  0.24171384  1
  Zr  Zr24  1  0.49123784  0.98073832  0.65447791  1
  Zr  Zr25  1  0.88488404  0.13189156  0.93335651  1
  Zr  Zr26  1  0.48743363  0.51027078  0.08784511  1
  Zr  Zr27  1  0.64488322  0.62494199  0.52383603  1
  Zr  Zr28  1  0.08165925  0.62570914  -0.03207748  1
  Zr  Zr29  1  0.47926215  0.72242203  0.43901940  1
  Zr  Zr30  1  0.16308519  0.98445689  0.17946897  1
  Zr  Zr31  1  0.02036571  0.45812343  0.63739104  1
  Zr  Zr32  1  0.87804946  0.32181884  0.05628451  1
  Zr  Zr33  1  0.50265602  0.19355012  0.24157322  1
  Zr  Zr34  1  0.23246925  0.49012871  0.56618975  1
  Zr  Zr35  1  0.31007710  0.89278033  0.03608477  1
  Zr  Zr36  1  0.21446995  0.31619545  0.68632317  1
  Zr  Zr37  1  0.36932586  0.07038596  0.13564100  1
  Zr  Zr38  1  0.64855255  0.34621680  0.75962994  1
  Zr  Zr39  1  0.34632743  0.89225653  0.47226092  1
  Zr  Zr40  1  0.80984307  0.48687919  0.71432150  1
  Zr  Zr41  1  0.46151148  0.37937842  0.65963883  1
  Zr  Zr42  1  0.73474565  0.83773456  0.08670348  1
  Zr  Zr43  1  0.24515714  0.47145637  0.36042692  1
  Zr  Zr44  1  0.63829706  0.80271782  0.88762995  1
  Zr  Zr45  1  0.33837419  0.79249280  0.66877299  1
  Zr  Zr46  1  0.96315002  0.78835084  0.41623962  1
  Zr  Zr47  1  0.91804095  0.97247672  0.47621181  1
  Zr  Zr48  1  0.09323836  0.79231518  0.78156300  1
  Zr  Zr49  1  0.37171851  0.16696198  0.69382753  1
  Sc  Sc50  1  0.49842459  0.23579905  0.85617281  1
  Sc  Sc51  1  0.29276888  0.52920319  0.98557354  1
  Sc  Sc52  1  0.87740408  0.05577188  0.69869751  1
  Sc  Sc53  1  0.07991220  0.00936828  0.62329734  1
  Sc  Sc54  1  0.91356772  0.50299378  0.94918931  1
  Sc  Sc55  1  0.94395024  0.17815710  0.50409213  1
  Sc  Sc56  1  0.13557182  0.05451728  0.98417258  1
  Sc  Sc57  1  0.27898047  0.71103378  0.88618804  1
  Sc  Sc58  1  0.01506526  0.23937779  0.70091120  1
  Sc  Sc59  1  0.83116193  0.11699911  0.32678548  1
  Sc  Sc60  1  0.73396050  0.25635974  0.45568119  1
  Sc  Sc61  1  0.67824379  0.12025951  0.77232942  1
  Sc  Sc62  1  0.58221875  0.56012547  0.29087232  1
  Sc  Sc63  1  0.37067465  0.61597065  0.25973266  1
  Sc  Sc64  1  0.71747524  0.00542718  0.95262643  1
  Sc  Sc65  1  0.46885889  0.97082828  0.30307683  1
  Sc  Sc66  1  0.89052537  0.32058979  0.29966219  1
  Sc  Sc67  1  0.87571527  0.81265839  0.87848296  1
  Sc  Sc68  1  0.15442262  0.68473637  0.35315723  1
  Sc  Sc69  1  0.09870248  0.44770652  0.83099894  1
  Sc  Sc70  1  0.43354797  0.60366591  0.63968322  1
  Sc  Sc71  1  0.56972483  0.19156232  0.60069809  1
  Sc  Sc72  1  0.08619814  0.13952951  0.33211970  1
  Sc  Sc73  1  0.43837502  0.83335081  0.85270681  1
  Sc  Sc74  1  0.27564852  0.41844371  0.15445553  1
  Sc  Sc75  1  0.65788068  0.35205880  0.27871977  1
  Sc  Sc76  1  0.93115803  0.82269373  0.64679883  1
  Sc  Sc77  1  0.95474116  0.92685616  1.04574794  1
  Sc  Sc78  1  0.52057460  0.90937969  0.04867217  1
  Sc  Sc79  1  0.57281592  0.91072036  0.47648525  1
  Sc  Sc80  1  0.72854886  0.19733299  0.14861256  1
  Sc  Sc81  1  0.71078320  0.91221382  0.71828037  1
  Sc  Sc82  1  0.20983657  0.14345940  0.52368200  1
  Sc  Sc83  1  0.65666153  0.42466779  0.54598040  1
  Sc  Sc84  1  0.63450833  0.66361883  0.07246806  1
  Sc  Sc85  1  0.44525197  0.50004746  0.45415508  1
  Sc  Sc86  1  0.80439242  0.25601013  0.66154591  1
  Sc  Sc87  1  0.32522220  0.49022601  0.77921364  1
  Sc  Sc88  1  0.74970877  0.50204120  0.13720718  1
  Sc  Sc89  1  0.54039748  0.78407082  0.23182353  1
  Sc  Sc90  1  0.30699240  0.82874251  0.26311939  1
  Sc  Sc91  1  0.33530565  0.10845638  0.92678371  1
  Sc  Sc92  1  0.75743913  0.81058072  0.51926278  1
  Sc  Sc93  1  0.72646158  0.70883075  0.32031950  1
  Sc  Sc94  1  0.27031317  0.31335759  0.89929673  1
  Sc  Sc95  1  0.02061837  0.98549591  0.83258743  1
  Sc  Sc96  1  0.10438720  0.32306584  0.47765806  1
  Sc  Sc97  1  0.29975387  0.25087782  0.30277839  1
  Sc  Sc98  1  0.69327958  0.45283245  0.93214410  1
  Sc  Sc99  1  0.62898628  0.01664959  0.18292307  1
  Nb  Nb100  1  0.28607610  1.05219660  0.33608416  1
  Nb  Nb101  1  0.51647240  0.29623675  0.42786255  1
  Nb  Nb102  1  0.28964553  0.67034171  0.49577076  1
  Nb  Nb103  1  0.75589718  0.69838760  0.70306231  1
  Nb  Nb104  1  0.61190049  0.54761051  0.73532012  1
  Nb  Nb105  1  0.28964523  -0.00662776  0.63005598  1
  Nb  Nb106  1  0.48739074  0.42629393  0.89464608  1
  Nb  Nb107  1  0.88396878  0.38920983  0.51856941  1
  Nb  Nb108  1  0.55621528  0.13358095  0.02636383  1
  Nb  Nb109  1  0.42316911  0.10327819  0.47317533  1
  Nb  Nb110  1  0.44981071  0.39655913  0.26176738  1
  Nb  Nb111  1  0.89788694  0.68162155  0.07222658  1
  Nb  Nb112  1  0.18298547  0.12816316  0.77139867  1
  Nb  Nb113  1  0.61283636  0.10902074  0.38388752  1
  Nb  Nb114  1  0.06413684  0.64350743  0.54889834  1
  Nb  Nb115  1  0.94853862  0.48108774  0.16532344  1
  Nb  Nb116  1  0.97313675  0.97262771  0.26929392  1
  Nb  Nb117  1  0.70879334  0.24200741  0.93523088  1
  Nb  Nb118  1  0.82367254  0.02195896  0.14053448  1
  Nb  Nb119  1  0.87315234  0.82404656  0.22026386  1
  Nb  Nb120  1  0.09233597  0.40274018  0.03959989  1
  Nb  Nb121  1  0.42590668  0.71755852  0.05539498  1
  Nb  Nb122  1  0.59079028  0.33628207  0.07421128  1
  Nb  Nb123  1  0.87380358  0.33225455  0.84277388  1
  Nb  Nb124  1  0.24117368  0.69946088  0.10677805  1
