# generated using pymatgen
data_Zr2Sc2Nb
_symmetry_space_group_name_H-M   'P 1'
_cell_length_a   14.90331601
_cell_length_b   13.51712554
_cell_length_c   14.24413545
_cell_angle_alpha   92.34032114
_cell_angle_beta   91.85507877
_cell_angle_gamma   91.45280486
_symmetry_Int_Tables_number   1
_chemical_formula_structural   Zr2Sc2Nb
_chemical_formula_sum   'Zr50 Sc50 Nb25'
_cell_volume   2864.56244546
_cell_formula_units_Z   25
loop_
 _symmetry_equiv_pos_site_id
 _symmetry_equiv_pos_as_xyz
  1  'x, y, z'
loop_
 _atom_site_type_symbol
 _atom_site_label
 _atom_site_symmetry_multiplicity
 _atom_site_fract_x
 _atom_site_fract_y
 _atom_site_fract_z
 _atom_site_occupancy
  Zr  Zr0  1  0.63457717  0.49457395  0.19661847  1
  Zr  Zr1  1  0.63027460  0.53307247  0.74585040  1
  Zr  Zr2  1  0.01681519  0.74700023  0.87160919  1
  Zr  Zr3  1  0.48788141  0.54259825  0.92222470  1
  Zr  Zr4  1  0.64227134  0.81620454  0.35028545  1
  Zr  Zr5  1  0.31954083  0.42662726  0.85576071  1
  Zr  Zr6  1  0.29931494  0.28194526  0.27937566  1
  Zr  Zr7  1  0.58625616  0.70569835  0.53234185  1
  Zr  Zr8  1  0.53605264  0.48953801  0.49675012  1
  Zr  Zr9  1  0.12564673  0.10621001  0.86297050  1
  Zr  Zr10  1  0.61149453  0.73839839  0.90364391  1
  Zr  Zr11  1  0.51009243  0.71697584  0.70642195  1
  Zr  Zr12  1  0.61939786  0.15712506  0.94753547  1
  Zr  Zr13  1  0.27797572  0.74839444  0.42375873  1
  Zr  Zr14  1  0.51604536  0.24342986  0.21715547  1
  Zr  Zr15  1  0.93220551  0.31826474  0.06874482  1
  Zr  Zr16  1  0.38512316  0.08494770  0.36022592  1
  Zr  Zr17  1  0.61811717  0.92360039  0.79002152  1
  Zr  Zr18  1  0.92625836  0.31803480  0.65647542  1
  Zr  Zr19  1  0.55552087  0.36963989  0.03337886  1
  Zr  Zr20  1  0.11335132  0.92300617  0.96235432  1
  Zr  Zr21  1  0.90520788  0.84013582  0.31619698  1
  Zr  Zr22  1  0.36856693  0.28268936  0.66651795  1
  Zr  Zr23  1  0.22555347  0.14692543  0.07503358  1
  Zr  Zr24  1  0.44763743  0.11184168  0.56386256  1
  Zr  Zr25  1  0.80037519  0.12911462  0.61835140  1
  Zr  Zr26  1  0.13996440  0.32437690  0.97632868  1
  Zr  Zr27  1  0.16396037  0.57884172  0.50816880  1
  Zr  Zr28  1  0.43792816  0.08518181  0.79890876  1
  Zr  Zr29  1  0.45520724  0.86999011  0.45568066  1
  Zr  Zr30  1  0.41634791  0.84833877  0.83707473  1
  Zr  Zr31  1  0.89653508  0.28675390  0.28390229  1
  Zr  Zr32  1  0.56937839  0.03607072  0.34827831  1
  Zr  Zr33  1  1.02475308  0.10547522  0.06734481  1
  Zr  Zr34  1  0.00154060  0.12206167  0.67320111  1
  Zr  Zr35  1  0.48447669  0.87548200  0.21554893  1
  Zr  Zr36  1  0.91749834  0.87631481  0.07002690  1
  Zr  Zr37  1  0.22606117  0.48012960  0.17960080  1
  Zr  Zr38  1  0.96378654  0.40997062  0.46654583  1
  Zr  Zr39  1  0.74578214  0.91526200  0.20658072  1
  Zr  Zr40  1  0.17699337  0.08391175  0.27818388  1
  Zr  Zr41  1  0.52301207  0.32030845  0.82514480  1
  Zr  Zr42  1  0.80835948  0.77505743  0.86869184  1
  Zr  Zr43  1  0.82854721  0.49978646  0.13794830  1
  Zr  Zr44  1  0.10082144  0.29175733  0.18197299  1
  Zr  Zr45  1  0.47422838  0.66770036  0.33273997  1
  Zr  Zr46  1  0.61442116  0.07360522  0.14441198  1
  Zr  Zr47  1  0.13934744  0.55122412  0.86939525  1
  Zr  Zr48  1  0.39374955  0.06434422  0.15885242  1
  Zr  Zr49  1  0.14638135  0.69902988  0.72112417  1
  Sc  Sc50  1  0.92544670  0.97812191  0.88752752  1
  Sc  Sc51  1  0.78694634  0.75476372  0.49237558  1
  Sc  Sc52  1  0.51198436  0.95620743  -0.00335325  1
  Sc  Sc53  1  0.34822491  0.35372613  0.06522438  1
  Sc  Sc54  1  0.31063413  0.01076314  0.93879564  1
  Sc  Sc55  1  0.28288176  0.87739788  0.08689237  1
  Sc  Sc56  1  0.69433249  0.55052662  0.96910379  1
  Sc  Sc57  1  0.95638799  0.64572396  0.42586249  1
  Sc  Sc58  1  0.95414151  0.05432905  0.27938370  1
  Sc  Sc59  1  0.30229496  0.22100813  0.87144091  1
  Sc  Sc60  1  0.00169467  0.47594088  0.26671342  1
  Sc  Sc61  1  0.77245616  -0.00934785  0.42949015  1
  Sc  Sc62  1  0.75148523  0.52327784  0.55725680  1
  Sc  Sc63  1  0.94179795  0.93062590  0.52218163  1
  Sc  Sc64  1  0.71845764  0.29580074  0.15536995  1
  Sc  Sc65  1  0.33799630  0.63750021  0.80494135  1
  Sc  Sc66  1  0.90894304  0.61504529  0.97811025  1
  Sc  Sc67  1  0.59914270  0.70194710  0.14776980  1
  Sc  Sc68  1  0.13109276  0.65919677  0.29685698  1
  Sc  Sc69  1  0.96284058  0.42392962  0.86631751  1
  Sc  Sc70  1  0.72091123  0.93445433  0.98696520  1
  Sc  Sc71  1  0.74107238  0.16176980  0.31651152  1
  Sc  Sc72  1  0.11036444  0.80673727  0.54821113  1
  Sc  Sc73  1  0.02873577  0.51577533  0.66535125  1
  Sc  Sc74  1  0.46224489  0.43649672  0.29827360  1
  Sc  Sc75  1  0.60509954  0.13807248  0.70646525  1
  Sc  Sc76  1  0.82029159  0.11417518  0.07808425  1
  Sc  Sc77  1  0.27310881  0.96469760  0.51702129  1
  Sc  Sc78  1  0.12518553  0.31122633  0.56240404  1
  Sc  Sc79  1  0.94887681  0.20906310  0.87133860  1
  Sc  Sc80  1  0.30931302  0.69538217  0.19613254  1
  Sc  Sc81  1  0.81841194  0.92113652  0.69394401  1
  Sc  Sc82  1  0.83394260  0.55768081  0.76958064  1
  Sc  Sc83  1  0.22833558  0.11769118  0.67164941  1
  Sc  Sc84  1  0.92727749  0.72650205  0.65999565  1
  Sc  Sc85  1  0.33341294  0.39961655  0.49758454  1
  Sc  Sc86  1  0.76252112  0.33681578  0.94181079  1
  Sc  Sc87  1  0.42646057  0.73728096  0.01876563  1
  Sc  Sc88  1  0.05920736  0.50478643  0.06392770  1
  Sc  Sc89  1  0.73764810  0.33348883  0.72229390  1
  Sc  Sc90  1  0.05190214  0.91704945  0.72952803  1
  Sc  Sc91  1  0.31138264  0.76698651  0.63542158  1
  Sc  Sc92  1  0.28645851  0.90206852  0.29367351  1
  Sc  Sc93  1  0.96487814  0.68998652  0.17826275  1
  Sc  Sc94  1  0.09237260  0.89016573  0.17653345  1
  Sc  Sc95  1  0.13178710  0.32330230  0.76606059  1
  Sc  Sc96  1  0.09472180  0.06546503  0.48563582  1
  Sc  Sc97  1  0.44450721  0.48692451  0.68974381  1
  Sc  Sc98  1  0.63017813  0.93841845  0.57419640  1
  Sc  Sc99  1  0.77089767  0.10739427  0.83368774  1
  Nb  Nb100  1  0.78233375  0.67410956  0.27013426  1
  Nb  Nb101  1  0.44280056  0.93231049  0.65886062  1
  Nb  Nb102  1  0.65527552  0.58974071  0.37317146  1
  Nb  Nb103  1  0.44923420  0.17718188  0.00777958  1
  Nb  Nb104  1  0.38422411  0.61403171  0.53286957  1
  Nb  Nb105  1  0.47514153  0.26374254  0.43052911  1
  Nb  Nb106  1  0.77618715  0.73250233  1.07970853  1
  Nb  Nb107  1  0.13204289  0.70583789  0.05582893  1
  Nb  Nb108  1  0.71099717  0.72730254  0.69712706  1
  Nb  Nb109  1  0.09610455  0.87701188  0.36976248  1
  Nb  Nb110  1  0.28118384  0.57683838  0.00771035  1
  Nb  Nb111  1  0.57454406  0.32787174  0.60081206  1
  Nb  Nb112  1  0.23103966  0.77287140  0.90337965  1
  Nb  Nb113  1  0.63903425  0.16507701  0.49820672  1
  Nb  Nb114  1  0.77918302  0.31002554  0.49727099  1
  Nb  Nb115  1  0.26226355  0.19848274  0.46396806  1
  Nb  Nb116  1  0.07367616  0.23773572  0.36631029  1
  Nb  Nb117  1  0.30898926  0.54581717  0.35136908  1
  Nb  Nb118  1  0.64297532  0.35267612  0.37364302  1
  Nb  Nb119  1  0.24209062  0.49527230  0.66814814  1
  Nb  Nb120  1  0.91875127  0.17418052  0.46985621  1
  Nb  Nb121  1  0.43784497  0.54647830  0.12975650  1
  Nb  Nb122  1  0.24713042  0.92228315  0.75842968  1
  Nb  Nb123  1  0.16404600  0.40911380  0.37461123  1
  Nb  Nb124  1  0.80158067  0.46744161  0.34431801  1
