# generated using pymatgen
data_Zr2Sc2Nb
_symmetry_space_group_name_H-M   'P 1'
_cell_length_a   14.59572609
_cell_length_b   13.93033760
_cell_length_c   14.13420494
_cell_angle_alpha   90.21082887
_cell_angle_beta   88.49460199
_cell_angle_gamma   90.36493323
_symmetry_Int_Tables_number   1
_chemical_formula_structural   Zr2Sc2Nb
_chemical_formula_sum   'Zr50 Sc50 Nb25'
_cell_volume   2872.74660227
_cell_formula_units_Z   25
loop_
 _symmetry_equiv_pos_site_id
 _symmetry_equiv_pos_as_xyz
  1  'x, y, z'
loop_
 _atom_site_type_symbol
 _atom_site_label
 _atom_site_symmetry_multiplicity
 _atom_site_fract_x
 _atom_site_fract_y
 _atom_site_fract_z
 _atom_site_occupancy
  Zr  Zr0  1  0.28925693  0.07431080  0.72999673  1
  Zr  Zr1  1  0.73814651  0.43909108  0.03056407  1
  Zr  Zr2  1  0.95229911  0.36798475  0.70462237  1
  Zr  Zr3  1  0.17270531  0.05533845  0.54954856  1
  Zr  Zr4  1  0.64596644  0.46447782  0.23549234  1
  Zr  Zr5  1  1.00659954  0.37707345  0.47244858  1
  Zr  Zr6  1  0.26905885  0.46539597  0.17737051  1
  Zr  Zr7  1  0.22388262  0.86176012  0.64338167  1
  Zr  Zr8  1  0.53670228  0.88629242  0.34722098  1
  Zr  Zr9  1  0.32284778  0.66104869  0.31034012  1
  Zr  Zr10  1  0.64094834  0.80342482  0.74418024  1
  Zr  Zr11  1  0.63028771  0.28158318  0.50374678  1
  Zr  Zr12  1  0.22827836  0.66157567  0.74164612  1
  Zr  Zr13  1  0.80014445  0.32278231  0.85723109  1
  Zr  Zr14  1  0.05079685  0.57654061  0.79064300  1
  Zr  Zr15  1  0.40807808  0.60856191  0.09845333  1
  Zr  Zr16  1  0.58839872  0.77117031  0.05356994  1
  Zr  Zr17  1  0.18383569  0.52708731  -0.01280230  1
  Zr  Zr18  1  0.00255586  0.93966555  0.37133715  1
  Zr  Zr19  1  0.90716321  0.55272647  0.60394788  1
  Zr  Zr20  1  0.44868155  0.48035260  0.30808520  1
  Zr  Zr21  1  0.87694733  0.94002914  0.81847120  1
  Zr  Zr22  1  0.93564690  0.04488370  0.54404009  1
  Zr  Zr23  1  0.04032924  0.38206130  0.90256018  1
  Zr  Zr24  1  0.82141009  0.84835960  0.03870357  1
  Zr  Zr25  1  0.85458721  0.95533773  0.22699488  1
  Zr  Zr26  1  0.17464550  0.08307030  0.93366943  1
  Zr  Zr27  1  0.77196819  0.12309287  0.92131556  1
  Zr  Zr28  1  0.87227150  0.48625570  0.22173355  1
  Zr  Zr29  1  0.33497179  0.88148429  0.39548373  1
  Zr  Zr30  1  0.79808713  0.90529127  0.61952388  1
  Zr  Zr31  1  0.92914656  0.04251235  1.02950644  1
  Zr  Zr32  1  0.54548408  0.08087205  0.44221996  1
  Zr  Zr33  1  0.45718646  0.85835329  0.92992115  1
  Zr  Zr34  1  0.85611237  0.51927649  0.82868622  1
  Zr  Zr35  1  0.84843733  0.25558048  0.51748197  1
  Zr  Zr36  1  0.59407245  0.89712155  0.56235797  1
  Zr  Zr37  1  0.98134242  0.16843059  0.86297212  1
  Zr  Zr38  1  0.68582280  0.84188486  0.21862893  1
  Zr  Zr39  1  0.91388054  0.78033983  0.47974989  1
  Zr  Zr40  1  0.71779281  0.70634291  0.54569575  1
  Zr  Zr41  1  0.65757308  0.23060386  0.10386516  1
  Zr  Zr42  1  0.05540010  0.92043437  0.93053806  1
  Zr  Zr43  1  0.10741446  0.71523974  0.34447698  1
  Zr  Zr44  1  0.46730145  0.38645042  0.11522065  1
  Zr  Zr45  1  0.21238386  0.07394199  0.35071671  1
  Zr  Zr46  1  0.58269141  0.55026753  0.02964077  1
  Zr  Zr47  1  0.21916575  0.68900332  0.13909440  1
  Zr  Zr48  1  0.57853100  0.49778748  0.46746621  1
  Zr  Zr49  1  0.07176313  0.21864753  1.05720115  1
  Sc  Sc50  1  0.41551063  0.77193126  0.70959078  1
  Sc  Sc51  1  0.94938807  0.29556575  0.27495987  1
  Sc  Sc52  1  0.53680549  0.25854424  0.29777680  1
  Sc  Sc53  1  0.48412515  0.97855702  0.76181396  1
  Sc  Sc54  1  0.56949388  0.10282940  0.92338864  1
  Sc  Sc55  1  0.89497001  0.74427901  0.25899955  1
  Sc  Sc56  1  0.19690194  0.89109750  0.24635933  1
  Sc  Sc57  1  0.73814053  0.41267092  0.64733121  1
  Sc  Sc58  1  0.57273676  0.32143400  0.93681516  1
  Sc  Sc59  1  0.65947226  0.06832342  0.27116749  1
  Sc  Sc60  1  0.89063606  0.30965901  0.05295779  1
  Sc  Sc61  1  0.78443926  0.45694246  0.43653940  1
  Sc  Sc62  1  0.48186950  0.70483162  0.47222797  1
  Sc  Sc63  1  0.26153114  0.10327648  0.13865086  1
  Sc  Sc64  1  0.65234057  0.22991761  0.73932927  1
  Sc  Sc65  1  0.36581957  0.51632534  0.60915466  1
  Sc  Sc66  1  0.54689481  0.60415764  0.66217437  1
  Sc  Sc67  1  0.03789943  0.07901719  0.21524290  1
  Sc  Sc68  1  0.17244137  0.24534045  0.80574938  1
  Sc  Sc69  1  0.37021226  0.05641446  0.94801371  1
  Sc  Sc70  1  0.72404799  0.65556620  0.34993212  1
  Sc  Sc71  1  0.27748350  0.46161671  0.42322192  1
  Sc  Sc72  1  0.76071406  0.64192724  0.12611399  1
  Sc  Sc73  1  0.52232840  0.98803688  0.10882843  1
  Sc  Sc74  1  0.27053665  0.30310744  0.01209689  1
  Sc  Sc75  1  0.94346733  0.72443580  0.93148002  1
  Sc  Sc76  1  0.42651861  0.48491138  0.88842724  1
  Sc  Sc77  1  0.88925580  0.73514185  0.71737457  1
  Sc  Sc78  1  0.40104645  0.82843023  0.17819725  1
  Sc  Sc79  1  0.33284025  0.69067946  0.92183838  1
  Sc  Sc80  1  0.93933522  0.53475180  0.01530870  1
  Sc  Sc81  1  0.39485275  0.96473371  0.56617775  1
  Sc  Sc82  1  0.24340515  0.44726354  0.79342355  1
  Sc  Sc83  1  0.06213623  0.21539418  0.62668306  1
  Sc  Sc84  1  0.34297419  0.27187267  0.28313919  1
  Sc  Sc85  1  0.14961348  0.27602923  0.25738221  1
  Sc  Sc86  1  0.40157884  0.24371988  0.83475436  1
  Sc  Sc87  1  0.51489884  0.38541082  0.68228363  1
  Sc  Sc88  1  0.13757832  0.47564237  0.60123257  1
  Sc  Sc89  1  0.26140700  0.68306118  0.51332092  1
  Sc  Sc90  1  0.24784349  0.88843360  0.03568105  1
  Sc  Sc91  1  0.94880986  0.58527330  0.39724399  1
  Sc  Sc92  1  0.11139040  0.49015007  0.31460849  1
  Sc  Sc93  1  0.54254516  0.66956473  0.25253418  1
  Sc  Sc94  1  0.03368171  0.83774062  0.12845234  1
  Sc  Sc95  1  0.30244437  0.28849192  0.63395307  1
  Sc  Sc96  1  0.49064618  0.16021521  0.63329462  1
  Sc  Sc97  1  0.85029617  0.14484479  0.70897092  1
  Sc  Sc98  1  0.73538276  0.68359233  0.91300517  1
  Sc  Sc99  1  0.74408187  0.28435759  0.30979158  1
  Nb  Nb100  1  0.35801972  0.14844303  0.46345181  1
  Nb  Nb101  1  0.06871998  0.41688948  0.12181443  1
  Nb  Nb102  1  1.01589343  0.88856527  0.62119928  1
  Nb  Nb103  1  0.75019972  0.91258994  0.41449018  1
  Nb  Nb104  1  0.19759139  0.27295287  0.46151394  1
  Nb  Nb105  1  0.03456481  0.16818650  0.41557877  1
  Nb  Nb106  1  0.84542046  0.10370692  0.37038898  1
  Nb  Nb107  1  0.71583716  0.08767141  0.54420335  1
  Nb  Nb108  1  0.64212405  0.48362257  0.83172256  1
  Nb  Nb109  1  0.04260534  0.61932024  0.15866448  1
  Nb  Nb110  1  0.08563638  0.02298079  0.74712157  1
  Nb  Nb111  1  0.14574747  0.86540335  0.46560557  1
  Nb  Nb112  1  0.68112994  1.02097186  0.73890089  1
  Nb  Nb113  1  0.66468868  0.90992503  0.91172478  1
  Nb  Nb114  1  0.54099452  0.67031810  0.86359445  1
  Nb  Nb115  1  0.43459774  0.33325248  0.47762732  1
  Nb  Nb116  1  0.25595076  0.88590345  0.83563866  1
  Nb  Nb117  1  0.07759874  0.79703047  0.77588732  1
  Nb  Nb118  1  0.45191399  0.19035766  0.09729451  1
  Nb  Nb119  1  0.72638838  0.61273331  0.71748329  1
  Nb  Nb120  1  0.13438104  0.71966551  0.95376160  1
  Nb  Nb121  1  0.06931574  0.69143920  0.58474073  1
  Nb  Nb122  1  0.41686154  0.05895126  0.27972655  1
  Nb  Nb123  1  0.83466160  0.15015973  0.16633461  1
  Nb  Nb124  1  0.71538652  0.01224725  0.07557408  1
