# generated using pymatgen
data_Zr2Sc2Nb
_symmetry_space_group_name_H-M   'P 1'
_cell_length_a   13.81501315
_cell_length_b   14.21179533
_cell_length_c   14.60013991
_cell_angle_alpha   91.53557834
_cell_angle_beta   87.73824171
_cell_angle_gamma   90.36428708
_symmetry_Int_Tables_number   1
_chemical_formula_structural   Zr2Sc2Nb
_chemical_formula_sum   'Zr50 Sc50 Nb25'
_cell_volume   2863.23300443
_cell_formula_units_Z   25
loop_
 _symmetry_equiv_pos_site_id
 _symmetry_equiv_pos_as_xyz
  1  'x, y, z'
loop_
 _atom_site_type_symbol
 _atom_site_label
 _atom_site_symmetry_multiplicity
 _atom_site_fract_x
 _atom_site_fract_y
 _atom_site_fract_z
 _atom_site_occupancy
  Zr  Zr0  1  0.18225531  0.17604024  0.83449303  1
  Zr  Zr1  1  0.83959284  0.79248189  0.37872029  1
  Zr  Zr2  1  0.51167482  0.69933179  0.56022974  1
  Zr  Zr3  1  0.70427572  0.83108583  0.53443247  1
  Zr  Zr4  1  0.15363550  0.03870896  0.66663685  1
  Zr  Zr5  1  0.91358571  0.46620673  0.16323636  1
  Zr  Zr6  1  0.57302779  0.14816483  0.59556856  1
  Zr  Zr7  1  0.25975637  0.18402707  0.14827200  1
  Zr  Zr8  1  0.18333946  0.39459909  0.12243193  1
  Zr  Zr9  1  0.60827780  0.18187521  0.36112782  1
  Zr  Zr10  1  0.50672579  0.09540416  0.97429586  1
  Zr  Zr11  1  0.12570402  0.47300202  0.31950188  1
  Zr  Zr12  1  0.69083978  0.00155038  0.41319737  1
  Zr  Zr13  1  0.10919160  0.67595169  0.63822428  1
  Zr  Zr14  1  0.85512165  0.40453988  0.58247036  1
  Zr  Zr15  1  0.25309231  0.18971987  0.50998274  1
  Zr  Zr16  1  0.69242359  0.09492425  0.82209669  1
  Zr  Zr17  1  0.03046567  0.73164191  0.46447042  1
  Zr  Zr18  1  0.74191678  0.03120854  0.62846176  1
  Zr  Zr19  1  0.02995712  0.29622714  0.49686102  1
  Zr  Zr20  1  0.89897682  -0.03475896  0.49110909  1
  Zr  Zr21  1  0.16888755  0.88720073  0.15817828  1
  Zr  Zr22  1  0.47879445  0.79804887  0.13630046  1
  Zr  Zr23  1  0.07756232  0.45918622  0.67320741  1
  Zr  Zr24  1  0.39916594  0.44640519  0.86634376  1
  Zr  Zr25  1  0.49719867  1.00732885  0.27672920  1
  Zr  Zr26  1  0.43892858  0.30144343  0.50590172  1
  Zr  Zr27  1  0.42452400  0.05553490  0.46819216  1
  Zr  Zr28  1  0.35550402  0.99706000  0.11205383  1
  Zr  Zr29  1  0.02614862  0.51841753  0.49779776  1
  Zr  Zr30  1  0.88680160  0.95188130  0.24950450  1
  Zr  Zr31  1  0.73435982  0.25503467  0.68608897  1
  Zr  Zr32  1  0.60459508  0.50795584  0.90713554  1
  Zr  Zr33  1  0.31722335  0.33433110  0.69529549  1
  Zr  Zr34  1  0.07024974  0.09059914  0.46628380  1
  Zr  Zr35  1  0.83259874  0.97294679  0.92209365  1
  Zr  Zr36  1  0.33690770  0.83909731  0.28274114  1
  Zr  Zr37  1  0.25529380  0.55213296  -0.01259092  1
  Zr  Zr38  1  0.66360822  0.84482159  0.25804424  1
  Zr  Zr39  1  0.70051822  0.47351625  0.10136567  1
  Zr  Zr40  1  0.71856147  0.47108137  0.73511920  1
  Zr  Zr41  1  0.05817674  1.00618950  0.87145369  1
  Zr  Zr42  1  0.17409049  0.39346749  0.85486122  1
  Zr  Zr43  1  0.10301973  0.59923971  0.14197704  1
  Zr  Zr44  1  0.64539554  0.68878115  0.05902063  1
  Zr  Zr45  1  0.03025829  0.46710408  0.99071117  1
  Zr  Zr46  1  0.32542159  0.90787308  0.73883397  1
  Zr  Zr47  1  0.47153309  0.67591509  0.94381532  1
  Zr  Zr48  1  0.26471635  0.03929932  0.32915436  1
  Zr  Zr49  1  0.71634443  0.88215894  0.75356825  1
  Sc  Sc50  1  0.82400373  0.61492322  0.51201240  1
  Sc  Sc51  1  0.54484881  0.62420740  0.24338970  1
  Sc  Sc52  1  0.70984094  0.31054863  0.88431401  1
  Sc  Sc53  1  0.51340339  0.92231934  0.60714690  1
  Sc  Sc54  1  0.46815659  0.51297538  0.07352442  1
  Sc  Sc55  1  0.33487263  0.43426747  0.36115662  1
  Sc  Sc56  1  0.93517758  0.79131594  0.86537130  1
  Sc  Sc57  1  0.48823026  0.58673849  0.73849622  1
  Sc  Sc58  1  0.07728423  0.07381187  0.22544756  1
  Sc  Sc59  1  0.91378228  0.36845682  0.35187228  1
  Sc  Sc60  1  0.52533773  0.50119608  0.41084586  1
  Sc  Sc61  1  0.49389013  0.22574183  0.81408226  1
  Sc  Sc62  1  0.71560788  0.13757405  0.02982754  1
  Sc  Sc63  1  0.90057598  0.66420528  0.03705730  1
  Sc  Sc64  1  0.78662128  0.86195518  0.08376020  1
  Sc  Sc65  1  0.82416636  0.50745840  0.92384993  1
  Sc  Sc66  1  0.56158769  0.36894346  0.24693586  1
  Sc  Sc67  1  0.76151622  0.27327657  0.20373364  1
  Sc  Sc68  1  0.53482233  0.37789469  0.67885127  1
  Sc  Sc69  1  0.32228849  0.27121724  0.97173821  1
  Sc  Sc70  1  0.08577877  0.60650372  0.84264875  1
  Sc  Sc71  1  0.68907624  0.68047177  0.67896381  1
  Sc  Sc72  1  0.93025706  0.35666850  0.79578580  1
  Sc  Sc73  1  0.32112668  0.57801261  0.21157153  1
  Sc  Sc74  1  0.98678454  0.77010338  0.20290427  1
  Sc  Sc75  1  0.17934524  0.70099326  0.31346673  1
  Sc  Sc76  1  0.66338778  0.34026910  0.49091500  1
  Sc  Sc77  1  0.42476644  0.88064765  0.94482229  1
  Sc  Sc78  1  0.36309600  0.11663435  0.68066149  1
  Sc  Sc79  1  0.12270939  0.83213479  0.76375571  1
  Sc  Sc80  1  0.89681895  0.14977046  0.31453655  1
  Sc  Sc81  1  0.50840327  0.84511202  0.40808049  1
  Sc  Sc82  1  0.54380800  0.31625779  0.02464373  1
  Sc  Sc83  1  0.77364912  0.65861259  0.21630815  1
  Sc  Sc84  1  0.39154580  0.21579764  0.32125770  1
  Sc  Sc85  1  0.29056136  0.70952274  0.84473236  1
  Sc  Sc86  1  0.21574289  0.89434683  0.95064391  1
  Sc  Sc87  1  0.87018949  0.31134791  1.02442122  1
  Sc  Sc88  1  0.27262000  0.84966636  0.49705804  1
  Sc  Sc89  1  0.08697255  0.90379706  0.36100452  1
  Sc  Sc90  1  0.73527151  0.48848113  0.34136281  1
  Sc  Sc91  1  0.94545708  0.59578797  0.32188642  1
  Sc  Sc92  1  0.90019687  0.58908613  0.72516733  1
  Sc  Sc93  1  0.81043190  0.18759596  0.49370166  1
  Sc  Sc94  1  0.72144391  0.70149615  0.87335140  1
  Sc  Sc95  1  0.93979372  0.14820167  0.65209567  1
  Sc  Sc96  1  0.89538696  0.78553774  0.63653708  1
  Sc  Sc97  1  0.16783567  0.26533802  0.32808465  1
  Sc  Sc98  1  0.11826495  0.25719898  0.67015296  1
  Sc  Sc99  1  0.91793185  0.16188406  0.87035091  1
  Nb  Nb100  1  0.52311104  0.16874471  0.16388196  1
  Nb  Nb101  1  0.37401455  0.34967017  0.16757971  1
  Nb  Nb102  1  0.58983117  0.96618814  0.09960650  1
  Nb  Nb103  1  0.93139793  0.96474755  0.72435689  1
  Nb  Nb104  1  0.22923921  0.59923386  0.49096780  1
  Nb  Nb105  1  0.07067130  0.89475086  0.57530732  1
  Nb  Nb106  1  0.10293185  0.73579936  0.00031300  1
  Nb  Nb107  1  0.14477739  0.07675511  0.03154633  1
  Nb  Nb108  1  0.71760140  0.06003812  0.21518173  1
  Nb  Nb109  1  0.26531466  0.53786617  0.71110211  1
  Nb  Nb110  1  0.92311894  0.10328344  0.08583928  1
  Nb  Nb111  1  0.39586592  0.51143904  0.56612284  1
  Nb  Nb112  1  0.63529119  0.52628007  0.56362799  1
  Nb  Nb113  1  0.99926241  0.91701377  0.05005546  1
  Nb  Nb114  1  0.51154406  0.79209100  0.77005127  1
  Nb  Nb115  1  1.01668604  0.27245185  0.17531926  1
  Nb  Nb116  1  0.64976893  0.67863886  0.40767733  1
  Nb  Nb117  1  0.62769286  0.88975292  0.93315678  1
  Nb  Nb118  1  0.21767714  0.40055883  0.52783248  1
  Nb  Nb119  1  0.51689879  0.00215829  0.78844359  1
  Nb  Nb120  1  0.29028506  0.73694966  0.07918364  1
  Nb  Nb121  1  0.39031530  0.66494144  0.40518348  1
  Nb  Nb122  1  0.07993096  0.25151894  0.99704783  1
  Nb  Nb123  1  0.32396795  0.06237103  0.89264470  1
  Nb  Nb124  1  0.32791106  0.71446621  0.63868224  1
