# generated using pymatgen
data_Zr2Sc2Nb
_symmetry_space_group_name_H-M   'P 1'
_cell_length_a   14.66445214
_cell_length_b   13.74592628
_cell_length_c   14.24643488
_cell_angle_alpha   90.53957978
_cell_angle_beta   87.99602406
_cell_angle_gamma   84.92667589
_symmetry_Int_Tables_number   1
_chemical_formula_structural   Zr2Sc2Nb
_chemical_formula_sum   'Zr50 Sc50 Nb25'
_cell_volume   2858.52045494
_cell_formula_units_Z   25
loop_
 _symmetry_equiv_pos_site_id
 _symmetry_equiv_pos_as_xyz
  1  'x, y, z'
loop_
 _atom_site_type_symbol
 _atom_site_label
 _atom_site_symmetry_multiplicity
 _atom_site_fract_x
 _atom_site_fract_y
 _atom_site_fract_z
 _atom_site_occupancy
  Zr  Zr0  1  0.96348049  0.38847389  0.89766221  1
  Zr  Zr1  1  0.54258573  0.30586460  0.14275756  1
  Zr  Zr2  1  0.18855227  0.88973267  0.19158977  1
  Zr  Zr3  1  0.12589965  0.22019839  0.53315664  1
  Zr  Zr4  1  0.80879104  0.90948363  0.15424361  1
  Zr  Zr5  1  0.73261725  0.78367890  0.31877207  1
  Zr  Zr6  1  0.00374293  0.87332899  0.57807981  1
  Zr  Zr7  1  0.33048379  0.14014207  0.47397706  1
  Zr  Zr8  1  0.71023024  0.88648606  0.74041547  1
  Zr  Zr9  1  0.04247794  0.23160175  0.99647335  1
  Zr  Zr10  1  0.35795164  0.29288983  0.08661008  1
  Zr  Zr11  1  0.74170130  0.69097158  0.89465199  1
  Zr  Zr12  1  0.53829640  0.12402163  0.44589863  1
  Zr  Zr13  1  0.55834292  0.80688632  0.62539462  1
  Zr  Zr14  1  0.68441407  0.11667694  0.10750642  1
  Zr  Zr15  1  0.44257656  0.33199597  0.53075318  1
  Zr  Zr16  1  0.32514932  0.89600643  0.53316746  1
  Zr  Zr17  1  0.26037606  0.36108323  0.44992966  1
  Zr  Zr18  1  0.10802771  0.47610382  0.77187693  1
  Zr  Zr19  1  0.81576428  0.18076429  0.66281908  1
  Zr  Zr20  1  0.75271349  0.52500877  0.46716713  1
  Zr  Zr21  1  0.11857837  0.07677814  0.10449870  1
  Zr  Zr22  1  0.63754903  0.50924902  0.84576471  1
  Zr  Zr23  1  0.27702980  0.20783501  0.27488842  1
  Zr  Zr24  1  0.16652018  0.91102957  0.69197096  1
  Zr  Zr25  1  0.12735246  0.69756424  0.07926800  1
  Zr  Zr26  1  0.86065103  0.84712924  0.93356283  1
  Zr  Zr27  1  0.91345290  0.54808478  0.59309120  1
  Zr  Zr28  1  0.26070259  0.71135039  0.71969812  1
  Zr  Zr29  1  -0.04307835  0.77145862  0.24390701  1
  Zr  Zr30  1  0.50068727  0.89402525  0.38229635  1
  Zr  Zr31  1  0.40309913  0.87163693  0.18080717  1
  Zr  Zr32  1  0.91807196  0.66400239  0.07047297  1
  Zr  Zr33  1  0.96385773  0.09257681  0.42939317  1
  Zr  Zr34  1  0.32473706  0.69689225  0.13002390  1
  Zr  Zr35  1  0.96806123  0.20969504  0.20948697  1
  Zr  Zr36  1  0.95559829  0.49872564  0.39581934  1
  Zr  Zr37  1  0.93524649  0.40816800  0.14489973  1
  Zr  Zr38  1  0.42648541  0.27555752  0.87156337  1
  Zr  Zr39  1  0.10993246  0.23741808  0.76743633  1
  Zr  Zr40  1  0.37715297  0.87640661  0.75833023  1
  Zr  Zr41  1  0.68246136  0.63289887  0.66902654  1
  Zr  Zr42  1  0.02369261  0.87674782  0.04792649  1
  Zr  Zr43  1  0.05221072  0.55432894  0.22859410  1
  Zr  Zr44  1  0.62094677  0.25544516  0.75411692  1
  Zr  Zr45  1  0.47826529  0.09381514  0.24093674  1
  Zr  Zr46  1  0.55822235  0.76339127  0.83938244  1
  Zr  Zr47  1  0.05667349  0.81360762  0.83209279  1
  Zr  Zr48  1  0.43713025  0.89996691  -0.02616170  1
  Zr  Zr49  1  0.98902588  0.70606641  0.44020763  1
  Sc  Sc50  1  0.91780909  0.31214959  0.51297395  1
  Sc  Sc51  1  0.59186368  0.90058301  0.15981848  1
  Sc  Sc52  1  0.46643670  0.47864124  0.96025302  1
  Sc  Sc53  1  0.09402458  1.03202266  0.87674473  1
  Sc  Sc54  1  0.43809483  0.31872624  0.32109781  1
  Sc  Sc55  1  0.84684018  0.53002849  0.78393305  1
  Sc  Sc56  1  0.65399160  0.90618417  0.96302844  1
  Sc  Sc57  1  0.07778354  0.65732887  0.65674251  1
  Sc  Sc58  1  0.23059837  0.86883250  0.96037047  1
  Sc  Sc59  1  0.27405261  0.50764362  0.03773013  1
  Sc  Sc60  1  0.25487544  0.47621185  0.25968650  1
  Sc  Sc61  1  0.88080846  0.75256877  0.72031157  1
  Sc  Sc62  1  0.80305005  0.49346976  0.99991549  1
  Sc  Sc63  1  0.81529412  0.32863265  0.34465721  1
  Sc  Sc64  1  0.30234279  0.51903076  0.60497631  1
  Sc  Sc65  1  0.46686060  0.62031828  0.73014820  1
  Sc  Sc66  1  0.33623378  0.74568725  0.34938446  1
  Sc  Sc67  1  0.08231481  0.32581040  0.34787634  1
  Sc  Sc68  1  0.90325159  0.05658033  0.03031928  1
  Sc  Sc69  1  0.92348950  0.16978512  0.83966472  1
  Sc  Sc70  1  0.14991520  0.32438403  0.14071054  1
  Sc  Sc71  1  0.01251546  0.08988487  0.64802079  1
  Sc  Sc72  1  0.73439642  0.09481440  0.87265617  1
  Sc  Sc73  1  0.47074103  0.99862941  0.59379481  1
  Sc  Sc74  1  0.80046305  0.55872412  0.24827237  1
  Sc  Sc75  1  0.07816996  0.49727845  1.00982927  1
  Sc  Sc76  1  0.59708528  0.68311228  0.44747779  1
  Sc  Sc77  1  0.16810593  0.56858514  0.44413520  1
  Sc  Sc78  1  0.48146980  0.41047077  0.72201002  1
  Sc  Sc79  1  0.79302651  0.75106564  0.52667826  1
  Sc  Sc80  1  0.76013573  0.12151723  0.45280175  1
  Sc  Sc81  1  0.60692507  0.45350392  0.32852888  1
  Sc  Sc82  1  0.08588153  0.88969342  0.37534452  1
  Sc  Sc83  1  0.21955315  0.32602358  0.91767924  1
  Sc  Sc84  1  0.40232309  0.69184205  0.54161843  1
  Sc  Sc85  1  0.26877195  0.09097424  0.67317588  1
  Sc  Sc86  1  0.63320168  0.30489166  0.96379661  1
  Sc  Sc87  1  0.71634894  0.71709126  0.10578521  1
  Sc  Sc88  1  0.36642909  0.68839554  0.91577545  1
  Sc  Sc89  1  0.27474483  0.32225412  0.68391281  1
  Sc  Sc90  1  0.64564941  0.07748132  0.63589413  1
  Sc  Sc91  1  0.50252825  0.11468130  0.01134891  1
  Sc  Sc92  1  0.53628075  0.68812402  0.24830835  1
  Sc  Sc93  1  0.31629902  0.06256213  0.10781675  1
  Sc  Sc94  1  0.74026031  0.41156840  0.65045265  1
  Sc  Sc95  1  0.52401238  0.02517979  0.80863626  1
  Sc  Sc96  1  0.62469594  0.51719793  0.09456199  1
  Sc  Sc97  1  0.43957351  0.51177696  0.18661396  1
  Sc  Sc98  1  0.31145528  0.09244314  0.88255258  1
  Sc  Sc99  1  0.64520875  0.30398780  0.51198844  1
  Nb  Nb100  1  0.08898941  0.42518258  0.57291352  1
  Nb  Nb101  1  0.13424320  0.09601866  0.31626989  1
  Nb  Nb102  1  0.18722990  0.76915614  0.51215928  1
  Nb  Nb103  1  0.15809051  0.70333632  0.28707884  1
  Nb  Nb104  1  0.97981426  -0.01036265  0.23015982  1
  Nb  Nb105  1  0.66549422  0.92135941  0.48900740  1
  Nb  Nb106  1  0.83427549  0.25768326  0.02526095  1
  Nb  Nb107  1  0.67287462  1.00422791  0.30888475  1
  Nb  Nb108  1  0.81474609  0.11770770  0.24527525  1
  Nb  Nb109  1  0.83098542  0.96778989  0.58741812  1
  Nb  Nb110  1  0.30191125  -0.01603642  0.33527166  1
  Nb  Nb111  1  0.45009170  0.18959506  0.67652096  1
  Nb  Nb112  1  0.17134680  0.64339963  0.88647885  1
  Nb  Nb113  1  0.54860068  0.51021179  0.54929679  1
  Nb  Nb114  1  0.97354365  0.63712298  0.88208485  1
  Nb  Nb115  1  0.85971582  0.92075291  0.38498784  1
  Nb  Nb116  1  0.16186826  0.01091227  0.50303556  1
  Nb  Nb117  1  0.95194070  0.34167641  0.69955272  1
  Nb  Nb118  1  0.73811900  0.33632554  0.16699025  1
  Nb  Nb119  1  0.90463190  0.96811267  0.77153435  1
  Nb  Nb120  1  0.64005266  0.22156928  0.30101121  1
  Nb  Nb121  1  0.52652372  0.71079201  0.03728015  1
  Nb  Nb122  1  0.78505839  0.33071271  0.83673105  1
  Nb  Nb123  1  0.30792479  0.49699842  0.82165986  1
  Nb  Nb124  1  0.41125208  0.52412965  0.40712128  1
