# generated using pymatgen
data_Zr2Sc2Nb
_symmetry_space_group_name_H-M   'P 1'
_cell_length_a   14.20007056
_cell_length_b   14.15726369
_cell_length_c   14.26358265
_cell_angle_alpha   89.40684688
_cell_angle_beta   90.88716320
_cell_angle_gamma   90.48307447
_symmetry_Int_Tables_number   1
_chemical_formula_structural   Zr2Sc2Nb
_chemical_formula_sum   'Zr50 Sc50 Nb25'
_cell_volume   2866.87165045
_cell_formula_units_Z   25
loop_
 _symmetry_equiv_pos_site_id
 _symmetry_equiv_pos_as_xyz
  1  'x, y, z'
loop_
 _atom_site_type_symbol
 _atom_site_label
 _atom_site_symmetry_multiplicity
 _atom_site_fract_x
 _atom_site_fract_y
 _atom_site_fract_z
 _atom_site_occupancy
  Zr  Zr0  1  0.64251534  0.69633120  0.26340789  1
  Zr  Zr1  1  0.94409702  0.25010255  0.55370859  1
  Zr  Zr2  1  0.34836517  0.30195158  0.65293454  1
  Zr  Zr3  1  0.91213667  0.43365564  0.27217348  1
  Zr  Zr4  1  0.68868365  0.00613162  -0.01546742  1
  Zr  Zr5  1  0.50540023  0.51166465  0.17164285  1
  Zr  Zr6  1  1.02699076  -0.01488936  0.32107130  1
  Zr  Zr7  1  0.24565546  0.76333409  0.11172698  1
  Zr  Zr8  1  0.02174870  0.73804098  0.73615261  1
  Zr  Zr9  1  0.10410975  0.17924759  0.42194887  1
  Zr  Zr10  1  0.32352488  0.55445239  0.06339195  1
  Zr  Zr11  1  0.05910152  0.10197462  0.14247561  1
  Zr  Zr12  1  0.16418260  0.95121632  1.00636227  1
  Zr  Zr13  1  0.47263494  0.18771547  0.48009311  1
  Zr  Zr14  1  0.93624692  0.49464820  0.05205527  1
  Zr  Zr15  1  0.12847976  0.79044448  0.33069220  1
  Zr  Zr16  1  0.50397064  0.93117344  0.87828134  1
  Zr  Zr17  1  0.82777202  0.76368859  0.78750917  1
  Zr  Zr18  1  0.85965775  0.61686742  0.41016832  1
  Zr  Zr19  1  0.13687834  0.49919294  0.15114850  1
  Zr  Zr20  1  0.65039804  0.59150980  0.49406748  1
  Zr  Zr21  1  0.82714605  0.61888126  0.18774561  1
  Zr  Zr22  1  0.28607318  0.50354488  0.67003873  1
  Zr  Zr23  1  0.76268210  0.93136627  0.57439184  1
  Zr  Zr24  1  0.96026609  0.36621410  0.73829623  1
  Zr  Zr25  1  0.52544865  0.78737660  0.48055052  1
  Zr  Zr26  1  0.37281440  0.24859454  0.86242758  1
  Zr  Zr27  1  0.73456247  0.30645606  0.28532901  1
  Zr  Zr28  1  0.51246047  0.52391494  0.95570382  1
  Zr  Zr29  1  0.12209989  0.38617977  0.34019326  1
  Zr  Zr30  1  0.93593186  0.04624986  0.49392234  1
  Zr  Zr31  1  0.76367558  0.16303183  0.45477595  1
  Zr  Zr32  1  0.73024152  0.78956336  0.42045436  1
  Zr  Zr33  1  0.60087138  0.27482781  0.12852565  1
  Zr  Zr34  1  0.40585936  0.03819643  0.32915653  1
  Zr  Zr35  1  0.78437599  0.98542920  0.81026626  1
  Zr  Zr36  1  0.64531291  0.66323016  0.05466133  1
  Zr  Zr37  1  0.43834184  0.73426028  -0.01336676  1
  Zr  Zr38  1  0.27339156  0.61039502  0.26988922  1
  Zr  Zr39  1  0.90066520  0.07629812  1.00399429  1
  Zr  Zr40  1  0.50014640  0.13091493  0.96902768  1
  Zr  Zr41  1  0.21773352  0.32758127  0.02635513  1
  Zr  Zr42  1  0.00233521  0.14852209  0.74907587  1
  Zr  Zr43  1  0.68561470  0.49975436  0.31067860  1
  Zr  Zr44  1  0.32639377  0.62627261  0.83987240  1
  Zr  Zr45  1  0.21909957  0.96414680  0.20984073  1
  Zr  Zr46  1  0.35753731  0.82638545  0.30319057  1
  Zr  Zr47  1  0.95179318  0.89614760  0.91299933  1
  Zr  Zr48  1  0.87011999  0.71161214  0.99304007  1
  Zr  Zr49  1  0.10512503  0.15060914  0.93611903  1
  Sc  Sc50  1  0.43069338  0.97115773  0.53316479  1
  Sc  Sc51  1  0.92747366  0.20151037  0.30593798  1
  Sc  Sc52  1  0.54522558  0.05510062  0.15276930  1
  Sc  Sc53  1  0.56729361  0.89224563  0.28960172  1
  Sc  Sc54  1  0.29848648  0.12779666  0.06855492  1
  Sc  Sc55  1  0.80048028  0.39642848  0.88767176  1
  Sc  Sc56  1  0.46123329  0.60399036  0.37771532  1
  Sc  Sc57  1  0.22281088  0.97510488  0.42878828  1
  Sc  Sc58  1  0.53723872  0.67987678  0.80828154  1
  Sc  Sc59  1  0.64224123  0.50339560  0.68746171  1
  Sc  Sc60  1  0.42175202  0.21750721  0.22104245  1
  Sc  Sc61  1  0.42918613  0.82198593  0.69000934  1
  Sc  Sc62  1  0.03848453  0.68345494  0.13155155  1
  Sc  Sc63  1  0.05515405  0.30794616  0.15231143  1
  Sc  Sc64  1  0.12295767  0.95423466  0.79332144  1
  Sc  Sc65  1  0.46184350  0.44712985  0.53625091  1
  Sc  Sc66  1  0.85867923  0.28560024  0.08731274  1
  Sc  Sc67  1  0.29726274  0.75158271  0.49256050  1
  Sc  Sc68  1  0.14880213  0.31204262  0.58662353  1
  Sc  Sc69  1  0.63294021  0.32881896  0.49242281  1
  Sc  Sc70  1  0.08966894  0.54217670  0.70932059  1
  Sc  Sc71  1  0.04929141  0.59669198  0.32909845  1
  Sc  Sc72  1  0.43992539  0.08898805  0.71780944  1
  Sc  Sc73  1  0.13570720  0.52041121  0.93164476  1
  Sc  Sc74  1  0.94701607  0.93379401  0.67808550  1
  Sc  Sc75  1  0.30835983  0.32169932  0.42193557  1
  Sc  Sc76  1  0.70915481  0.45281213  0.08063850  1
  Sc  Sc77  1  0.22155963  0.18725531  0.26224108  1
  Sc  Sc78  1  0.22297543  0.14810660  0.74044134  1
  Sc  Sc79  1  0.86270767  0.72970988  0.58581676  1
  Sc  Sc80  1  0.01625793  0.46787522  0.51341272  1
  Sc  Sc81  1  0.78284280  0.85898247  0.12519009  1
  Sc  Sc82  1  0.11113453  0.86540778  0.56346476  1
  Sc  Sc83  1  0.72796350  0.59188736  0.87224647  1
  Sc  Sc84  1  0.81672357  0.41361241  0.47794246  1
  Sc  Sc85  1  0.79565135  0.97156118  0.33363236  1
  Sc  Sc86  1  0.10392945  0.73665556  0.92952530  1
  Sc  Sc87  1  0.75822561  0.30682098  0.68259836  1
  Sc  Sc88  1  0.16462938  0.34111689  0.80175208  1
  Sc  Sc89  1  0.50781016  0.36855980  0.32600648  1
  Sc  Sc90  1  0.23161346  0.53778065  0.47033500  1
  Sc  Sc91  1  0.57336179  0.85563726  0.08475728  1
  Sc  Sc92  1  0.29355819  0.84037627  0.86737855  1
  Sc  Sc93  1  0.65386614  0.74353907  0.65247508  1
  Sc  Sc94  1  1.00250429  0.89146462  0.12708458  1
  Sc  Sc95  1  0.76033458  0.10915532  0.17588957  1
  Sc  Sc96  1  0.22711618  0.72630283  0.68385884  1
  Sc  Sc97  1  0.57901583  0.33823674  0.89503120  1
  Sc  Sc98  1  0.86097624  0.54327112  0.66731530  1
  Sc  Sc99  1  0.54616387  0.28737372  0.69120927  1
  Nb  Nb100  1  0.60595350  0.94538656  0.69628240  1
  Nb  Nb101  1  0.67779622  0.81381201  0.90152004  1
  Nb  Nb102  1  0.42182215  0.34692260  0.05317854  1
  Nb  Nb103  1  0.31392215  0.03682549  0.88601345  1
  Nb  Nb104  1  0.00308065  0.33692055  0.93713851  1
  Nb  Nb105  1  0.45054986  0.63193595  0.61392413  1
  Nb  Nb106  1  0.60189191  0.15039540  0.32940101  1
  Nb  Nb107  1  0.30499864  0.39532234  0.21406461  1
  Nb  Nb108  1  0.94358647  0.56651557  0.86160013  1
  Nb  Nb109  1  0.45948063  0.46815348  0.75711732  1
  Nb  Nb110  1  0.44905438  0.71263624  0.18114170  1
  Nb  Nb111  1  0.37830480  0.92427932  0.07838328  1
  Nb  Nb112  1  0.10615126  0.07284796  0.59286588  1
  Nb  Nb113  1  0.33113721  0.43490158  0.88663538  1
  Nb  Nb114  1  0.90922856  0.77820715  0.28062620  1
  Nb  Nb115  1  0.85041065  0.19903786  0.85344650  1
  Nb  Nb116  1  0.62605438  0.11939407  0.59945585  1
  Nb  Nb117  1  0.94415732  0.84139989  0.44990280  1
  Nb  Nb118  1  0.06055841  0.67226570  0.52584817  1
  Nb  Nb119  1  0.61339124  -0.00553897  0.45518296  1
  Nb  Nb120  1  0.81459778  0.11362756  0.66161874  1
  Nb  Nb121  1  0.70952292  0.20011511  -0.02110767  1
  Nb  Nb122  1  0.28669826  0.13547788  0.53607345  1
  Nb  Nb123  1  0.64284867  0.13121163  0.80249542  1
  Nb  Nb124  1  0.27384812  0.95936305  0.66299935  1
