# generated using pymatgen
data_Zr2Sc2Nb
_symmetry_space_group_name_H-M   'P 1'
_cell_length_a   14.22004411
_cell_length_b   14.24909673
_cell_length_c   14.14025261
_cell_angle_alpha   89.23474749
_cell_angle_beta   88.94303257
_cell_angle_gamma   88.84722360
_symmetry_Int_Tables_number   1
_chemical_formula_structural   Zr2Sc2Nb
_chemical_formula_sum   'Zr50 Sc50 Nb25'
_cell_volume   2863.82841849
_cell_formula_units_Z   25
loop_
 _symmetry_equiv_pos_site_id
 _symmetry_equiv_pos_as_xyz
  1  'x, y, z'
loop_
 _atom_site_type_symbol
 _atom_site_label
 _atom_site_symmetry_multiplicity
 _atom_site_fract_x
 _atom_site_fract_y
 _atom_site_fract_z
 _atom_site_occupancy
  Zr  Zr0  1  0.22902376  0.74740791  0.30438756  1
  Zr  Zr1  1  0.95856208  0.54774528  0.14192756  1
  Zr  Zr2  1  0.62910397  0.33613243  0.10857913  1
  Zr  Zr3  1  0.70521209  0.96463713  0.54275001  1
  Zr  Zr4  1  0.61883957  0.98251679  0.93381897  1
  Zr  Zr5  1  0.04397051  0.36140820  0.25218594  1
  Zr  Zr6  1  0.37050350  0.71003596  0.68320129  1
  Zr  Zr7  1  0.52377392  0.78116132  0.12532598  1
  Zr  Zr8  1  0.74395375  0.05385152  0.30919208  1
  Zr  Zr9  1  0.45803406  0.26187143  0.43522741  1
  Zr  Zr10  1  0.49502235  0.78768755  0.51312855  1
  Zr  Zr11  1  0.83816864  0.86349836  0.36513939  1
  Zr  Zr12  1  0.06413196  0.33914112  0.47402894  1
  Zr  Zr13  1  0.45641940  0.18222900  0.63113864  1
  Zr  Zr14  1  0.71325531  0.36800684  0.50022054  1
  Zr  Zr15  1  0.11608590  0.85042045  0.15481498  1
  Zr  Zr16  1  0.82035034  0.09524076  0.65954528  1
  Zr  Zr17  1  0.33029760  0.45561701  0.44118770  1
  Zr  Zr18  1  0.71611382  0.87868380  0.15341718  1
  Zr  Zr19  1  0.09173906  0.82105973  0.45598506  1
  Zr  Zr20  1  0.10176720  0.52522326  0.55591976  1
  Zr  Zr21  1  0.68434924  0.78441120  0.92651997  1
  Zr  Zr22  1  0.71664222  0.10986674  0.09606926  1
  Zr  Zr23  1  0.70871892  0.76993890  0.51532163  1
  Zr  Zr24  1  0.07103508  0.07005221  0.13558507  1
  Zr  Zr25  1  -0.00232957  0.95862636  0.31527404  1
  Zr  Zr26  1  0.65811486  0.49634569  0.66476606  1
  Zr  Zr27  1  0.28671182  0.05293272  0.64130216  1
  Zr  Zr28  1  0.34080994  0.70096685  0.11404376  1
  Zr  Zr29  1  0.89565329  0.27965165  0.59961739  1
  Zr  Zr30  1  0.48905458  0.17040014  0.08189781  1
  Zr  Zr31  1  0.45629582  0.31973310  0.78161792  1
  Zr  Zr32  1  0.31952385  0.44462474  0.64812379  1
  Zr  Zr33  1  0.83032463  0.91777741  0.96039184  1
  Zr  Zr34  1  0.67146574  0.26111322  0.29763369  1
  Zr  Zr35  1  0.18492480  0.02934427  0.83454510  1
  Zr  Zr36  1  0.40880961  0.88978912  0.33799870  1
  Zr  Zr37  1  0.89962964  0.48247183  0.58011405  1
  Zr  Zr38  1  0.31351430  0.88014733  0.77918139  1
  Zr  Zr39  1  0.04596187  0.93510535  0.96530294  1
  Zr  Zr40  1  0.08074650  0.17032361  0.32749109  1
  Zr  Zr41  1  0.13656329  0.54355472  0.34390229  1
  Zr  Zr42  1  0.25216130  0.30788782  0.32081810  1
  Zr  Zr43  1  0.25386058  0.65791004  0.51449167  1
  Zr  Zr44  1  0.46951506  0.38226500  -0.01543405  1
  Zr  Zr45  1  0.25442601  0.04883437  0.03722490  1
  Zr  Zr46  1  0.46106620  0.53595755  0.78581439  1
  Zr  Zr47  1  0.89013474  0.64394972  0.95196145  1
  Zr  Zr48  1  0.32413900  0.09789166  0.43186871  1
  Zr  Zr49  1  0.76459198  0.48409277  0.03253880  1
  Sc  Sc50  1  0.91086581  0.88613750  0.58692949  1
  Sc  Sc51  1  0.29620605  0.66654433  0.89681654  1
  Sc  Sc52  1  0.71475290  0.48578186  0.25890779  1
  Sc  Sc53  1  0.40394058  0.64766906  0.34293376  1
  Sc  Sc54  1  0.54334287  0.59096844  -0.01813127  1
  Sc  Sc55  1  0.84183758  0.42996595  0.77399659  1
  Sc  Sc56  1  0.68508162  0.27230119  0.70466623  1
  Sc  Sc57  1  0.19770091  0.59042709  0.73084467  1
  Sc  Sc58  1  0.52211380  0.90331194  0.71322717  1
  Sc  Sc59  1  0.07485782  0.38711166  0.72757968  1
  Sc  Sc60  1  0.60202694  0.69019621  0.32072550  1
  Sc  Sc61  1  0.82550953  0.67256447  0.66909279  1
  Sc  Sc62  1  0.81200518  0.67660094  0.29239608  1
  Sc  Sc63  1  0.64055917  0.40962934  0.86983744  1
  Sc  Sc64  1  0.96146223  0.42392566  0.94792766  1
  Sc  Sc65  1  0.90932282  0.77254537  0.12417108  1
  Sc  Sc66  1  0.65452288  0.16763034  0.50627918  1
  Sc  Sc67  1  0.14960027  0.42227035  0.08337091  1
  Sc  Sc68  1  0.42420189  0.93759822  0.98198322  1
  Sc  Sc69  1  0.79285021  0.27707383  0.97638843  1
  Sc  Sc70  1  0.54449319  0.45650700  0.38399080  1
  Sc  Sc71  1  0.28757123  0.87215550  0.53337643  1
  Sc  Sc72  1  0.26952463  0.41189376  0.87578911  1
  Sc  Sc73  1  0.11689815  0.56191843  0.93161532  1
  Sc  Sc74  1  0.91881895  0.49740192  0.36199343  1
  Sc  Sc75  1  0.58945706  0.19872977  0.89995603  1
  Sc  Sc76  1  0.50283026  0.52037899  0.17451207  1
  Sc  Sc77  1  0.95971885  1.00797634  0.78653851  1
  Sc  Sc78  1  0.92816694  0.22950107  0.81570955  1
  Sc  Sc79  1  0.89760368  0.08749037  0.45850350  1
  Sc  Sc80  1  0.60281409  0.70994249  0.70338777  1
  Sc  Sc81  1  0.41939289  0.08161555  0.82457733  1
  Sc  Sc82  1  0.47579999  0.76351006  0.88449981  1
  Sc  Sc83  1  0.70796871  0.66510473  0.10740468  1
  Sc  Sc84  1  0.34381206  0.12285667  0.22271663  1
  Sc  Sc85  1  0.87250170  0.28743323  0.38031614  1
  Sc  Sc86  1  0.25214598  0.26625205  0.54531801  1
  Sc  Sc87  1  0.93076970  0.68038517  0.47836259  1
  Sc  Sc88  1  0.07494663  0.15835354  0.66523796  1
  Sc  Sc89  1  0.48653556  0.58193879  0.55148293  1
  Sc  Sc90  1  0.52960511  0.98481252  0.16623257  1
  Sc  Sc91  1  0.11511906  0.04009811  0.49857562  1
  Sc  Sc92  1  0.92891215  0.79787187  0.80363963  1
  Sc  Sc93  1  0.72438728  0.59996879  0.84522875  1
  Sc  Sc94  1  0.11493419  0.21323189  0.93047725  1
  Sc  Sc95  1  0.20595109  0.97570529  0.30891695  1
  Sc  Sc96  1  0.25911940  0.23403811  0.75758551  1
  Sc  Sc97  1  0.61494278  0.89686676  0.35366405  1
  Sc  Sc98  1  0.49407075  0.00584751  0.51774010  1
  Sc  Sc99  1  0.72210424  0.57237516  0.47144739  1
  Nb  Nb100  1  0.46632805  0.31585336  0.24645393  1
  Nb  Nb101  1  0.13566871  0.78071134  0.81047535  1
  Nb  Nb102  1  0.91776289  0.10698561  -0.00445787  1
  Nb  Nb103  1  0.76881212  0.09346612  0.85887199  1
  Nb  Nb104  1  0.51180341  0.37853487  0.58907140  1
  Nb  Nb105  1  0.06072518  0.72159263  0.63460388  1
  Nb  Nb106  1  0.53107631  0.10772001  0.32385847  1
  Nb  Nb107  1  0.32900469  0.52324048  0.03543184  1
  Nb  Nb108  1  0.89132572  -0.02502872  0.15017569  1
  Nb  Nb109  1  0.06354787  0.73614295  0.98724207  1
  Nb  Nb110  1  0.89162051  0.15959165  0.21881704  1
  Nb  Nb111  1  0.18283955  0.22647295  0.13650697  1
  Nb  Nb112  1  0.30040902  0.50038980  0.23106311  1
  Nb  Nb113  1  0.33028207  0.21973294  0.95821697  1
  Nb  Nb114  1  0.84189696  0.35260433  0.17453228  1
  Nb  Nb115  1  0.11594523  0.91334569  0.66766103  1
  Nb  Nb116  1  1.02031063  0.71408812  0.28852989  1
  Nb  Nb117  1  0.62183110  0.07355145  0.71911466  1
  Nb  Nb118  1  0.32748438  0.89599897  0.16054125  1
  Nb  Nb119  1  0.23877676  0.84356899  0.98014033  1
  Nb  Nb120  1  0.33607399  0.33406890  0.11768713  1
  Nb  Nb121  1  -0.01009444  0.59022867  0.76974311  1
  Nb  Nb122  1  0.74211685  0.90576754  0.74929507  1
  Nb  Nb123  1  0.15217030  0.63181593  0.13611311  1
  Nb  Nb124  1  0.98786063  0.26759839  0.08446620  1
