# generated using pymatgen
data_Zr2Sc2Nb
_symmetry_space_group_name_H-M   'P 1'
_cell_length_a   14.14861182
_cell_length_b   14.15004433
_cell_length_c   14.36270136
_cell_angle_alpha   87.70943054
_cell_angle_beta   90.20244803
_cell_angle_gamma   89.01649648
_symmetry_Int_Tables_number   1
_chemical_formula_structural   Zr2Sc2Nb
_chemical_formula_sum   'Zr50 Sc50 Nb25'
_cell_volume   2872.71642766
_cell_formula_units_Z   25
loop_
 _symmetry_equiv_pos_site_id
 _symmetry_equiv_pos_as_xyz
  1  'x, y, z'
loop_
 _atom_site_type_symbol
 _atom_site_label
 _atom_site_symmetry_multiplicity
 _atom_site_fract_x
 _atom_site_fract_y
 _atom_site_fract_z
 _atom_site_occupancy
  Zr  Zr0  1  0.66200433  0.99066260  0.14445989  1
  Zr  Zr1  1  0.29195779  0.55635100  0.85377560  1
  Zr  Zr2  1  0.71155581  0.16236825  0.80551245  1
  Zr  Zr3  1  0.53703796  0.85800468  0.05368468  1
  Zr  Zr4  1  0.54927512  0.31794929  0.01965293  1
  Zr  Zr5  1  0.60188985  0.56218312  0.18343691  1
  Zr  Zr6  1  0.45666715  0.24109060  0.43448104  1
  Zr  Zr7  1  0.78814515  0.67682928  0.62190638  1
  Zr  Zr8  1  1.08832748  0.10923108  0.79002360  1
  Zr  Zr9  1  0.42074027  0.46965983  0.47661908  1
  Zr  Zr10  1  1.01371697  0.30465456  0.88899821  1
  Zr  Zr11  1  0.64355976  0.67054468  0.98292214  1
  Zr  Zr12  1  0.49378704  0.84487740  0.42916390  1
  Zr  Zr13  1  0.79569317  0.10542741  0.24166168  1
  Zr  Zr14  1  0.05185663  0.79452710  0.26961491  1
  Zr  Zr15  1  0.27097794  0.42960418  0.68493676  1
  Zr  Zr16  1  0.84029073  0.87543565  0.24640824  1
  Zr  Zr17  1  0.37994739  0.52600468  0.25455320  1
  Zr  Zr18  1  0.85591029  0.65525894  0.18610029  1
  Zr  Zr19  1  -0.03187099  0.45062754  0.15138243  1
  Zr  Zr20  1  0.13954210  0.95724602  0.93664341  1
  Zr  Zr21  1  0.98559891  0.07478910  0.58421520  1
  Zr  Zr22  1  0.73268873  0.98324376  0.92200782  1
  Zr  Zr23  1  0.09242103  0.51483602  0.58248354  1
  Zr  Zr24  1  0.29660814  0.20822718  0.73479200  1
  Zr  Zr25  1  0.00712929  0.17165599  0.21134376  1
  Zr  Zr26  1  0.37961313  0.73299716  0.72969447  1
  Zr  Zr27  1  0.21790506  0.11679678  0.22925710  1
  Zr  Zr28  1  0.21651105  0.80753218  0.09133524  1
  Zr  Zr29  1  0.95121605  0.87310481  0.86944850  1
  Zr  Zr30  1  0.52643838  0.25459644  0.82436361  1
  Zr  Zr31  1  0.56328921  0.86398753  0.84957510  1
  Zr  Zr32  1  0.67253617  0.53541494  0.52896628  1
  Zr  Zr33  1  0.16111699  0.68051110  0.70347749  1
  Zr  Zr34  1  0.35376937  0.22114189  0.07312793  1
  Zr  Zr35  1  0.76194756  0.56609948  0.81945432  1
  Zr  Zr36  1  0.66666734  0.96296256  0.35951936  1
  Zr  Zr37  1  0.06023303  0.63288518  0.11867584  1
  Zr  Zr38  1  0.90479698  0.01799688  0.08921075  1
  Zr  Zr39  1  0.25179358  0.27709476  0.51415925  1
  Zr  Zr40  1  0.59447688  0.17957022  0.62457827  1
  Zr  Zr41  1  0.37889056  0.91197364  0.91472386  1
  Zr  Zr42  1  0.21623351  0.48679467  0.41570414  1
  Zr  Zr43  1  0.08222074  0.91282261  0.47417400  1
  Zr  Zr44  1  0.57675660  0.48768873  0.88556103  1
  Zr  Zr45  1  0.88965996  0.23262930  0.70885744  1
  Zr  Zr46  1  0.71229700  0.16241062  0.03052825  1
  Zr  Zr47  1  0.27510028  0.61583674  0.05835619  1
  Zr  Zr48  1  0.28675280  0.96943881  0.74188547  1
  Zr  Zr49  1  0.51315454  0.68280493  0.55648638  1
  Sc  Sc50  1  0.86345623  0.91988460  0.45044637  1
  Sc  Sc51  1  0.19247454  0.07535446  0.58593507  1
  Sc  Sc52  1  0.23908531  0.89033779  0.30591431  1
  Sc  Sc53  1  0.90386774  0.16110479  0.40494941  1
  Sc  Sc54  1  0.90487532  0.45718800  0.70220215  1
  Sc  Sc55  1  0.59626052  0.68274528  0.74528663  1
  Sc  Sc56  1  0.42171720  0.72502352  0.18652835  1
  Sc  Sc57  1  0.48021417  0.50330992  0.69356335  1
  Sc  Sc58  1  0.61857961  0.41676424  0.35332514  1
  Sc  Sc59  1  0.90573671  0.71161693  0.39182459  1
  Sc  Sc60  1  0.75292932  0.48857320  0.06253929  1
  Sc  Sc61  1  0.76842653  0.82782575  0.05382307  1
  Sc  Sc62  1  0.64183067  0.76972194  0.23016157  1
  Sc  Sc63  1  0.13270026  0.47391216  0.99082162  1
  Sc  Sc64  1  0.46334205  0.93856852  0.24759330  1
  Sc  Sc65  1  0.43886888  0.69810913  0.93474257  1
  Sc  Sc66  1  0.99482326  0.82514626  0.06696734  1
  Sc  Sc67  1  0.29626014  0.30481547  0.29040709  1
  Sc  Sc68  1  0.66541219  0.19766290  0.39538657  1
  Sc  Sc69  1  0.14459732  0.69194883  0.45076690  1
  Sc  Sc70  1  0.14366419  0.30084334  0.10933449  1
  Sc  Sc71  1  0.89646612  0.51589022  0.48809018  1
  Sc  Sc72  1  0.35220162  0.68796898  0.40277755  1
  Sc  Sc73  1  0.22959333  0.78145338  0.87007648  1
  Sc  Sc74  1  0.48371589  0.35849228  0.20670894  1
  Sc  Sc75  1  0.76347810  0.34341408  0.90407118  1
  Sc  Sc76  1  0.08104459  0.89628401  0.70359843  1
  Sc  Sc77  1  0.51777090  0.07842124  -0.01370187  1
  Sc  Sc78  1  0.70117780  0.73852324  0.42465378  1
  Sc  Sc79  1  0.76627087  0.79484677  0.80733899  1
  Sc  Sc80  1  0.99122719  0.72653140  0.57841102  1
  Sc  Sc81  1  0.90938845  0.12564248  0.91461607  1
  Sc  Sc82  1  0.52324563  0.14413004  0.22904936  1
  Sc  Sc83  1  0.32079741  -0.00414160  0.09467544  1
  Sc  Sc84  1  0.93416822  0.49016235  0.92631399  1
  Sc  Sc85  1  0.69966685  0.30617737  0.18766025  1
  Sc  Sc86  1  0.08389040  0.33249994  0.32475100  1
  Sc  Sc87  1  0.28380134  0.84347326  0.55223119  1
  Sc  Sc88  1  0.67889511  0.38347119  0.71220929  1
  Sc  Sc89  1  0.01287240  0.30656920  0.51453395  1
  Sc  Sc90  1  0.66783976  0.98269253  0.71147445  1
  Sc  Sc91  1  0.89158958  0.27429835  0.07130712  1
  Sc  Sc92  1  0.29882325  0.11510158  0.91057322  1
  Sc  Sc93  1  0.78687848  0.32143245  0.52759903  1
  Sc  Sc94  1  0.09977952  0.30585436  0.69629916  1
  Sc  Sc95  1  0.87390594  0.67494357  0.96984284  1
  Sc  Sc96  1  0.47689538  0.90147357  0.64398003  1
  Sc  Sc97  1  0.86167314  0.37180676  0.31818183  1
  Sc  Sc98  1  0.34167273  0.05189594  0.40845826  1
  Sc  Sc99  1  0.76960625  0.07495138  0.55864480  1
  Nb  Nb100  1  0.32233949  0.41153116  0.06268197  1
  Nb  Nb101  1  0.18283878  0.47861122  0.20540724  1
  Nb  Nb102  1  0.11878917  0.12788196  0.40303797  1
  Nb  Nb103  1  0.09664048  0.49803211  0.79002383  1
  Nb  Nb104  1  0.47027419  0.52130999  0.04460545  1
  Nb  Nb105  1  0.10731478  0.97939584  0.14364939  1
  Nb  Nb106  1  0.10795397  0.13796330  1.01343912  1
  Nb  Nb107  1  0.21040715  0.66213754  0.25757973  1
  Nb  Nb108  1  0.54507452  0.61892902  0.36479411  1
  Nb  Nb109  1  0.43321586  0.30718321  0.64416474  1
  Nb  Nb110  1  0.30353757  0.60597200  0.58878610  1
  Nb  Nb111  1  0.55111906  0.03465672  0.49315013  1
  Nb  Nb112  1  0.95042105  0.67126952  0.76928730  1
  Nb  Nb113  1  0.57913975  0.35963432  0.53748565  1
  Nb  Nb114  1  0.02418247  0.55370172  0.32067365  1
  Nb  Nb115  1  0.08057856  0.66926493  0.91590924  1
  Nb  Nb116  1  0.67201684  0.85716696  0.57050258  1
  Nb  Nb117  1  0.00425882  -0.00447739  0.30413573  1
  Nb  Nb118  1  0.47723897  0.06650588  0.77719097  1
  Nb  Nb119  1  0.38804651  0.37698338  0.87612158  1
  Nb  Nb120  1  0.76049695  0.56442080  0.32509049  1
  Nb  Nb121  1  0.87150798  0.87564558  0.65022765  1
  Nb  Nb122  1  0.21134651  0.31315278  0.89428289  1
  Nb  Nb123  1  0.87549063  0.02574369  0.75117890  1
  Nb  Nb124  1  0.39947669  0.10628469  0.59774804  1
