# generated using pymatgen
data_Zr2Sc2Nb
_symmetry_space_group_name_H-M   'P 1'
_cell_length_a   14.52512133
_cell_length_b   13.83941807
_cell_length_c   14.27128102
_cell_angle_alpha   88.84210914
_cell_angle_beta   90.30521250
_cell_angle_gamma   88.32816668
_symmetry_Int_Tables_number   1
_chemical_formula_structural   Zr2Sc2Nb
_chemical_formula_sum   'Zr50 Sc50 Nb25'
_cell_volume   2866.94490256
_cell_formula_units_Z   25
loop_
 _symmetry_equiv_pos_site_id
 _symmetry_equiv_pos_as_xyz
  1  'x, y, z'
loop_
 _atom_site_type_symbol
 _atom_site_label
 _atom_site_symmetry_multiplicity
 _atom_site_fract_x
 _atom_site_fract_y
 _atom_site_fract_z
 _atom_site_occupancy
  Zr  Zr0  1  0.11686790  0.46208174  0.20680485  1
  Zr  Zr1  1  0.51307935  0.48632807  0.73048936  1
  Zr  Zr2  1  0.20296207  0.91997473  0.75444026  1
  Zr  Zr3  1  0.73683306  0.60331406  0.45767756  1
  Zr  Zr4  1  1.00294215  0.28756053  0.24275104  1
  Zr  Zr5  1  0.69563289  0.00288305  0.89258504  1
  Zr  Zr6  1  0.89187792  0.85722644  0.04820927  1
  Zr  Zr7  1  0.34317876  0.04860254  0.80719549  1
  Zr  Zr8  1  0.22990696  0.92742181  0.19868555  1
  Zr  Zr9  1  0.68339274  0.42872926  0.36159099  1
  Zr  Zr10  1  0.20051960  0.69246792  0.85695473  1
  Zr  Zr11  1  0.47572877  0.12391166  0.39887058  1
  Zr  Zr12  1  0.53628335  0.48778980  0.13435773  1
  Zr  Zr13  1  0.11009916  0.96171334  0.56198299  1
  Zr  Zr14  1  0.62751530  0.75727664  0.58034399  1
  Zr  Zr15  1  1.00080641  0.66202723  0.93048840  1
  Zr  Zr16  1  0.63440715  0.63065501  0.27675932  1
  Zr  Zr17  1  0.51224326  0.72467135  0.42618692  1
  Zr  Zr18  1  0.73957942  0.11413105  0.09999029  1
  Zr  Zr19  1  0.36865209  0.47822235  0.56919366  1
  Zr  Zr20  1  0.24012278  0.70871767  0.24729263  1
  Zr  Zr21  1  0.62180968  0.53532231  0.92502073  1
  Zr  Zr22  1  0.75533134  0.98090141  0.51418699  1
  Zr  Zr23  1  0.03611276  0.60105938  0.70485163  1
  Zr  Zr24  1  0.59259412  0.27760478  0.26344783  1
  Zr  Zr25  1  0.69625205  0.04864465  0.31056762  1
  Zr  Zr26  1  0.64872187  0.31971759  0.04894383  1
  Zr  Zr27  1  0.37298584  0.29344345  0.70915245  1
  Zr  Zr28  1  0.91156853  0.07103684  0.94904549  1
  Zr  Zr29  1  0.19429728  0.26204823  0.30394242  1
  Zr  Zr30  1  0.89672607  0.71497394  0.35210834  1
  Zr  Zr31  1  0.07903117  0.03956137  0.31181036  1
  Zr  Zr32  1  0.43554292  0.69084663  0.23263691  1
  Zr  Zr33  1  0.26922436  0.89153014  0.97055982  1
  Zr  Zr34  1  0.41902874  0.88584635  0.13181049  1
  Zr  Zr35  1  0.70052923  0.20517728  0.46413098  1
  Zr  Zr36  1  0.92203764  0.91370085  0.64355485  1
  Zr  Zr37  1  0.65726872  0.92957710  0.09580172  1
  Zr  Zr38  1  0.06488030  0.88418321  0.91242515  1
  Zr  Zr39  1  0.85325181  0.70101291  0.79315131  1
  Zr  Zr40  1  0.90710837  0.10859719  0.54706745  1
  Zr  Zr41  1  0.05701977  0.45229109  0.85296364  1
  Zr  Zr42  1  0.06691538  0.29675280  0.02416055  1
  Zr  Zr43  1  0.94262771  0.11907349  0.14558492  1
  Zr  Zr44  1  0.13100770  0.37639116  0.62311391  1
  Zr  Zr45  1  0.16651940  0.55976947  0.54689452  1
  Zr  Zr46  1  0.97136244  0.65686696  0.15894510  1
  Zr  Zr47  1  0.71358091  0.79843522  0.93199758  1
  Zr  Zr48  1  0.26796916  0.06259826  0.43131746  1
  Zr  Zr49  1  0.72763636  0.82265949  0.38960654  1
  Sc  Sc50  1  0.39028325  0.30770819  0.29637121  1
  Sc  Sc51  1  0.92233694  0.26842448  0.83788695  1
  Sc  Sc52  1  0.15173453  0.09032527  0.94678665  1
  Sc  Sc53  1  0.21696734  0.13554428  0.64523305  1
  Sc  Sc54  1  0.52767707  0.33162515  0.88360789  1
  Sc  Sc55  1  0.34031177  0.68467549  0.03472884  1
  Sc  Sc56  1  0.71390894  0.20473148  0.87001343  1
  Sc  Sc57  1  0.31478470  0.68775304  0.44738554  1
  Sc  Sc58  1  0.52218443  0.08117702  0.19126289  1
  Sc  Sc59  1  0.55733836  0.71040824  1.04876330  1
  Sc  Sc60  1  0.34754557  0.07869283  0.04491874  1
  Sc  Sc61  1  0.70607001  0.40829167  0.57278476  1
  Sc  Sc62  1  0.70979022  0.58262316  0.69749031  1
  Sc  Sc63  1  0.54326765  0.94569395  0.48628581  1
  Sc  Sc64  1  0.49760176  0.92051913  0.93000629  1
  Sc  Sc65  1  0.26187353  0.50035456  0.76163193  1
  Sc  Sc66  1  0.08823736  0.62388575  0.35454512  1
  Sc  Sc67  1  0.64296714  0.08739254  0.65196158  1
  Sc  Sc68  1  0.76068193  0.75682187  0.18156543  1
  Sc  Sc69  1  0.57459703  0.72826850  0.79779582  1
  Sc  Sc70  1  0.17122378  0.52211439  0.01361968  1
  Sc  Sc71  1  0.44766274  0.27862630  0.09950361  1
  Sc  Sc72  1  0.85260971  0.30378986  0.03313357  1
  Sc  Sc73  1  0.08202055  0.19140489  0.46853615  1
  Sc  Sc74  1  0.90079094  0.43136485  0.68193117  1
  Sc  Sc75  1  0.50336124  0.92886963  0.70589011  1
  Sc  Sc76  1  0.26280836  0.47860036  0.37408631  1
  Sc  Sc77  1  0.84713771  0.73350095  0.57810171  1
  Sc  Sc78  1  0.15284922  0.26493551  0.80969262  1
  Sc  Sc79  1  0.79320340  0.27459486  0.24673049  1
  Sc  Sc80  1  0.94403102  0.91479665  0.42465242  1
  Sc  Sc81  1  0.03640569  0.05811556  0.76220363  1
  Sc  Sc82  1  0.33773996  0.24110291  0.91353777  1
  Sc  Sc83  1  0.37735340  0.45544683  0.96649735  1
  Sc  Sc84  1  0.34004569  0.90583889  0.56898030  1
  Sc  Sc85  1  0.21815122  0.73981081  0.64105729  1
  Sc  Sc86  1  0.80615030  0.63497404  0.01643224  1
  Sc  Sc87  1  0.42707525  0.68367770  0.64241184  1
  Sc  Sc88  1  0.56510691  0.87007624  0.27574708  1
  Sc  Sc89  1  0.95024688  0.54360070  0.50563770  1
  Sc  Sc90  1  0.32891717  0.49448301  0.17278750  1
  Sc  Sc91  1  0.85186356  0.48517364  0.88649030  1
  Sc  Sc92  1  0.72087276  0.87915216  0.71680564  1
  Sc  Sc93  1  0.88823937  0.32163047  0.46502295  1
  Sc  Sc94  1  0.51290916  0.32313795  0.49203044  1
  Sc  Sc95  1  0.90612127  0.48617647  0.29517500  1
  Sc  Sc96  1  0.47508117  0.50330325  0.35214597  1
  Sc  Sc97  1  0.13402679  0.75187730  0.07280353  1
  Sc  Sc98  1  0.29602376  0.27903669  0.49928752  1
  Sc  Sc99  1  0.75107790  0.48198197  0.14716230  1
  Nb  Nb100  1  0.83440138  0.07723553  0.74386729  1
  Nb  Nb101  1  0.70694660  0.38927673  0.79049216  1
  Nb  Nb102  1  0.88252830  0.11468794  0.34957626  1
  Nb  Nb103  1  0.57848760  0.28199197  0.68349780  1
  Nb  Nb104  1  0.24889933  0.30082353  0.10497957  1
  Nb  Nb105  1  0.37139270  0.89746566  0.34673073  1
  Nb  Nb106  1  0.05546259  0.95963288  0.10164547  1
  Nb  Nb107  1  -0.00075808  0.23801537  0.65457344  1
  Nb  Nb108  1  0.51323684  0.13075560  0.80737502  1
  Nb  Nb109  1  0.86347489  0.94043737  0.23267116  1
  Nb  Nb110  1  0.04112756  0.79397580  0.73629000  1
  Nb  Nb111  1  0.17720633  0.84996752  0.40633909  1
  Nb  Nb112  1  0.15315783  0.13540690  0.14741533  1
  Nb  Nb113  1  0.36508087  0.80622685  0.80786126  1
  Nb  Nb114  1  0.04514542  0.75044678  0.52224252  1
  Nb  Nb115  1  0.41892227  0.62214454  0.85676315  1
  Nb  Nb116  1  0.55064457  0.12672041  0.99230900  1
  Nb  Nb117  1  0.88394533  0.89573637  0.84560639  1
  Nb  Nb118  1  0.43393823  0.12312689  0.60532540  1
  Nb  Nb119  1  0.07999450  0.40105922  0.41763435  1
  Nb  Nb120  1  0.04395866  0.82748910  0.25686713  1
  Nb  Nb121  1  0.32646152  0.10721255  0.24398014  1
  Nb  Nb122  1  0.96438461  0.47621792  0.06812997  1
  Nb  Nb123  1  0.79003125  0.24589588  0.66371856  1
  Nb  Nb124  1  0.55908974  0.54660958  0.53333785  1
