# generated using pymatgen
data_Zr2Sc2Nb
_symmetry_space_group_name_H-M   'P 1'
_cell_length_a   14.39552946
_cell_length_b   13.96435531
_cell_length_c   14.37105098
_cell_angle_alpha   89.72612824
_cell_angle_beta   89.78806945
_cell_angle_gamma   89.81323560
_symmetry_Int_Tables_number   1
_chemical_formula_structural   Zr2Sc2Nb
_chemical_formula_sum   'Zr50 Sc50 Nb25'
_cell_volume   2888.86234700
_cell_formula_units_Z   25
loop_
 _symmetry_equiv_pos_site_id
 _symmetry_equiv_pos_as_xyz
  1  'x, y, z'
loop_
 _atom_site_type_symbol
 _atom_site_label
 _atom_site_symmetry_multiplicity
 _atom_site_fract_x
 _atom_site_fract_y
 _atom_site_fract_z
 _atom_site_occupancy
  Zr  Zr0  1  0.89070739  0.47617284  0.53138502  1
  Zr  Zr1  1  0.83507443  0.65487555  0.40564811  1
  Zr  Zr2  1  0.73437887  0.91327102  0.06043745  1
  Zr  Zr3  1  0.33836570  0.76460289  0.69864418  1
  Zr  Zr4  1  0.86874590  0.06320726  0.68300903  1
  Zr  Zr5  1  0.28279951  0.11153275  0.65337384  1
  Zr  Zr6  1  0.74365685  0.60504026  0.21879358  1
  Zr  Zr7  1  0.48572276  0.14110138  0.64105306  1
  Zr  Zr8  1  0.93727125  0.54272320  0.09964233  1
  Zr  Zr9  1  0.04346915  0.08991624  0.08504359  1
  Zr  Zr10  1  0.45922038  0.97234879  0.95385705  1
  Zr  Zr11  1  0.23820137  0.47628576  0.84615616  1
  Zr  Zr12  1  0.33969021  0.32899156  0.96015673  1
  Zr  Zr13  1  1.00537281  0.91108200  0.61396507  1
  Zr  Zr14  1  0.36654940  0.93720493  0.55947036  1
  Zr  Zr15  1  0.48926871  0.78320924  0.24836135  1
  Zr  Zr16  1  0.63941817  0.71069015  0.02012727  1
  Zr  Zr17  1  0.93273455  0.27098244  0.58586784  1
  Zr  Zr18  1  0.14557408  0.72610042  0.60305769  1
  Zr  Zr19  1  0.13206775  0.33914937  0.57214450  1
  Zr  Zr20  1  0.13079145  0.44442133  0.27299892  1
  Zr  Zr21  1  0.54651766  0.28886035  0.93619676  1
  Zr  Zr22  1  0.55872871  0.30649030  0.50507901  1
  Zr  Zr23  1  0.15691326  0.90902797  0.47128689  1
  Zr  Zr24  1  0.34012902  0.30917685  0.56962606  1
  Zr  Zr25  1  0.03061544  0.34386526  0.76961457  1
  Zr  Zr26  1  0.66134763  0.49940144  0.46925787  1
  Zr  Zr27  1  0.12079926  0.28892642  0.96480775  1
  Zr  Zr28  1  0.93588476  0.70167276  0.77684155  1
  Zr  Zr29  1  0.90699518  0.39352185  0.93060957  1
  Zr  Zr30  1  0.30119995  0.86824750  0.89174273  1
  Zr  Zr31  1  0.59498563  0.49107525  0.68435083  1
  Zr  Zr32  1  0.21583682  0.70267709  0.04092978  1
  Zr  Zr33  1  0.60694913  0.28119758  0.72986356  1
  Zr  Zr34  1  0.14378106  0.91332563  -0.00274093  1
  Zr  Zr35  1  0.80301664  0.85001750  0.70101050  1
  Zr  Zr36  1  0.25354554  0.12224096  0.04099754  1
  Zr  Zr37  1  0.42123466  0.39192270  0.34719610  1
  Zr  Zr38  1  0.05485274  0.53674964  0.68286222  1
  Zr  Zr39  1  0.55031546  0.83010900  0.65428171  1
  Zr  Zr40  1  0.41956258  0.73823107  0.04977855  1
  Zr  Zr41  1  0.78710108  0.31795183  0.41487109  1
  Zr  Zr42  1  0.23679842  0.29670697  0.37607057  1
  Zr  Zr43  1  0.82582771  0.26250024  0.76097155  1
  Zr  Zr44  1  0.30647987  0.32365954  0.16585955  1
  Zr  Zr45  1  0.93033916  0.73637978  0.23760261  1
  Zr  Zr46  1  0.79864931  0.02745883  0.87567326  1
  Zr  Zr47  1  -0.05254338  0.70023916  0.56911889  1
  Zr  Zr48  1  0.56046723  0.01357349  0.49235091  1
  Zr  Zr49  1  0.06632658  0.51984887  0.46626041  1
  Sc  Sc50  1  0.32746217  0.92122970  0.13173031  1
  Sc  Sc51  1  0.94007686  0.91581725  0.03545111  1
  Sc  Sc52  1  0.75214190  0.24448328  0.95159025  1
  Sc  Sc53  1  0.39500362  0.14208248  0.43938942  1
  Sc  Sc54  1  0.96460297  0.15804305  0.89666514  1
  Sc  Sc55  1  0.67923218  0.66835293  0.79851617  1
  Sc  Sc56  1  0.94184648  0.08558027  0.47887486  1
  Sc  Sc57  1  0.10515823  0.63380465  0.19807735  1
  Sc  Sc58  1  0.11098270  0.86585842  0.20451259  1
  Sc  Sc59  1  0.28545555  0.72543981  0.27488661  1
  Sc  Sc60  1  0.67928648  0.25385047  0.15389227  1
  Sc  Sc61  1  0.71315459  0.82186027  0.50716817  1
  Sc  Sc62  1  0.07299370  0.05940560  0.30376037  1
  Sc  Sc63  1  0.70219327  0.83599224  0.26796903  1
  Sc  Sc64  1  0.16211517  0.47123877  0.06269686  1
  Sc  Sc65  1  -0.00375954  0.93059513  0.82567739  1
  Sc  Sc66  1  0.53044500  0.58457743  0.16835213  1
  Sc  Sc67  1  0.29030244  0.11385180  0.25353793  1
  Sc  Sc68  1  0.11434750  0.25031453  0.18756713  1
  Sc  Sc69  1  0.25764345  0.52486485  0.64029787  1
  Sc  Sc70  1  0.13878630  0.73690100  0.82439902  1
  Sc  Sc71  1  0.75297474  0.63015013  0.61123247  1
  Sc  Sc72  1  0.09144862  0.71731897  0.39345018  1
  Sc  Sc73  1  0.04292517  0.54767595  0.89978862  1
  Sc  Sc74  1  0.01319312  0.29073886  0.38493845  1
  Sc  Sc75  1  0.70584450  0.43701551  0.85189516  1
  Sc  Sc76  1  0.19360201  0.92882469  0.70402758  1
  Sc  Sc77  1  0.93060950  0.86803710  0.41961769  1
  Sc  Sc78  1  0.17168321  0.08493427  0.85696396  1
  Sc  Sc79  1  0.60003578  0.10009507  0.82639361  1
  Sc  Sc80  1  0.39011929  0.15634158  0.84637503  1
  Sc  Sc81  1  0.33985409  0.71860794  0.49504784  1
  Sc  Sc82  1  0.22834264  0.28166739  0.76190402  1
  Sc  Sc83  1  0.45725917  0.13706201  0.09455297  1
  Sc  Sc84  1  0.91157775  0.47695274  0.30161880  1
  Sc  Sc85  1  0.49671867  0.38256317  0.11640270  1
  Sc  Sc86  1  0.15494844  0.12806191  0.49356759  1
  Sc  Sc87  1  0.72189676  0.17150261  0.56404366  1
  Sc  Sc88  1  0.48862289  0.75583769  0.85300203  1
  Sc  Sc89  1  0.85471476  0.16734087  0.27795435  1
  Sc  Sc90  1  0.44158111  0.48931839  0.54063989  1
  Sc  Sc91  1  0.75042961  0.01170134  0.40797842  1
  Sc  Sc92  1  0.63865680  0.89156879  0.86116316  1
  Sc  Sc93  1  0.72025514  0.46313576  0.06368821  1
  Sc  Sc94  1  0.62606039  0.41590680  0.28884402  1
  Sc  Sc95  1  0.91641883  0.30837565  0.12170281  1
  Sc  Sc96  1  0.88463050  -0.04200110  0.22813254  1
  Sc  Sc97  1  0.26339447  0.52750561  0.41793005  1
  Sc  Sc98  1  0.51384253  0.52195175  0.90813010  1
  Sc  Sc99  1  0.33356127  0.92182784  0.35428236  1
  Nb  Nb100  1  0.32032663  0.64698844  0.87630506  1
  Nb  Nb101  1  0.54768202  0.91539282  0.11389113  1
  Nb  Nb102  1  0.63090556  0.66815688  0.37297728  1
  Nb  Nb103  1  0.82394383  0.73037480  0.08702812  1
  Nb  Nb104  1  0.63619175  0.08301158  1.01971900  1
  Nb  Nb105  1  0.43359344  0.59188783  0.72512526  1
  Nb  Nb106  1  0.86532202  0.49648543  0.74277572  1
  Nb  Nb107  1  0.83126205  0.60030909  0.93348984  1
  Nb  Nb108  1  1.00582212  0.72577729  1.00622708  1
  Nb  Nb109  1  0.32126354  0.53134068  0.21230667  1
  Nb  Nb110  1  0.48780530  0.22289532  0.26835237  1
  Nb  Nb111  1  0.06158132  0.13138232  0.68501995  1
  Nb  Nb112  1  0.66367739  0.99880424  0.66692752  1
  Nb  Nb113  1  0.67232710  0.05492773  0.21146345  1
  Nb  Nb114  1  0.82365697  0.80268321  0.90336573  1
  Nb  Nb115  1  0.46039932  0.60105004  0.36500828  1
  Nb  Nb116  1  0.43878225  0.96553383  0.74831484  1
  Nb  Nb117  1  0.35684455  0.52731207  0.03197977  1
  Nb  Nb118  1  0.63674456  0.18294122  0.36364858  1
  Nb  Nb119  1  0.50880390  1.00950483  0.29060028  1
  Nb  Nb120  1  0.51264420  0.82427536  0.43376431  1
  Nb  Nb121  1  0.83396215  0.10483133  0.07729370  1
  Nb  Nb122  1  0.42014389  0.37701258  0.75433948  1
  Nb  Nb123  1  0.74491769  0.38155746  0.61682808  1
  Nb  Nb124  1  0.54498593  0.66343526  0.55740368  1
