# generated using pymatgen
data_Zr2Sc2Nb
_symmetry_space_group_name_H-M   'P 1'
_cell_length_a   14.44043471
_cell_length_b   13.21662884
_cell_length_c   15.05645615
_cell_angle_alpha   88.24224720
_cell_angle_beta   91.25397682
_cell_angle_gamma   96.10032449
_symmetry_Int_Tables_number   1
_chemical_formula_structural   Zr2Sc2Nb
_chemical_formula_sum   'Zr50 Sc50 Nb25'
_cell_volume   2855.46473160
_cell_formula_units_Z   25
loop_
 _symmetry_equiv_pos_site_id
 _symmetry_equiv_pos_as_xyz
  1  'x, y, z'
loop_
 _atom_site_type_symbol
 _atom_site_label
 _atom_site_symmetry_multiplicity
 _atom_site_fract_x
 _atom_site_fract_y
 _atom_site_fract_z
 _atom_site_occupancy
  Zr  Zr0  1  0.12395996  0.34430980  0.92143175  1
  Zr  Zr1  1  0.97586506  0.91711792  0.37691439  1
  Zr  Zr2  1  0.62537121  0.88542534  0.05148413  1
  Zr  Zr3  1  0.00885292  0.42443609  0.05958418  1
  Zr  Zr4  1  0.17002087  0.41237545  0.18218258  1
  Zr  Zr5  1  0.94301526  0.62943168  0.14401837  1
  Zr  Zr6  1  0.52783669  0.10499677  0.72617159  1
  Zr  Zr7  1  0.19377579  0.35331804  0.37768230  1
  Zr  Zr8  1  0.29758171  0.34420593  0.79621850  1
  Zr  Zr9  1  0.56807811  0.07780241  0.94562800  1
  Zr  Zr10  1  0.45526887  0.70029431  0.37141717  1
  Zr  Zr11  1  0.05482098  0.72306766  0.49578690  1
  Zr  Zr12  1  0.85091807  0.70499387  0.56915939  1
  Zr  Zr13  1  0.43996240  0.12613773  0.09462212  1
  Zr  Zr14  1  0.43502673  0.88884383  0.08967788  1
  Zr  Zr15  1  0.65975111  0.28779789  0.63855607  1
  Zr  Zr16  1  0.31626785  0.14542058  0.45047442  1
  Zr  Zr17  1  0.50883032  0.31357379  0.18672023  1
  Zr  Zr18  1  0.70473623  0.27193243  0.26740343  1
  Zr  Zr19  1  0.94892309  0.72942733  0.89181085  1
  Zr  Zr20  1  0.35763780  0.67648597  0.13832629  1
  Zr  Zr21  1  0.17681337  0.87102297  0.61587835  1
  Zr  Zr22  1  0.45628722  0.32286026  0.58410857  1
  Zr  Zr23  1  0.10414637  0.22832878  0.71980932  1
  Zr  Zr24  1  0.88951965  0.28565924  0.69827370  1
  Zr  Zr25  1  0.28260268  0.76659463  -0.05257773  1
  Zr  Zr26  1  0.14628971  0.76571842  0.79244539  1
  Zr  Zr27  1  0.84575569  0.42144426  0.16812050  1
  Zr  Zr28  1  0.75795687  0.65922257  0.19902003  1
  Zr  Zr29  1  0.09792704  0.98112803  0.22023477  1
  Zr  Zr30  1  0.87222950  0.06775293  0.25990976  1
  Zr  Zr31  1  0.92378677  0.48584389  0.53337673  1
  Zr  Zr32  1  0.63659305  0.48400408  0.88545263  1
  Zr  Zr33  1  0.78183980  0.47324955  0.34763810  1
  Zr  Zr34  1  0.67986636  0.88064380  0.86389152  1
  Zr  Zr35  1  0.78114220  0.88749754  0.45347399  1
  Zr  Zr36  1  0.57959933  0.49927814  0.29979632  1
  Zr  Zr37  1  0.09549036  0.62352445  0.96888994  1
  Zr  Zr38  1  0.37256560  0.46980448  0.21778409  1
  Zr  Zr39  1  0.15685783  0.63347572  0.14847036  1
  Zr  Zr40  1  0.09679987  0.75968728  0.29021088  1
  Zr  Zr41  1  0.68166926  0.27324136  0.04766722  1
  Zr  Zr42  1  0.67486485  0.08304395  0.38412417  1
  Zr  Zr43  1  0.24703806  0.58523804  0.32358465  1
  Zr  Zr44  1  0.66387727  0.27278424  0.83586531  1
  Zr  Zr45  1  0.98014757  0.92018116  0.56053263  1
  Zr  Zr46  1  0.13741415  0.09900193  0.56258935  1
  Zr  Zr47  1  0.09826816  0.43431011  0.68493908  1
  Zr  Zr48  1  0.67510816  0.68825232  0.39148936  1
  Zr  Zr49  1  0.32329126  0.01606773  0.24212815  1
  Sc  Sc50  1  0.57801648  0.89128275  0.48787520  1
  Sc  Sc51  1  0.71927645  0.49631791  0.53362542  1
  Sc  Sc52  1  0.88843269  0.09766485  0.47168743  1
  Sc  Sc53  1  0.77560811  0.07464849  0.97858233  1
  Sc  Sc54  1  0.88893692  0.68440615  0.36680831  1
  Sc  Sc55  1  0.03785153  0.81412586  0.07403236  1
  Sc  Sc56  1  0.22962214  0.55783536  0.82144028  1
  Sc  Sc57  1  0.23014902  0.64509467  0.63411581  1
  Sc  Sc58  1  0.27371379  0.74912930  0.46599119  1
  Sc  Sc59  1  0.41008546  0.35262116  0.38497114  1
  Sc  Sc60  1  0.30912194  0.29778489  0.02944649  1
  Sc  Sc61  1  0.02072531  0.28500651  0.52742171  1
  Sc  Sc62  1  0.10591888  0.92990610  0.92228129  1
  Sc  Sc63  1  0.78021577  0.89636822  0.66742727  1
  Sc  Sc64  1  0.65631304  0.67137087  0.98677832  1
  Sc  Sc65  1  0.80091247  0.47522460  0.73178965  1
  Sc  Sc66  1  0.77260618  0.69295206  0.78165194  1
  Sc  Sc67  1  0.95542905  0.02367778  0.06457501  1
  Sc  Sc68  1  0.50135083  0.32282056  0.96740925  1
  Sc  Sc69  1  0.64567043  0.71049773  0.59839007  1
  Sc  Sc70  1  0.98145717  0.14717122  0.87565713  1
  Sc  Sc71  1  0.55725971  0.69460167  0.78202599  1
  Sc  Sc72  1  0.39660274  0.52499682  0.67681016  1
  Sc  Sc73  1  0.38853686  0.93747010  0.61564212  1
  Sc  Sc74  1  0.28646019  0.22974184  0.23734516  1
  Sc  Sc75  1  0.19475318  0.08973889  0.07118275  1
  Sc  Sc76  1  1.00617124  0.62888064  0.68314017  1
  Sc  Sc77  1  0.72088570  0.88062054  0.25205779  1
  Sc  Sc78  1  0.55787860  0.69730336  0.17902154  1
  Sc  Sc79  1  0.66101166  0.47804416  0.11152617  1
  Sc  Sc80  1  0.12670576  0.51478560  0.49170550  1
  Sc  Sc81  1  0.85784778  0.31125006  0.92914675  1
  Sc  Sc82  1  0.29033122  0.96048975  0.78315883  1
  Sc  Sc83  1  -0.01236075  0.48436960  0.84192314  1
  Sc  Sc84  1  0.20673729  0.14346081  0.87308587  1
  Sc  Sc85  1  0.51458370  0.11473970  0.52057922  1
  Sc  Sc86  1  0.08891311  0.14365363  0.36066444  1
  Sc  Sc87  1  0.93424413  0.29248437  0.31729983  1
  Sc  Sc88  1  0.24658941  0.33347199  0.57692704  1
  Sc  Sc89  1  0.82457013  0.81999868  1.03193148  1
  Sc  Sc90  1  0.83391157  0.54184547  0.97794864  1
  Sc  Sc91  1  0.52803634  0.53190383  0.50004309  1
  Sc  Sc92  1  0.02060478  0.51405917  0.30917738  1
  Sc  Sc93  1  0.74708165  0.09011018  0.77384651  1
  Sc  Sc94  1  0.51882244  0.91766509  0.27330181  1
  Sc  Sc95  1  0.27578784  0.51551045  0.01005868  1
  Sc  Sc96  1  0.79435767  0.28312446  0.48609934  1
  Sc  Sc97  1  0.19069489  0.94334303  0.41108301  1
  Sc  Sc98  1  0.64788085  0.08350345  0.16479779  1
  Sc  Sc99  1  0.05513781  0.21662944  0.15618908  1
  Nb  Nb100  1  0.48856012  0.33012079  0.76715358  1
  Nb  Nb101  1  0.85441390  0.21851042  0.12092377  1
  Nb  Nb102  1  0.37216201  0.74957926  0.76237684  1
  Nb  Nb103  1  0.70868035  0.07578345  0.58234256  1
  Nb  Nb104  1  0.32967039  -0.00765205  -0.02961711  1
  Nb  Nb105  1  0.57411598  0.90231962  0.68939948  1
  Nb  Nb106  1  0.47918738  0.51809687  0.05455191  1
  Nb  Nb107  1  0.40666395  0.15324829  0.86605074  1
  Nb  Nb108  1  0.46586057  0.71484443  0.96047833  1
  Nb  Nb109  1  0.39851626  0.93932613  0.41925917  1
  Nb  Nb110  1  0.91024338  0.84385370  0.21541367  1
  Nb  Nb111  1  0.59639794  0.49665315  0.69788257  1
  Nb  Nb112  1  0.44200672  0.72815232  0.58256349  1
  Nb  Nb113  1  0.60278959  0.31186356  0.42725858  1
  Nb  Nb114  1  0.30752790  0.80727520  0.27591154  1
  Nb  Nb115  1  0.47249327  0.90711666  0.86204005  1
  Nb  Nb116  1  0.96788736  0.83510423  0.72468373  1
  Nb  Nb117  1  0.48971279  0.14569214  0.31776179  1
  Nb  Nb118  1  0.92591942  0.07778634  0.67422740  1
  Nb  Nb119  1  0.09076049  0.00722326  0.73998391  1
  Nb  Nb120  1  0.89232013  0.94065808  0.85258703  1
  Nb  Nb121  1  0.33428320  0.52918302  0.48487686  1
  Nb  Nb122  1  0.22870820  0.86187452  0.11105286  1
  Nb  Nb123  1  0.43844319  0.52270933  0.86869689  1
  Nb  Nb124  1  0.31897506  0.15671652  0.68006538  1
