# generated using pymatgen
data_Zr2Sc2Nb
_symmetry_space_group_name_H-M   'P 1'
_cell_length_a   14.48004095
_cell_length_b   14.13045974
_cell_length_c   14.20465211
_cell_angle_alpha   89.10904294
_cell_angle_beta   90.12457556
_cell_angle_gamma   91.26807962
_symmetry_Int_Tables_number   1
_chemical_formula_structural   Zr2Sc2Nb
_chemical_formula_sum   'Zr50 Sc50 Nb25'
_cell_volume   2905.34072417
_cell_formula_units_Z   25
loop_
 _symmetry_equiv_pos_site_id
 _symmetry_equiv_pos_as_xyz
  1  'x, y, z'
loop_
 _atom_site_type_symbol
 _atom_site_label
 _atom_site_symmetry_multiplicity
 _atom_site_fract_x
 _atom_site_fract_y
 _atom_site_fract_z
 _atom_site_occupancy
  Zr  Zr0  1  0.20751562  0.16359497  0.69381599  1
  Zr  Zr1  1  0.02238244  0.12793482  0.34575119  1
  Zr  Zr2  1  0.93558851  0.50147368  0.76938085  1
  Zr  Zr3  1  0.35729779  0.74694766  0.36079836  1
  Zr  Zr4  1  0.79252714  0.33213637  0.28168639  1
  Zr  Zr5  1  0.48564482  0.94582575  0.28021503  1
  Zr  Zr6  1  0.87580588  0.69740359  0.62736375  1
  Zr  Zr7  1  0.36528889  0.35487462  0.28846438  1
  Zr  Zr8  1  0.45999730  0.09646276  0.45730202  1
  Zr  Zr9  1  0.96595733  0.92889298  0.16301192  1
  Zr  Zr10  1  0.18528283  0.89716038  0.91411194  1
  Zr  Zr11  1  0.97318768  0.29345420  0.85656014  1
  Zr  Zr12  1  0.32580335  0.02997827  0.58831030  1
  Zr  Zr13  1  0.92555991  0.08588923  0.01484095  1
  Zr  Zr14  1  0.85590632  0.12489886  0.21604851  1
  Zr  Zr15  1  0.30655393  0.50504761  0.84829589  1
  Zr  Zr16  1  0.55394021  0.78862399  0.65186890  1
  Zr  Zr17  1  0.98272201  0.32638126  0.21940969  1
  Zr  Zr18  1  0.30073853  0.20564483  0.12887061  1
  Zr  Zr19  1  0.57969187  0.74381961  0.43352677  1
  Zr  Zr20  1  0.54636123  0.99370660  0.65191868  1
  Zr  Zr21  1  0.84268976  0.27687360  0.06068331  1
  Zr  Zr22  1  0.46636168  0.17782987  0.26935062  1
  Zr  Zr23  1  0.54216468  0.53774485  0.14023751  1
  Zr  Zr24  1  0.58129531  0.37957162  0.29711463  1
  Zr  Zr25  1  0.67343544  1.02199612  0.22995596  1
  Zr  Zr26  1  0.12208238  0.80613100  0.08679859  1
  Zr  Zr27  1  0.72906083  0.33366589  0.48605863  1
  Zr  Zr28  1  0.51568817  0.69091116  1.00197609  1
  Zr  Zr29  1  0.31134079  0.85675031  0.16521060  1
  Zr  Zr30  1  0.79839075  0.18052782  0.84795776  1
  Zr  Zr31  1  0.72209491  0.58007843  0.98499355  1
  Zr  Zr32  1  0.25010350  0.14044079  0.33530033  1
  Zr  Zr33  1  0.84286581  0.68782271  0.83103004  1
  Zr  Zr34  1  0.43289621  0.33710498  0.82738515  1
  Zr  Zr35  1  0.25603914  0.53106259  0.29587511  1
  Zr  Zr36  1  0.20066318  0.62979646  0.47533163  1
  Zr  Zr37  1  0.85670132  0.51208908  0.37942796  1
  Zr  Zr38  1  0.71191211  0.52120107  0.76062952  1
  Zr  Zr39  1  0.51578723  0.74641140  0.21495976  1
  Zr  Zr40  1  0.18165049  0.39488241  0.14549954  1
  Zr  Zr41  1  0.04642610  0.33229059  0.66382950  1
  Zr  Zr42  1  0.77344291  0.03983355  0.67358386  1
  Zr  Zr43  1  0.36871903  0.82067725  0.94453579  1
  Zr  Zr44  1  0.77728054  -0.02701724  0.88348467  1
  Zr  Zr45  1  0.40952224  0.68040720  0.56105598  1
  Zr  Zr46  1  0.36804126  0.02071072  0.81163686  1
  Zr  Zr47  1  0.51613433  0.30475381  0.49540156  1
  Zr  Zr48  1  0.83730268  0.27827129  0.66295300  1
  Zr  Zr49  1  0.95662615  0.32763779  0.45237718  1
  Sc  Sc50  1  0.75874688  0.85737898  0.54226004  1
  Sc  Sc51  1  0.83269761  0.13198035  0.46907535  1
  Sc  Sc52  1  0.55198993  0.88367008  0.85250421  1
  Sc  Sc53  1  0.21013751  0.12558157  0.91920477  1
  Sc  Sc54  1  0.85325320  0.93770976  0.34887615  1
  Sc  Sc55  1  0.34551303  0.00958949  0.03581619  1
  Sc  Sc56  1  0.63407414  0.32002868  0.71823620  1
  Sc  Sc57  1  0.96198268  0.88252257  0.94608514  1
  Sc  Sc58  1  0.35475368  0.48846539  0.07344658  1
  Sc  Sc59  1  0.46181419  0.56894567  0.33318400  1
  Sc  Sc60  1  0.44412456  0.19022301  0.67506730  1
  Sc  Sc61  1  0.90559673  0.71019882  0.04927888  1
  Sc  Sc62  1  0.81341398  0.49150239  0.58419364  1
  Sc  Sc63  1  0.49986737  0.51757643  0.68645731  1
  Sc  Sc64  1  0.14419298  0.02677999  0.50279042  1
  Sc  Sc65  1  0.68879475  0.58124953  0.28224161  1
  Sc  Sc66  1  0.63230560  0.97473290  0.44679261  1
  Sc  Sc67  1  0.15779910  0.93932045  0.71204845  1
  Sc  Sc68  1  0.02397918  0.08455768  0.82657975  1
  Sc  Sc69  1  0.23370917  0.82090734  0.54691362  1
  Sc  Sc70  1  0.61388630  0.51845695  0.48489085  1
  Sc  Sc71  1  0.79158388  0.39660067  0.90089119  1
  Sc  Sc72  1  0.88911347  0.73213574  0.25544374  1
  Sc  Sc73  1  0.59004196  0.10723455  0.82963752  1
  Sc  Sc74  1  -0.03031868  0.91113476  0.53144604  1
  Sc  Sc75  1  0.07740960  0.71688118  0.66079336  1
  Sc  Sc76  1  0.15565186  0.31861996  0.33479215  1
  Sc  Sc77  1  0.08286484  0.91607921  0.32916030  1
  Sc  Sc78  1  0.29662053  0.36657681  0.66862508  1
  Sc  Sc79  1  0.08027908  0.24159120  0.03738412  1
  Sc  Sc80  1  0.05144295  0.51598253  0.32991193  1
  Sc  Sc81  1  0.09316750  0.59177667  0.12916699  1
  Sc  Sc82  1  0.05380017  0.68255588  0.88258009  1
  Sc  Sc83  1  0.09605746  0.46323017  0.94962231  1
  Sc  Sc84  1  0.37716554  0.46631177  0.49276273  1
  Sc  Sc85  1  0.15077623  0.03462542  0.14026958  1
  Sc  Sc86  1  0.93322099  0.88805791  0.73750755  1
  Sc  Sc87  1  0.01182597  0.53549673  0.55798619  1
  Sc  Sc88  1  0.29332592  0.94606676  0.36550992  1
  Sc  Sc89  1  0.53923004  0.48522477  0.92359025  1
  Sc  Sc90  1  0.17425843  0.42530745  0.51352916  1
  Sc  Sc91  1  0.99738489  0.71926112  0.43801011  1
  Sc  Sc92  1  0.98206034  0.11647348  0.62286228  1
  Sc  Sc93  1  0.24217313  0.65637244  -0.02236031  1
  Sc  Sc94  1  0.58175219  0.89596820  0.07213594  1
  Sc  Sc95  1  0.86932534  0.50983639  0.14896414  1
  Sc  Sc96  1  0.65174352  0.17786623  0.37160438  1
  Sc  Sc97  1  0.15964817  0.72994049  0.28346792  1
  Sc  Sc98  1  0.61845750  0.27330725  0.95530890  1
  Sc  Sc99  1  0.52142442  0.10230895  0.08198396  1
  Nb  Nb100  1  0.70455239  0.71169724  0.12859507  1
  Nb  Nb101  1  0.33503148  0.66675708  0.15899283  1
  Nb  Nb102  1  0.28351134  0.32792079  0.97472918  1
  Nb  Nb103  1  0.61645017  0.67617530  0.82100697  1
  Nb  Nb104  1  0.23779081  0.72895094  0.78062302  1
  Nb  Nb105  1  0.12922856  0.22081404  0.51307269  1
  Nb  Nb106  1  0.72171777  0.09140764  0.03425146  1
  Nb  Nb107  1  0.78092825  0.68642604  0.43786585  1
  Nb  Nb108  1  0.65873283  0.22951970  0.16690583  1
  Nb  Nb109  1  0.37037388  0.85131216  0.70957145  1
  Nb  Nb110  1  0.27630607  0.58426207  0.65552608  1
  Nb  Nb111  1  0.64444658  0.16099092  0.58542227  1
  Nb  Nb112  1  0.68381313  0.65941595  0.61855710  1
  Nb  Nb113  1  0.41123621  0.18340469  0.93459612  1
  Nb  Nb114  1  0.12922094  0.51511442  0.74311645  1
  Nb  Nb115  1  0.72421433  0.79220984  0.95139789  1
  Nb  Nb116  1  0.42178626  0.67556634  0.80069472  1
  Nb  Nb117  1  0.31659755  0.24617238  0.49279320  1
  Nb  Nb118  1  0.47689786  0.32290165  0.09359874  1
  Nb  Nb119  1  0.44117359  0.88525764  0.49909586  1
  Nb  Nb120  1  0.69334861  0.82215778  0.28786634  1
  Nb  Nb121  1  0.17383245  0.31592616  0.82591445  1
  Nb  Nb122  1  0.79097643  0.90649699  0.10471383  1
  Nb  Nb123  1  0.72830364  0.83145616  0.74236166  1
  Nb  Nb124  1  0.68493638  0.41287410  0.10401344  1
