# generated using pymatgen
data_Zr2Sc2Nb
_symmetry_space_group_name_H-M   'P 1'
_cell_length_a   14.76390379
_cell_length_b   13.72300803
_cell_length_c   14.10291061
_cell_angle_alpha   90.12559482
_cell_angle_beta   92.79158779
_cell_angle_gamma   91.79452682
_symmetry_Int_Tables_number   1
_chemical_formula_structural   Zr2Sc2Nb
_chemical_formula_sum   'Zr50 Sc50 Nb25'
_cell_volume   2852.51234922
_cell_formula_units_Z   25
loop_
 _symmetry_equiv_pos_site_id
 _symmetry_equiv_pos_as_xyz
  1  'x, y, z'
loop_
 _atom_site_type_symbol
 _atom_site_label
 _atom_site_symmetry_multiplicity
 _atom_site_fract_x
 _atom_site_fract_y
 _atom_site_fract_z
 _atom_site_occupancy
  Zr  Zr0  1  0.67328008  0.53792410  0.86984588  1
  Zr  Zr1  1  0.85201486  0.31116990  0.47718637  1
  Zr  Zr2  1  0.30760424  0.49151529  0.65548586  1
  Zr  Zr3  1  0.29563233  0.02719831  0.20929578  1
  Zr  Zr4  1  0.79468272  0.55007893  0.48740893  1
  Zr  Zr5  1  -0.03204381  0.10435844  0.12189634  1
  Zr  Zr6  1  0.92896798  0.47670457  0.61836486  1
  Zr  Zr7  1  0.47029569  0.51048320  0.51288099  1
  Zr  Zr8  1  0.12036407  0.54270050  0.54902039  1
  Zr  Zr9  1  0.08284056  0.67631532  0.10365571  1
  Zr  Zr10  1  0.17635055  0.29051795  -0.05659972  1
  Zr  Zr11  1  0.57050185  0.09589365  0.41145680  1
  Zr  Zr12  1  0.90597999  0.31568681  0.06338617  1
  Zr  Zr13  1  0.55854102  0.79998721  0.34132415  1
  Zr  Zr14  1  0.55192955  0.17318048  0.60948219  1
  Zr  Zr15  1  0.35795176  0.73627446  0.91579419  1
  Zr  Zr16  1  0.74206847  0.13950771  0.56518301  1
  Zr  Zr17  1  0.29568366  0.67872923  0.11096494  1
  Zr  Zr18  1  0.46810072  -0.02409851  0.88330582  1
  Zr  Zr19  1  0.78190911  0.12618825  0.16824135  1
  Zr  Zr20  1  0.99402094  0.49443477  0.17875498  1
  Zr  Zr21  1  0.64864868  0.37205002  0.51877843  1
  Zr  Zr22  1  0.63036716  0.14707762  0.99074759  1
  Zr  Zr23  1  0.47102911  0.63787332  0.74294022  1
  Zr  Zr24  1  0.90257851  0.30389398  0.27568721  1
  Zr  Zr25  1  0.26217674  0.89816384  0.82196614  1
  Zr  Zr26  1  0.74438256  0.71557073  0.96591799  1
  Zr  Zr27  1  1.01484793  0.89527879  0.06834622  1
  Zr  Zr28  1  0.47531001  0.43271440  0.79243253  1
  Zr  Zr29  1  0.26169442  0.68174375  0.73157685  1
  Zr  Zr30  1  0.35147476  0.70845074  0.54148381  1
  Zr  Zr31  1  0.17190669  0.08619942  0.07052643  1
  Zr  Zr32  1  0.06559988  0.04696291  0.90552544  1
  Zr  Zr33  1  0.20306241  0.46191281  0.10180812  1
  Zr  Zr34  1  0.36301816  0.06621587  0.69368181  1
  Zr  Zr35  1  0.82936535  0.66719775  0.74133684  1
  Zr  Zr36  1  -0.04757046  0.10893957  0.56233240  1
  Zr  Zr37  1  0.80466061  0.91369362  0.07720660  1
  Zr  Zr38  1  0.65625669  0.34344590  0.73777333  1
  Zr  Zr39  1  0.05132719  0.92767203  0.46003997  1
  Zr  Zr40  1  0.09271151  0.20345764  0.73056615  1
  Zr  Zr41  1  0.93858880  0.66853166  0.94154091  1
  Zr  Zr42  1  0.69867875  0.13630572  0.78555155  1
  Zr  Zr43  1  0.20765064  0.59249813  0.27229399  1
  Zr  Zr44  1  0.64996047  0.76967372  0.75428895  1
  Zr  Zr45  1  0.47585851  0.97269572  0.26758303  1
  Zr  Zr46  1  0.06609994  0.83226688  0.85201944  1
  Zr  Zr47  1  0.76307931  0.94430347  0.68477603  1
  Zr  Zr48  1  -0.01987957  0.25513695  0.89103009  1
  Zr  Zr49  1  1.00604544  0.68273402  0.30761405  1
  Sc  Sc50  1  0.63793529  0.61121781  0.36520247  1
  Sc  Sc51  1  0.65975269  0.93160149  0.49560434  1
  Sc  Sc52  1  0.03729090  0.47043440  0.96247893  1
  Sc  Sc53  1  0.63435728  0.52678656  0.12194322  1
  Sc  Sc54  1  0.55075278  0.77295102  0.93301909  1
  Sc  Sc55  1  0.92051985  0.93810595  0.27234970  1
  Sc  Sc56  1  0.24724358  0.96536491  0.40273551  1
  Sc  Sc57  1  0.42758232  0.11558085  0.05543967  1
  Sc  Sc58  1  0.49401226  0.69711584  0.15117657  1
  Sc  Sc59  1  0.51276945  0.31304205  0.12916216  1
  Sc  Sc60  1  0.12470567  0.39979617  0.34727076  1
  Sc  Sc61  1  0.56408310  0.97519191  0.69330906  1
  Sc  Sc62  1  0.36965164  0.13359540  0.48962069  1
  Sc  Sc63  1  0.60017763  0.93216095  0.08570782  1
  Sc  Sc64  1  0.39424841  0.88669415  0.07584895  1
  Sc  Sc65  1  0.86560520  0.87218368  0.87326106  1
  Sc  Sc66  1  0.16328391  0.65988582  0.92323112  1
  Sc  Sc67  1  0.11016024  0.41982283  0.75138584  1
  Sc  Sc68  1  0.70577089  0.94847419  0.28461874  1
  Sc  Sc69  1  0.16617039  0.12341233  0.52939703  1
  Sc  Sc70  1  0.15444588  0.83830563  0.23193218  1
  Sc  Sc71  1  0.75874446  0.75401926  0.55837458  1
  Sc  Sc72  1  0.48198445  0.55481997  0.96964743  1
  Sc  Sc73  1  0.44551201  0.92498772  0.50047650  1
  Sc  Sc74  1  0.96129047  0.69143057  0.51923890  1
  Sc  Sc75  1  0.53979900  0.43385120  0.29961604  1
  Sc  Sc76  1  0.66441756  0.25365435  0.33546597  1
  Sc  Sc77  1  0.71945190  0.33288277  0.13326121  1
  Sc  Sc78  1  0.94126816  0.86005230  0.66096628  1
  Sc  Sc79  1  0.69556664  0.74058706  0.17322598  1
  Sc  Sc80  1  0.27987323  0.11206910  0.88785569  1
  Sc  Sc81  1  0.03214440  0.62521321  0.74602003  1
  Sc  Sc82  1  0.34670850  0.79533277  0.31321997  1
  Sc  Sc83  1  0.91386537  0.06898466  0.76145131  1
  Sc  Sc84  1  0.49111223  0.20415183  0.82369942  1
  Sc  Sc85  1  0.05846666  0.31832267  0.53262349  1
  Sc  Sc86  1  0.86403488  0.27860982  0.70228356  1
  Sc  Sc87  1  0.55014749  0.73357271  0.55155216  1
  Sc  Sc88  1  0.30024321  0.26747440  0.13420595  1
  Sc  Sc89  1  0.22890542  0.20282342  0.33443035  1
  Sc  Sc90  1  0.17533327  0.73896251  0.43834116  1
  Sc  Sc91  1  0.83377433  0.09646658  0.95307922  1
  Sc  Sc92  1  0.86956713  0.46691435  0.82846982  1
  Sc  Sc93  1  0.64936739  0.55450764  0.65153761  1
  Sc  Sc94  1  0.11724239  -0.00305230  0.69511524  1
  Sc  Sc95  1  0.09236352  0.27102515  0.16816640  1
  Sc  Sc96  1  0.81559420  0.75614920  0.35463711  1
  Sc  Sc97  1  0.12383192  0.78312334  0.63384213  1
  Sc  Sc98  1  0.29232149  0.28696764  0.74700993  1
  Sc  Sc99  1  0.28717189  0.49608033  0.89347355  1
  Nb  Nb100  1  0.10153425  0.03919689  0.26144490  1
  Nb  Nb101  1  0.39293569  0.48767655  0.14028241  1
  Nb  Nb102  1  0.33498682  0.39970238  0.30869159  1
  Nb  Nb103  1  0.75057393  0.43022512  0.32883715  1
  Nb  Nb104  1  0.59601781  0.36391310  0.95100918  1
  Nb  Nb105  1  0.42261996  0.83308692  0.71953649  1
  Nb  Nb106  1  0.38859097  0.33067122  0.96062665  1
  Nb  Nb107  1  0.41954909  0.60520542  0.32867317  1
  Nb  Nb108  1  0.59384205  0.12171826  0.19331494  1
  Nb  Nb109  1  0.46875741  0.30351287  0.43628275  1
  Nb  Nb110  1  0.82019520  0.51220065  0.03378188  1
  Nb  Nb111  1  0.28090301  0.53186621  0.44775439  1
  Nb  Nb112  1  0.44924759  0.33168940  0.62487243  1
  Nb  Nb113  1  0.27336909  0.90562890  0.59907158  1
  Nb  Nb114  1  0.82273281  0.56959883  0.23542360  1
  Nb  Nb115  1  0.95263399  0.49252553  0.39616200  1
  Nb  Nb116  1  0.89278465  0.72326018  0.13258399  1
  Nb  Nb117  1  0.43387510  0.19390732  0.28094168  1
  Nb  Nb118  1  0.67720851  0.94421740  0.88758907  1
  Nb  Nb119  1  1.00602297  0.15051137  0.37021440  1
  Nb  Nb120  1  0.20167498  0.87052111  0.02121440  1
  Nb  Nb121  1  0.76764016  0.30870644  0.91556793  1
  Nb  Nb122  1  0.27825745  0.33699747  0.50997716  1
  Nb  Nb123  1  0.81164153  0.11158803  0.37720952  1
  Nb  Nb124  1  0.85617542  0.94275261  0.47924768  1
