# generated using pymatgen
data_Zr2Sc2Nb
_symmetry_space_group_name_H-M   'P 1'
_cell_length_a   13.93402305
_cell_length_b   13.51466538
_cell_length_c   15.19471888
_cell_angle_alpha   90.83803020
_cell_angle_beta   88.49015184
_cell_angle_gamma   89.45772162
_symmetry_Int_Tables_number   1
_chemical_formula_structural   Zr2Sc2Nb
_chemical_formula_sum   'Zr50 Sc50 Nb25'
_cell_volume   2859.93484682
_cell_formula_units_Z   25
loop_
 _symmetry_equiv_pos_site_id
 _symmetry_equiv_pos_as_xyz
  1  'x, y, z'
loop_
 _atom_site_type_symbol
 _atom_site_label
 _atom_site_symmetry_multiplicity
 _atom_site_fract_x
 _atom_site_fract_y
 _atom_site_fract_z
 _atom_site_occupancy
  Zr  Zr0  1  0.92270809  0.80169093  0.93741502  1
  Zr  Zr1  1  0.23941702  0.30774830  0.84615836  1
  Zr  Zr2  1  0.67312250  0.10524484  0.76436534  1
  Zr  Zr3  1  0.27361845  0.66327898  0.27584983  1
  Zr  Zr4  1  0.08561840  0.46704679  0.73598666  1
  Zr  Zr5  1  0.51122367  0.88721847  0.00886068  1
  Zr  Zr6  1  0.47817431  0.30849087  0.12307709  1
  Zr  Zr7  1  0.81970515  0.89113222  0.28139229  1
  Zr  Zr8  1  0.80056979  0.25353141  0.49210899  1
  Zr  Zr9  1  0.68152085  0.42365441  0.15604767  1
  Zr  Zr10  1  0.74851399  0.10300541  0.35208065  1
  Zr  Zr11  1  0.86294712  0.50482093  0.67927616  1
  Zr  Zr12  1  0.52067580  0.53271059  0.28657158  1
  Zr  Zr13  1  0.41164147  0.36679639  0.71782620  1
  Zr  Zr14  1  0.01204502  0.23783693  0.98068157  1
  Zr  Zr15  1  0.55668629  0.59523752  0.48456334  1
  Zr  Zr16  1  0.17133019  0.65990923  0.67022874  1
  Zr  Zr17  1  0.43044230  0.71563724  0.14387903  1
  Zr  Zr18  1  0.45910113  0.75128263  0.35857381  1
  Zr  Zr19  1  0.20412256  0.27600296  0.27971365  1
  Zr  Zr20  1  0.09224235  0.85688500  0.55219151  1
  Zr  Zr21  1  0.93714982  0.09603409  0.23675194  1
  Zr  Zr22  1  0.60960632  0.48391032  0.68450027  1
  Zr  Zr23  1  0.23193810  0.85351924  0.38131265  1
  Zr  Zr24  1  0.20579364  0.28527117  0.65017451  1
  Zr  Zr25  1  0.03435674  0.29051531  0.16781523  1
  Zr  Zr26  1  0.70246140  0.79963847  0.88412643  1
  Zr  Zr27  1  0.52402729  0.07172788  0.10854695  1
  Zr  Zr28  1  0.64673422  0.24322164  0.00539245  1
  Zr  Zr29  1  0.78772001  0.31254852  0.70534565  1
  Zr  Zr30  1  0.52662694  0.07591469  0.29579346  1
  Zr  Zr31  1  0.36894981  0.95294930  0.66408410  1
  Zr  Zr32  1  0.70278279  0.44151789  0.53077087  1
  Zr  Zr33  1  0.33125625  0.13823512  0.17817158  1
  Zr  Zr34  1  0.02508696  0.25374454  0.78719333  1
  Zr  Zr35  1  0.44129060  0.29726045  0.31995799  1
  Zr  Zr36  1  0.41891969  0.95565869  0.45935457  1
  Zr  Zr37  1  0.30020079  0.54352629  0.00536388  1
  Zr  Zr38  1  0.30795884  0.95229520  0.05414006  1
  Zr  Zr39  1  0.52506243  0.79891234  0.56799849  1
  Zr  Zr40  1  0.63617532  0.33318165  0.37170636  1
  Zr  Zr41  1  0.83203870  0.86670871  0.47630616  1
  Zr  Zr42  1  0.01496175  0.28572275  0.37877954  1
  Zr  Zr43  1  0.74104697  0.52127775  0.33050599  1
  Zr  Zr44  1  0.57373389  0.67650901  0.97947864  1
  Zr  Zr45  1  0.35638250  0.74728031  0.94933519  1
  Zr  Zr46  1  0.09947643  0.45171083  0.52868980  1
  Zr  Zr47  1  0.15826631  0.67609859  0.87995944  1
  Zr  Zr48  1  0.78921393  0.62021645  0.00324738  1
  Zr  Zr49  1  0.12030771  0.08443429  0.12251074  1
  Sc  Sc50  1  0.09724426  0.45097197  0.94544372  1
  Sc  Sc51  1  0.84525992  0.38925545  0.89827475  1
  Sc  Sc52  1  0.24034411  0.30163141  0.05968589  1
  Sc  Sc53  1  0.14097527  0.50426228  0.14822045  1
  Sc  Sc54  1  0.43070629  0.36322272  0.93541954  1
  Sc  Sc55  1  0.68450925  0.02793755  0.95847687  1
  Sc  Sc56  1  0.02844636  0.03026667  0.82421062  1
  Sc  Sc57  1  0.44311559  0.14748135  0.76801290  1
  Sc  Sc58  1  0.70091533  0.88599351  0.66582056  1
  Sc  Sc59  1  0.85442632  0.67512315  0.20029599  1
  Sc  Sc60  1  1.01503870  0.65004694  0.05508046  1
  Sc  Sc61  1  0.48019356  0.55141761  0.84866690  1
  Sc  Sc62  1  0.33207069  0.45359374  0.21629984  1
  Sc  Sc63  1  0.90067693  0.46406258  0.46731927  1
  Sc  Sc64  1  0.96555113  0.48952708  0.27304857  1
  Sc  Sc65  1  0.13370593  0.65929812  0.45034545  1
  Sc  Sc66  1  0.34381573  0.55637910  0.43552535  1
  Sc  Sc67  1  0.20387504  0.75008403  0.10515686  1
  Sc  Sc68  1  0.13660613  0.05905467  0.32514128  1
  Sc  Sc69  1  0.92064676  0.91898304  0.64672424  1
  Sc  Sc70  1  0.75694027  0.83349571  0.07742024  1
  Sc  Sc71  1  0.90868084  0.67552139  0.39657435  1
  Sc  Sc72  1  0.73976613  0.06374869  0.55810080  1
  Sc  Sc73  1  0.74302407  0.66987713  0.56803558  1
  Sc  Sc74  1  0.96692179  0.67479619  0.59686829  1
  Sc  Sc75  1  0.83248783  0.30458480  0.27296527  1
  Sc  Sc76  1  0.61976920  0.32628810  0.82680448  1
  Sc  Sc77  1  0.83362692  0.95562479  0.82207117  1
  Sc  Sc78  1  0.94800460  0.59428953  0.85342474  1
  Sc  Sc79  1  0.36643368  0.91930455  0.23976841  1
  Sc  Sc80  1  1.01810095  0.86998993  0.35627141  1
  Sc  Sc81  1  0.32882273  0.12692849  0.38886186  1
  Sc  Sc82  1  0.47046413  0.38487748  0.52016241  1
  Sc  Sc83  1  0.95795548  0.06907277  0.47192943  1
  Sc  Sc84  1  0.68406858  0.72673912  0.35678595  1
  Sc  Sc85  1  0.19099389  0.11048825  0.93698459  1
  Sc  Sc86  1  0.00098974  0.87045320  0.14807332  1
  Sc  Sc87  1  0.92202937  0.03087294  0.01628767  1
  Sc  Sc88  1  0.74110632  0.04462739  0.15232711  1
  Sc  Sc89  1  0.35222284  0.74694450  0.75749041  1
  Sc  Sc90  1  0.40679008  0.13344117  0.96220485  1
  Sc  Sc91  1  0.52799437  0.92275637  0.80555501  1
  Sc  Sc92  1  0.62884951  0.93068082  0.42530642  1
  Sc  Sc93  1  0.89647128  0.44599677  0.08543493  1
  Sc  Sc94  1  0.31238755  0.76273602  0.54736118  1
  Sc  Sc95  1  0.58988339  0.70274593  0.73502863  1
  Sc  Sc96  1  0.59159554  0.86655028  0.21153078  1
  Sc  Sc97  1  -0.02086233  0.28806787  0.59501990  1
  Sc  Sc98  1  0.12880407  0.88590932  0.94853777  1
  Sc  Sc99  1  0.59620663  0.24906968  0.62592013  1
  Nb  Nb100  1  0.23344118  0.10365702  0.74184666  1
  Nb  Nb101  1  0.27558034  0.34354492  0.45370304  1
  Nb  Nb102  1  0.82803319  0.72853506  0.74906703  1
  Nb  Nb103  1  0.72180194  0.56278861  0.82834662  1
  Nb  Nb104  1  1.02320582  0.79207750  0.76912225  1
  Nb  Nb105  1  0.07191258  0.68289168  0.25892971  1
  Nb  Nb106  1  0.32092718  0.94938968  0.86110140  1
  Nb  Nb107  1  0.17929666  0.89689415  0.72350951  1
  Nb  Nb108  1  0.48838049  0.51950168  0.08290516  1
  Nb  Nb109  1  0.15005052  0.19844834  0.48721152  1
  Nb  Nb110  1  0.64237640  0.64245807  0.15998455  1
  Nb  Nb111  1  0.36935463  0.17295382  0.57657490  1
  Nb  Nb112  1  0.64325225  0.22329051  0.20942451  1
  Nb  Nb113  1  0.54120613  1.03064821  0.60862873  1
  Nb  Nb114  1  0.83024858  0.23128336  0.08190328  1
  Nb  Nb115  1  0.82937030  0.17698319  0.87934743  1
  Nb  Nb116  1  0.22596543  1.01360518  0.53822541  1
  Nb  Nb117  1  0.87571429  0.12610240  0.69242236  1
  Nb  Nb118  1  0.55068104  0.15861933  0.46010625  1
  Nb  Nb119  1  0.15675992  0.47570410  0.34412840  1
  Nb  Nb120  1  0.07458163  0.08339775  0.63928284  1
  Nb  Nb121  1  0.64387422  0.46466408  0.98001484  1
  Nb  Nb122  1  0.27925997  0.51920206  0.80146047  1
  Nb  Nb123  1  0.42632413  0.58800641  0.64200213  1
  Nb  Nb124  1  0.27479583  0.48157713  0.61031264  1
