# generated using pymatgen
data_Zr2Sc2Nb
_symmetry_space_group_name_H-M   'P 1'
_cell_length_a   14.14542922
_cell_length_b   14.32195179
_cell_length_c   14.18413306
_cell_angle_alpha   90.25473614
_cell_angle_beta   90.18051552
_cell_angle_gamma   90.50916049
_symmetry_Int_Tables_number   1
_chemical_formula_structural   Zr2Sc2Nb
_chemical_formula_sum   'Zr50 Sc50 Nb25'
_cell_volume   2873.40923514
_cell_formula_units_Z   25
loop_
 _symmetry_equiv_pos_site_id
 _symmetry_equiv_pos_as_xyz
  1  'x, y, z'
loop_
 _atom_site_type_symbol
 _atom_site_label
 _atom_site_symmetry_multiplicity
 _atom_site_fract_x
 _atom_site_fract_y
 _atom_site_fract_z
 _atom_site_occupancy
  Zr  Zr0  1  0.57335400  0.54370630  0.03373201  1
  Zr  Zr1  1  0.26354922  0.52077610  0.89278336  1
  Zr  Zr2  1  0.35092951  0.25328431  0.43958089  1
  Zr  Zr3  1  0.27342883  0.30705153  0.81170228  1
  Zr  Zr4  1  0.53318286  0.92466441  0.48630948  1
  Zr  Zr5  1  0.77933451  0.33402110  0.76972410  1
  Zr  Zr6  1  0.85554303  0.62574317  0.99658735  1
  Zr  Zr7  1  0.39417730  0.64974919  0.99294365  1
  Zr  Zr8  1  0.82715319  0.08226030  0.25828082  1
  Zr  Zr9  1  0.15093932  0.94707274  0.84526459  1
  Zr  Zr10  1  0.67095127  0.72790021  0.88789637  1
  Zr  Zr11  1  0.48526160  0.85590474  0.28621387  1
  Zr  Zr12  1  0.47109741  0.80711127  0.88058170  1
  Zr  Zr13  1  0.32901861  0.78056862  0.15486486  1
  Zr  Zr14  1  0.47240799  0.02731956  0.88169927  1
  Zr  Zr15  1  0.53806946  0.13440139  0.48290095  1
  Zr  Zr16  1  0.50665290  0.34180326  0.09670984  1
  Zr  Zr17  1  0.65047262  0.73139719  0.31559314  1
  Zr  Zr18  1  0.69270013  0.77657453  0.53006005  1
  Zr  Zr19  1  0.85117673  0.72169401  0.39240841  1
  Zr  Zr20  1  0.41398054  0.49000237  0.35762075  1
  Zr  Zr21  1  0.92940858  0.74662610  0.16814225  1
  Zr  Zr22  1  0.89044887  0.89629932  0.56025351  1
  Zr  Zr23  1  0.38044002  0.14429834  0.13514350  1
  Zr  Zr24  1  0.10043680  0.16028280  0.81358006  1
  Zr  Zr25  1  0.76517871  0.37839404  0.57688411  1
  Zr  Zr26  1  0.30540310  0.44358507  0.52506602  1
  Zr  Zr27  1  0.72275026  0.58007125  0.66259586  1
  Zr  Zr28  1  0.93407879  0.94656412  0.12821733  1
  Zr  Zr29  1  0.82625740  0.84759816  0.96486602  1
  Zr  Zr30  1  0.56211136  0.72833915  0.68095900  1
  Zr  Zr31  1  0.26700764  0.96228994  0.23581179  1
  Zr  Zr32  1  0.12931045  0.96599817  0.43900546  1
  Zr  Zr33  1  0.88507593  0.68715609  0.81037379  1
  Zr  Zr34  1  0.28209664  0.65858058  0.55835145  1
  Zr  Zr35  1  0.07385909  0.04343456  0.63610845  1
  Zr  Zr36  1  0.48861619  0.96902979  0.11116914  1
  Zr  Zr37  1  0.65495810  0.33804753  0.94463162  1
  Zr  Zr38  1  0.40737326  0.84860466  0.62346144  1
  Zr  Zr39  1  0.28633726  0.08808798  0.71603071  1
  Zr  Zr40  1  0.98808550  0.86564523  0.74298967  1
  Zr  Zr41  1  0.34005018  0.67784874  0.75122995  1
  Zr  Zr42  1  0.94210433  0.88946464  0.33974276  1
  Zr  Zr43  1  0.17685698  0.49032017  0.27265171  1
  Zr  Zr44  1  0.70154199  1.00673966  0.60238085  1
  Zr  Zr45  1  0.31944128  0.93099158  0.00595911  1
  Zr  Zr46  1  0.05544431  0.05962636  0.26998515  1
  Zr  Zr47  1  0.42243872  0.05985700  0.32976470  1
  Zr  Zr48  1  0.51929850  0.58085187  0.82031733  1
  Zr  Zr49  1  0.94899198  0.24530563  0.33960423  1
  Sc  Sc50  1  0.57883393  0.14497399  0.03212995  1
  Sc  Sc51  1  0.72753678  0.51725161  0.86583804  1
  Sc  Sc52  1  0.88019252  0.52429437  0.47510960  1
  Sc  Sc53  1  0.34998211  0.50311038  0.12727590  1
  Sc  Sc54  1  0.63597156  0.21700297  0.65055511  1
  Sc  Sc55  1  0.27215474  0.66123254  0.33052222  1
  Sc  Sc56  1  0.08387230  0.76415869  0.49331430  1
  Sc  Sc57  1  0.81694777  -0.01284241  0.79971563  1
  Sc  Sc58  1  0.66731472  0.12110445  0.83263291  1
  Sc  Sc59  1  0.47422797  0.69943568  0.44279196  1
  Sc  Sc60  1  0.91342854  0.68834189  0.60340889  1
  Sc  Sc61  1  0.28225598  0.31019721  0.02242963  1
  Sc  Sc62  1  0.72938333  0.94010353  0.39160885  1
  Sc  Sc63  1  0.93401317  0.49370629  0.72501180  1
  Sc  Sc64  1  0.76976284  0.37447179  0.33338253  1
  Sc  Sc65  1  0.22210360  0.75563766  0.91943314  1
  Sc  Sc66  1  0.48072708  0.24038074  0.83932845  1
  Sc  Sc67  1  0.10366878  0.53879978  0.48532394  1
  Sc  Sc68  1  0.97307359  0.54188002  0.13837596  1
  Sc  Sc69  1  0.86537960  0.15687128  0.65464003  1
  Sc  Sc70  1  0.05628488  0.59013795  0.91557527  1
  Sc  Sc71  1  0.12699357  0.88559439  0.08361668  1
  Sc  Sc72  1  0.18049285  0.27353686  0.62724842  1
  Sc  Sc73  1  0.71413843  0.67067890  0.13273683  1
  Sc  Sc74  1  0.49410797  0.54857497  0.59016145  1
  Sc  Sc75  1  0.61658444  0.07604411  0.25043338  1
  Sc  Sc76  1  0.60723479  0.48803105  0.24329188  1
  Sc  Sc77  1  -0.01412148  0.33775715  0.53971971  1
  Sc  Sc78  1  0.11085503  0.27986419  0.20523252  1
  Sc  Sc79  1  0.91589732  0.34957628  0.13911742  1
  Sc  Sc80  1  0.66665444  0.56009742  0.44364512  1
  Sc  Sc81  1  0.72761915  0.25011181  0.14704075  1
  Sc  Sc82  1  0.92576552  0.07306388  0.46266135  1
  Sc  Sc83  1  0.12873437  0.44222490  0.06036002  1
  Sc  Sc84  1  0.32507089  0.32668156  0.24297530  1
  Sc  Sc85  1  0.71847323  0.89377688  0.16887621  1
  Sc  Sc86  1  0.54931331  0.77735258  0.07897963  1
  Sc  Sc87  1  0.74195876  0.18894280  0.44609796  1
  Sc  Sc88  1  0.11612734  0.69873042  0.72807551  1
  Sc  Sc89  1  0.55815618  0.36571778  0.49645541  1
  Sc  Sc90  1  -0.01937476  0.02888954  0.94139183  1
  Sc  Sc91  1  0.31479343  0.04862223  0.51687636  1
  Sc  Sc92  1  0.14950546  0.66578647  0.11901249  1
  Sc  Sc93  1  0.41717968  0.26419759  0.63789728  1
  Sc  Sc94  1  0.85602066  0.21432866  0.92580991  1
  Sc  Sc95  1  0.15792516  0.10089651  0.08605702  1
  Sc  Sc96  1  0.30470876  0.84677114  0.42614985  1
  Sc  Sc97  1  0.16256232  0.48569285  0.68971646  1
  Sc  Sc98  1  0.53517301  0.27086491  0.29905178  1
  Sc  Sc99  1  0.28830077  0.12034316  0.92358922  1
  Nb  Nb100  1  0.94308148  0.15364838  0.11549284  1
  Nb  Nb101  1  0.02733440  0.64206472  0.32029216  1
  Nb  Nb102  1  0.16311264  0.34153278  0.40532842  1
  Nb  Nb103  1  0.12336044  0.81532363  0.27995418  1
  Nb  Nb104  1  0.37633524  0.45556306  0.72614791  1
  Nb  Nb105  1  0.75517330  0.46082463  0.08797472  1
  Nb  Nb106  1  0.01199671  0.79233598  0.94709047  1
  Nb  Nb107  1  0.10094197  0.39000741  0.85986087  1
  Nb  Nb108  1  0.05592424  0.25650307  -0.01668254  1
  Nb  Nb109  1  0.47519800  0.64663966  0.22093957  1
  Nb  Nb110  1  0.98055855  0.29708568  0.75595823  1
  Nb  Nb111  1  0.58062572  0.40621707  0.73190873  1
  Nb  Nb112  1  0.44365065  0.42639365  0.91972541  1
  Nb  Nb113  1  0.82205147  0.56311374  0.26759867  1
  Nb  Nb114  1  0.23605202  0.14732445  0.31040289  1
  Nb  Nb115  1  0.59630203  0.91408892  0.75103735  1
  Nb  Nb116  1  0.77342660  0.05598008  0.03835345  1
  Nb  Nb117  1  0.20246275  0.87609257  0.63851606  1
  Nb  Nb118  1  0.11810883  0.16779020  0.46039771  1
  Nb  Nb119  1  0.76521021  0.80875239  0.71468269  1
  Nb  Nb120  1  0.33534180  0.90905811  0.78979566  1
  Nb  Nb121  1  0.48731204  0.05206024  0.67177655  1
  Nb  Nb122  1  0.64243121  0.93650079  0.95410962  1
  Nb  Nb123  1  0.91212930  0.41995831  0.93627695  1
  Nb  Nb124  1  0.98912892  0.43919418  0.32364491  1
