# generated using pymatgen
data_Zr2Sc2Nb
_symmetry_space_group_name_H-M   'P 1'
_cell_length_a   14.41956033
_cell_length_b   13.63061345
_cell_length_c   14.54398161
_cell_angle_alpha   90.22065703
_cell_angle_beta   89.35179016
_cell_angle_gamma   87.57881737
_symmetry_Int_Tables_number   1
_chemical_formula_structural   Zr2Sc2Nb
_chemical_formula_sum   'Zr50 Sc50 Nb25'
_cell_volume   2855.82104151
_cell_formula_units_Z   25
loop_
 _symmetry_equiv_pos_site_id
 _symmetry_equiv_pos_as_xyz
  1  'x, y, z'
loop_
 _atom_site_type_symbol
 _atom_site_label
 _atom_site_symmetry_multiplicity
 _atom_site_fract_x
 _atom_site_fract_y
 _atom_site_fract_z
 _atom_site_occupancy
  Zr  Zr0  1  0.26033028  0.27147948  0.74344564  1
  Zr  Zr1  1  0.87716501  0.05697010  0.22387220  1
  Zr  Zr2  1  0.40356593  0.81053955  0.86118602  1
  Zr  Zr3  1  1.00077707  0.46450081  0.76405391  1
  Zr  Zr4  1  0.97457172  0.68856690  0.87024863  1
  Zr  Zr5  1  0.61946601  0.09302071  0.73588903  1
  Zr  Zr6  1  0.09180739  0.36030332  0.39934214  1
  Zr  Zr7  1  0.63526664  0.55150505  0.05550992  1
  Zr  Zr8  1  0.19297446  0.47689558  0.64436378  1
  Zr  Zr9  1  0.20311637  0.48786149  0.07458070  1
  Zr  Zr10  1  0.23382825  0.92476852  0.95492023  1
  Zr  Zr11  1  0.60398792  0.92373106  0.89626339  1
  Zr  Zr12  1  0.51989515  0.36904270  -0.02928302  1
  Zr  Zr13  1  0.73963937  0.92560667  0.47237896  1
  Zr  Zr14  1  0.74306658  0.52358132  0.51292232  1
  Zr  Zr15  1  0.98994735  0.08017401  0.61656473  1
  Zr  Zr16  1  0.50490952  0.91133271  0.72032827  1
  Zr  Zr17  1  0.38877467  0.54219101  0.56023837  1
  Zr  Zr18  1  0.32316965  0.41881528  0.92771669  1
  Zr  Zr19  1  0.67261957  0.73871369  0.59670015  1
  Zr  Zr20  1  0.63341862  0.92873949  0.11312283  1
  Zr  Zr21  1  0.33453721  0.20687719  0.96883412  1
  Zr  Zr22  1  0.42708998  0.31000267  0.58799150  1
  Zr  Zr23  1  0.12876602  0.08714737  0.46614056  1
  Zr  Zr24  1  0.83454330  1.08744748  0.75793160  1
  Zr  Zr25  1  0.53808581  0.65120844  0.44501721  1
  Zr  Zr26  1  0.24644562  0.71694521  0.55764936  1
  Zr  Zr27  1  0.39919869  0.45549842  0.74517198  1
  Zr  Zr28  1  0.23365170  0.45567003  0.26539220  1
  Zr  Zr29  1  0.89771494  0.30538630  0.87393572  1
  Zr  Zr30  1  0.19442735  0.86903383  0.15025632  1
  Zr  Zr31  1  0.02430214  0.46667226  0.20426914  1
  Zr  Zr32  1  0.79416680  0.68364739  0.75623514  1
  Zr  Zr33  1  0.83420922  0.52380721  0.92795985  1
  Zr  Zr34  1  0.73823992  0.34354707  0.02889277  1
  Zr  Zr35  1  0.79802086  0.47518934  0.70764901  1
  Zr  Zr36  1  0.02765900  0.88079563  0.98614227  1
  Zr  Zr37  1  0.30920107  0.94392793  0.52137702  1
  Zr  Zr38  1  0.60351394  0.24273787  0.32402700  1
  Zr  Zr39  1  0.90094817  0.64197753  0.29052048  1
  Zr  Zr40  1  0.94325950  0.22114360  0.44863388  1
  Zr  Zr41  1  0.36591580  0.32369162  0.14492358  1
  Zr  Zr42  1  0.29917186  0.62760057  0.38708983  1
  Zr  Zr43  1  0.16805556  0.55196664  0.85431444  1
  Zr  Zr44  1  0.65402521  0.49510052  0.85154179  1
  Zr  Zr45  1  0.74692915  0.07178764  0.94878143  1
  Zr  Zr46  1  0.75695678  0.31741948  0.46838475  1
  Zr  Zr47  1  0.29230288  0.18123822  0.49483539  1
  Zr  Zr48  1  0.36521244  0.05024657  0.83235626  1
  Zr  Zr49  1  0.93335101  -0.00744842  0.42338498  1
  Sc  Sc50  1  0.11852828  0.33713051  0.90447397  1
  Sc  Sc51  1  0.46336994  0.04676435  0.38370982  1
  Sc  Sc52  1  0.71173657  0.71166308  0.17804016  1
  Sc  Sc53  1  0.96459473  0.08417463  0.91063784  1
  Sc  Sc54  1  0.27331448  0.87977750  0.71248016  1
  Sc  Sc55  1  0.69614231  0.26657052  0.84333359  1
  Sc  Sc56  1  0.22601605  0.22168053  0.28853298  1
  Sc  Sc57  1  0.28753721  0.00301741  0.31522367  1
  Sc  Sc58  1  0.27898306  0.40181043  0.46085241  1
  Sc  Sc59  1  0.73131128  0.74101322  0.96188697  1
  Sc  Sc60  1  0.89149070  0.87330580  0.62346291  1
  Sc  Sc61  1  0.99983421  0.23846068  0.24163548  1
  Sc  Sc62  1  0.84833116  0.88502542  0.85137010  1
  Sc  Sc63  1  0.47282663  0.25325921  0.79566918  1
  Sc  Sc64  1  0.80090121  0.30918430  0.23699602  1
  Sc  Sc65  1  0.08700921  0.02846631  0.27719554  1
  Sc  Sc66  1  0.09567711  0.88372250  0.56291482  1
  Sc  Sc67  1  0.68821862  0.14667306  0.14145524  1
  Sc  Sc68  1  0.59055476  0.14947124  0.50986031  1
  Sc  Sc69  1  0.11081512  0.69229291  0.04862833  1
  Sc  Sc70  1  0.41713558  0.09474866  0.63664449  1
  Sc  Sc71  1  0.17189643  0.83034618  0.37033272  1
  Sc  Sc72  1  0.68914481  0.50855759  0.30378043  1
  Sc  Sc73  1  0.07029091  0.95143539  0.77810135  1
  Sc  Sc74  1  0.87413863  0.27694520  0.65585860  1
  Sc  Sc75  1  0.10524209  0.66544937  0.25441886  1
  Sc  Sc76  1  0.64464638  0.31507165  0.65083302  1
  Sc  Sc77  1  0.47162991  0.11778191  0.18018486  1
  Sc  Sc78  1  0.26423990  0.07356079  0.11355745  1
  Sc  Sc79  1  0.42728444  0.88220397  0.19658378  1
  Sc  Sc80  1  0.51463874  0.66537911  0.23580141  1
  Sc  Sc81  1  0.51760188  0.75329482  0.03229006  1
  Sc  Sc82  1  0.07684640  0.68302444  0.68322724  1
  Sc  Sc83  1  0.08423632  0.59257721  0.45032736  1
  Sc  Sc84  1  0.96204749  0.44029889  0.55643100  1
  Sc  Sc85  1  0.80578290  0.86753026  0.27306322  1
  Sc  Sc86  1  0.55530182  0.41469713  0.46694342  1
  Sc  Sc87  1  0.30451936  0.67255216  0.98169471  1
  Sc  Sc88  1  0.58292159  0.54504498  0.66075420  1
  Sc  Sc89  1  0.30939048  0.67523086  0.19031924  1
  Sc  Sc90  1  0.89572095  0.65624452  0.56048215  1
  Sc  Sc91  1  0.44848511  0.73528085  0.62571466  1
  Sc  Sc92  1  0.54104516  0.91133894  0.52142685  1
  Sc  Sc93  1  0.90706564  0.70214154  0.08178190  1
  Sc  Sc94  1  0.47271168  0.58799661  0.88946821  1
  Sc  Sc95  1  0.43859284  0.47739317  0.30618459  1
  Sc  Sc96  1  0.57493151  0.37609768  0.17022847  1
  Sc  Sc97  1  0.54575635  0.14170735  0.96924650  1
  Sc  Sc98  1  0.14602711  0.26579779  0.09040866  1
  Sc  Sc99  1  0.74477030  0.70996173  0.40300714  1
  Nb  Nb100  1  0.94804974  0.34971628  0.06033679  1
  Nb  Nb101  1  0.84838290  0.93517673  0.06569354  1
  Nb  Nb102  1  0.42940552  0.97284799  1.01021190  1
  Nb  Nb103  1  0.11051583  0.27722686  0.58930241  1
  Nb  Nb104  1  0.77294822  0.13190607  0.37740697  1
  Nb  Nb105  1  0.70590287  0.90912670  0.69788773  1
  Nb  Nb106  1  -0.03727584  0.79276866  0.41018129  1
  Nb  Nb107  1  0.64855658  1.01991025  0.30112004  1
  Nb  Nb108  1  0.88042245  0.17272714  0.06480992  1
  Nb  Nb109  1  0.39878390  0.80748929  0.39499005  1
  Nb  Nb110  1  0.41537974  0.26897571  0.35710673  1
  Nb  Nb111  1  0.60042578  0.72799499  0.79706661  1
  Nb  Nb112  1  0.30397196  0.64780854  0.74781221  1
  Nb  Nb113  1  0.19878822  0.08823807  0.67245803  1
  Nb  Nb114  1  -0.00263574  0.85526584  0.20420112  1
  Nb  Nb115  1  0.89599146  0.44666993  0.36393233  1
  Nb  Nb116  1  0.16918513  0.76463642  0.85141428  1
  Nb  Nb117  1  0.05373060  0.05415143  0.08501590  1
  Nb  Nb118  1  0.04980214  0.21012961  0.75792671  1
  Nb  Nb119  1  0.83062676  0.50544025  0.14089934  1
  Nb  Nb120  1  0.16694085  0.11567929  0.89697608  1
  Nb  Nb121  1  0.78158073  0.09959929  0.57354572  1
  Nb  Nb122  1  0.01266972  0.51249122  -0.01081557  1
  Nb  Nb123  1  0.58982408  0.84062052  0.32853562  1
  Nb  Nb124  1  0.42459156  0.52164343  0.09052374  1
