# generated using pymatgen
data_Zr2Sc2Nb
_symmetry_space_group_name_H-M   'P 1'
_cell_length_a   14.47800130
_cell_length_b   14.13254081
_cell_length_c   14.03730729
_cell_angle_alpha   89.11774268
_cell_angle_beta   89.51188064
_cell_angle_gamma   88.12646162
_symmetry_Int_Tables_number   1
_chemical_formula_structural   Zr2Sc2Nb
_chemical_formula_sum   'Zr50 Sc50 Nb25'
_cell_volume   2870.21863609
_cell_formula_units_Z   25
loop_
 _symmetry_equiv_pos_site_id
 _symmetry_equiv_pos_as_xyz
  1  'x, y, z'
loop_
 _atom_site_type_symbol
 _atom_site_label
 _atom_site_symmetry_multiplicity
 _atom_site_fract_x
 _atom_site_fract_y
 _atom_site_fract_z
 _atom_site_occupancy
  Zr  Zr0  1  0.66994585  0.99317786  0.53249678  1
  Zr  Zr1  1  0.61763113  0.81441213  0.68703586  1
  Zr  Zr2  1  0.82462090  0.86882125  0.64451132  1
  Zr  Zr3  1  0.29972519  0.53290983  0.05572224  1
  Zr  Zr4  1  0.40530588  0.51589597  0.24800939  1
  Zr  Zr5  1  0.93674658  0.52938230  0.68746149  1
  Zr  Zr6  1  0.16772114  0.21295175  0.75478933  1
  Zr  Zr7  1  0.26318081  0.44042505  0.51725662  1
  Zr  Zr8  1  0.07445853  0.25285382  0.19838395  1
  Zr  Zr9  1  0.50697298  0.30509449  0.19748290  1
  Zr  Zr10  1  0.57108710  0.09182593  0.67127201  1
  Zr  Zr11  1  0.59672174  0.60716039  0.73569484  1
  Zr  Zr12  1  0.29014101  0.33718510  0.17408286  1
  Zr  Zr13  1  0.83772623  0.14352809  0.27914997  1
  Zr  Zr14  1  1.04464511  0.11306744  0.61281278  1
  Zr  Zr15  1  0.74869264  0.85261433  -0.02514128  1
  Zr  Zr16  1  0.90245781  0.88873290  0.82943872  1
  Zr  Zr17  1  0.23925385  1.01760852  0.66238415  1
  Zr  Zr18  1  0.42661657  0.72663192  0.78762094  1
  Zr  Zr19  1  0.94290394  0.33851142  -0.00558659  1
  Zr  Zr20  1  0.50734489  0.71789262  0.35450901  1
  Zr  Zr21  1  0.35518055  0.73451558  0.99146916  1
  Zr  Zr22  1  0.86419103  0.61695683  0.42067604  1
  Zr  Zr23  1  0.41906328  0.05256529  0.50738749  1
  Zr  Zr24  1  0.49343172  0.69878071  0.14234092  1
  Zr  Zr25  1  0.45244414  0.14000870  0.06107598  1
  Zr  Zr26  1  0.61364127  0.10049352  0.20046575  1
  Zr  Zr27  1  0.80718924  0.43286259  0.51259041  1
  Zr  Zr28  1  0.91602990  0.81289347  0.36810846  1
  Zr  Zr29  1  0.41794289  0.51033941  0.85359070  1
  Zr  Zr30  1  0.93418354  0.31876390  0.39393131  1
  Zr  Zr31  1  0.23232236  0.80291957  0.74691122  1
  Zr  Zr32  1  0.58276131  0.64582733  0.93927432  1
  Zr  Zr33  1  0.37297827  0.33369841  0.98325625  1
  Zr  Zr34  1  0.02701704  0.72199025  0.76578788  1
  Zr  Zr35  1  0.12339404  0.80359321  0.95238128  1
  Zr  Zr36  1  0.35509810  0.88262795  0.33038435  1
  Zr  Zr37  1  0.71236359  0.70729345  0.28279899  1
  Zr  Zr38  1  0.62990245  0.85889252  0.15096862  1
  Zr  Zr39  1  0.57956690  0.14862781  0.40396184  1
  Zr  Zr40  1  0.44703649  0.50618002  0.45786154  1
  Zr  Zr41  1  0.62095511  0.41954049  0.86269818  1
  Zr  Zr42  1  -0.03739106  0.72219881  0.56205376  1
  Zr  Zr43  1  0.44401477  0.93925555  0.12463171  1
  Zr  Zr44  1  0.80149294  0.30167302  0.84782604  1
  Zr  Zr45  1  0.96027513  0.12992472  0.08613265  1
  Zr  Zr46  1  0.82091866  0.06113409  0.92037346  1
  Zr  Zr47  1  0.61010122  0.36268381  0.45057624  1
  Zr  Zr48  1  0.04011526  0.54335853  0.90764895  1
  Zr  Zr49  1  0.89317480  0.29233105  0.64502994  1
  Sc  Sc50  1  0.60171333  0.51339525  0.26850481  1
  Sc  Sc51  1  0.23150579  0.62402237  0.85772041  1
  Sc  Sc52  1  0.74272980  0.64314796  0.07841684  1
  Sc  Sc53  1  0.89378480  0.99759256  0.48247364  1
  Sc  Sc54  1  0.08554151  0.31775990  0.57244658  1
  Sc  Sc55  1  0.39377086  0.30714742  0.37912073  1
  Sc  Sc56  1  0.08422612  0.96349532  0.79187567  1
  Sc  Sc57  1  0.32082699  0.35946320  0.71611847  1
  Sc  Sc58  1  0.77598806  0.19693459  0.48434037  1
  Sc  Sc59  1  0.39327462  0.10137552  0.28476837  1
  Sc  Sc60  1  0.66993788  0.28326001  0.65955273  1
  Sc  Sc61  1  0.70099870  0.79068992  0.47382196  1
  Sc  Sc62  1  0.43767537  0.92689249  0.71058029  1
  Sc  Sc63  1  1.02023651  0.46752429  0.26658633  1
  Sc  Sc64  1  0.12807992  0.02912552  0.22075165  1
  Sc  Sc65  1  0.12701708  0.03718972  0.98321464  1
  Sc  Sc66  1  0.21946990  0.04877727  0.43933306  1
  Sc  Sc67  1  0.77575786  0.70540937  0.82178781  1
  Sc  Sc68  1  0.16482687  0.67431960  0.57869791  1
  Sc  Sc69  1  0.75746474  0.21372965  0.06444450  1
  Sc  Sc70  1  0.13661200  0.86636462  0.36531259  1
  Sc  Sc71  1  0.08535347  0.66797099  0.35233884  1
  Sc  Sc72  1  0.01777089  0.36424899  0.80035445  1
  Sc  Sc73  1  0.77605913  0.65198712  0.62231385  1
  Sc  Sc74  1  0.53106715  0.85909077  0.93361757  1
  Sc  Sc75  1  0.31122377  0.66313128  0.42538651  1
  Sc  Sc76  1  0.03875086  0.50473482  0.48913360  1
  Sc  Sc77  1  0.31521391  0.94019852  0.89941318  1
  Sc  Sc78  1  0.93055052  0.71435587  0.98881884  1
  Sc  Sc79  1  0.21618956  0.49647770  0.30096477  1
  Sc  Sc80  1  0.27792766  0.70468888  0.21284785  1
  Sc  Sc81  1  0.15097411  0.50156117  0.70109644  1
  Sc  Sc82  1  0.46437602  0.26323611  0.57238665  1
  Sc  Sc83  1  0.24298569  0.89025962  0.11500088  1
  Sc  Sc84  1  0.98158414  0.15495374  0.83950450  1
  Sc  Sc85  1  0.18126832  0.28365277  0.37319639  1
  Sc  Sc86  1  0.25772605  0.14236675  0.11561684  1
  Sc  Sc87  1  0.72632081  0.42615863  0.06265526  1
  Sc  Sc88  1  0.10904977  0.62857692  0.10424991  1
  Sc  Sc89  1  0.64447341  0.57663462  0.48412765  1
  Sc  Sc90  1  0.51318477  0.47981302  0.05853405  1
  Sc  Sc91  1  0.80479151  0.49088048  0.27394409  1
  Sc  Sc92  1  0.07557427  0.89404811  0.58149344  1
  Sc  Sc93  1  0.74305301  -0.05051590  0.32504464  1
  Sc  Sc94  1  0.51722445  0.44707116  0.65269943  1
  Sc  Sc95  1  0.81367551  0.09021443  0.69073461  1
  Sc  Sc96  1  0.70239377  0.30260023  0.27376367  1
  Sc  Sc97  1  0.02612853  0.12903640  0.39020885  1
  Sc  Sc98  1  0.30859678  0.83940758  0.54761015  1
  Sc  Sc99  1  0.30175673  0.16143393  0.89977897  1
  Nb  Nb100  1  0.11998389  0.41998821  0.07969859  1
  Nb  Nb101  1  0.49409508  0.06831811  0.87111756  1
  Nb  Nb102  1  0.92354438  0.65844624  0.21485385  1
  Nb  Nb103  1  0.20918444  0.40692204  0.89227628  1
  Nb  Nb104  1  0.57820963  0.26707291  0.99421885  1
  Nb  Nb105  1  -0.03862328  0.92606850  0.03213290  1
  Nb  Nb106  1  0.75031242  0.46485737  0.70966248  1
  Nb  Nb107  1  0.65996973  0.16885289  0.84631615  1
  Nb  Nb108  1  0.12938389  0.25229757  0.97972636  1
  Nb  Nb109  1  0.89208182  0.32552117  0.18418254  1
  Nb  Nb110  1  0.37388617  0.13735991  0.71246600  1
  Nb  Nb111  1  0.50762981  0.87276477  0.50736557  1
  Nb  Nb112  1  0.84219721  0.82258021  0.16410139  1
  Nb  Nb113  1  0.54347857  0.93974223  0.33116809  1
  Nb  Nb114  1  0.67910527  0.96017787  0.80198791  1
  Nb  Nb115  1  0.94603260  0.97440235  0.24987147  1
  Nb  Nb116  1  0.78888300  0.00727495  0.12234047  1
  Nb  Nb117  1  0.92256211  0.51429867  0.08063757  1
  Nb  Nb118  1  0.26463646  0.21176747  0.55875930  1
  Nb  Nb119  1  0.48712832  0.26857372  0.80778893  1
  Nb  Nb120  1  0.48120706  0.68867671  0.57374294  1
  Nb  Nb121  1  0.83022828  0.51310384  0.88992273  1
  Nb  Nb122  1  0.34553010  0.58765967  0.65714865  1
  Nb  Nb123  1  0.62842799  0.03718983  0.00559895  1
  Nb  Nb124  1  0.05094699  0.81757787  0.17462858  1
