# generated using pymatgen
data_Zr2Sc2Nb
_symmetry_space_group_name_H-M   'P 1'
_cell_length_a   13.95728626
_cell_length_b   14.71357051
_cell_length_c   13.92821737
_cell_angle_alpha   90.94078764
_cell_angle_beta   90.24721211
_cell_angle_gamma   87.71717368
_symmetry_Int_Tables_number   1
_chemical_formula_structural   Zr2Sc2Nb
_chemical_formula_sum   'Zr50 Sc50 Nb25'
_cell_volume   2857.64536358
_cell_formula_units_Z   25
loop_
 _symmetry_equiv_pos_site_id
 _symmetry_equiv_pos_as_xyz
  1  'x, y, z'
loop_
 _atom_site_type_symbol
 _atom_site_label
 _atom_site_symmetry_multiplicity
 _atom_site_fract_x
 _atom_site_fract_y
 _atom_site_fract_z
 _atom_site_occupancy
  Zr  Zr0  1  0.71402407  0.34028550  0.19885622  1
  Zr  Zr1  1  0.40180764  0.34140185  0.70265139  1
  Zr  Zr2  1  0.91546371  0.39679118  0.29568088  1
  Zr  Zr3  1  0.72048239  0.75173219  0.06014894  1
  Zr  Zr4  1  0.67554179  0.93303183  0.97717468  1
  Zr  Zr5  1  0.35414988  0.81297399  0.36394907  1
  Zr  Zr6  1  0.94081968  0.95169574  0.89965225  1
  Zr  Zr7  1  0.45113836  0.67803745  0.21643136  1
  Zr  Zr8  1  0.14930777  0.68610440  0.65077981  1
  Zr  Zr9  1  0.20245018  0.66356238  0.41702384  1
  Zr  Zr10  1  0.53557505  0.77533443  0.45333512  1
  Zr  Zr11  1  0.70590662  0.40426046  0.59711435  1
  Zr  Zr12  1  0.75373794  0.93627348  0.77704933  1
  Zr  Zr13  1  0.43147924  0.15381423  0.39337863  1
  Zr  Zr14  1  0.50212558  0.32359664  0.29177017  1
  Zr  Zr15  1  0.99007004  0.59117282  0.86444046  1
  Zr  Zr16  1  0.32741805  0.15964373  0.80454514  1
  Zr  Zr17  1  0.27605783  0.06910119  0.04486260  1
  Zr  Zr18  1  0.69816229  0.45241928  0.37573611  1
  Zr  Zr19  1  0.54873604  0.49813178  0.21101790  1
  Zr  Zr20  1  0.22921181  0.69846607  0.21214294  1
  Zr  Zr21  1  0.04949849  -0.02410439  0.51217895  1
  Zr  Zr22  1  0.52449219  0.87257028  0.80660533  1
  Zr  Zr23  1  0.75311541  0.96423924  0.20236031  1
  Zr  Zr24  1  0.50374944  0.79893142  1.00488610  1
  Zr  Zr25  1  0.03450794  0.30627069  0.12572655  1
  Zr  Zr26  1  0.36239698  0.67693328  0.55415670  1
  Zr  Zr27  1  0.14797394  0.87232606  0.33390823  1
  Zr  Zr28  1  0.66593475  0.24949304  0.44463995  1
  Zr  Zr29  1  0.81546833  0.06458382  0.03966540  1
  Zr  Zr30  1  0.41557407  0.96900903  0.51908275  1
  Zr  Zr31  1  0.23744003  0.85721937  0.54444634  1
  Zr  Zr32  1  0.84093603  0.23904384  0.66492872  1
  Zr  Zr33  1  0.54257358  0.58349084  0.01872926  1
  Zr  Zr34  1  0.95449879  0.04475568  0.70318914  1
  Zr  Zr35  1  0.85473948  0.75603710  0.88022594  1
  Zr  Zr36  1  0.13204451  0.45370299  0.98487772  1
  Zr  Zr37  1  0.21024002  0.60052250  0.86468618  1
  Zr  Zr38  1  0.22072364  0.09976912  0.45668657  1
  Zr  Zr39  1  0.25014170  0.35742924  0.16033286  1
  Zr  Zr40  1  0.66798244  0.66091033  0.32040881  1
  Zr  Zr41  1  0.91456255  0.65043795  0.07743438  1
  Zr  Zr42  1  0.02091283  0.71730493  0.27883386  1
  Zr  Zr43  1  0.92914935  0.63424779  0.64592986  1
  Zr  Zr44  1  0.53139340  0.70586793  0.67637329  1
  Zr  Zr45  1  0.59063245  0.82391268  0.21201024  1
  Zr  Zr46  1  0.54019809  0.06520720  0.71469667  1
  Zr  Zr47  1  0.03604309  0.38065827  0.52577621  1
  Zr  Zr48  1  1.00763243  0.17203476  0.53043567  1
  Zr  Zr49  1  0.50889237  0.96602758  0.33218575  1
  Sc  Sc50  1  0.10632318  0.49163770  0.69018978  1
  Sc  Sc51  1  0.57491112  0.47681391  0.81690814  1
  Sc  Sc52  1  0.31805940  0.54592143  0.08049234  1
  Sc  Sc53  1  0.14691354  0.89499374  0.09443412  1
  Sc  Sc54  1  0.07320501  0.24981244  0.34934595  1
  Sc  Sc55  1  0.21602759  0.35204675  0.79291042  1
  Sc  Sc56  1  0.07137631  0.52640551  0.17746864  1
  Sc  Sc57  1  0.86755126  0.18828449  0.23377160  1
  Sc  Sc58  1  0.61856138  0.18925604  0.05979683  1
  Sc  Sc59  1  0.29529697  1.02403697  0.27358959  1
  Sc  Sc60  1  0.03221863  0.08614405  0.06984926  1
  Sc  Sc61  1  0.50970761  0.50726288  0.61912543  1
  Sc  Sc62  1  0.13462550  0.44359430  0.34954240  1
  Sc  Sc63  1  0.13551739  0.22596435  0.94325572  1
  Sc  Sc64  1  0.75194244  0.56370464  0.72772776  1
  Sc  Sc65  1  0.93186906  0.86296298  0.10092741  1
  Sc  Sc66  1  0.45132064  0.34194587  0.49698849  1
  Sc  Sc67  1  0.72173555  0.13922114  0.84311890  1
  Sc  Sc68  1  0.64575885  0.70419270  0.86024341  1
  Sc  Sc69  1  0.94246071  0.16606768  0.86983463  1
  Sc  Sc70  1  0.83103615  0.26825434  0.01940803  1
  Sc  Sc71  1  0.73075152  0.55849722  0.14677824  1
  Sc  Sc72  1  0.33897898  0.25389314  0.98861403  1
  Sc  Sc73  1  0.33755783  0.97651687  0.71465173  1
  Sc  Sc74  1  0.37915481  0.44741748  0.90002750  1
  Sc  Sc75  1  0.10213455  0.79999212  0.88810381  1
  Sc  Sc76  1  0.60130886  0.24434742  0.65669426  1
  Sc  Sc77  1  0.26749497  0.47659787  0.52387759  1
  Sc  Sc78  1  0.78231090  0.54215748  0.93160970  1
  Sc  Sc79  1  0.33509714  0.49484021  0.29962744  1
  Sc  Sc80  1  0.84888740  0.91105801  0.55971025  1
  Sc  Sc81  1  0.49283042  0.56543503  0.41522324  1
  Sc  Sc82  1  0.36025573  0.86934437  0.15353926  1
  Sc  Sc83  1  0.47851537  0.36428716  0.08032630  1
  Sc  Sc84  1  0.31290811  0.91624815  0.91519296  1
  Sc  Sc85  1  0.95854621  0.38219441  0.88182735  1
  Sc  Sc86  1  0.48246331  0.06158274  0.92341556  1
  Sc  Sc87  1  0.30022263  0.73272240  1.00155809  1
  Sc  Sc88  1  0.63202846  0.13439987  0.27016970  1
  Sc  Sc89  1  0.31393489  0.77075091  0.75396011  1
  Sc  Sc90  1  0.84642261  0.72231197  0.45476599  1
  Sc  Sc91  1  0.16871896  0.11053308  0.67361366  1
  Sc  Sc92  1  0.82776523  0.08186791  0.41795436  1
  Sc  Sc93  1  0.04471650  0.05284629  0.29293260  1
  Sc  Sc94  1  0.51252382  0.00983667  0.12287613  1
  Sc  Sc95  1  0.61664340  0.90140650  0.60305144  1
  Sc  Sc96  1  0.53807535  0.27021852  0.86864064  1
  Sc  Sc97  1  0.70842528  0.89601988  0.39976044  1
  Sc  Sc98  1  0.67991113  0.61990594  0.53401431  1
  Sc  Sc99  1  0.95912546  0.82225573  0.71268295  1
  Nb  Nb100  1  0.59273094  0.07715792  0.49620243  1
  Nb  Nb101  1  0.19484499  0.18044841  0.19087778  1
  Nb  Nb102  1  0.85640464  0.30322569  0.46204784  1
  Nb  Nb103  1  0.75115124  0.34986210  0.81976878  1
  Nb  Nb104  1  0.13521135  0.90835095  0.71255452  1
  Nb  Nb105  1  0.33029500  0.54823272  0.71433380  1
  Nb  Nb106  1  0.88063593  0.57930709  0.29418083  1
  Nb  Nb107  1  0.89264037  0.44853920  0.08584795  1
  Nb  Nb108  1  0.85901311  0.50522369  0.49248518  1
  Nb  Nb109  1  0.28512002  0.28544981  0.36024490  1
  Nb  Nb110  1  0.40333029  0.18635015  0.18395928  1
  Nb  Nb111  1  0.43550327  0.64335411  0.85526754  1
  Nb  Nb112  1  0.22263443  0.28113313  0.56681608  1
  Nb  Nb113  1  0.04382074  0.27315869  0.71375975  1
  Nb  Nb114  1  0.92478698  0.89220555  0.34408467  1
  Nb  Nb115  1  0.03148620  0.58414411  0.46899644  1
  Nb  Nb116  1  0.74971584  0.76177795  0.67411906  1
  Nb  Nb117  1  0.81206736  0.76596205  0.24260351  1
  Nb  Nb118  1  0.38895787  0.16052132  0.59835359  1
  Nb  Nb119  1  0.03843644  0.78471766  0.50607081  1
  Nb  Nb120  1  0.66809212  0.39927671  0.00484150  1
  Nb  Nb121  1  0.10557475  0.67329727  0.04702704  1
  Nb  Nb122  1  0.13268223  0.02845565  0.87065956  1
  Nb  Nb123  1  0.90260197  0.42483517  0.67874965  1
  Nb  Nb124  1  0.74101961  0.08034055  0.61887997  1
