# generated using pymatgen
data_Zr2Sc2Nb
_symmetry_space_group_name_H-M   'P 1'
_cell_length_a   14.23030354
_cell_length_b   14.11041839
_cell_length_c   14.31098715
_cell_angle_alpha   90.38464509
_cell_angle_beta   90.05945389
_cell_angle_gamma   90.42903496
_symmetry_Int_Tables_number   1
_chemical_formula_structural   Zr2Sc2Nb
_chemical_formula_sum   'Zr50 Sc50 Nb25'
_cell_volume   2873.43533029
_cell_formula_units_Z   25
loop_
 _symmetry_equiv_pos_site_id
 _symmetry_equiv_pos_as_xyz
  1  'x, y, z'
loop_
 _atom_site_type_symbol
 _atom_site_label
 _atom_site_symmetry_multiplicity
 _atom_site_fract_x
 _atom_site_fract_y
 _atom_site_fract_z
 _atom_site_occupancy
  Zr  Zr0  1  0.69912003  0.52893233  0.65486876  1
  Zr  Zr1  1  0.25769063  0.21472843  0.34981916  1
  Zr  Zr2  1  0.34382191  0.08974194  0.56214611  1
  Zr  Zr3  1  0.05662554  0.32183458  0.68579673  1
  Zr  Zr4  1  0.76553249  0.57020216  0.03659505  1
  Zr  Zr5  1  0.10985813  0.42705474  0.87978558  1
  Zr  Zr6  1  0.28893136  0.37086345  0.76349485  1
  Zr  Zr7  1  0.31453248  0.44874522  0.25453740  1
  Zr  Zr8  1  0.21557156  0.65441605  0.51787363  1
  Zr  Zr9  1  0.04235151  0.28082037  0.45557302  1
  Zr  Zr10  1  0.62370629  0.94574830  0.14709338  1
  Zr  Zr11  1  0.73967276  0.41061888  0.80486337  1
  Zr  Zr12  1  0.03991862  0.35063549  0.07341280  1
  Zr  Zr13  1  0.94526511  0.52239920  0.16759619  1
  Zr  Zr14  1  0.47047031  0.75782115  0.52904434  1
  Zr  Zr15  1  0.87389562  0.18528302  0.03062270  1
  Zr  Zr16  1  0.22267088  0.29766586  0.16381372  1
  Zr  Zr17  1  0.72464415  0.13536999  0.16755976  1
  Zr  Zr18  1  0.18653951  0.62883383  0.30166395  1
  Zr  Zr19  1  0.48189620  0.95671927  0.46804018  1
  Zr  Zr20  1  0.97523503  0.57616097  0.95971932  1
  Zr  Zr21  1  0.27553430  0.09574822  0.13634019  1
  Zr  Zr22  1  0.87212770  0.59167286  0.52975682  1
  Zr  Zr23  1  0.92892996  0.14361178  0.57494027  1
  Zr  Zr24  1  0.14832608  0.55092272  0.71164020  1
  Zr  Zr25  1  0.08231574  0.42683540  0.28106279  1
  Zr  Zr26  1  0.51364695  0.64283823  0.92342359  1
  Zr  Zr27  1  0.07609835  0.88070140  0.82974262  1
  Zr  Zr28  1  0.28182952  0.87232460  0.55647794  1
  Zr  Zr29  1  0.78557368  0.99818150  0.51343440  1
  Zr  Zr30  1  0.86364083  0.38775121  0.97159115  1
  Zr  Zr31  1  0.89621822  0.81960559  0.47384996  1
  Zr  Zr32  1  0.15434584  0.67743732  0.90198018  1
  Zr  Zr33  1  0.43403802  0.30264224  0.61883087  1
  Zr  Zr34  1  0.07803019  0.14118809  0.08343995  1
  Zr  Zr35  1  0.69833007  0.50846205  0.43387940  1
  Zr  Zr36  1  0.68976438  0.23946375  0.93028438  1
  Zr  Zr37  1  0.62227500  0.26280616  0.72715566  1
  Zr  Zr38  1  0.47114062  0.06477595  0.25554007  1
  Zr  Zr39  1  0.86818549  0.24227082  0.78117355  1
  Zr  Zr40  1  0.24355438  0.26426926  0.96200238  1
  Zr  Zr41  1  0.87418084  0.72268307  0.15380608  1
  Zr  Zr42  1  0.40029045  0.94374393  0.10069409  1
  Zr  Zr43  1  0.75844179  0.07825045  0.72224322  1
  Zr  Zr44  1  0.80608324  0.92027787  0.29004892  1
  Zr  Zr45  1  0.12234029  0.83555179  0.40686200  1
  Zr  Zr46  1  0.61484184  0.35275185  0.53384481  1
  Zr  Zr47  1  0.98822757  0.69955232  0.76118248  1
  Zr  Zr48  1  0.69308501  0.77355796  0.00811112  1
  Zr  Zr49  1  0.48077482  0.84483287  0.28134092  1
  Sc  Sc50  1  0.31894198  0.53666583  0.88630502  1
  Sc  Sc51  1  0.92764699  0.02193361  0.91064810  1
  Sc  Sc52  1  0.04628617  0.92220592  0.07624926  1
  Sc  Sc53  1  0.60256066  0.45491908  0.94763186  1
  Sc  Sc54  1  0.45769363  0.92538052  0.69807980  1
  Sc  Sc55  1  0.53429492  0.46038331  0.28690038  1
  Sc  Sc56  1  0.67247726  0.69625936  0.52645490  1
  Sc  Sc57  1  0.56854500  0.09163575  0.60672538  1
  Sc  Sc58  1  0.39490453  0.64720727  0.21555378  1
  Sc  Sc59  1  0.50167590  0.46827122  0.75435950  1
  Sc  Sc60  1  0.56860976  0.07690061  0.82800875  1
  Sc  Sc61  1  0.36239587  0.63907253  0.69124261  1
  Sc  Sc62  1  0.68310610  0.29857810  0.32966251  1
  Sc  Sc63  1  0.75434116  0.63269512  0.84337162  1
  Sc  Sc64  1  0.35357840  0.77996118  0.84667010  1
  Sc  Sc65  1  0.05524664  0.49213566  0.52482778  1
  Sc  Sc66  1  0.23506509  0.83983232  0.20520658  1
  Sc  Sc67  1  0.49322513  0.76788629  0.08262897  1
  Sc  Sc68  1  0.90699470  0.78680883  0.94384440  1
  Sc  Sc69  1  0.52497500  0.89568193  0.92102585  1
  Sc  Sc70  1  0.80755746  0.73721535  0.66728511  1
  Sc  Sc71  1  0.18997824  0.51291028  0.07849315  1
  Sc  Sc72  1  0.23077949  0.27356258  0.56341892  1
  Sc  Sc73  1  0.57376696  0.72158214  0.73006823  1
  Sc  Sc74  1  0.50939917  0.53542868  0.55024413  1
  Sc  Sc75  1  0.35628325  0.06399600  0.91868256  1
  Sc  Sc76  1  0.89036573  0.42522937  0.37341920  1
  Sc  Sc77  1  0.41507522  0.46238530  0.06592628  1
  Sc  Sc78  1  0.89772445  0.91888859  0.68963323  1
  Sc  Sc79  1  0.37861053  0.57900795  0.41073640  1
  Sc  Sc80  1  0.66827337  0.35117134  0.11673644  1
  Sc  Sc81  1  0.44550585  0.27177536  0.21468599  1
  Sc  Sc82  1  0.65738489  0.07040206  0.35979406  1
  Sc  Sc83  1  0.24753093  0.97280179  0.74344324  1
  Sc  Sc84  1  0.65371437  0.85153578  0.40425916  1
  Sc  Sc85  1  0.23273473  0.87811867  0.98509723  1
  Sc  Sc86  1  0.72383786  0.87367840  0.81905144  1
  Sc  Sc87  1  0.52468211  0.13329737  0.05042244  1
  Sc  Sc88  1  0.74363653  0.52273001  0.23614964  1
  Sc  Sc89  1  0.29993587  0.99023520  0.35737138  1
  Sc  Sc90  1  0.71665045  0.02911871  0.96818393  1
  Sc  Sc91  1  0.49804862  0.18979824  0.43000659  1
  Sc  Sc92  1  0.03664054  0.08228156  0.73292324  1
  Sc  Sc93  1  0.08821129  0.70195713  0.11913550  1
  Sc  Sc94  1  0.45968591  0.28772108  0.89355760  1
  Sc  Sc95  1  0.85657597  0.17721393  0.36694260  1
  Sc  Sc96  1  0.92899459  0.49279942  0.74862410  1
  Sc  Sc97  1  0.21132986  0.18392172  0.76412492  1
  Sc  Sc98  1  0.13892655  0.08003424  0.49120926  1
  Sc  Sc99  1  0.84334690  0.36439777  0.58795834  1
  Nb  Nb100  1  0.31082309  0.68604870  0.03838059  1
  Nb  Nb101  1  1.03420570  0.71215470  0.56930737  1
  Nb  Nb102  1  0.87590742  0.30622311  0.19603060  1
  Nb  Nb103  1  0.40224865  0.36767289  0.42923614  1
  Nb  Nb104  1  0.40606226  0.15415793  0.73742353  1
  Nb  Nb105  1  0.14659912  0.06093896  0.92186122  1
  Nb  Nb106  1  0.83321311  0.92189718  0.09560610  1
  Nb  Nb107  1  0.58214945  0.59026266  0.12229671  1
  Nb  Nb108  1  0.18418890  0.76224769  0.70319132  1
  Nb  Nb109  1  0.72868499  0.19451877  0.53580745  1
  Nb  Nb110  1  0.97481479  0.00744054  0.40322287  1
  Nb  Nb111  1  0.92547766  0.06393939  0.20183616  1
  Nb  Nb112  1  0.99242741  0.64633892  0.35302979  1
  Nb  Nb113  1  0.21424792  0.42900910  0.42053910  1
  Nb  Nb114  1  0.80014710  0.69017055  0.34758833  1
  Nb  Nb115  1  -0.01119994  0.84763599  0.26460458  1
  Nb  Nb116  1  0.30238052  0.47027997  0.58716487  1
  Nb  Nb117  1  0.07416570  0.90741397  0.59873237  1
  Nb  Nb118  1  0.65419664  0.89342069  0.61971468  1
  Nb  Nb119  1  0.04814195  0.21400859  0.27235536  1
  Nb  Nb120  1  0.11606979  0.02438447  0.26813097  1
  Nb  Nb121  1  0.03720052  0.23307199  0.89178547  1
  Nb  Nb122  1  0.33074265  0.77782837  0.38403998  1
  Nb  Nb123  1  0.57240365  0.65905088  0.34195894  1
  Nb  Nb124  1  0.67682711  0.75096701  0.20457407  1
