# generated using pymatgen
data_Zr2Sc2Nb
_symmetry_space_group_name_H-M   'P 1'
_cell_length_a   13.90176756
_cell_length_b   14.25199145
_cell_length_c   14.52950323
_cell_angle_alpha   90.33456126
_cell_angle_beta   88.70854807
_cell_angle_gamma   90.19101264
_symmetry_Int_Tables_number   1
_chemical_formula_structural   Zr2Sc2Nb
_chemical_formula_sum   'Zr50 Sc50 Nb25'
_cell_volume   2877.90449667
_cell_formula_units_Z   25
loop_
 _symmetry_equiv_pos_site_id
 _symmetry_equiv_pos_as_xyz
  1  'x, y, z'
loop_
 _atom_site_type_symbol
 _atom_site_label
 _atom_site_symmetry_multiplicity
 _atom_site_fract_x
 _atom_site_fract_y
 _atom_site_fract_z
 _atom_site_occupancy
  Zr  Zr0  1  0.17821652  0.07691094  0.59406029  1
  Zr  Zr1  1  0.06020810  0.46976407  0.58242594  1
  Zr  Zr2  1  0.70029239  0.26748144  0.44799225  1
  Zr  Zr3  1  0.91381030  0.78875738  0.19344087  1
  Zr  Zr4  1  0.89035847  0.96716273  0.45966979  1
  Zr  Zr5  1  0.48908384  0.97721041  0.05552863  1
  Zr  Zr6  1  0.67811283  0.46329611  0.40102647  1
  Zr  Zr7  1  0.86955834  0.76705561  0.41044077  1
  Zr  Zr8  1  0.96056276  0.61707899  0.29577129  1
  Zr  Zr9  1  0.52396887  0.15588369  0.55155417  1
  Zr  Zr10  1  0.73251931  0.19827781  0.63029677  1
  Zr  Zr11  1  0.33016551  0.82561781  0.18485746  1
  Zr  Zr12  1  0.68324980  0.56965000  0.02513943  1
  Zr  Zr13  1  0.23786995  0.19883429  0.11355737  1
  Zr  Zr14  1  0.23158797  0.97378863  0.78031351  1
  Zr  Zr15  1  0.25055667  1.01576018  0.23291023  1
  Zr  Zr16  1  0.88464333  0.16443106  0.14759914  1
  Zr  Zr17  1  0.96478632  0.14051312  0.57832257  1
  Zr  Zr18  1  0.49067785  0.96665152  0.26053105  1
  Zr  Zr19  1  0.53511405  0.66131016  0.92147856  1
  Zr  Zr20  1  0.98527761  0.56364271  0.93209372  1
  Zr  Zr21  1  0.17835483  0.67507393  0.27375858  1
  Zr  Zr22  1  0.12655146  0.26219908  0.47027068  1
  Zr  Zr23  1  0.26737109  0.98163096  1.02489975  1
  Zr  Zr24  1  0.65441691  0.52162589  0.79045741  1
  Zr  Zr25  1  0.80828948  -0.00441529  0.64382227  1
  Zr  Zr26  1  0.26434746  0.33416805  0.92013339  1
  Zr  Zr27  1  0.34537753  0.38890534  0.70882910  1
  Zr  Zr28  1  0.49273547  0.19488332  0.74550727  1
  Zr  Zr29  1  0.28049862  0.18279513  0.75911421  1
  Zr  Zr30  1  0.53237797  0.15983751  0.34339289  1
  Zr  Zr31  1  0.91170860  0.31424838  0.71576939  1
  Zr  Zr32  1  0.65631242  0.66710190  0.43282178  1
  Zr  Zr33  1  0.13733089  0.30734615  0.66622579  1
  Zr  Zr34  1  0.47464154  0.74964852  0.56286559  1
  Zr  Zr35  1  0.29736313  0.62956653  0.10047420  1
  Zr  Zr36  1  0.68594957  0.04426846  0.47797652  1
  Zr  Zr37  1  0.02957984  0.34473730  0.87404912  1
  Zr  Zr38  1  0.85980327  0.92613048  0.87172985  1
  Zr  Zr39  1  0.91006245  -0.01213822  0.26517880  1
  Zr  Zr40  1  0.12512015  0.84890666  0.10759873  1
  Zr  Zr41  1  0.78533666  0.67688262  0.87270856  1
  Zr  Zr42  1  0.68858889  0.30185361  0.79737739  1
  Zr  Zr43  1  0.88934783  0.17931259  0.37893030  1
  Zr  Zr44  1  0.87436253  0.39629676  0.08733856  1
  Zr  Zr45  1  0.69495428  0.93040256  0.14904194  1
  Zr  Zr46  1  0.69755184  0.82718999  0.55112821  1
  Zr  Zr47  1  0.07656821  0.92606472  0.90781673  1
  Zr  Zr48  1  0.66158682  0.05089970  0.79253476  1
  Zr  Zr49  1  0.53874875  0.56701487  0.27135870  1
  Sc  Sc50  1  0.13856265  0.78851935  0.69342418  1
  Sc  Sc51  1  0.31019365  0.27385691  0.32000628  1
  Sc  Sc52  1  0.44822858  0.96976905  0.83420578  1
  Sc  Sc53  1  0.25668071  0.61128953  0.63541405  1
  Sc  Sc54  1  0.32679295  0.51758333  0.30690183  1
  Sc  Sc55  1  0.87469017  0.59857679  0.10129404  1
  Sc  Sc56  1  0.77996368  0.65550796  0.65536817  1
  Sc  Sc57  1  0.74787021  0.06149706  -0.00637397  1
  Sc  Sc58  1  0.34211334  0.55826229  0.90025864  1
  Sc  Sc59  1  0.73149087  0.28461827  0.24022321  1
  Sc  Sc60  1  0.62687947  0.86811772  0.91879567  1
  Sc  Sc61  1  0.58393867  0.74141680  0.73614164  1
  Sc  Sc62  1  0.90940573  0.94756425  0.06820928  1
  Sc  Sc63  1  0.65190674  0.35710347  0.03337255  1
  Sc  Sc64  1  0.86495886  0.55584885  0.48769190  1
  Sc  Sc65  1  0.54035742  0.75101069  0.11957555  1
  Sc  Sc66  1  0.76095852  0.41986632  0.62025218  1
  Sc  Sc67  1  0.82833231  0.25441966  0.94501719  1
  Sc  Sc68  1  0.36487365  0.79534506  0.96912152  1
  Sc  Sc69  1  0.05906082  0.14121899  0.77092043  1
  Sc  Sc70  1  0.08007810  0.85209033  0.31630984  1
  Sc  Sc71  1  0.32855973  0.08516885  0.42997757  1
  Sc  Sc72  1  0.51682254  0.35083885  0.23517105  1
  Sc  Sc73  1  0.27761252  0.70080815  0.45468990  1
  Sc  Sc74  1  0.05982607  0.28666384  0.05636749  1
  Sc  Sc75  1  0.49441036  0.39241954  0.87409302  1
  Sc  Sc76  1  0.15632605  0.50076715  0.78662937  1
  Sc  Sc77  1  0.07009241  0.25529632  0.26403419  1
  Sc  Sc78  1  0.45435487  0.56888686  0.71568244  1
  Sc  Sc79  1  0.09694285  0.06642238  0.37605442  1
  Sc  Sc80  1  0.72396144  0.68710744  0.23316513  1
  Sc  Sc81  1  0.37328396  0.13872610  0.94311350  1
  Sc  Sc82  1  0.93300450  0.53876215  0.73140361  1
  Sc  Sc83  1  0.60884158  0.14892554  0.13932413  1
  Sc  Sc84  1  0.26976612  0.42860071  0.50885687  1
  Sc  Sc85  1  0.68510109  0.87319422  0.34341538  1
  Sc  Sc86  1  0.06125611  0.67515368  0.49509852  1
  Sc  Sc87  1  0.10159486  0.46949764  0.38036694  1
  Sc  Sc88  1  0.48058404  0.50359338  0.07808846  1
  Sc  Sc89  1  0.48198738  0.35629908  0.45019914  1
  Sc  Sc90  1  0.48603050  0.93953084  0.46700099  1
  Sc  Sc91  1  0.09437013  0.89647133  0.51637190  1
  Sc  Sc92  1  0.44761381  0.55855390  0.48249967  1
  Sc  Sc93  1  0.46429013  0.75600969  0.34066214  1
  Sc  Sc94  1  0.57633887  0.17750465  -0.05898864  1
  Sc  Sc95  1  0.89015265  0.40611546  0.31391795  1
  Sc  Sc96  1  0.36217555  0.78269702  0.75160016  1
  Sc  Sc97  1  0.28142088  0.40572293  0.13674116  1
  Sc  Sc98  1  0.07098366  0.47084239  0.17551068  1
  Sc  Sc99  1  0.16276096  0.70670110  0.90534160  1
  Nb  Nb100  1  0.91925026  0.80310761  0.60873478  1
  Nb  Nb101  1  -0.00038579  0.95512961  0.70843238  1
  Nb  Nb102  1  0.07619982  0.06364780  0.12435683  1
  Nb  Nb103  1  0.71113140  0.48195433  0.19950933  1
  Nb  Nb104  1  0.61543714  0.55902961  0.58528759  1
  Nb  Nb105  1  0.72605265  0.07847797  0.29137501  1
  Nb  Nb106  1  0.33700183  0.24104712  0.57018409  1
  Nb  Nb107  1  0.40942176  0.13431166  0.17249998  1
  Nb  Nb108  1  0.85458042  0.12445278  0.78942509  1
  Nb  Nb109  1  0.08219630  0.65789714  0.10386964  1
  Nb  Nb110  1  -0.02873680  0.10974579  0.95556634  1
  Nb  Nb111  1  0.28573617  0.88586106  0.37862476  1
  Nb  Nb112  1  0.30112346  0.88040857  0.57621296  1
  Nb  Nb113  1  0.43683371  0.29025823  0.05812841  1
  Nb  Nb114  1  0.75758116  0.84302858  0.74198808  1
  Nb  Nb115  1  0.95801853  0.75270635  0.79159057  1
  Nb  Nb116  1  0.81632957  0.45078956  0.88827794  1
  Nb  Nb117  1  0.38324074  0.03566869  0.64198440  1
  Nb  Nb118  1  0.54983092  0.36706605  0.64025164  1
  Nb  Nb119  1  0.92336344  0.33596273  0.50701228  1
  Nb  Nb120  1  0.56610664  -0.05421485  0.65553387  1
  Nb  Nb121  1  0.96054963  0.76371276  0.98480684  1
  Nb  Nb122  1  0.16225270  0.13651436  0.93608901  1
  Nb  Nb123  1  0.16054550  0.49416002  0.99488572  1
  Nb  Nb124  1  0.76267696  0.77699645  0.04073298  1
