# generated using pymatgen
data_Zr2Sc2Nb
_symmetry_space_group_name_H-M   'P 1'
_cell_length_a   14.35786994
_cell_length_b   14.25158502
_cell_length_c   14.02868602
_cell_angle_alpha   90.08624981
_cell_angle_beta   89.01695574
_cell_angle_gamma   90.38055235
_symmetry_Int_Tables_number   1
_chemical_formula_structural   Zr2Sc2Nb
_chemical_formula_sum   'Zr50 Sc50 Nb25'
_cell_volume   2870.09486925
_cell_formula_units_Z   25
loop_
 _symmetry_equiv_pos_site_id
 _symmetry_equiv_pos_as_xyz
  1  'x, y, z'
loop_
 _atom_site_type_symbol
 _atom_site_label
 _atom_site_symmetry_multiplicity
 _atom_site_fract_x
 _atom_site_fract_y
 _atom_site_fract_z
 _atom_site_occupancy
  Zr  Zr0  1  0.37739773  0.47119939  0.91929684  1
  Zr  Zr1  1  1.00576131  0.42030674  0.98271841  1
  Zr  Zr2  1  0.23586794  0.31618215  0.71729276  1
  Zr  Zr3  1  0.41527678  0.31966382  0.36769321  1
  Zr  Zr4  1  0.57672874  0.45582759  0.34460617  1
  Zr  Zr5  1  0.64181121  0.15063173  0.05103112  1
  Zr  Zr6  1  0.85091754  0.20780500  0.95037527  1
  Zr  Zr7  1  0.85925652  0.29186028  0.55808464  1
  Zr  Zr8  1  0.90522599  0.79774922  0.04514379  1
  Zr  Zr9  1  0.37858225  0.11941893  0.08692900  1
  Zr  Zr10  1  0.77090660  0.90239337  0.69986134  1
  Zr  Zr11  1  0.74069639  0.14418585  0.74566062  1
  Zr  Zr12  1  0.47384481  0.08723920  0.89041167  1
  Zr  Zr13  1  0.52277065  0.43688004  0.74991458  1
  Zr  Zr14  1  0.26410818  0.63661867  0.50837901  1
  Zr  Zr15  1  0.95750579  1.00638788  0.12566169  1
  Zr  Zr16  1  0.53600751  -0.01552954  0.09666282  1
  Zr  Zr17  1  0.49093035  0.14976487  0.46034054  1
  Zr  Zr18  1  0.95561327  0.35957911  0.35808425  1
  Zr  Zr19  1  0.03621001  0.19486519  0.26296714  1
  Zr  Zr20  1  0.14001566  0.52267563  0.34615901  1
  Zr  Zr21  1  0.32196674  0.00280486  0.47514450  1
  Zr  Zr22  1  0.07543660  0.01670149  0.53320929  1
  Zr  Zr23  1  0.46786184  0.28522953  0.02970459  1
  Zr  Zr24  1  0.45916892  0.64234971  0.26555196  1
  Zr  Zr25  1  0.47067320  0.61352927  0.47836680  1
  Zr  Zr26  1  0.44590442  0.62712534  0.05592741  1
  Zr  Zr27  1  0.32098233  0.14678894  0.29752711  1
  Zr  Zr28  1  0.60648928  0.34245931  0.50719873  1
  Zr  Zr29  1  0.15890017  0.88635588  0.84843308  1
  Zr  Zr30  1  0.64777808  0.53917191  0.60236645  1
  Zr  Zr31  1  0.11738536  0.46856701  0.81825839  1
  Zr  Zr32  1  0.28221497  0.53068221  0.16636382  1
  Zr  Zr33  1  0.73751176  0.68588686  0.74803177  1
  Zr  Zr34  1  0.09128416  0.41167640  0.17292303  1
  Zr  Zr35  1  0.46319710  0.43364856  0.17466636  1
  Zr  Zr36  1  0.05823227  0.23735832  0.51306008  1
  Zr  Zr37  1  0.57347752  0.02271034  0.67681430  1
  Zr  Zr38  1  0.53654201  0.23069496  0.66911118  1
  Zr  Zr39  1  0.18702135  0.84924245  0.45879509  1
  Zr  Zr40  1  0.28646294  0.31067164  0.18024229  1
  Zr  Zr41  1  0.57237452  0.83102864  0.74785194  1
  Zr  Zr42  1  0.94231383  0.17752753  0.73824144  1
  Zr  Zr43  1  0.74930729  0.92507605  0.46639560  1
  Zr  Zr44  1  0.75322022  0.63935905  0.97986388  1
  Zr  Zr45  1  0.14411102  0.13159546  0.69989266  1
  Zr  Zr46  1  0.94819764  0.87280583  0.47845813  1
  Zr  Zr47  1  0.89564175  0.09093091  0.37901538  1
  Zr  Zr48  1  0.79369634  0.71392102  0.20372121  1
  Zr  Zr49  1  0.68876580  0.14134729  0.52316240  1
  Sc  Sc50  1  0.74630579  0.94366114  0.09801429  1
  Sc  Sc51  1  0.86867468  0.06117287  0.58324350  1
  Sc  Sc52  1  0.61761837  0.84522615  0.29669614  1
  Sc  Sc53  1  0.71948448  0.49050160  0.81425048  1
  Sc  Sc54  1  0.92403542  0.78890679  0.82449029  1
  Sc  Sc55  1  0.25642788  0.92594956  0.25379739  1
  Sc  Sc56  1  0.63600237  0.27741432  0.87264938  1
  Sc  Sc57  1  0.30997570  0.92938881  0.01645601  1
  Sc  Sc58  1  0.00307434  0.77103783  0.26557879  1
  Sc  Sc59  1  0.57997658  0.46267528  0.98076375  1
  Sc  Sc60  1  0.54206115  0.94290480  0.48563398  1
  Sc  Sc61  1  0.27860433  0.22099094  0.51999768  1
  Sc  Sc62  1  0.48904190  0.83525925  0.95361112  1
  Sc  Sc63  1  0.61568784  0.76315300  0.09870624  1
  Sc  Sc64  1  0.29187807  0.52548323  0.71764436  1
  Sc  Sc65  1  0.37179502  0.91285408  0.79270798  1
  Sc  Sc66  1  0.85430395  0.99157610  0.90544514  1
  Sc  Sc67  1  0.36626089  0.09853457  0.67663932  1
  Sc  Sc68  1  0.74766241  0.27935392  0.34624570  1
  Sc  Sc69  1  0.45965682  0.99745691  0.29077532  1
  Sc  Sc70  1  0.66096599  0.33756019  0.15897881  1
  Sc  Sc71  1  0.22773871  0.31672049  0.97410867  1
  Sc  Sc72  1  0.05149039  0.05990282  0.92370604  1
  Sc  Sc73  1  0.99304380  0.96623656  0.72968833  1
  Sc  Sc74  1  0.78502362  0.41195541  0.00410182  1
  Sc  Sc75  1  0.24207121  0.71009306  0.28832819  1
  Sc  Sc76  1  0.39954257  0.27218962  0.82980485  1
  Sc  Sc77  1  0.66967110  0.06456773  0.30146464  1
  Sc  Sc78  1  0.82407018  0.15559799  0.17073897  1
  Sc  Sc79  1  0.25515102  0.10452177  0.88228143  1
  Sc  Sc80  1  0.11021948  0.86340497  0.08249975  1
  Sc  Sc81  1  0.39731928  0.82459422  0.58891702  1
  Sc  Sc82  1  0.90098334  0.56459099  0.09903837  1
  Sc  Sc83  1  0.10840427  0.68644038  0.89069113  1
  Sc  Sc84  1  0.08926987  0.63446698  0.12680432  1
  Sc  Sc85  1  0.64063261  0.75561457  0.55424394  1
  Sc  Sc86  1  0.46753818  0.64373200  0.68873530  1
  Sc  Sc87  1  0.83810231  0.70569910  0.41130657  1
  Sc  Sc88  1  0.23913178  0.73364691  0.69977092  1
  Sc  Sc89  1  0.89651752  0.69014069  0.61640117  1
  Sc  Sc90  1  0.56632829  0.64618892  0.87447836  1
  Sc  Sc91  1  0.65304300  0.64351003  0.36215060  1
  Sc  Sc92  1  0.17066743  0.08213102  0.13325448  1
  Sc  Sc93  1  0.33564479  0.69070775  0.87720860  1
  Sc  Sc94  1  0.05613418  0.67878300  0.46308849  1
  Sc  Sc95  1  0.92294527  0.57446474  0.84613551  1
  Sc  Sc96  1  0.79290337  0.48230892  0.46313015  1
  Sc  Sc97  1  0.64895573  -0.00144364  0.88694844  1
  Sc  Sc98  1  0.40832071  0.41576681  0.56692444  1
  Sc  Sc99  1  0.02893880  0.22548494  0.05890132  1
  Nb  Nb100  1  0.07072323  0.26345859  0.85345388  1
  Nb  Nb101  1  0.27110572  0.72775454  0.07127188  1
  Nb  Nb102  1  0.41905745  0.81811053  0.17244991  1
  Nb  Nb103  1  0.21624216  0.94253799  0.65810013  1
  Nb  Nb104  1  0.18304854  0.32157432  0.36225210  1
  Nb  Nb105  1  0.72166386  0.81714447  0.91063495  1
  Nb  Nb106  1  0.71491317  0.34130057  0.67540028  1
  Nb  Nb107  1  0.33526404  0.49228912  0.36593312  1
  Nb  Nb108  1  0.84485670  0.90957754  0.28052595  1
  Nb  Nb109  1  0.77784585  0.48942597  0.25697123  1
  Nb  Nb110  1  0.07051853  0.80214852  0.64469249  1
  Nb  Nb111  1  1.00247243  0.47822495  0.50728783  1
  Nb  Nb112  1  0.89225206  0.35380842  0.16818924  1
  Nb  Nb113  1  0.95006386  0.55707181  0.30122197  1
  Nb  Nb114  1  0.19321444  0.43292164  0.53759227  1
  Nb  Nb115  1  0.40343846  0.80712627  0.38137672  1
  Nb  Nb116  1  0.87024830  0.48943989  0.66132917  1
  Nb  Nb117  1  0.51652732  0.20287952  0.22727810  1
  Nb  Nb118  1  0.20666948  0.53289551  0.98824988  1
  Nb  Nb119  1  0.64068975  0.56289116  0.15263545  1
  Nb  Nb120  1  0.15929061  0.09938293  0.37983655  1
  Nb  Nb121  1  0.04944839  0.96642232  0.30494390  1
  Nb  Nb122  1  0.03657386  0.36397057  0.66968351  1
  Nb  Nb123  1  0.08019530  0.58509941  0.65765898  1
  Nb  Nb124  1  0.88282495  0.35651138  0.80828019  1
