# generated using pymatgen
data_Zr2Sc2Nb
_symmetry_space_group_name_H-M   'P 1'
_cell_length_a   14.21075880
_cell_length_b   14.08786446
_cell_length_c   14.35283263
_cell_angle_alpha   89.96941153
_cell_angle_beta   89.11363442
_cell_angle_gamma   90.76782614
_symmetry_Int_Tables_number   1
_chemical_formula_structural   Zr2Sc2Nb
_chemical_formula_sum   'Zr50 Sc50 Nb25'
_cell_volume   2872.82363661
_cell_formula_units_Z   25
loop_
 _symmetry_equiv_pos_site_id
 _symmetry_equiv_pos_as_xyz
  1  'x, y, z'
loop_
 _atom_site_type_symbol
 _atom_site_label
 _atom_site_symmetry_multiplicity
 _atom_site_fract_x
 _atom_site_fract_y
 _atom_site_fract_z
 _atom_site_occupancy
  Zr  Zr0  1  0.72471273  0.73680540  0.97372568  1
  Zr  Zr1  1  0.47769328  0.15892305  0.12752943  1
  Zr  Zr2  1  0.71681440  0.48725861  0.29365558  1
  Zr  Zr3  1  0.81026923  0.07240239  0.76699630  1
  Zr  Zr4  1  0.02545251  0.61122256  0.09198587  1
  Zr  Zr5  1  0.30052373  0.87964390  0.71437719  1
  Zr  Zr6  1  0.74627968  0.33539296  0.09940971  1
  Zr  Zr7  1  0.79743974  0.92530263  0.28086897  1
  Zr  Zr8  1  0.16274727  0.93267492  0.92814016  1
  Zr  Zr9  1  0.06858501  0.25667131  0.04653344  1
  Zr  Zr10  1  0.87958153  0.74779938  0.18773320  1
  Zr  Zr11  1  0.40019344  0.64552114  0.91642655  1
  Zr  Zr12  1  0.29664313  0.46848874  0.79646480  1
  Zr  Zr13  1  0.72018901  0.13032691  -0.01554866  1
  Zr  Zr14  1  0.98531265  0.52776077  0.58324884  1
  Zr  Zr15  1  0.87889823  0.92335982  0.62821870  1
  Zr  Zr16  1  0.81101576  0.55491140  0.10575320  1
  Zr  Zr17  1  0.08230140  0.91788868  0.75128046  1
  Zr  Zr18  1  0.62229913  0.91986089  0.09199201  1
  Zr  Zr19  1  0.60008900  0.87359904  0.30441723  1
  Zr  Zr20  1  0.21819904  0.90315711  0.15555682  1
  Zr  Zr21  1  0.02357246  0.83963041  0.06209090  1
  Zr  Zr22  1  0.24543915  0.70748724  0.81492113  1
  Zr  Zr23  1  0.73313503  0.68564835  0.37502792  1
  Zr  Zr24  1  0.79504651  0.58216121  0.71625030  1
  Zr  Zr25  1  0.04478935  0.15700879  0.28129773  1
  Zr  Zr26  1  0.07994509  0.88826300  0.54445901  1
  Zr  Zr27  1  0.61021253  0.29097625  0.26097021  1
  Zr  Zr28  1  0.22026326  0.08731696  0.65318008  1
  Zr  Zr29  1  0.08589996  0.36229355  0.27933377  1
  Zr  Zr30  1  0.67951476  0.72007674  0.17395486  1
  Zr  Zr31  1  0.34752684  0.86880000  0.95212812  1
  Zr  Zr32  1  0.40977910  0.68519107  0.67907733  1
  Zr  Zr33  1  0.48362579  0.36835636  0.44892699  1
  Zr  Zr34  1  0.89535903  0.63198188  0.91675865  1
  Zr  Zr35  1  0.30037149  0.43416652  0.29870213  1
  Zr  Zr36  1  0.29701144  0.26513673  0.73570988  1
  Zr  Zr37  1  0.07325144  0.55097362  0.78425997  1
  Zr  Zr38  1  0.92872859  0.38406110  0.17323801  1
  Zr  Zr39  1  0.72738386  0.28360948  0.83664219  1
  Zr  Zr40  1  0.36468911  0.15428401  0.48382469  1
  Zr  Zr41  1  0.19132813  0.54228959  0.95624794  1
  Zr  Zr42  1  0.28965612  0.67519227  0.30789283  1
  Zr  Zr43  1  0.65352296  0.43537072  0.67454441  1
  Zr  Zr44  1  0.14210253  0.14571963  0.85749139  1
  Zr  Zr45  1  0.59171980  0.51716166  0.10259368  1
  Zr  Zr46  1  0.73454217  0.80840402  0.74383200  1
  Zr  Zr47  1  0.23605138  0.55660584  0.61869436  1
  Zr  Zr48  1  0.92973667  1.02577452  0.42607300  1
  Zr  Zr49  1  0.42388090  0.95241056  0.14218960  1
  Sc  Sc50  1  0.35462070  0.55819206  0.12323306  1
  Sc  Sc51  1  0.14802084  0.47613657  0.44360243  1
  Sc  Sc52  1  0.90482272  0.86808126  0.87949871  1
  Sc  Sc53  1  0.14366026  0.07230421  0.44845024  1
  Sc  Sc54  1  0.60102236  0.06148079  0.79051861  1
  Sc  Sc55  1  0.30932193  0.94229702  0.51769434  1
  Sc  Sc56  1  0.01518383  0.08769165  0.63533706  1
  Sc  Sc57  1  0.90144069  0.43109909  0.80215574  1
  Sc  Sc58  1  0.45561715  0.48623355  0.65136093  1
  Sc  Sc59  1  0.22479132  0.71905985  0.06411026  1
  Sc  Sc60  1  0.68459476  0.10054915  0.19683543  1
  Sc  Sc61  1  0.71942540  0.47940981  0.92269516  1
  Sc  Sc62  1  0.17383449  0.87022942  0.36313895  1
  Sc  Sc63  1  0.28877849  0.06334334  0.28462361  1
  Sc  Sc64  1  0.34057463  0.06407867  0.83355913  1
  Sc  Sc65  1  0.94634906  0.07173428  0.92980662  1
  Sc  Sc66  1  0.54200155  0.82809881  0.89474850  1
  Sc  Sc67  1  0.59283789  0.62880142  0.80663807  1
  Sc  Sc68  1  0.49759021  0.25185543  0.82403468  1
  Sc  Sc69  1  0.90501537  0.40222558  0.41015423  1
  Sc  Sc70  1  0.41175313  0.24834758  0.30431950  1
  Sc  Sc71  1  0.49538157  0.74626718  0.48639062  1
  Sc  Sc72  1  0.12418584  0.72255042  0.64814651  1
  Sc  Sc73  1  0.38990542  0.86399443  0.33003495  1
  Sc  Sc74  1  0.02795947  0.25711561  0.48863877  1
  Sc  Sc75  1  0.89179554  0.14394486  0.13595220  1
  Sc  Sc76  1  0.24177655  0.23221799  0.16971635  1
  Sc  Sc77  1  0.53810988  0.86284625  0.68170744  1
  Sc  Sc78  1  0.09412747  0.05770557  0.09037170  1
  Sc  Sc79  1  0.30217416  0.28581454  0.95482867  1
  Sc  Sc80  1  0.50710213  0.04839637  0.96330210  1
  Sc  Sc81  1  0.47391528  0.74409568  0.09928368  1
  Sc  Sc82  1  0.71475951  0.84681776  0.50242743  1
  Sc  Sc83  1  0.29444204  0.35793814  0.54559924  1
  Sc  Sc84  1  0.51392133  0.66041919  0.29737665  1
  Sc  Sc85  1  0.94655364  0.81042865  0.38615813  1
  Sc  Sc86  1  0.94349521  0.73199766  0.73450801  1
  Sc  Sc87  1  0.48712031  0.45176605  0.91235325  1
  Sc  Sc88  1  0.66650118  0.21820995  0.65400738  1
  Sc  Sc89  1  0.82303405  0.21773538  0.32944303  1
  Sc  Sc90  1  0.52199591  0.96363177  0.48702524  1
  Sc  Sc91  1  0.69624368  0.34103440  0.46926539  1
  Sc  Sc92  1  0.95395161  0.23514514  0.76709252  1
  Sc  Sc93  1  0.45249463  0.07700761  0.65182878  1
  Sc  Sc94  1  0.83094934  0.16378553  0.55039880  1
  Sc  Sc95  1  0.83074427  0.93556122  0.07623186  1
  Sc  Sc96  1  0.94465830  0.58516084  0.32018659  1
  Sc  Sc97  1  0.10542269  0.35936738  0.66431830  1
  Sc  Sc98  1  0.42117312  0.36411168  0.11544419  1
  Sc  Sc99  1  0.87837726  0.70822982  0.54672448  1
  Nb  Nb100  1  0.07514332  0.73191670  0.89872205  1
  Nb  Nb101  1  0.68281903  0.01464046  0.61088924  1
  Nb  Nb102  1  0.10495225  0.67641947  0.43987145  1
  Nb  Nb103  1  0.37816662  0.56008236  0.45928626  1
  Nb  Nb104  1  0.48210417  0.28151657  0.61991194  1
  Nb  Nb105  1  0.70801623  0.04867181  0.41159873  1
  Nb  Nb106  1  1.00772138  0.94696108  0.24155931  1
  Nb  Nb107  1  0.29313889  0.07573092  0.03345898  1
  Nb  Nb108  1  0.11236486  0.35479710  0.87345193  1
  Nb  Nb109  1  0.98303636  0.45289835  -0.01277274  1
  Nb  Nb110  1  0.21654623  0.25631497  0.38323197  1
  Nb  Nb111  1  0.57688049  0.16960114  0.46783011  1
  Nb  Nb112  1  0.77693623  0.53060623  0.51249259  1
  Nb  Nb113  1  0.58426340  0.54297818  0.46916068  1
  Nb  Nb114  1  0.17179690  0.41993791  0.09935130  1
  Nb  Nb115  1  0.08693738  0.74427133  0.23820101  1
  Nb  Nb116  1  0.84862352  0.36559477  0.61968945  1
  Nb  Nb117  1  0.71546738  0.94335775  0.90276557  1
  Nb  Nb118  1  0.51204788  0.06423779  0.30906615  1
  Nb  Nb119  1  0.58604356  0.28997610  1.01083014  1
  Nb  Nb120  1  0.50036890  0.46692274  0.28089102  1
  Nb  Nb121  1  0.14766034  0.56039504  0.23779903  1
  Nb  Nb122  1  0.28060479  0.73735824  0.51138240  1
  Nb  Nb123  1  0.64287231  0.66240278  0.60594174  1
  Nb  Nb124  1  0.88863418  0.28253997  0.96103363  1
