# generated using pymatgen
data_Zr2Sc2Nb
_symmetry_space_group_name_H-M   'P 1'
_cell_length_a   14.52746170
_cell_length_b   13.53612079
_cell_length_c   14.57709853
_cell_angle_alpha   88.45995367
_cell_angle_beta   90.20732952
_cell_angle_gamma   90.94926574
_symmetry_Int_Tables_number   1
_chemical_formula_structural   Zr2Sc2Nb
_chemical_formula_sum   'Zr50 Sc50 Nb25'
_cell_volume   2865.07734521
_cell_formula_units_Z   25
loop_
 _symmetry_equiv_pos_site_id
 _symmetry_equiv_pos_as_xyz
  1  'x, y, z'
loop_
 _atom_site_type_symbol
 _atom_site_label
 _atom_site_symmetry_multiplicity
 _atom_site_fract_x
 _atom_site_fract_y
 _atom_site_fract_z
 _atom_site_occupancy
  Zr  Zr0  1  0.64533795  0.71370930  0.77514840  1
  Zr  Zr1  1  0.15767737  0.32305313  0.14248828  1
  Zr  Zr2  1  0.69861700  0.49701437  0.88006675  1
  Zr  Zr3  1  0.09894682  0.52049132  0.06251955  1
  Zr  Zr4  1  0.34696386  0.37971427  0.28369609  1
  Zr  Zr5  1  0.38210617  0.50301158  0.61621851  1
  Zr  Zr6  1  0.30480966  0.47196629  0.06356789  1
  Zr  Zr7  1  0.58588231  0.59930322  0.57750604  1
  Zr  Zr8  1  0.18176455  0.87204660  0.16645235  1
  Zr  Zr9  1  0.46030659  0.74942065  0.47944193  1
  Zr  Zr10  1  0.99037134  0.31964402  0.00709918  1
  Zr  Zr11  1  0.71788206  0.06472445  0.10381643  1
  Zr  Zr12  1  0.47019217  0.36412176  0.12176995  1
  Zr  Zr13  1  0.35310958  0.27963199  0.94515242  1
  Zr  Zr14  1  0.25878150  0.30730349  0.66325206  1
  Zr  Zr15  1  0.76196349  0.32936909  0.32164407  1
  Zr  Zr16  1  0.78430806  0.25704671  0.93370046  1
  Zr  Zr17  1  0.20522611  0.60474247  0.90133385  1
  Zr  Zr18  1  0.24668926  0.14882026  0.80839099  1
  Zr  Zr19  1  0.86027979  0.04699864  0.92059742  1
  Zr  Zr20  1  0.26735524  0.66072360  0.49940267  1
  Zr  Zr21  1  0.03900646  0.11936548  0.37054215  1
  Zr  Zr22  1  0.89919492  0.81840571  0.65599826  1
  Zr  Zr23  1  0.12892956  0.08798703  0.17798186  1
  Zr  Zr24  1  0.22830904  0.20433393  0.33646868  1
  Zr  Zr25  1  0.23575289  0.09511513  0.53010403  1
  Zr  Zr26  1  0.27312351  0.01659392  0.00096908  1
  Zr  Zr27  1  0.85798429  0.43404381  0.57978972  1
  Zr  Zr28  1  0.01903271  0.72341590  0.17028387  1
  Zr  Zr29  1  0.13534985  0.91846113  0.71047500  1
  Zr  Zr30  1  0.29450428  0.79966898  0.32522398  1
  Zr  Zr31  1  0.06333711  0.72110512  0.78485234  1
  Zr  Zr32  1  0.04685998  0.95203316  0.52668342  1
  Zr  Zr33  1  0.51914739  0.93304884  0.64781141  1
  Zr  Zr34  1  0.46204389  0.50509458  0.43804069  1
  Zr  Zr35  1  0.92282247  0.29997175  0.43025272  1
  Zr  Zr36  1  0.10548028  0.27731571  0.51403802  1
  Zr  Zr37  1  0.05307805  0.37338887  0.69853048  1
  Zr  Zr38  1  0.48259363  0.49411645  0.95169110  1
  Zr  Zr39  1  0.46545471  0.63329610  0.11009210  1
  Zr  Zr40  1  0.09178973  0.73711780  0.58301331  1
  Zr  Zr41  1  0.18680960  0.97057082  0.36338553  1
  Zr  Zr42  1  0.24111269  0.68782223  0.09930521  1
  Zr  Zr43  1  0.74166664  0.85386214  0.96045858  1
  Zr  Zr44  1  0.39764270  0.85830817  0.08675713  1
  Zr  Zr45  1  0.37673728  0.27933999  0.49876363  1
  Zr  Zr46  1  0.65527170  0.47562481  0.07769974  1
  Zr  Zr47  1  0.08935348  0.13603066  0.67041992  1
  Zr  Zr48  1  0.71095854  0.02205020  0.58345680  1
  Zr  Zr49  1  0.25098775  0.44666403  0.46204901  1
  Sc  Sc50  1  0.69147082  0.79109495  0.58421605  1
  Sc  Sc51  1  0.69630164  0.48005843  0.45134321  1
  Sc  Sc52  1  0.80458385  0.31082473  0.12883556  1
  Sc  Sc53  1  0.17668961  0.54360311  0.68211241  1
  Sc  Sc54  1  0.84226541  0.09799325  0.28029158  1
  Sc  Sc55  1  0.49912724  0.79118121  0.27031123  1
  Sc  Sc56  1  0.85174739  0.73087139  0.28438631  1
  Sc  Sc57  1  0.84859170  0.65913644  0.84640788  1
  Sc  Sc58  1  0.83580975  0.89389759  0.43518012  1
  Sc  Sc59  1  0.43908673  0.17230164  0.31177961  1
  Sc  Sc60  1  0.66232032  0.10915880  0.37250525  1
  Sc  Sc61  1  0.52829061  0.13241880  0.52138094  1
  Sc  Sc62  1  0.29290672  0.87575029  0.57377701  1
  Sc  Sc63  1  0.38725234  0.70937379  0.91233584  1
  Sc  Sc64  1  0.73098940  0.92940440  0.76341413  1
  Sc  Sc65  1  0.09945712  0.39007424  0.32935958  1
  Sc  Sc66  1  0.95481834  0.48034859  0.18956253  1
  Sc  Sc67  1  0.05815727  0.78021621  0.38002408  1
  Sc  Sc68  1  0.08264272  0.02172657  0.87340506  1
  Sc  Sc69  1  0.02779866  0.91850756  0.04501788  1
  Sc  Sc70  1  0.48948433  0.09114578  0.06187617  1
  Sc  Sc71  1  0.68847281  0.34265268  0.72512127  1
  Sc  Sc72  1  0.66161493  0.69408087  0.38246081  1
  Sc  Sc73  1  0.54261723  0.49964780  0.75321411  1
  Sc  Sc74  1  0.83169122  0.68033454  0.06888075  1
  Sc  Sc75  1  0.33159188  0.91984538  0.79512694  1
  Sc  Sc76  1  0.93829722  0.11513747  0.09012318  1
  Sc  Sc77  1  0.57115048  0.29089123  0.91545188  1
  Sc  Sc78  1  0.93402568  0.85925233  0.86378782  1
  Sc  Sc79  1  0.64945800  0.07055928  0.90764210  1
  Sc  Sc80  1  0.14932058  0.60126930  0.29404966  1
  Sc  Sc81  1  0.87223147  0.39800028  0.79708232  1
  Sc  Sc82  1  0.56642931  0.50792355  0.26391449  1
  Sc  Sc83  1  0.88893864  0.09283102  0.51331196  1
  Sc  Sc84  1  0.40534811  0.97794010  0.42209101  1
  Sc  Sc85  1  0.86292021  0.66862802  0.51159381  1
  Sc  Sc86  1  0.53142038  0.88127206  0.88043558  1
  Sc  Sc87  1  0.32003050  0.19777032  0.13431333  1
  Sc  Sc88  1  0.90256408  0.51904135  0.37328767  1
  Sc  Sc89  1  0.33610089  0.47055991  0.81227278  1
  Sc  Sc90  1  0.86861813  0.48949185  1.00022083  1
  Sc  Sc91  1  0.70721966  0.90074638  0.26852546  1
  Sc  Sc92  1  0.16411211  0.35975209  0.88713857  1
  Sc  Sc93  1  0.61226089  0.23278260  0.19417636  1
  Sc  Sc94  1  0.44501910  0.09693716  0.85481776  1
  Sc  Sc95  1  0.35640144  0.59977711  0.28278968  1
  Sc  Sc96  1  0.72226112  0.24909602  0.53653427  1
  Sc  Sc97  1  0.61078778  0.68157173  0.97449982  1
  Sc  Sc98  1  0.44584120  0.71715802  0.69641187  1
  Sc  Sc99  1  0.05725142  0.52224982  0.50764941  1
  Nb  Nb100  1  0.95665057  0.58275740  0.68268161  1
  Nb  Nb101  1  0.58793680  0.14631620  0.71208808  1
  Nb  Nb102  1  0.92803569  0.02215901  0.71173747  1
  Nb  Nb103  1  0.98230050  0.93593523  0.25612849  1
  Nb  Nb104  1  0.78467736  0.15265036  0.75037204  1
  Nb  Nb105  1  0.97858132  0.26233757  0.22938245  1
  Nb  Nb106  1  0.18847397  0.82460021  0.92923414  1
  Nb  Nb107  1  0.56024071  0.32081217  0.38717975  1
  Nb  Nb108  1  0.14121257  0.17536247  -0.00453571  1
  Nb  Nb109  1  0.91275881  0.24152026  0.64536040  1
  Nb  Nb110  1  0.84144194  0.89296369  0.12460868  1
  Nb  Nb111  1  0.75270482  0.57072791  0.68031765  1
  Nb  Nb112  1  0.54627091  0.35974145  0.58077800  1
  Nb  Nb113  1  0.98377005  0.20797388  0.83778210  1
  Nb  Nb114  1  0.59636244  0.91047401  0.44002307  1
  Nb  Nb115  1  0.76371215  0.53275083  0.22749850  1
  Nb  Nb116  1  0.60048640  0.88484182  0.08745227  1
  Nb  Nb117  1  0.66459662  0.70671404  0.16976304  1
  Nb  Nb118  1  0.25380085  0.72885005  0.73206622  1
  Nb  Nb119  1  0.53372418  1.00056278  0.24007498  1
  Nb  Nb120  1  0.38098622  0.10196606  0.65756555  1
  Nb  Nb121  1  0.02741668  0.69818602  0.98097566  1
  Nb  Nb122  1  0.33742914  1.00001654  0.22037798  1
  Nb  Nb123  1  0.44505194  0.28904693  0.73477269  1
  Nb  Nb124  1  0.02468288  0.51743535  0.86346382  1
