# generated using pymatgen
data_Zr2Sc2Nb
_symmetry_space_group_name_H-M   'P 1'
_cell_length_a   14.09067563
_cell_length_b   14.14203402
_cell_length_c   14.41324470
_cell_angle_alpha   90.59050529
_cell_angle_beta   90.97182018
_cell_angle_gamma   90.54653275
_symmetry_Int_Tables_number   1
_chemical_formula_structural   Zr2Sc2Nb
_chemical_formula_sum   'Zr50 Sc50 Nb25'
_cell_volume   2871.43783062
_cell_formula_units_Z   25
loop_
 _symmetry_equiv_pos_site_id
 _symmetry_equiv_pos_as_xyz
  1  'x, y, z'
loop_
 _atom_site_type_symbol
 _atom_site_label
 _atom_site_symmetry_multiplicity
 _atom_site_fract_x
 _atom_site_fract_y
 _atom_site_fract_z
 _atom_site_occupancy
  Zr  Zr0  1  0.98076205  0.34986570  -0.00908072  1
  Zr  Zr1  1  0.64665313  0.29862562  0.56538574  1
  Zr  Zr2  1  0.26230434  0.11751277  0.77420084  1
  Zr  Zr3  1  0.73285775  0.84740154  0.46688109  1
  Zr  Zr4  1  0.29699609  0.04419825  0.39785010  1
  Zr  Zr5  1  0.05423071  0.08461232  0.36845273  1
  Zr  Zr6  1  0.20828887  0.10789069  0.57976654  1
  Zr  Zr7  1  0.96068836  0.81317316  0.38184711  1
  Zr  Zr8  1  0.85422905  0.66077119  0.49033848  1
  Zr  Zr9  1  0.63562079  0.50537483  0.94120142  1
  Zr  Zr10  1  0.76394930  0.31669962  0.97428306  1
  Zr  Zr11  1  0.70436244  0.98984274  0.28515781  1
  Zr  Zr12  1  0.84391808  0.24183495  0.46708050  1
  Zr  Zr13  1  0.13496666  0.18594853  0.94874058  1
  Zr  Zr14  1  0.29667715  0.89417982  0.84760769  1
  Zr  Zr15  1  0.51273494  0.48560436  0.55428021  1
  Zr  Zr16  1  0.91484812  0.61861729  0.68158290  1
  Zr  Zr17  1  -0.00841698  0.46954746  0.23019192  1
  Zr  Zr18  1  0.31063521  0.44442643  0.06891198  1
  Zr  Zr19  1  0.36293697  0.50281190  0.70973914  1
  Zr  Zr20  1  0.21386212  0.12244633  0.21945391  1
  Zr  Zr21  1  0.50773186  0.02632866  0.36181155  1
  Zr  Zr22  1  0.94665554  0.46924665  0.44957331  1
  Zr  Zr23  1  0.72853706  0.29870052  0.76476720  1
  Zr  Zr24  1  0.53075792  0.73319642  0.95797025  1
  Zr  Zr25  1  0.44456003  0.08240807  0.57157712  1
  Zr  Zr26  1  0.00841597  0.28578804  0.32927469  1
  Zr  Zr27  1  0.37562752  0.85139701  0.48036944  1
  Zr  Zr28  1  0.67228013  0.24247287  0.14674691  1
  Zr  Zr29  1  0.50030757  0.36511394  0.07369791  1
  Zr  Zr30  1  0.86267809  0.40426443  0.62732563  1
  Zr  Zr31  1  0.57354083  0.40767293  0.34489356  1
  Zr  Zr32  1  0.47316028  0.21300020  0.23333338  1
  Zr  Zr33  1  0.33760791  0.94373359  0.65493067  1
  Zr  Zr34  1  0.70486175  0.55316065  0.64952578  1
  Zr  Zr35  1  0.29320225  0.73579208  0.66242222  1
  Zr  Zr36  1  0.99546270  0.04892176  0.57417702  1
  Zr  Zr37  1  0.84579561  0.16652072  0.66239792  1
  Zr  Zr38  1  0.11861619  0.91439292  0.69585303  1
  Zr  Zr39  1  0.31189597  0.63812320  0.04133807  1
  Zr  Zr40  1  0.49611298  0.71086249  0.58154216  1
  Zr  Zr41  1  0.73423549  0.45948853  0.46153725  1
  Zr  Zr42  1  0.14619407  0.46323697  0.42607496  1
  Zr  Zr43  1  0.22961732  0.54475267  0.85875430  1
  Zr  Zr44  1  0.12400046  0.91190431  0.28106461  1
  Zr  Zr45  1  0.67406039  0.11162638  0.93418280  1
  Zr  Zr46  1  0.16855532  0.73961562  0.17653553  1
  Zr  Zr47  1  0.53250075  0.63150613  0.76775091  1
  Zr  Zr48  1  0.80360102  0.08517311  0.09065217  1
  Zr  Zr49  1  0.72100400  0.89056132  0.05594900  1
  Sc  Sc50  1  0.45492720  0.24305446  0.44525602  1
  Sc  Sc51  1  0.96012439  0.31346983  0.78819069  1
  Sc  Sc52  1  0.36007330  0.43635810  0.41451683  1
  Sc  Sc53  1  0.72622820  0.69670944  0.86198006  1
  Sc  Sc54  1  0.91325580  0.94027837  0.21070426  1
  Sc  Sc55  1  0.11481057  0.49978867  0.64309762  1
  Sc  Sc56  1  0.54486597  0.81022797  0.36801313  1
  Sc  Sc57  1  0.23009115  0.71640832  0.38489846  1
  Sc  Sc58  1  0.30488233  0.32876264  0.25245715  1
  Sc  Sc59  1  0.92317624  0.91596313  0.98217971  1
  Sc  Sc60  1  0.34694532  0.83927612  0.04938502  1
  Sc  Sc61  1  0.17424251  0.32588919  0.75879384  1
  Sc  Sc62  1  0.04899185  0.27780251  0.56643997  1
  Sc  Sc63  1  0.71362112  0.76514683  0.65677312  1
  Sc  Sc64  1  0.50848403  0.85202012  0.76446510  1
  Sc  Sc65  1  0.33668209  0.87517900  0.27071509  1
  Sc  Sc66  1  0.67624501  0.46040569  0.15978122  1
  Sc  Sc67  1  0.10900008  0.70512013  0.76052504  1
  Sc  Sc68  1  0.67306058  0.08489719  0.49918469  1
  Sc  Sc69  1  0.10073718  0.98623882  0.88420551  1
  Sc  Sc70  1  0.90585577  0.14531783  0.91081671  1
  Sc  Sc71  1  0.22722128  0.54264696  0.25153767  1
  Sc  Sc72  1  0.72341516  0.92362134  0.83500478  1
  Sc  Sc73  1  0.35447504  0.30015110  0.88140537  1
  Sc  Sc74  1  0.46202849  0.07877882  0.81417719  1
  Sc  Sc75  1  0.16340070  0.95725939  0.08191970  1
  Sc  Sc76  1  0.01502527  0.12141337  0.13139361  1
  Sc  Sc77  1  0.56296524  0.29166962  0.88514327  1
  Sc  Sc78  1  0.81585567  0.58010009  0.29354649  1
  Sc  Sc79  1  0.85935861  0.50855280  0.06117685  1
  Sc  Sc80  1  0.02426485  0.51270504  0.84635638  1
  Sc  Sc81  1  0.86357401  1.00638136  0.42836866  1
  Sc  Sc82  1  0.28291535  0.34152265  0.58240981  1
  Sc  Sc83  1  0.46253300  0.26954698  0.68562018  1
  Sc  Sc84  1  0.51768695  0.95162401  0.97124391  1
  Sc  Sc85  1  0.63747872  0.09659351  0.70749331  1
  Sc  Sc86  1  0.54686105  0.82957158  0.16160424  1
  Sc  Sc87  1  0.81302295  0.48945535  0.83339793  1
  Sc  Sc88  1  0.71576251  0.67334368  0.08433711  1
  Sc  Sc89  1  0.09315203  0.55666941  0.05764171  1
  Sc  Sc90  1  0.14927104  0.89937064  0.49210056  1
  Sc  Sc91  1  0.92947936  0.68288451  0.94810771  1
  Sc  Sc92  1  0.94705932  0.72068629  0.16382065  1
  Sc  Sc93  1  0.91017656  0.80694346  0.78092817  1
  Sc  Sc94  1  0.75359781  0.78002521  0.26986669  1
  Sc  Sc95  1  0.20898289  0.24220830  0.41070782  1
  Sc  Sc96  1  0.08150852  0.68455378  0.53855867  1
  Sc  Sc97  1  0.12194062  0.31825285  0.14680365  1
  Sc  Sc98  1  0.39111943  0.03076075  0.15381088  1
  Sc  Sc99  1  0.14354258  0.76635698  0.95746112  1
  Nb  Nb100  1  0.43723428  0.50547918  0.90661349  1
  Nb  Nb101  1  0.39278493  0.68790853  0.22307349  1
  Nb  Nb102  1  0.59942731  0.05420268  0.14477501  1
  Nb  Nb103  1  0.48801421  0.16165107  0.01993417  1
  Nb  Nb104  1  0.92170425  0.00010344  0.76215943  1
  Nb  Nb105  1  0.88273833  0.29334889  0.14608242  1
  Nb  Nb106  1  0.65734507  0.20744187  0.34317038  1
  Nb  Nb107  1  0.31098141  0.06212307  0.96630498  1
  Nb  Nb108  1  0.57739089  0.43748254  0.74826062  1
  Nb  Nb109  1  0.30750100  0.23096155  0.06965451  1
  Nb  Nb110  1  0.78510908  0.96117642  0.62993147  1
  Nb  Nb111  1  0.43548139  0.62706193  0.39981921  1
  Nb  Nb112  1  0.56503614  0.91788395  0.56994719  1
  Nb  Nb113  1  0.93661907  0.84290073  0.58613846  1
  Nb  Nb114  1  0.84404593  0.15130296  0.27895886  1
  Nb  Nb115  1  0.79980530  0.35896459  0.30109363  1
  Nb  Nb116  1  0.17071219  0.38059749  0.95098142  1
  Nb  Nb117  1  0.29454725  0.58277573  0.53770679  1
  Nb  Nb118  1  0.35349862  0.70104821  0.85135861  1
  Nb  Nb119  1  0.06215325  0.13830543  0.74193668  1
  Nb  Nb120  1  0.51014088  0.59081592  0.08434439  1
  Nb  Nb121  1  0.59511736  0.62383133  0.26907131  1
  Nb  Nb122  1  0.43985233  0.49307465  0.22898057  1
  Nb  Nb123  1  0.64603296  0.64369277  0.45664170  1
  Nb  Nb124  1  0.03806875  0.63355317  0.33483543  1
