# generated using pymatgen
data_Zr2Sc2Nb
_symmetry_space_group_name_H-M   'P 1'
_cell_length_a   14.60819225
_cell_length_b   13.73591930
_cell_length_c   14.27206175
_cell_angle_alpha   90.04908527
_cell_angle_beta   91.31522502
_cell_angle_gamma   90.62218728
_symmetry_Int_Tables_number   1
_chemical_formula_structural   Zr2Sc2Nb
_chemical_formula_sum   'Zr50 Sc50 Nb25'
_cell_volume   2862.86334242
_cell_formula_units_Z   25
loop_
 _symmetry_equiv_pos_site_id
 _symmetry_equiv_pos_as_xyz
  1  'x, y, z'
loop_
 _atom_site_type_symbol
 _atom_site_label
 _atom_site_symmetry_multiplicity
 _atom_site_fract_x
 _atom_site_fract_y
 _atom_site_fract_z
 _atom_site_occupancy
  Zr  Zr0  1  0.14067091  0.95034741  0.88275723  1
  Zr  Zr1  1  0.68098221  0.88669218  0.10611688  1
  Zr  Zr2  1  0.60744865  0.02649166  0.50156260  1
  Zr  Zr3  1  0.12800641  0.05534588  0.08610150  1
  Zr  Zr4  1  0.43716452  0.68605427  0.39730863  1
  Zr  Zr5  1  0.85441193  0.29919112  0.31769362  1
  Zr  Zr6  1  0.41449351  0.68827316  0.17950159  1
  Zr  Zr7  1  0.36486008  0.48778206  0.28449501  1
  Zr  Zr8  1  0.93566009  0.43964902  0.94047110  1
  Zr  Zr9  1  0.50381814  0.90005248  0.21847510  1
  Zr  Zr10  1  0.25676911  0.87131927  0.05452205  1
  Zr  Zr11  1  0.72122796  0.41229076  0.63301098  1
  Zr  Zr12  1  0.15382103  0.49307163  -0.02139293  1
  Zr  Zr13  1  0.47296854  0.49820076  0.75751967  1
  Zr  Zr14  1  0.44055577  0.89832388  0.65681684  1
  Zr  Zr15  1  0.72660641  0.51640371  0.22819505  1
  Zr  Zr16  1  0.66444128  0.26351795  0.04388602  1
  Zr  Zr17  1  0.10146373  0.48890186  0.38053798  1
  Zr  Zr18  1  0.48006807  0.84316446  0.02053388  1
  Zr  Zr19  1  0.34614676  0.91383853  0.85412512  1
  Zr  Zr20  1  0.49260041  0.10864408  0.70097786  1
  Zr  Zr21  1  0.09155892  0.91403539  0.24224173  1
  Zr  Zr22  1  0.85766872  0.80336589  0.03123319  1
  Zr  Zr23  1  0.84756233  0.59952478  0.08176028  1
  Zr  Zr24  1  0.33953620  0.69145027  -0.03286540  1
  Zr  Zr25  1  0.69967535  0.49096631  0.98551560  1
  Zr  Zr26  1  0.29497697  0.68736651  0.73908641  1
  Zr  Zr27  1  0.23209985  0.32858449  0.36992431  1
  Zr  Zr28  1  0.63587899  0.31184929  0.28097117  1
  Zr  Zr29  1  0.75288165  0.82760839  0.50637936  1
  Zr  Zr30  1  0.91452669  0.85822172  0.37178704  1
  Zr  Zr31  1  0.00752856  0.97975590  0.71221349  1
  Zr  Zr32  1  0.07205072  0.17528640  0.64541943  1
  Zr  Zr33  1  0.17302575  0.31474057  0.80841906  1
  Zr  Zr34  1  0.81974742  0.64892955  0.61172685  1
  Zr  Zr35  1  0.15702120  0.73132698  0.88339162  1
  Zr  Zr36  1  0.93848133  0.47075490  0.54346806  1
  Zr  Zr37  1  0.37165422  0.29748600  0.58287244  1
  Zr  Zr38  1  0.44732747  0.91873750  0.41564107  1
  Zr  Zr39  1  0.84296860  0.36319140  0.11736566  1
  Zr  Zr40  1  0.61899590  0.74972116  0.33444655  1
  Zr  Zr41  1  0.77306567  0.06541454  0.01802204  1
  Zr  Zr42  1  0.36908003  0.28510407  0.78799840  1
  Zr  Zr43  1  0.95079473  0.31262462  0.75284148  1
  Zr  Zr44  1  0.70095547  0.18368044  0.64752150  1
  Zr  Zr45  1  0.87700487  0.50279594  0.75288646  1
  Zr  Zr46  1  -0.02467447  0.66335611  0.44531885  1
  Zr  Zr47  1  0.31627927  0.49780193  0.87361826  1
  Zr  Zr48  1  0.31810167  0.51833750  0.47908963  1
  Zr  Zr49  1  0.74186976  0.33886119  0.83564561  1
  Sc  Sc50  1  0.54255492  0.45564242  0.13927378  1
  Sc  Sc51  1  0.65836978  0.55879054  0.77109603  1
  Sc  Sc52  1  0.99960681  0.70624255  0.21811910  1
  Sc  Sc53  1  0.22249471  0.65372083  0.32329484  1
  Sc  Sc54  1  0.03344582  0.26812796  0.43912611  1
  Sc  Sc55  1  0.31262909  0.76040313  0.53275827  1
  Sc  Sc56  1  0.25341889  0.12624839  0.92903650  1
  Sc  Sc57  1  0.08450668  0.29329412  1.03181422  1
  Sc  Sc58  1  0.47996005  0.73360378  0.81168058  1
  Sc  Sc59  1  0.24973606  0.24650714  0.16756511  1
  Sc  Sc60  1  0.65124249  0.73470626  0.93074656  1
  Sc  Sc61  1  0.46298936  0.24595750  0.13386367  1
  Sc  Sc62  1  0.71314137  0.95225131  0.32037533  1
  Sc  Sc63  1  0.51096922  0.36592304  0.93413786  1
  Sc  Sc64  1  0.75738279  0.91365488  0.87281212  1
  Sc  Sc65  1  0.13915792  0.37744863  0.58254173  1
  Sc  Sc66  1  0.26815031  0.97691211  0.50663893  1
  Sc  Sc67  1  0.17023147  0.85744725  0.67501470  1
  Sc  Sc68  1  0.14080119  0.62369659  0.57206625  1
  Sc  Sc69  1  0.66296019  0.96688665  0.68664276  1
  Sc  Sc70  1  0.04800345  0.15110287  0.86641517  1
  Sc  Sc71  1  0.73816013  0.42593191  0.43694758  1
  Sc  Sc72  1  0.65175974  0.13672944  0.85749291  1
  Sc  Sc73  1  0.43674061  0.29889712  0.37095657  1
  Sc  Sc74  1  0.91092605  0.08882882  0.34958734  1
  Sc  Sc75  1  0.45693029  0.13741709  0.92298665  1
  Sc  Sc76  1  0.54300126  0.10767438  0.30379703  1
  Sc  Sc77  1  0.12830759  0.81673170  0.43271847  1
  Sc  Sc78  1  0.82499695  0.68118735  0.84692323  1
  Sc  Sc79  1  0.36761417  0.04344849  0.10907409  1
  Sc  Sc80  1  0.91294018  0.50907328  0.30011269  1
  Sc  Sc81  1  0.94637857  0.16194551  0.14066953  1
  Sc  Sc82  1  0.18024121  0.66816348  0.11230616  1
  Sc  Sc83  1  0.35267669  0.49424049  0.07910086  1
  Sc  Sc84  1  0.84813818  0.02741711  0.55521116  1
  Sc  Sc85  1  0.73694006  0.13760779  0.20667180  1
  Sc  Sc86  1  0.56355349  0.52402891  0.35193327  1
  Sc  Sc87  1  0.29493762  0.86460740  0.27427789  1
  Sc  Sc88  1  0.12128596  0.12861441  0.30340587  1
  Sc  Sc89  1  0.62046875  0.67290374  0.12837001  1
  Sc  Sc90  1  0.28965046  0.47946384  0.67341133  1
  Sc  Sc91  1  0.32792257  0.09874825  0.32406999  1
  Sc  Sc92  1  0.00379048  0.70037301  0.72005873  1
  Sc  Sc93  1  0.86869158  0.25802816  0.55525231  1
  Sc  Sc94  1  0.27028393  0.09009038  0.70192456  1
  Sc  Sc95  1  0.06040731  0.01966034  0.49020532  1
  Sc  Sc96  1  0.89378405  0.94868982  0.17569383  1
  Sc  Sc97  1  0.09410903  0.51355218  0.77110721  1
  Sc  Sc98  1  0.85213994  0.09685343  0.78233249  1
  Sc  Sc99  1  0.51535837  0.45136327  0.54781989  1
  Nb  Nb100  1  0.78393202  0.64078134  0.40186542  1
  Nb  Nb101  1  0.79721877  0.74577852  0.23744000  1
  Nb  Nb102  1  0.55957183  0.30965220  0.71997863  1
  Nb  Nb103  1  0.19008439  0.45403173  0.19089516  1
  Nb  Nb104  1  0.55239663  0.93896272  0.86036661  1
  Nb  Nb105  1  0.55974566  0.80723209  0.53342440  1
  Nb  Nb106  1  0.00291112  0.64536670  0.95836718  1
  Nb  Nb107  1  0.58436626  0.25534451  0.50784433  1
  Nb  Nb108  1  1.02038642  0.50086062  0.12840024  1
  Nb  Nb109  1  0.95224101  0.00835449  0.97320982  1
  Nb  Nb110  1  0.30387573  0.31758562  0.98446746  1
  Nb  Nb111  1  0.64864133  0.76203500  0.70544138  1
  Nb  Nb112  1  0.46584078  0.65180362  0.61791050  1
  Nb  Nb113  1  0.57470769  0.05212203  0.06614313  1
  Nb  Nb114  1  0.96843686  0.83107239  0.56537870  1
  Nb  Nb115  1  0.83843499  0.85060472  0.70004271  1
  Nb  Nb116  1  0.50800152  0.58317701  0.96368261  1
  Nb  Nb117  1  0.05591460  0.84028451  0.04883582  1
  Nb  Nb118  1  0.22258200  0.18128871  0.50319506  1
  Nb  Nb119  1  0.63885101  0.62126525  0.53391674  1
  Nb  Nb120  1  0.96647652  0.84503699  0.86151915  1
  Nb  Nb121  1  0.87193718  0.23259658  0.95036729  1
  Nb  Nb122  1  0.72766974  0.17039773  0.42021059  1
  Nb  Nb123  1  0.04360942  0.32936328  0.23906170  1
  Nb  Nb124  1  0.42644947  0.11572655  0.51144114  1
