# generated using pymatgen
data_Zr2Sc2Nb
_symmetry_space_group_name_H-M   'P 1'
_cell_length_a   13.67477371
_cell_length_b   14.54184856
_cell_length_c   14.42776940
_cell_angle_alpha   91.14904061
_cell_angle_beta   89.00687135
_cell_angle_gamma   90.09000028
_symmetry_Int_Tables_number   1
_chemical_formula_structural   Zr2Sc2Nb
_chemical_formula_sum   'Zr50 Sc50 Nb25'
_cell_volume   2868.04558403
_cell_formula_units_Z   25
loop_
 _symmetry_equiv_pos_site_id
 _symmetry_equiv_pos_as_xyz
  1  'x, y, z'
loop_
 _atom_site_type_symbol
 _atom_site_label
 _atom_site_symmetry_multiplicity
 _atom_site_fract_x
 _atom_site_fract_y
 _atom_site_fract_z
 _atom_site_occupancy
  Zr  Zr0  1  0.29017658  0.91738010  0.63606490  1
  Zr  Zr1  1  0.91022507  0.54713420  0.01905288  1
  Zr  Zr2  1  0.33557940  0.92554050  0.85991701  1
  Zr  Zr3  1  0.13006678  0.12536556  0.08420124  1
  Zr  Zr4  1  0.00259912  0.11610062  0.25427383  1
  Zr  Zr5  1  0.79703397  0.11962833  0.57842232  1
  Zr  Zr6  1  0.08030190  0.02238959  0.89198453  1
  Zr  Zr7  1  0.29580869  0.70716120  0.71916343  1
  Zr  Zr8  1  0.51097116  0.93720226  0.55534492  1
  Zr  Zr9  1  0.59711438  0.17655741  0.67486798  1
  Zr  Zr10  1  0.29762035  0.75660608  0.49105499  1
  Zr  Zr11  1  0.37862904  0.63701206  0.06119541  1
  Zr  Zr12  1  0.07728488  0.92652335  0.17268615  1
  Zr  Zr13  1  0.88868487  0.91519078  0.59664455  1
  Zr  Zr14  1  0.23591841  0.09642515  0.74308378  1
  Zr  Zr15  1  0.47664191  0.66225769  0.56984350  1
  Zr  Zr16  1  0.79273385  0.26140036  0.73884148  1
  Zr  Zr17  1  0.06961625  0.22488296  0.86254951  1
  Zr  Zr18  1  0.56117943  0.92237892  0.89405548  1
  Zr  Zr19  1  0.26782186  0.33860871  0.82999731  1
  Zr  Zr20  1  0.93094111  0.29483883  0.28308604  1
  Zr  Zr21  1  0.60547389  0.39813470  0.74586472  1
  Zr  Zr22  1  0.68283633  0.31346464  0.55582014  1
  Zr  Zr23  1  0.52561123  0.96365019  0.34904977  1
  Zr  Zr24  1  0.27230189  0.47468346  0.13028374  1
  Zr  Zr25  1  0.14012970  0.78759136  0.32268975  1
  Zr  Zr26  1  0.78539324  0.47342301  0.66124770  1
  Zr  Zr27  1  0.08388755  0.67634543  0.83692658  1
  Zr  Zr28  1  0.59131205  0.14114095  0.25110473  1
  Zr  Zr29  1  0.08204641  0.43790098  0.91598157  1
  Zr  Zr30  1  0.49172524  0.81649920  0.71219457  1
  Zr  Zr31  1  0.42253783  0.52184127  0.72660845  1
  Zr  Zr32  1  0.49014780  0.98362448  0.13397526  1
  Zr  Zr33  1  0.55999772  0.22571763  0.06631492  1
  Zr  Zr34  1  0.47677545  0.69248243  0.86533316  1
  Zr  Zr35  1  0.65223654  0.57827935  0.27070232  1
  Zr  Zr36  1  0.68132473  0.04429790  0.05534985  1
  Zr  Zr37  1  0.11582517  0.40960376  0.52608102  1
  Zr  Zr38  1  0.93474637  0.88794916  0.32598768  1
  Zr  Zr39  1  0.39756967  0.33720037  0.01509260  1
  Zr  Zr40  1  0.92732589  0.04925666  0.05839738  1
  Zr  Zr41  1  0.96946196  0.06709116  0.45403238  1
  Zr  Zr42  1  0.58867401  0.11559762  0.47789429  1
  Zr  Zr43  1  0.84998272  0.69164400  0.68027708  1
  Zr  Zr44  1  0.94874152  0.84799691  0.78515769  1
  Zr  Zr45  1  0.23460808  0.45332467  0.33799592  1
  Zr  Zr46  1  0.05641982  0.44342475  0.15665870  1
  Zr  Zr47  1  0.68749720  0.97407710  0.70708276  1
  Zr  Zr48  1  0.83256793  0.17378403  0.93230806  1
  Zr  Zr49  1  0.85279590  0.86833779  0.11381660  1
  Sc  Sc50  1  0.51035961  0.48250219  0.92513502  1
  Sc  Sc51  1  0.19238110  0.04869678  0.31328340  1
  Sc  Sc52  1  0.34152656  0.15772263  0.13747729  1
  Sc  Sc53  1  0.53001596  0.73588303  0.19211630  1
  Sc  Sc54  1  0.67027495  0.88969046  0.21963174  1
  Sc  Sc55  1  0.01993979  0.17828866  0.63101065  1
  Sc  Sc56  1  0.68639805  0.45367049  0.06035295  1
  Sc  Sc57  1  0.76132669  0.20901991  0.37949602  1
  Sc  Sc58  1  0.98329198  0.71770808  0.16145097  1
  Sc  Sc59  1  0.12942272  0.61909820  0.45148290  1
  Sc  Sc60  1  0.47086635  0.51418149  0.37404269  1
  Sc  Sc61  1  0.28512061  0.53738824  0.89699173  1
  Sc  Sc62  1  0.79794041  0.94369760  0.90962447  1
  Sc  Sc63  1  0.72682150  0.55026171  0.86583580  1
  Sc  Sc64  1  0.85554291  0.72222606  0.94290168  1
  Sc  Sc65  1  0.10591311  0.90081242  0.48625379  1
  Sc  Sc66  1  0.89314257  0.06557406  0.76569208  1
  Sc  Sc67  1  0.29223916  0.28322989  0.44410294  1
  Sc  Sc68  1  0.33631734  0.65355728  0.28271224  1
  Sc  Sc69  1  0.07982894  0.74500383  0.62999243  1
  Sc  Sc70  1  0.92040080  0.61818824  0.33383372  1
  Sc  Sc71  1  0.80105673  0.04995030  0.24600738  1
  Sc  Sc72  1  0.05817518  0.83413429  0.98570992  1
  Sc  Sc73  1  0.45900410  0.04132656  0.74467819  1
  Sc  Sc74  1  0.51503833  0.30421367  0.42626208  1
  Sc  Sc75  1  0.12662036  0.61146326  0.03073061  1
  Sc  Sc76  1  0.94766176  0.55065773  0.54883648  1
  Sc  Sc77  1  0.75359422  0.75687734  0.34129733  1
  Sc  Sc78  1  0.69225435  0.76888789  0.81695163  1
  Sc  Sc79  1  0.39117616  0.12582328  0.34997319  1
  Sc  Sc80  1  0.16408193  0.51776771  0.71080875  1
  Sc  Sc81  1  0.86369367  0.38161063  0.90135427  1
  Sc  Sc82  1  0.43003763  0.32296645  0.62874648  1
  Sc  Sc83  1  0.51779687  0.76570669  0.40113810  1
  Sc  Sc84  1  0.99653385  0.37355972  0.71682435  1
  Sc  Sc85  1  0.46258060  0.24067656  0.83523104  1
  Sc  Sc86  1  0.62809165  0.36164103  0.24962835  1
  Sc  Sc87  1  0.77249285  0.43793549  0.40475534  1
  Sc  Sc88  1  0.74505244  0.95597435  0.43829330  1
  Sc  Sc89  1  0.72324630  0.61597171  0.49864929  1
  Sc  Sc90  1  0.21130767  0.27293474  0.64132195  1
  Sc  Sc91  1  0.39994192  0.33220910  0.23819196  1
  Sc  Sc92  1  0.97884349  0.27612591  0.06488868  1
  Sc  Sc93  1  0.90870801  0.31790392  0.51483475  1
  Sc  Sc94  1  0.84035082  0.46995542  0.20314279  1
  Sc  Sc95  1  0.32012738  0.50648819  0.54028600  1
  Sc  Sc96  1  0.26496145  0.95933576  0.05127691  1
  Sc  Sc97  1  0.34196166  0.87319014  0.25063622  1
  Sc  Sc98  1  0.77046227  0.24128280  0.12920569  1
  Sc  Sc99  1  0.68642037  0.79898127  0.57795168  1
  Nb  Nb100  1  0.43382164  0.82413420  1.02900353  1
  Nb  Nb101  1  0.19391408  0.30988839  0.03478576  1
  Nb  Nb102  1  0.16363241  0.27938912  0.24096588  1
  Nb  Nb103  1  0.08958482  0.23607417  0.41902065  1
  Nb  Nb104  1  0.15993110  0.86415520  0.79033792  1
  Nb  Nb105  1  0.07365689  -0.01453284  0.66852957  1
  Nb  Nb106  1  0.26398924  0.75366035  0.92943580  1
  Nb  Nb107  1  0.13175598  0.60190777  0.24313475  1
  Nb  Nb108  1  0.64709206  0.11536556  0.86240985  1
  Nb  Nb109  1  0.19680907  0.09105233  0.52262244  1
  Nb  Nb110  1  0.02497895  0.44215600  0.35909764  1
  Nb  Nb111  1  0.62177959  0.61651813  0.69765211  1
  Nb  Nb112  1  0.76415218  0.67298733  0.13785063  1
  Nb  Nb113  1  0.45532619  0.07814650  0.96488564  1
  Nb  Nb114  1  0.21903003  0.76359628  0.12705396  1
  Nb  Nb115  1  0.27503760  0.15164309  0.93072698  1
  Nb  Nb116  1  0.92020957  0.75949665  0.48430370  1
  Nb  Nb117  1  0.38858343  0.12109701  0.56406072  1
  Nb  Nb118  1  0.60541784  0.64517951  1.02205621  1
  Nb  Nb119  1  0.93831246  0.55602223  0.79645638  1
  Nb  Nb120  1  0.49407813  0.50568203  0.15254425  1
  Nb  Nb121  1  0.56815458  0.47927960  0.55852016  1
  Nb  Nb122  1  0.65783337  0.30571045  0.91292491  1
  Nb  Nb123  1  0.32951332  0.94804516  0.44481183  1
  Nb  Nb124  1  0.65615764  0.82244271  0.02921460  1
