# generated using pymatgen
data_Zr2Sc2Nb
_symmetry_space_group_name_H-M   'P 1'
_cell_length_a   14.28746143
_cell_length_b   14.31440978
_cell_length_c   13.99321856
_cell_angle_alpha   89.71982393
_cell_angle_beta   90.21835255
_cell_angle_gamma   89.28235515
_symmetry_Int_Tables_number   1
_chemical_formula_structural   Zr2Sc2Nb
_chemical_formula_sum   'Zr50 Sc50 Nb25'
_cell_volume   2861.56501623
_cell_formula_units_Z   25
loop_
 _symmetry_equiv_pos_site_id
 _symmetry_equiv_pos_as_xyz
  1  'x, y, z'
loop_
 _atom_site_type_symbol
 _atom_site_label
 _atom_site_symmetry_multiplicity
 _atom_site_fract_x
 _atom_site_fract_y
 _atom_site_fract_z
 _atom_site_occupancy
  Zr  Zr0  1  0.49027992  0.23778546  0.50012746  1
  Zr  Zr1  1  0.61713620  0.31593460  0.00792008  1
  Zr  Zr2  1  0.39418043  0.92277210  0.67005126  1
  Zr  Zr3  1  0.78982996  0.78728258  0.70142477  1
  Zr  Zr4  1  0.95033817  0.21511583  0.63688555  1
  Zr  Zr5  1  0.29878122  0.68445467  0.30182784  1
  Zr  Zr6  1  0.26546632  0.24709293  0.97514312  1
  Zr  Zr7  1  0.99479729  0.42303723  0.71259981  1
  Zr  Zr8  1  0.91679659  0.79765981  0.50430487  1
  Zr  Zr9  1  0.17700027  0.46153605  0.91555029  1
  Zr  Zr10  1  0.60035260  0.59187748  0.28830728  1
  Zr  Zr11  1  0.96118730  0.70746763  0.04551784  1
  Zr  Zr12  1  0.58683659  0.35619359  0.65898286  1
  Zr  Zr13  1  0.60288525  0.92017120  0.37971411  1
  Zr  Zr14  1  -0.00250956  0.47042441  0.32238046  1
  Zr  Zr15  1  0.52342816  0.87983340  0.03716433  1
  Zr  Zr16  1  0.62318148  0.68940190  0.76320646  1
  Zr  Zr17  1  0.31379048  0.87852241  0.89338274  1
  Zr  Zr18  1  0.88232986  0.41237507  0.51053246  1
  Zr  Zr19  1  0.37124514  0.31967885  0.33327603  1
  Zr  Zr20  1  0.96313497  1.00595946  0.51872628  1
  Zr  Zr21  1  0.51242737  0.14366299  0.69628598  1
  Zr  Zr22  1  0.47278170  0.62903846  0.45309631  1
  Zr  Zr23  1  0.39546831  0.95577273  0.43228905  1
  Zr  Zr24  1  0.69122826  0.50196141  0.50069927  1
  Zr  Zr25  1  0.07435721  0.34432442  0.49604803  1
  Zr  Zr26  1  0.74645231  0.63138900  0.11647982  1
  Zr  Zr27  1  0.61287322  0.94271986  0.70864490  1
  Zr  Zr28  1  0.14584707  0.11096131  0.13596382  1
  Zr  Zr29  1  0.76990054  0.06319903  0.02015964  1
  Zr  Zr30  1  0.65807694  0.00008672  0.18944931  1
  Zr  Zr31  1  0.04887617  0.06589894  0.31065237  1
  Zr  Zr32  1  0.40351995  0.66012564  0.91832891  1
  Zr  Zr33  1  0.47656541  0.01241544  0.87231747  1
  Zr  Zr34  1  0.71836576  0.09672292  0.40177318  1
  Zr  Zr35  1  0.72157039  0.14936549  0.64582980  1
  Zr  Zr36  1  0.47834528  0.34416707  0.15537858  1
  Zr  Zr37  1  0.12635388  0.86910869  0.81651045  1
  Zr  Zr38  1  0.41854392  0.44210805  0.51553365  1
  Zr  Zr39  1  -0.02114201  0.74661349  0.83865892  1
  Zr  Zr40  1  0.17441411  0.68437949  0.95328061  1
  Zr  Zr41  1  0.13167998  0.60099374  0.75417423  1
  Zr  Zr42  1  0.04053997  0.86249018  0.34917082  1
  Zr  Zr43  1  0.80993598  0.27551407  0.06063468  1
  Zr  Zr44  1  0.70613482  0.28074596  0.48853836  1
  Zr  Zr45  1  0.12945321  0.89134415  0.03390600  1
  Zr  Zr46  1  0.11015615  0.76117439  0.59551908  1
  Zr  Zr47  1  0.97166557  0.93182659  0.15027930  1
  Zr  Zr48  1  0.55244751  0.49304829  0.83801014  1
  Zr  Zr49  1  0.33034612  0.01821741  1.04345987  1
  Sc  Sc50  1  0.65515643  0.11641630  0.86152796  1
  Sc  Sc51  1  0.08006593  0.26887649  0.84569636  1
  Sc  Sc52  1  0.07869182  0.33146492  0.05874908  1
  Sc  Sc53  1  0.36787172  0.30990022  0.69585092  1
  Sc  Sc54  1  0.53763489  0.52468608  0.06525436  1
  Sc  Sc55  1  0.53191877  0.11638895  0.06431302  1
  Sc  Sc56  1  0.92898441  0.63064895  0.67575650  1
  Sc  Sc57  1  0.82158663  -0.00044284  0.75285947  1
  Sc  Sc58  1  0.79011802  0.83920234  0.07257368  1
  Sc  Sc59  1  0.12483257  0.73783421  0.18120796  1
  Sc  Sc60  1  0.47103021  0.24826775  0.88039504  1
  Sc  Sc61  1  0.31154678  0.78451398  0.51100769  1
  Sc  Sc62  1  0.57997628  0.39164624  0.35204395  1
  Sc  Sc63  1  0.50632427  0.12298601  0.31940964  1
  Sc  Sc64  1  0.38161505  0.42696725  0.96419203  1
  Sc  Sc65  1  0.18016894  0.97858272  0.65069072  1
  Sc  Sc66  1  0.33021446  0.11291139  0.56715114  1
  Sc  Sc67  1  0.34631612  0.18353050  0.16346579  1
  Sc  Sc68  1  0.47708435  0.69480144  0.14863857  1
  Sc  Sc69  1  0.30753092  0.11245401  0.79121395  1
  Sc  Sc70  1  0.11959795  0.14105299  0.49322027  1
  Sc  Sc71  1  0.34945015  0.51907036  0.75780481  1
  Sc  Sc72  1  0.27839820  0.11350226  0.35143915  1
  Sc  Sc73  1  0.90726479  0.20210503  0.42537834  1
  Sc  Sc74  1  0.26829612  0.58758527  0.56197168  1
  Sc  Sc75  1  0.73634806  0.49502118  0.95449162  1
  Sc  Sc76  1  0.89945896  0.47512043  0.11665249  1
  Sc  Sc77  1  0.97301626  0.13850514  0.01297100  1
  Sc  Sc78  1  0.90666422  0.70787316  0.25984064  1
  Sc  Sc79  1  0.10120682  0.66669375  0.39421613  1
  Sc  Sc80  1  0.66657935  0.22368294  0.21925538  1
  Sc  Sc81  1  0.31804411  0.80116422  0.09908384  1
  Sc  Sc82  1  0.93229296  0.93630287  0.92516756  1
  Sc  Sc83  1  0.10678228  0.53645688  0.12437844  1
  Sc  Sc84  1  0.69132966  0.87998063  0.89273994  1
  Sc  Sc85  1  0.15739900  0.06558721  0.92127468  1
  Sc  Sc86  1  0.82307970  0.90615469  0.32275351  1
  Sc  Sc87  1  0.85055894  0.10235492  0.22016358  1
  Sc  Sc88  1  0.16010423  0.28235965  0.29051275  1
  Sc  Sc89  1  0.54909338  0.80523556  0.56130471  1
  Sc  Sc90  1  0.89626841  0.37174992  0.89433112  1
  Sc  Sc91  1  0.75494917  0.52011066  0.73240730  1
  Sc  Sc92  1  0.75598557  0.93576506  0.54467814  1
  Sc  Sc93  1  0.70753033  0.71932509  0.43845671  1
  Sc  Sc94  1  0.22062772  0.48088837  0.36384011  1
  Sc  Sc95  1  0.02330888  0.06994291  0.76174574  1
  Sc  Sc96  1  0.64601422  0.79197669  0.21799490  1
  Sc  Sc97  1  0.89845560  0.60706627  0.46344514  1
  Sc  Sc98  1  0.23469227  0.92561617  0.24958072  1
  Sc  Sc99  1  0.96633532  0.27138749  0.22151020  1
  Nb  Nb100  1  0.48880801  0.81420525  0.82370654  1
  Nb  Nb101  1  0.80220218  0.35203538  0.31554784  1
  Nb  Nb102  1  0.27138581  0.39392590  0.14498338  1
  Nb  Nb103  1  0.44634584  0.95218694  0.21416166  1
  Nb  Nb104  1  0.30783667  0.58005642  0.10120924  1
  Nb  Nb105  1  0.46082688  0.78936765  0.32992667  1
  Nb  Nb106  1  0.07240115  0.53370687  0.54830419  1
  Nb  Nb107  1  0.79011186  0.53648960  0.30954877  1
  Nb  Nb108  1  0.85312603  0.18448110  0.83843956  1
  Nb  Nb109  1  -0.02840893  0.88013862  0.67980301  1
  Nb  Nb110  1  0.42935641  0.68742816  0.67649318  1
  Nb  Nb111  1  0.98041595  0.55394856  0.90950288  1
  Nb  Nb112  1  0.55658555  0.04210079  0.53315772  1
  Nb  Nb113  1  0.16603176  0.22042245  0.67068261  1
  Nb  Nb114  1  0.69362872  0.31545996  0.82925294  1
  Nb  Nb115  1  0.54829278  0.55253211  0.63138133  1
  Nb  Nb116  1  0.17793692  0.94276162  0.45583594  1
  Nb  Nb117  1  0.27122036  0.74759299  0.74425161  1
  Nb  Nb118  1  0.80313706  0.33260759  0.67863077  1
  Nb  Nb119  1  0.69299304  0.43064888  0.16795379  1
  Nb  Nb120  1  0.26536448  0.30531717  0.50498891  1
  Nb  Nb121  1  0.80081819  0.68189232  0.89693287  1
  Nb  Nb122  1  0.61335402  0.69746589  0.97183704  1
  Nb  Nb123  1  0.18901289  0.41277338  0.67312444  1
  Nb  Nb124  1  0.41176127  0.51522714  0.26763627  1
