# generated using pymatgen
data_Zr2Sc2Nb
_symmetry_space_group_name_H-M   'P 1'
_cell_length_a   14.39940997
_cell_length_b   14.05767092
_cell_length_c   14.19648352
_cell_angle_alpha   91.76889409
_cell_angle_beta   92.39808399
_cell_angle_gamma   90.44233506
_symmetry_Int_Tables_number   1
_chemical_formula_structural   Zr2Sc2Nb
_chemical_formula_sum   'Zr50 Sc50 Nb25'
_cell_volume   2869.68121423
_cell_formula_units_Z   25
loop_
 _symmetry_equiv_pos_site_id
 _symmetry_equiv_pos_as_xyz
  1  'x, y, z'
loop_
 _atom_site_type_symbol
 _atom_site_label
 _atom_site_symmetry_multiplicity
 _atom_site_fract_x
 _atom_site_fract_y
 _atom_site_fract_z
 _atom_site_occupancy
  Zr  Zr0  1  0.36570681  0.80693043  0.90912206  1
  Zr  Zr1  1  0.96334517  0.79113736  0.91201697  1
  Zr  Zr2  1  0.67359998  0.07400796  0.90523321  1
  Zr  Zr3  1  0.33434767  0.69622256  0.56833866  1
  Zr  Zr4  1  0.45606686  0.02480198  0.80702083  1
  Zr  Zr5  1  0.44494109  0.65456037  0.31348818  1
  Zr  Zr6  1  0.89490726  0.29429154  0.46104066  1
  Zr  Zr7  1  0.66368015  0.97303380  0.56116434  1
  Zr  Zr8  1  0.55215959  0.89330187  0.94907085  1
  Zr  Zr9  1  0.56519004  0.11727214  0.66375798  1
  Zr  Zr10  1  0.34456501  0.43411248  0.01588158  1
  Zr  Zr11  1  0.55405640  0.55443973  0.11435785  1
  Zr  Zr12  1  0.86508659  0.69476176  0.06670944  1
  Zr  Zr13  1  0.48598918  0.09251759  0.23046653  1
  Zr  Zr14  1  0.65405404  0.91492410  0.76535580  1
  Zr  Zr15  1  0.37078258  0.24896969  0.33509427  1
  Zr  Zr16  1  0.65117280  0.99046539  0.34056161  1
  Zr  Zr17  1  0.10484262  0.85044950  0.30569849  1
  Zr  Zr18  1  0.03773926  0.43274973  0.76346644  1
  Zr  Zr19  1  0.31488345  0.58254027  0.16936370  1
  Zr  Zr20  1  0.38560303  -0.01322692  0.61432122  1
  Zr  Zr21  1  0.62023804  0.50648754  0.33012140  1
  Zr  Zr22  1  0.80066664  0.38344835  0.30077311  1
  Zr  Zr23  1  0.13797508  0.62665442  0.67071044  1
  Zr  Zr24  1  0.16018496  0.32733846  0.92998826  1
  Zr  Zr25  1  0.89066270  0.48500152  0.59252665  1
  Zr  Zr26  1  0.65818057  0.37298847  0.15329047  1
  Zr  Zr27  1  0.76451399  0.84334796  0.19725472  1
  Zr  Zr28  1  0.85122286  0.27267166  0.11278079  1
  Zr  Zr29  1  0.66205167  0.32544241  0.69630803  1
  Zr  Zr30  1  0.08012323  0.04680830  0.40196195  1
  Zr  Zr31  1  0.86223114  0.08434822  0.49383171  1
  Zr  Zr32  1  0.15293221  0.55112522  0.47657092  1
  Zr  Zr33  1  0.38474228  0.94901295  0.09022184  1
  Zr  Zr34  1  0.21301005  0.11462828  0.73098539  1
  Zr  Zr35  1  0.40840686  0.40762092  0.79378958  1
  Zr  Zr36  1  0.95729567  0.34755526  0.95218134  1
  Zr  Zr37  1  0.44085444  0.43144435  0.25066231  1
  Zr  Zr38  1  0.48614072  0.08509634  0.45256964  1
  Zr  Zr39  1  0.63265925  0.75589506  0.62796048  1
  Zr  Zr40  1  0.96808446  0.88698438  0.49771145  1
  Zr  Zr41  1  0.08110894  0.96326857  0.82661761  1
  Zr  Zr42  1  0.44665365  0.26079431  0.12483757  1
  Zr  Zr43  1  0.07572572  0.04623333  0.16929588  1
  Zr  Zr44  1  0.71028758  0.41847074  0.50110973  1
  Zr  Zr45  1  0.17509585  0.20956117  0.29638900  1
  Zr  Zr46  1  0.27297273  0.79133414  0.19960395  1
  Zr  Zr47  1  0.14844617  0.73223021  0.86149289  1
  Zr  Zr48  1  0.53429407  0.36306927  0.97934375  1
  Zr  Zr49  1  0.33970640  0.22660459  0.90391720  1
  Sc  Sc50  1  0.93758134  0.63777369  0.74421373  1
  Sc  Sc51  1  0.38506581  0.22259854  0.66331669  1
  Sc  Sc52  1  0.76530975  0.71346360  0.84900729  1
  Sc  Sc53  1  0.91621515  0.73960461  0.32424319  1
  Sc  Sc54  1  0.45710675  0.88592026  0.28886341  1
  Sc  Sc55  1  0.49277188  0.36124325  0.53770323  1
  Sc  Sc56  1  0.93710627  0.47719532  0.14906478  1
  Sc  Sc57  1  0.22083702  0.51192442  0.85076118  1
  Sc  Sc58  1  0.62472663  0.74081750  0.29291747  1
  Sc  Sc59  1  0.75356893  0.16991487  0.30052281  1
  Sc  Sc60  1  0.89568870  0.14382724  0.90170081  1
  Sc  Sc61  1  0.82855716  0.05084997  0.12092338  1
  Sc  Sc62  1  0.06878064  0.38837600  0.56661668  1
  Sc  Sc63  1  0.46450707  0.74695951  0.10309730  1
  Sc  Sc64  1  0.58165120  0.28197242  0.33907094  1
  Sc  Sc65  1  0.49722129  0.83533208  0.48801547  1
  Sc  Sc66  1  0.68911926  0.19877232  0.51256661  1
  Sc  Sc67  1  0.61479023  0.48877896  0.84323166  1
  Sc  Sc68  1  0.10968918  0.13221332  0.96421106  1
  Sc  Sc69  1  0.09118872  0.62061112  0.28233216  1
  Sc  Sc70  1  0.26937292  0.11812927  0.48927249  1
  Sc  Sc71  1  0.25220283  0.32966337  0.49653737  1
  Sc  Sc72  1  0.71417825  0.57016629  0.66774328  1
  Sc  Sc73  1  0.89409846  0.97296657  0.31271235  1
  Sc  Sc74  1  0.16534530  0.89254765  0.03635704  1
  Sc  Sc75  1  0.08856658  0.70275231  0.09177616  1
  Sc  Sc76  1  0.76249455  0.83479262  0.44132139  1
  Sc  Sc77  1  0.23882557  0.44513194  0.30643685  1
  Sc  Sc78  1  0.28363474  0.00941713  0.90715510  1
  Sc  Sc79  1  0.76883088  0.88698000  0.98780305  1
  Sc  Sc80  1  0.64727489  0.16419267  0.10147606  1
  Sc  Sc81  1  0.13578778  0.48053266  0.09055913  1
  Sc  Sc82  1  -0.03426769  0.04382076  0.67208359  1
  Sc  Sc83  1  0.83063502  0.43612973  0.79727025  1
  Sc  Sc84  1  -0.00065196  0.56305806  0.94001141  1
  Sc  Sc85  1  0.76673521  0.59819397  0.22190201  1
  Sc  Sc86  1  0.95772550  0.18360010  0.28606024  1
  Sc  Sc87  1  0.14804228  0.96677863  0.58633029  1
  Sc  Sc88  1  0.76874823  0.11728543  0.71687726  1
  Sc  Sc89  1  0.73004351  0.29159718  0.92098747  1
  Sc  Sc90  1  0.27694440  0.02022104  0.27726743  1
  Sc  Sc91  1  0.28846129  0.88531026  0.43765328  1
  Sc  Sc92  1  0.76131907  0.50377663  0.00918806  1
  Sc  Sc93  1  0.55743724  0.61067537  0.49055638  1
  Sc  Sc94  1  0.56076278  0.70509824  0.84108822  1
  Sc  Sc95  1  0.48723487  0.56676743  0.67318403  1
  Sc  Sc96  1  0.82997547  0.80926613  0.64817788  1
  Sc  Sc97  1  1.04607771  0.37786119  0.31824305  1
  Sc  Sc98  1  0.92591122  0.52797369  0.39166940  1
  Sc  Sc99  1  0.25138666  0.84825326  0.72106443  1
  Nb  Nb100  1  0.96200434  0.86104328  0.14189821  1
  Nb  Nb101  1  0.53953316  0.22820657  0.83278954  1
  Nb  Nb102  1  0.13067591  0.76082557  0.49834083  1
  Nb  Nb103  1  0.65787040  0.71922685  0.04873961  1
  Nb  Nb104  1  0.20867197  0.31892760  0.71740842  1
  Nb  Nb105  1  0.47853288  0.09987973  -0.00163844  1
  Nb  Nb106  1  0.26992343  0.66055057  0.00073147  1
  Nb  Nb107  1  0.33888142  0.65233935  0.77873676  1
  Nb  Nb108  1  0.07219947  0.18583846  0.56563961  1
  Nb  Nb109  1  0.03913179  0.22573894  0.76962466  1
  Nb  Nb110  1  0.25403870  0.31384484  0.14065593  1
  Nb  Nb111  1  0.86109099  0.94008183  0.81456914  1
  Nb  Nb112  1  0.26833677  0.68043641  0.37000275  1
  Nb  Nb113  1  0.44220689  0.58256111  0.93902523  1
  Nb  Nb114  1  0.88665439  0.27402331  0.65451506  1
  Nb  Nb115  1  0.96082178  0.67951046  0.53502789  1
  Nb  Nb116  1  0.03240882  0.81976733  0.69063640  1
  Nb  Nb117  1  0.76455002  0.63014361  0.46672520  1
  Nb  Nb118  1  0.60207954  0.94401716  0.13288254  1
  Nb  Nb119  1  0.27539262  0.12827637  0.09907688  1
  Nb  Nb120  1  0.96868442  0.97366643  0.99405655  1
  Nb  Nb121  1  0.45878766  0.82040462  0.70995520  1
  Nb  Nb122  1  0.37298387  0.51315219  0.45389090  1
  Nb  Nb123  1  0.06178456  0.26879558  0.12073337  1
  Nb  Nb124  1  0.28895033  0.48392333  0.63849280  1
