# generated using pymatgen
data_Zr2Sc2Nb
_symmetry_space_group_name_H-M   'P 1'
_cell_length_a   14.09005334
_cell_length_b   14.35952568
_cell_length_c   14.26036082
_cell_angle_alpha   89.91212126
_cell_angle_beta   90.17653792
_cell_angle_gamma   89.54349645
_symmetry_Int_Tables_number   1
_chemical_formula_structural   Zr2Sc2Nb
_chemical_formula_sum   'Zr50 Sc50 Nb25'
_cell_volume   2885.13987147
_cell_formula_units_Z   25
loop_
 _symmetry_equiv_pos_site_id
 _symmetry_equiv_pos_as_xyz
  1  'x, y, z'
loop_
 _atom_site_type_symbol
 _atom_site_label
 _atom_site_symmetry_multiplicity
 _atom_site_fract_x
 _atom_site_fract_y
 _atom_site_fract_z
 _atom_site_occupancy
  Zr  Zr0  1  0.59708186  0.73486158  0.67903744  1
  Zr  Zr1  1  0.17756947  0.53965772  0.65058269  1
  Zr  Zr2  1  0.25197490  0.92689450  0.82700984  1
  Zr  Zr3  1  0.46279787  0.87412520  0.57231360  1
  Zr  Zr4  1  0.04150392  0.27084227  0.02594850  1
  Zr  Zr5  1  0.39862445  0.44678130  0.91477284  1
  Zr  Zr6  1  0.31457950  0.30736530  0.46074846  1
  Zr  Zr7  1  0.53090580  0.13132968  0.78909910  1
  Zr  Zr8  1  0.07280210  0.44589327  0.19249531  1
  Zr  Zr9  1  0.40735627  0.06557236  0.45532474  1
  Zr  Zr10  1  0.52751976  0.74155155  0.13444513  1
  Zr  Zr11  1  0.38115873  0.04149751  0.68211124  1
  Zr  Zr12  1  0.23551058  0.95031537  0.03889408  1
  Zr  Zr13  1  0.95497004  0.95879192  0.93341890  1
  Zr  Zr14  1  0.02506613  0.85372382  0.57108453  1
  Zr  Zr15  1  0.66227542  0.84515156  0.49074517  1
  Zr  Zr16  1  0.12413824  0.45452735  -0.02054495  1
  Zr  Zr17  1  0.27318809  0.51678475  0.11146949  1
  Zr  Zr18  1  0.87254666  0.75619699  0.41173325  1
  Zr  Zr19  1  0.21672287  0.29437403  0.15146446  1
  Zr  Zr20  1  0.91805177  0.54205321  0.10456447  1
  Zr  Zr21  1  0.10484753  0.67416851  0.49108406  1
  Zr  Zr22  1  0.09774691  0.28639716  0.81934544  1
  Zr  Zr23  1  0.88862819  0.10380739  0.10199783  1
  Zr  Zr24  1  0.88998214  0.41502036  0.30466156  1
  Zr  Zr25  1  0.69571168  0.63493959  0.48655218  1
  Zr  Zr26  1  0.43654333  0.91967026  0.14912914  1
  Zr  Zr27  1  0.91676768  0.25740386  0.70282076  1
  Zr  Zr28  1  0.89651566  0.17963285  0.90240553  1
  Zr  Zr29  1  0.61615715  0.38120759  0.01620105  1
  Zr  Zr30  1  0.80914735  0.88666435  0.07500188  1
  Zr  Zr31  1  0.53404171  0.05517914  1.00405725  1
  Zr  Zr32  1  0.15942724  0.99786825  0.45078683  1
  Zr  Zr33  1  0.54855832  0.34028044  0.76201802  1
  Zr  Zr34  1  0.06005813  0.82373935  0.33464639  1
  Zr  Zr35  1  0.01030533  0.12554410  0.53794161  1
  Zr  Zr36  1  0.54749668  0.92345762  0.80471802  1
  Zr  Zr37  1  0.58438624  0.59325617  0.29627036  1
  Zr  Zr38  1  0.47893491  0.07412468  0.26412284  1
  Zr  Zr39  1  0.19554696  0.60937252  0.29569513  1
  Zr  Zr40  1  0.90079212  0.32568281  0.50561567  1
  Zr  Zr41  1  0.41515165  0.87218932  0.95607430  1
  Zr  Zr42  1  0.07965954  0.45606700  0.46043766  1
  Zr  Zr43  1  0.65703670  0.02125425  0.38685567  1
  Zr  Zr44  1  0.12027465  0.09521444  0.13611737  1
  Zr  Zr45  1  0.59470598  0.22319445  0.38339370  1
  Zr  Zr46  1  0.92422076  0.80009880  0.77226190  1
  Zr  Zr47  1  0.34690906  0.13294006  0.10123012  1
  Zr  Zr48  1  0.02776048  0.05105205  0.31639746  1
  Zr  Zr49  1  0.58557239  0.05429044  0.58693356  1
  Sc  Sc50  1  0.03235336  0.89634687  0.13271171  1
  Sc  Sc51  1  0.78067231  0.63100181  0.73589905  1
  Sc  Sc52  1  0.15015785  0.10042570  0.70956213  1
  Sc  Sc53  1  0.72443994  0.17014091  0.75590895  1
  Sc  Sc54  1  0.79460632  0.53916274  0.93621087  1
  Sc  Sc55  1  0.68621341  0.80906654  0.26288373  1
  Sc  Sc56  1  0.61182452  0.51984215  0.83992590  1
  Sc  Sc57  1  0.14754426  0.73995647  0.72822314  1
  Sc  Sc58  1  0.24715381  0.14618190  0.31562709  1
  Sc  Sc59  1  0.84621642  0.16245235  0.36346896  1
  Sc  Sc60  1  0.91287741  0.72457451  0.98043234  1
  Sc  Sc61  1  0.48433983  0.86653561  0.35393142  1
  Sc  Sc62  1  0.24765798  0.93597843  0.25290871  1
  Sc  Sc63  1  0.72332546  0.48589531  0.15418425  1
  Sc  Sc64  1  0.87825902  0.54103113  0.49702677  1
  Sc  Sc65  1  0.26007108  0.62872560  0.89772330  1
  Sc  Sc66  1  0.50446636  0.41966022  0.44599678  1
  Sc  Sc67  1  0.29850557  0.74202305  0.08894421  1
  Sc  Sc68  1  0.79724314  0.43751243  0.68475195  1
  Sc  Sc69  1  0.47414449  0.24825217  0.94608763  1
  Sc  Sc70  1  0.12701855  0.09405790  0.92045276  1
  Sc  Sc71  1  0.78014970  0.13579066  0.55648823  1
  Sc  Sc72  1  0.73476568  1.01123490  0.90562773  1
  Sc  Sc73  1  0.14522159  0.31138987  0.61239408  1
  Sc  Sc74  1  0.86137647  0.95895623  0.49114933  1
  Sc  Sc75  1  0.32481976  0.24237350  0.75198897  1
  Sc  Sc76  1  -0.00752148  0.25011447  0.22817421  1
  Sc  Sc77  1  0.27128484  0.80234080  0.42022279  1
  Sc  Sc78  1  0.49726490  0.54658893  0.09169175  1
  Sc  Sc79  1  0.68297725  0.04578800  0.16733875  1
  Sc  Sc80  1  0.59149927  0.51259357  0.62013834  1
  Sc  Sc81  1  0.11189566  0.79981410  0.93646672  1
  Sc  Sc82  1  0.41760755  0.57822909  0.74709834  1
  Sc  Sc83  1  0.38445020  0.68560915  0.27741171  1
  Sc  Sc84  1  0.23895220  0.90855965  0.61305121  1
  Sc  Sc85  1  0.53142549  0.69741878  0.91786385  1
  Sc  Sc86  1  0.48483907  0.67186745  0.48053943  1
  Sc  Sc87  1  0.74706241  0.27019763  0.20883764  1
  Sc  Sc88  1  0.66413058  0.30740265  0.57302281  1
  Sc  Sc89  1  1.02940829  0.58945084  0.84200167  1
  Sc  Sc90  1  0.31086922  0.69628212  0.59591536  1
  Sc  Sc91  1  0.30079514  0.53374166  0.46224962  1
  Sc  Sc92  1  0.99245512  0.60562110  0.31534262  1
  Sc  Sc93  1  0.37456341  0.41233994  0.63858682  1
  Sc  Sc94  1  0.09196959  0.66821219  0.11288007  1
  Sc  Sc95  1  0.38997142  0.78762711  0.75968471  1
  Sc  Sc96  1  0.85439225  0.94209905  0.27784082  1
  Sc  Sc97  1  0.73105006  0.92709570  0.69025656  1
  Sc  Sc98  1  0.72803318  0.78692733  0.87792920  1
  Sc  Sc99  1  0.91199954  0.03842442  0.71860014  1
  Nb  Nb100  1  0.71048069  0.42990358  0.39043843  1
  Nb  Nb101  1  0.82151777  0.76509769  0.59673690  1
  Nb  Nb102  1  0.34755547  0.08355252  0.89641068  1
  Nb  Nb103  1  0.78619430  0.60881584  0.29388697  1
  Nb  Nb104  1  0.24940701  0.14702200  0.54480356  1
  Nb  Nb105  1  0.93758145  0.39876738  0.87211327  1
  Nb  Nb106  1  0.09342582  0.24952282  0.40889582  1
  Nb  Nb107  1  0.21604689  0.39277191  0.31497740  1
  Nb  Nb108  1  0.26168263  0.28200014  0.95402589  1
  Nb  Nb109  1  0.89346772  0.74176937  0.19412881  1
  Nb  Nb110  1  0.56779772  0.39042943  0.24203029  1
  Nb  Nb111  1  0.97557052  0.64047501  0.64062711  1
  Nb  Nb112  1  0.22454131  0.43531933  0.80202398  1
  Nb  Nb113  1  1.00630305  0.44512137  0.68314709  1
  Nb  Nb114  1  0.72333176  0.68464116  0.08769861  1
  Nb  Nb115  1  0.61757757  0.87441154  0.02968759  1
  Nb  Nb116  1  0.70166192  0.19682684  0.99635161  1
  Nb  Nb117  1  0.46658008  0.22283564  0.58406071  1
  Nb  Nb118  1  0.06951685  0.92772035  0.76517142  1
  Nb  Nb119  1  0.40844193  0.27209615  0.28576632  1
  Nb  Nb120  1  0.74633742  0.34038039  0.86268347  1
  Nb  Nb121  1  0.40598166  0.35580248  0.10796090  1
  Nb  Nb122  1  0.38827133  0.47666333  0.27717414  1
  Nb  Nb123  1  0.85148615  0.34439541  0.04740646  1
  Nb  Nb124  1  0.55321052  0.21873474  0.14664583  1
