# generated using pymatgen
data_Zr2Sc2Nb
_symmetry_space_group_name_H-M   'P 1'
_cell_length_a   13.77449983
_cell_length_b   14.19721545
_cell_length_c   14.63493158
_cell_angle_alpha   90.62216698
_cell_angle_beta   90.85752729
_cell_angle_gamma   92.15418456
_symmetry_Int_Tables_number   1
_chemical_formula_structural   Zr2Sc2Nb
_chemical_formula_sum   'Zr50 Sc50 Nb25'
_cell_volume   2859.47077956
_cell_formula_units_Z   25
loop_
 _symmetry_equiv_pos_site_id
 _symmetry_equiv_pos_as_xyz
  1  'x, y, z'
loop_
 _atom_site_type_symbol
 _atom_site_label
 _atom_site_symmetry_multiplicity
 _atom_site_fract_x
 _atom_site_fract_y
 _atom_site_fract_z
 _atom_site_occupancy
  Zr  Zr0  1  0.11748533  0.81574700  0.83907873  1
  Zr  Zr1  1  0.47597227  0.09378723  0.87810077  1
  Zr  Zr2  1  0.38750744  0.77111930  0.07197278  1
  Zr  Zr3  1  0.85191763  0.98330569  0.38354935  1
  Zr  Zr4  1  0.72939534  0.08405387  0.19050221  1
  Zr  Zr5  1  0.92496900  0.31831288  0.75093230  1
  Zr  Zr6  1  0.88918437  0.75028039  0.90932500  1
  Zr  Zr7  1  0.69763754  0.46462538  0.57618480  1
  Zr  Zr8  1  0.81462694  0.18871749  0.39970889  1
  Zr  Zr9  1  0.88731426  0.59560384  0.46553692  1
  Zr  Zr10  1  0.06234634  0.60979877  0.32227511  1
  Zr  Zr11  1  0.76534477  0.65593681  0.70132479  1
  Zr  Zr12  1  0.70988747  0.86486548  0.25492927  1
  Zr  Zr13  1  0.90301755  0.32787855  0.11238748  1
  Zr  Zr14  1  0.92362356  0.93098680  0.19242460  1
  Zr  Zr15  1  0.67228525  0.65243064  0.49809005  1
  Zr  Zr16  1  0.27950416  0.12344894  0.93822221  1
  Zr  Zr17  1  0.16160403  0.22605248  0.27826022  1
  Zr  Zr18  1  0.68772528  0.64989657  0.30130347  1
  Zr  Zr19  1  0.88026222  0.09962091  0.04999975  1
  Zr  Zr20  1  0.01306234  0.39998227  0.94702687  1
  Zr  Zr21  1  0.49680313  0.76508245  0.27600800  1
  Zr  Zr22  1  0.14747573  0.23062742  0.78019719  1
  Zr  Zr23  1  0.48740000  0.72510513  0.87078188  1
  Zr  Zr24  1  0.78931897  0.41424063  0.94307605  1
  Zr  Zr25  1  0.65105316  0.85752480  0.44981034  1
  Zr  Zr26  1  0.94548086  0.10484209  0.81196412  1
  Zr  Zr27  1  0.63556105  0.26797459  0.45888667  1
  Zr  Zr28  1  0.27649786  0.69575984  0.34650123  1
  Zr  Zr29  1  0.51765793  0.13308396  0.08587708  1
  Zr  Zr30  1  0.26118044  0.67937326  0.54826040  1
  Zr  Zr31  1  0.71288832  0.61333259  0.92546681  1
  Zr  Zr32  1  0.63078850  0.05026248  0.36438858  1
  Zr  Zr33  1  0.34333023  0.51556145  0.43434332  1
  Zr  Zr34  1  0.06033084  0.72651758  0.50978219  1
  Zr  Zr35  1  0.52382245  0.95669317  0.19628191  1
  Zr  Zr36  1  0.72675360  0.08919685  0.74886968  1
  Zr  Zr37  1  0.32490358  0.22120368  0.12551678  1
  Zr  Zr38  1  0.49584765  0.94705279  0.58165432  1
  Zr  Zr39  1  0.32655273  0.03485201  0.71341603  1
  Zr  Zr40  1  0.28847170  0.44581384  0.62954582  1
  Zr  Zr41  1  0.37475985  0.25991454  0.79657664  1
  Zr  Zr42  1  0.88789789  0.12646108  0.59967804  1
  Zr  Zr43  1  0.36879798  0.31307326  0.31579155  1
  Zr  Zr44  1  0.29116197  0.86672469  0.23663144  1
  Zr  Zr45  1  0.45713380  0.12295438  0.46376482  1
  Zr  Zr46  1  0.94265177  0.51176712  0.64683898  1
  Zr  Zr47  1  0.18437906  0.84038270  0.03706370  1
  Zr  Zr48  1  0.14444800  0.01002172  0.83135990  1
  Zr  Zr49  1  0.22927035  0.64305246  0.14792025  1
  Sc  Sc50  1  0.44294557  0.33782965  0.50828667  1
  Sc  Sc51  1  0.68365707  0.07150322  0.95053576  1
  Sc  Sc52  1  0.29823112  0.22590818  0.61290745  1
  Sc  Sc53  1  0.26245427  0.88832395  0.47581706  1
  Sc  Sc54  1  0.03284861  0.94775765  0.49801975  1
  Sc  Sc55  1  0.72651903  0.29710121  0.24415962  1
  Sc  Sc56  1  0.34423175  0.82048762  0.70893486  1
  Sc  Sc57  1  0.96630312  0.72529350  0.70354153  1
  Sc  Sc58  1  0.23668365  0.10678442  0.45452960  1
  Sc  Sc59  1  0.77067415  0.44135586  0.38420657  1
  Sc  Sc60  1  0.10892040  0.50421385  0.50263013  1
  Sc  Sc61  1  0.85535459  0.80135655  0.52431580  1
  Sc  Sc62  1  0.45724133  0.73110560  0.47839761  1
  Sc  Sc63  1  0.07108417  0.63756956  0.94520826  1
  Sc  Sc64  1  0.72426438  0.89150863  0.66242540  1
  Sc  Sc65  1  0.51575212  0.37316786  0.15879225  1
  Sc  Sc66  1  0.42669785  0.56927902  0.23397824  1
  Sc  Sc67  1  0.11057787  0.09111311  0.63403347  1
  Sc  Sc68  1  0.01967500  0.72597157  0.13822952  1
  Sc  Sc69  1  0.52531992  0.15169759  0.66520398  1
  Sc  Sc70  1  0.34150987  0.07647419  0.27454955  1
  Sc  Sc71  1  0.12805980  0.44736880  0.78306003  1
  Sc  Sc72  1  0.55720296  0.46282498  0.36863571  1
  Sc  Sc73  1  0.15703377  0.63946943  0.71454011  1
  Sc  Sc74  1  0.67501047  0.26993335  0.04815061  1
  Sc  Sc75  1  0.02985025  0.18745444  0.44631682  1
  Sc  Sc76  1  0.09150337  0.81968164  0.32190323  1
  Sc  Sc77  1  0.80819584  0.71570653  0.12911743  1
  Sc  Sc78  1  0.13193151  0.06559434  0.11804345  1
  Sc  Sc79  1  0.98801832  0.36475573  0.32077762  1
  Sc  Sc80  1  0.57942437  0.56797692  0.76200790  1
  Sc  Sc81  1  0.54212086  0.90762265  0.98497736  1
  Sc  Sc82  1  0.55594104  0.75037324  0.66298056  1
  Sc  Sc83  1  0.05596440  0.18851250  0.96969248  1
  Sc  Sc84  1  0.68603260  0.50711082  0.11590715  1
  Sc  Sc85  1  0.36901505  0.47489335  0.84120590  1
  Sc  Sc86  1  0.34710222  0.98992778  0.07232133  1
  Sc  Sc87  1  0.88722725  0.34470727  0.53407981  1
  Sc  Sc88  1  0.59717990  0.71917485  0.08541227  1
  Sc  Sc89  1  0.08808066  0.02291924  0.31201083  1
  Sc  Sc90  1  0.23643219  0.32542585  0.94877790  1
  Sc  Sc91  1  0.19786844  0.45522097  0.28826124  1
  Sc  Sc92  1  0.87664657  0.54118594  0.23519089  1
  Sc  Sc93  1  0.28425411  0.68538988  0.89327671  1
  Sc  Sc94  1  0.44173750  0.55785848  0.02225264  1
  Sc  Sc95  1  0.52574087  0.37698142  0.69680111  1
  Sc  Sc96  1  0.99353660  0.93655040  0.97948338  1
  Sc  Sc97  1  0.62873194  0.25958200  0.83943255  1
  Sc  Sc98  1  0.75928843  0.89493970  0.04473934  1
  Sc  Sc99  1  0.95235534  0.93154369  0.70111802  1
  Nb  Nb100  1  0.45026952  0.92795186  0.38305250  1
  Nb  Nb101  1  0.38136537  0.61860333  0.69629409  1
  Nb  Nb102  1  0.81070365  0.94125197  0.85589860  1
  Nb  Nb103  1  0.49767830  0.54339464  0.56634017  1
  Nb  Nb104  1  0.72523304  0.26359313  0.64568291  1
  Nb  Nb105  1  0.57929729  0.43854572  0.92101855  1
  Nb  Nb106  1  0.53257845  0.19531399  0.27305495  1
  Nb  Nb107  1  0.21128754  0.51027850  -0.00734336  1
  Nb  Nb108  1  0.44838472  0.30470434  -0.02249936  1
  Nb  Nb109  1  0.83455702  0.22966311  0.90649101  1
  Nb  Nb110  1  0.89743562  0.55980422  0.03311239  1
  Nb  Nb111  1  0.68564118  0.07073549  0.54542299  1
  Nb  Nb112  1  0.21299940  0.32732590  0.45490539  1
  Nb  Nb113  1  0.74770068  0.43520546  0.75994334  1
  Nb  Nb114  1  0.08964719  0.31718325  0.60846494  1
  Nb  Nb115  1  0.33903015  0.90705927  0.88750072  1
  Nb  Nb116  1  0.54682536  0.93611356  0.78131910  1
  Nb  Nb117  1  0.91162468  0.54958497  0.82976942  1
  Nb  Nb118  1  0.67690455  0.79532418  0.85007736  1
  Nb  Nb119  1  0.88575557  0.75538360  0.32792230  1
  Nb  Nb120  1  0.15038107  0.86700629  0.65339671  1
  Nb  Nb121  1  0.30466644  0.42278765  0.12537877  1
  Nb  Nb122  1  0.94696179  0.15913440  0.23460196  1
  Nb  Nb123  1  0.06509396  0.50261128  0.13209425  1
  Nb  Nb124  1  0.11825237  0.32004721  0.12153363  1
