# generated using pymatgen
data_Zr2Sc2Nb
_symmetry_space_group_name_H-M   'P 1'
_cell_length_a   14.46701392
_cell_length_b   13.94172845
_cell_length_c   14.21971273
_cell_angle_alpha   90.56721010
_cell_angle_beta   90.93334057
_cell_angle_gamma   91.58163070
_symmetry_Int_Tables_number   1
_chemical_formula_structural   Zr2Sc2Nb
_chemical_formula_sum   'Zr50 Sc50 Nb25'
_cell_volume   2866.42077926
_cell_formula_units_Z   25
loop_
 _symmetry_equiv_pos_site_id
 _symmetry_equiv_pos_as_xyz
  1  'x, y, z'
loop_
 _atom_site_type_symbol
 _atom_site_label
 _atom_site_symmetry_multiplicity
 _atom_site_fract_x
 _atom_site_fract_y
 _atom_site_fract_z
 _atom_site_occupancy
  Zr  Zr0  1  0.83552059  0.30875805  0.89610024  1
  Zr  Zr1  1  0.68725164  0.46706911  0.84846248  1
  Zr  Zr2  1  0.71971634  0.24576837  0.08442513  1
  Zr  Zr3  1  0.60172808  0.85475535  0.72353358  1
  Zr  Zr4  1  0.91150914  0.25815277  0.25827779  1
  Zr  Zr5  1  0.81801913  0.45976387  0.06286491  1
  Zr  Zr6  1  0.18063269  0.32644358  0.05119638  1
  Zr  Zr7  1  0.42008645  0.48051266  0.34416520  1
  Zr  Zr8  1  0.91089660  0.75640470  0.84161577  1
  Zr  Zr9  1  0.31598175  0.65815648  0.45333888  1
  Zr  Zr10  1  0.73227285  0.64820224  0.98908362  1
  Zr  Zr11  1  0.32562886  0.17728627  0.15424795  1
  Zr  Zr12  1  0.91903942  0.70977290  0.25344033  1
  Zr  Zr13  1  0.22029501  0.96511624  0.10418974  1
  Zr  Zr14  1  0.46797230  0.41716976  0.80639371  1
  Zr  Zr15  1  0.72818297  0.39971175  0.24518403  1
  Zr  Zr16  1  0.33795263  0.56565195  0.91769443  1
  Zr  Zr17  1  1.00933826  0.56413163  0.71532789  1
  Zr  Zr18  1  0.20447756  0.05177803  0.31451273  1
  Zr  Zr19  1  0.70743660  0.67174012  0.77718479  1
  Zr  Zr20  1  0.10915721  0.42868890  0.23943362  1
  Zr  Zr21  1  0.80651260  0.06716732  0.16623753  1
  Zr  Zr22  1  0.28722117  0.72729142  0.64667873  1
  Zr  Zr23  1  0.53832798  0.60228365  0.93415077  1
  Zr  Zr24  1  0.53296874  1.00211186  0.57325245  1
  Zr  Zr25  1  0.65496410  0.99347998  0.31084699  1
  Zr  Zr26  1  0.40979892  -0.00793849  0.06085848  1
  Zr  Zr27  1  0.42788397  0.54734136  0.12875821  1
  Zr  Zr28  1  0.62029763  0.26543033  0.86842465  1
  Zr  Zr29  1  0.97732053  0.33835433  0.07286868  1
  Zr  Zr30  1  0.19397894  0.23116174  0.52040924  1
  Zr  Zr31  1  0.08395015  0.79144613  0.54393783  1
  Zr  Zr32  1  0.35411289  0.50249809  0.61980549  1
  Zr  Zr33  1  0.88150317  0.11887900  0.80928457  1
  Zr  Zr34  1  -0.00148862  0.06803199  0.31120682  1
  Zr  Zr35  1  1.01466640  0.55734339  0.10494321  1
  Zr  Zr36  1  0.35555723  0.10295863  0.50307534  1
  Zr  Zr37  1  0.53454048  0.58358442  0.47532102  1
  Zr  Zr38  1  0.52483928  0.02426646  0.86150044  1
  Zr  Zr39  1  0.84645434  0.11766210  0.59996281  1
  Zr  Zr40  1  0.72279644  0.92729741  0.50998117  1
  Zr  Zr41  1  0.51263440  0.32146013  0.22615875  1
  Zr  Zr42  1  0.90233881  0.74189398  0.63845479  1
  Zr  Zr43  1  0.60908990  0.45020670  0.05989362  1
  Zr  Zr44  1  0.88335133  0.95321979  0.95428732  1
  Zr  Zr45  1  0.74829798  0.57035847  0.40154104  1
  Zr  Zr46  1  0.34869063  0.74241290  0.08532660  1
  Zr  Zr47  1  0.43824468  0.33418401  0.50240116  1
  Zr  Zr48  1  0.91982251  0.73329000  0.04273740  1
  Zr  Zr49  1  0.82738172  0.32843309  0.45589270  1
  Sc  Sc50  1  0.14596377  0.58114626  0.56273870  1
  Sc  Sc51  1  0.09823392  0.14588760  0.12933828  1
  Sc  Sc52  1  0.12887956  0.74853717  0.14195340  1
  Sc  Sc53  1  0.88903802  0.54244486  0.88188883  1
  Sc  Sc54  1  0.12543178  1.02004025  0.50417498  1
  Sc  Sc55  1  0.45672108  0.70677811  0.30577297  1
  Sc  Sc56  1  0.99761572  0.93579268  0.13145998  1
  Sc  Sc57  1  0.28770551  0.76752544  0.86370366  1
  Sc  Sc58  1  0.53177841  0.23113002  0.66152660  1
  Sc  Sc59  1  0.33726617  0.24046973  0.34547387  1
  Sc  Sc60  1  0.66297499  0.76295365  0.33549024  1
  Sc  Sc61  1  0.31289458  0.89269442  0.49759293  1
  Sc  Sc62  1  0.51347111  0.18650505  0.02214197  1
  Sc  Sc63  1  0.04867036  0.25820981  0.86514637  1
  Sc  Sc64  1  0.28926892  0.83543584  0.28152573  1
  Sc  Sc65  1  0.06625019  0.86201563  0.34302299  1
  Sc  Sc66  1  0.73819974  0.30194249  0.68927537  1
  Sc  Sc67  1  0.25960603  0.60323423  0.25153322  1
  Sc  Sc68  1  0.10817769  0.65822635  0.93271018  1
  Sc  Sc69  1  0.93986062  0.33633598  0.66275870  1
  Sc  Sc70  1  0.80289380  0.91563115  0.72048931  1
  Sc  Sc71  1  0.49254292  0.81628721  0.94128426  1
  Sc  Sc72  1  0.04249821  0.14110360  0.66424291  1
  Sc  Sc73  1  0.93656707  0.57370324  0.49667977  1
  Sc  Sc74  1  0.79919530  0.51881510  0.64785805  1
  Sc  Sc75  1  0.24129220  0.42912996  0.42923706  1
  Sc  Sc76  1  0.03835179  0.39192725  0.45677821  1
  Sc  Sc77  1  0.39639227  0.36256066  0.01460711  1
  Sc  Sc78  1  0.70436569  0.85331481  0.91509408  1
  Sc  Sc79  1  0.67091087  0.08247688  0.72747847  1
  Sc  Sc80  1  0.08401161  0.45898117  0.90177487  1
  Sc  Sc81  1  0.69900495  0.71100573  0.56564511  1
  Sc  Sc82  1  0.67130147  0.17170633  0.51067844  1
  Sc  Sc83  1  0.75127906  0.83028582  0.13739982  1
  Sc  Sc84  1  0.91400126  0.48630833  0.28675464  1
  Sc  Sc85  1  0.85038632  0.90772155  0.31300082  1
  Sc  Sc86  1  0.21441055  0.93618540  0.68795145  1
  Sc  Sc87  1  0.47180208  0.65442818  0.73717487  1
  Sc  Sc88  1  0.49053612  0.77758692  0.54776814  1
  Sc  Sc89  1  0.58618427  0.46792716  0.64250439  1
  Sc  Sc90  1  0.62545536  -0.01547835  0.06605413  1
  Sc  Sc91  1  0.26307309  0.36216158  0.84683760  1
  Sc  Sc92  1  0.14782143  0.38314410  0.66899835  1
  Sc  Sc93  1  0.21965676  0.15589151  0.75843617  1
  Sc  Sc94  1  0.08406246  0.06512940  0.92090142  1
  Sc  Sc95  1  0.62067207  0.37961767  0.42545164  1
  Sc  Sc96  1  0.30477374  0.98508692  0.87750089  1
  Sc  Sc97  1  0.00731385  0.93495143  0.72762944  1
  Sc  Sc98  1  0.09596314  0.86245527  0.93331834  1
  Sc  Sc99  1  0.08688624  0.63813323  0.35851066  1
  Nb  Nb100  1  0.13274789  0.24859591  0.31458707  1
  Nb  Nb101  1  0.59056980  0.54780093  0.26267494  1
  Nb  Nb102  1  0.82265400  0.10162154  0.39457557  1
  Nb  Nb103  1  0.75768134  0.61322292  0.18652895  1
  Nb  Nb104  1  0.69553826  0.20923063  0.29837000  1
  Nb  Nb105  1  0.34161634  0.28815386  0.66199542  1
  Nb  Nb106  1  0.57719990  0.70123493  0.11965415  1
  Nb  Nb107  1  0.51755158  0.15053198  0.39246641  1
  Nb  Nb108  1  0.21887534  0.52967089  0.06520610  1
  Nb  Nb109  1  0.38678905  0.02386469  0.28146894  1
  Nb  Nb110  1  -0.01098041  0.18882376  0.46815556  1
  Nb  Nb111  1  0.87427629  0.76341837  0.44534110  1
  Nb  Nb112  1  0.41294625  0.20847534  0.84135630  1
  Nb  Nb113  1  0.49428994  0.91971294  0.39031360  1
  Nb  Nb114  1  0.50494344  0.87410605  0.19161767  1
  Nb  Nb115  1  0.39472414  0.06955379  0.69826271  1
  Nb  Nb116  1  0.10456642  0.74412640  0.74018468  1
  Nb  Nb117  1  0.53990638  0.10914460  0.20324448  1
  Nb  Nb118  1  0.41397556  0.87624288  0.72556905  1
  Nb  Nb119  1  0.29734122  0.38710696  0.20766216  1
  Nb  Nb120  1  0.72972161  0.09883171  0.93602111  1
  Nb  Nb121  1  0.91307528  0.15139102  1.02199542  1
  Nb  Nb122  1  0.21569048  0.57065140  0.76498013  1
  Nb  Nb123  1  0.93202134  0.95362962  0.51267127  1
  Nb  Nb124  1  0.27150987  0.16422714  0.96895699  1
