# generated using pymatgen
data_Zr2Sc2Nb
_symmetry_space_group_name_H-M   'P 1'
_cell_length_a   14.50497711
_cell_length_b   13.83738055
_cell_length_c   14.27726682
_cell_angle_alpha   89.30628360
_cell_angle_beta   90.98664247
_cell_angle_gamma   91.22028089
_symmetry_Int_Tables_number   1
_chemical_formula_structural   Zr2Sc2Nb
_chemical_formula_sum   'Zr50 Sc50 Nb25'
_cell_volume   2864.33065852
_cell_formula_units_Z   25
loop_
 _symmetry_equiv_pos_site_id
 _symmetry_equiv_pos_as_xyz
  1  'x, y, z'
loop_
 _atom_site_type_symbol
 _atom_site_label
 _atom_site_symmetry_multiplicity
 _atom_site_fract_x
 _atom_site_fract_y
 _atom_site_fract_z
 _atom_site_occupancy
  Zr  Zr0  1  0.27909732  0.46020676  0.43505737  1
  Zr  Zr1  1  0.60788057  0.27303049  0.49120778  1
  Zr  Zr2  1  0.39612003  0.62917750  0.53825251  1
  Zr  Zr3  1  0.40227460  0.48897960  0.02670720  1
  Zr  Zr4  1  0.68624678  0.88109528  0.59550643  1
  Zr  Zr5  1  0.60239396  0.86901796  0.18068273  1
  Zr  Zr6  1  0.27018880  0.07719861  1.01028358  1
  Zr  Zr7  1  0.89851168  0.44723215  0.79884937  1
  Zr  Zr8  1  0.65629408  0.12667627  0.64712534  1
  Zr  Zr9  1  0.77361570  0.30813367  0.70940817  1
  Zr  Zr10  1  0.46911979  0.18849958  0.28739109  1
  Zr  Zr11  1  0.20037025  0.84548597  0.06961707  1
  Zr  Zr12  1  0.62634360  0.66183416  0.28354433  1
  Zr  Zr13  1  0.41968065  0.86276710  0.03541564  1
  Zr  Zr14  1  0.88043817  0.47432505  0.00924412  1
  Zr  Zr15  1  0.94769055  0.52809915  0.22863856  1
  Zr  Zr16  1  0.09998744  0.39590171  0.30499794  1
  Zr  Zr17  1  0.89754098  -0.05174714  0.58127713  1
  Zr  Zr18  1  0.18197535  0.44793330  0.09296079  1
  Zr  Zr19  1  0.18777196  0.83291518  0.30672865  1
  Zr  Zr20  1  0.38636553  0.84907868  0.24313821  1
  Zr  Zr21  1  0.27828294  0.51266793  0.65362515  1
  Zr  Zr22  1  0.00581595  0.64821199  0.39826954  1
  Zr  Zr23  1  0.42371621  0.18364513  0.49716845  1
  Zr  Zr24  1  0.73061193  0.05346119  0.47180508  1
  Zr  Zr25  1  0.71086010  0.84639625  0.38660968  1
  Zr  Zr26  1  0.75729808  0.94733112  0.77404695  1
  Zr  Zr27  1  0.51442855  0.79064656  0.41403445  1
  Zr  Zr28  1  0.05450747  0.38330098  0.92626526  1
  Zr  Zr29  1  0.49594339  0.78222641  0.63604571  1
  Zr  Zr30  1  0.79510755  0.57556239  0.39194625  1
  Zr  Zr31  1  0.45619699  0.17323389  0.71072175  1
  Zr  Zr32  1  0.96981838  0.33564564  0.63241069  1
  Zr  Zr33  1  0.03292990  0.97325008  0.13247175  1
  Zr  Zr34  1  0.25793191  0.12697254  0.78568239  1
  Zr  Zr35  1  0.50535729  0.27612205  0.93254354  1
  Zr  Zr36  1  0.54288098  0.54146581  0.65397081  1
  Zr  Zr37  1  0.53364784  0.68366228  0.94648460  1
  Zr  Zr38  1  0.94136174  0.65504518  0.85392458  1
  Zr  Zr39  1  0.38011505  0.37058117  0.77389420  1
  Zr  Zr40  1  0.99447222  0.82889318  0.98807074  1
  Zr  Zr41  1  0.73793230  0.60056226  0.90972082  1
  Zr  Zr42  1  0.28676880  0.65029173  0.13631559  1
  Zr  Zr43  1  0.86325722  0.13651024  0.10359787  1
  Zr  Zr44  1  0.05482409  0.25586775  0.44626308  1
  Zr  Zr45  1  0.23129599  0.02896304  0.20618689  1
  Zr  Zr46  1  0.16279939  0.59468959  0.28096205  1
  Zr  Zr47  1  0.82295001  0.24380187  0.50299337  1
  Zr  Zr48  1  0.55761948  0.52689237  0.44101002  1
  Zr  Zr49  1  0.45252817  0.36858080  0.36107320  1
  Sc  Sc50  1  0.26109840  0.23050505  0.35536608  1
  Sc  Sc51  1  0.15711753  0.34542281  0.74222796  1
  Sc  Sc52  1  0.24522050  0.28454559  0.93818401  1
  Sc  Sc53  1  0.06771017  0.11352738  0.60216362  1
  Sc  Sc54  1  0.26994796  0.74526636  0.70330281  1
  Sc  Sc55  1  0.08269884  0.55182346  0.74554219  1
  Sc  Sc56  1  0.87787650  0.28234400  0.30030286  1
  Sc  Sc57  1  0.37960392  0.27757238  0.10886400  1
  Sc  Sc58  1  0.63874857  0.12293955  0.07841315  1
  Sc  Sc59  1  0.36964488  0.96159043  0.69697173  1
  Sc  Sc60  1  0.24360334  0.28186964  0.57396491  1
  Sc  Sc61  1  0.04188165  0.18221053  0.81365708  1
  Sc  Sc62  1  0.96258769  0.88526615  0.78000108  1
  Sc  Sc63  1  0.81185099  0.90246721  0.09204726  1
  Sc  Sc64  1  0.87210440  0.12284444  0.69646275  1
  Sc  Sc65  1  0.03409773  0.72885080  0.64153885  1
  Sc  Sc66  1  0.89242142  0.03434534  0.92553566  1
  Sc  Sc67  1  0.09375625  0.48387338  0.53154707  1
  Sc  Sc68  1  0.45628380  0.05238621  0.90331578  1
  Sc  Sc69  1  0.70699088  0.36394616  0.90544224  1
  Sc  Sc70  1  0.24166285  0.51060901  0.88012172  1
  Sc  Sc71  1  0.56076361  1.00139479  0.33426802  1
  Sc  Sc72  1  0.68085621  0.14472671  0.86064980  1
  Sc  Sc73  1  0.68247345  0.66756192  0.54781387  1
  Sc  Sc74  1  0.80594899  0.01183088  0.27310493  1
  Sc  Sc75  1  0.44520917  0.04959108  0.13813931  1
  Sc  Sc76  1  0.26142994  0.06012562  0.54885139  1
  Sc  Sc77  1  0.87221865  0.76350074  0.49190527  1
  Sc  Sc78  1  0.68434308  0.18632315  0.28830304  1
  Sc  Sc79  1  0.50891202  0.99320648  0.53702851  1
  Sc  Sc80  1  0.97749702  0.89499894  0.33271534  1
  Sc  Sc81  1  0.62398220  0.90515155  0.95523402  1
  Sc  Sc82  1  0.68348565  0.40180515  0.31963832  1
  Sc  Sc83  1  0.31190337  0.70051991  0.93742228  1
  Sc  Sc84  1  0.38306047  0.63097467  0.32632209  1
  Sc  Sc85  1  0.08823805  0.61993900  0.01720141  1
  Sc  Sc86  1  0.76172557  0.32515374  0.11334215  1
  Sc  Sc87  1  0.18615374  0.24129868  0.15846125  1
  Sc  Sc88  1  0.15401094  0.93602311  0.70914318  1
  Sc  Sc89  1  0.54658739  0.48482154  0.85171302  1
  Sc  Sc90  1  0.88208686  0.67645488  0.06743319  1
  Sc  Sc91  1  0.09394845  0.88805140  0.50760068  1
  Sc  Sc92  1  0.19625716  0.67929369  0.48783329  1
  Sc  Sc93  1  0.32471007  0.85549835  0.48988674  1
  Sc  Sc94  1  0.83544819  0.74301407  0.25396031  1
  Sc  Sc95  1  0.81964269  0.73168211  0.70384386  1
  Sc  Sc96  1  0.10696720  0.99288024  0.91231540  1
  Sc  Sc97  1  0.98604865  0.32940141  0.12146751  1
  Sc  Sc98  1  0.61098228  0.49830390  0.04966823  1
  Sc  Sc99  1  0.02352823  0.14265950  0.25115841  1
  Nb  Nb100  1  0.35320411  0.01933547  0.36056061  1
  Nb  Nb101  1  0.72853261  0.43868471  0.54812931  1
  Nb  Nb102  1  0.04437574  0.74260783  0.18953545  1
  Nb  Nb103  1  0.93671221  0.08251412  0.43404637  1
  Nb  Nb104  1  0.79549586  0.80024919  0.90898709  1
  Nb  Nb105  1  0.41438086  0.61921443  0.77732748  1
  Nb  Nb106  1  0.62951583  0.73460229  0.77397066  1
  Nb  Nb107  1  0.75127668  0.54179095  0.17435506  1
  Nb  Nb108  1  0.28255065  0.90838333  0.87875344  1
  Nb  Nb109  1  0.31149414  0.43516594  0.23212181  1
  Nb  Nb110  1  0.56484482  0.31898799  0.15157573  1
  Nb  Nb111  1  0.91768568  0.43163864  0.43962087  1
  Nb  Nb112  1  0.56845528  0.96628737  0.74929105  1
  Nb  Nb113  1  0.43436826  0.38274693  0.57460424  1
  Nb  Nb114  1  0.45181904  0.82579708  0.83051381  1
  Nb  Nb115  1  0.68446213  0.71670971  0.08146816  1
  Nb  Nb116  1  0.58498732  0.33545738  0.70640671  1
  Nb  Nb117  1  0.48494536  0.68316584  0.13724641  1
  Nb  Nb118  1  0.13925253  0.04682852  0.38547891  1
  Nb  Nb119  1  0.05775113  0.16418506  0.01972635  1
  Nb  Nb120  1  0.12963107  0.76363981  0.85344430  1
  Nb  Nb121  1  0.50737970  0.49792963  0.21777980  1
  Nb  Nb122  1  0.89273481  0.55254093  0.59943344  1
  Nb  Nb123  1  0.88090144  0.25577637  0.92460379  1
  Nb  Nb124  1  0.72674757  0.52504487  0.72547287  1
