# generated using pymatgen
data_Zr2Sc2Nb
_symmetry_space_group_name_H-M   'P 1'
_cell_length_a   14.31573913
_cell_length_b   14.24807307
_cell_length_c   14.14918109
_cell_angle_alpha   88.15986187
_cell_angle_beta   89.09033571
_cell_angle_gamma   88.33388185
_symmetry_Int_Tables_number   1
_chemical_formula_structural   Zr2Sc2Nb
_chemical_formula_sum   'Zr50 Sc50 Nb25'
_cell_volume   2883.00217302
_cell_formula_units_Z   25
loop_
 _symmetry_equiv_pos_site_id
 _symmetry_equiv_pos_as_xyz
  1  'x, y, z'
loop_
 _atom_site_type_symbol
 _atom_site_label
 _atom_site_symmetry_multiplicity
 _atom_site_fract_x
 _atom_site_fract_y
 _atom_site_fract_z
 _atom_site_occupancy
  Zr  Zr0  1  0.05428320  0.54554557  0.70959823  1
  Zr  Zr1  1  0.14275404  0.75372315  0.60564772  1
  Zr  Zr2  1  0.23679264  0.17121221  0.70493796  1
  Zr  Zr3  1  0.71519917  0.19804848  0.17053420  1
  Zr  Zr4  1  0.26968558  0.34674947  0.05419731  1
  Zr  Zr5  1  0.36962027  0.94736524  0.03272837  1
  Zr  Zr6  1  0.39112304  0.62910796  0.27213669  1
  Zr  Zr7  1  0.58239997  0.52860983  0.59167567  1
  Zr  Zr8  1  0.93579701  0.45361388  0.57075815  1
  Zr  Zr9  1  0.21926593  0.96414546  0.63933254  1
  Zr  Zr10  1  0.83615434  0.74444738  0.91358026  1
  Zr  Zr11  1  0.67099489  0.65181585  0.07330168  1
  Zr  Zr12  1  0.65122944  0.90675180  0.35252445  1
  Zr  Zr13  1  0.29472766  0.59358995  0.67137732  1
  Zr  Zr14  1  0.16896297  0.90190797  0.07229833  1
  Zr  Zr15  1  0.41292952  0.27278418  0.65894854  1
  Zr  Zr16  1  0.61199580  0.90791486  0.77068026  1
  Zr  Zr17  1  0.57856046  0.10983920  0.48902449  1
  Zr  Zr18  1  0.88397083  0.43006207  0.08753054  1
  Zr  Zr19  1  0.54840652  0.22921430  0.28233361  1
  Zr  Zr20  1  0.72605174  0.50542687  0.41882936  1
  Zr  Zr21  1  0.52383326  0.72719224  0.68363578  1
  Zr  Zr22  1  0.41041309  0.38227651  0.20687335  1
  Zr  Zr23  1  0.23910225  0.27340255  0.50606478  1
  Zr  Zr24  1  0.67188409  0.13640902  0.99220651  1
  Zr  Zr25  1  0.43216008  0.27822324  0.44185491  1
  Zr  Zr26  1  0.70559059  0.90215915  0.97367993  1
  Zr  Zr27  1  0.74452556  0.11225616  0.35315140  1
  Zr  Zr28  1  0.06798503  0.96016345  0.24926828  1
  Zr  Zr29  1  0.25945987  0.13126974  0.07518732  1
  Zr  Zr30  1  0.61524318  0.31470525  0.67653476  1
  Zr  Zr31  1  0.32688817  0.78232225  0.71587478  1
  Zr  Zr32  1  0.06993546  0.10221662  0.57940883  1
  Zr  Zr33  1  0.69553492  0.94055250  0.57659899  1
  Zr  Zr34  1  0.60262958  0.67334039  0.29469058  1
  Zr  Zr35  1  0.30435971  0.45221859  0.36996593  1
  Zr  Zr36  1  0.66258338  0.38728968  0.06718913  1
  Zr  Zr37  1  0.21096358  0.78305210  0.27794299  1
  Zr  Zr38  1  0.93296949  0.88568462  0.10222488  1
  Zr  Zr39  1  0.47320609  0.44823743  0.97239692  1
  Zr  Zr40  1  0.35068689  0.10476060  0.86545646  1
  Zr  Zr41  1  0.31949209  0.19758649  0.28432797  1
  Zr  Zr42  1  0.84168976  0.80622843  0.48600452  1
  Zr  Zr43  1  0.71626717  0.10814166  0.78840525  1
  Zr  Zr44  1  0.81299547  0.67453765  0.34353289  1
  Zr  Zr45  1  0.53510358  0.10116934  0.69285680  1
  Zr  Zr46  1  0.44655939  0.82883184  0.31411571  1
  Zr  Zr47  1  0.30098472  0.55508312  0.11129443  1
  Zr  Zr48  1  0.53100924  0.02237753  0.92174769  1
  Zr  Zr49  1  0.45171623  0.03706590  0.35895426  1
  Sc  Sc50  1  0.13938897  0.71334541  0.81561393  1
  Sc  Sc51  1  0.77192697  0.14011634  0.57335219  1
  Sc  Sc52  1  0.92109913  0.41326783  0.85508239  1
  Sc  Sc53  1  0.90541033  0.64555107  0.12106218  1
  Sc  Sc54  1  0.10795488  0.15546752  0.24087035  1
  Sc  Sc55  1  0.84098361  0.30775902  0.44981056  1
  Sc  Sc56  1  0.46694089  0.23024587  0.06151828  1
  Sc  Sc57  1  0.28911662  0.98037125  0.24176325  1
  Sc  Sc58  1  0.91904597  0.09207094  0.72695887  1
  Sc  Sc59  1  0.97810802  0.21619555  0.87179437  1
  Sc  Sc60  1  0.53314136  0.25045876  0.85757595  1
  Sc  Sc61  1  0.54903735  0.83350731  0.11268169  1
  Sc  Sc62  1  0.83092350  0.31210203  0.68605390  1
  Sc  Sc63  1  0.63465532  0.51723941  0.80169671  1
  Sc  Sc64  1  0.11830896  0.40529312  0.89476704  1
  Sc  Sc65  1  0.16774557  0.35845652  0.25523526  1
  Sc  Sc66  1  0.27675730  0.52876069  0.89377828  1
  Sc  Sc67  1  0.73163667  0.74781277  0.69186860  1
  Sc  Sc68  1  0.85583438  0.23700440  0.02958098  1
  Sc  Sc69  1  0.63680582  0.31252918  0.47500691  1
  Sc  Sc70  1  0.75985673  0.79835309  0.18418876  1
  Sc  Sc71  1  0.99627704  0.76130991  0.28425281  1
  Sc  Sc72  1  0.13839115  0.57967572  0.28578932  1
  Sc  Sc73  1  -0.00965509  0.59839474  0.92338016  1
  Sc  Sc74  1  0.14773144  0.47291064  0.52107921  1
  Sc  Sc75  1  0.06174115  0.89557823  0.46046535  1
  Sc  Sc76  1  0.79965912  0.60487084  0.56897808  1
  Sc  Sc77  1  0.52247136  0.47559571  0.37823251  1
  Sc  Sc78  1  0.24526978  0.65123044  0.45483106  1
  Sc  Sc79  1  0.94054515  0.73868533  0.69108105  1
  Sc  Sc80  1  0.36236830  0.08709571  0.54386047  1
  Sc  Sc81  1  0.72964736  0.33283849  0.87612747  1
  Sc  Sc82  1  0.00617448  0.64469192  0.47944876  1
  Sc  Sc83  1  0.08958330  0.48995677  0.09648478  1
  Sc  Sc84  1  0.23513504  0.39557285  0.70934852  1
  Sc  Sc85  1  0.49033906  0.89653818  0.54016072  1
  Sc  Sc86  1  0.23355129  0.91510076  0.86130889  1
  Sc  Sc87  1  0.06103424  0.27421267  0.07208240  1
  Sc  Sc88  1  0.28789610  0.87787877  0.45781191  1
  Sc  Sc89  1  0.95342240  0.09341619  0.39957899  1
  Sc  Sc90  1  0.93437260  0.48043489  0.32219095  1
  Sc  Sc91  1  0.53192255  0.04304622  0.15911566  1
  Sc  Sc92  1  1.01509655  0.87462464  0.90537376  1
  Sc  Sc93  1  0.91043776  0.27532713  0.24816667  1
  Sc  Sc94  1  0.63026697  0.71138484  0.88224275  1
  Sc  Sc95  1  0.86824568  0.03507387  0.94750683  1
  Sc  Sc96  1  0.05386087  0.29472337  0.68317407  1
  Sc  Sc97  1  0.44323776  0.67181642  0.49049812  1
  Sc  Sc98  1  0.11977172  0.70399265  0.08092932  1
  Sc  Sc99  1  0.05189786  0.28615682  0.43303412  1
  Nb  Nb100  1  0.44064545  0.62776326  0.83599450  1
  Nb  Nb101  1  0.19077335  0.07401568  0.41681427  1
  Nb  Nb102  1  0.70868959  0.36521818  0.27690713  1
  Nb  Nb103  1  0.10292573  0.06112988  0.81316450  1
  Nb  Nb104  1  0.73975962  -0.00275109  0.15601554  1
  Nb  Nb105  1  0.83642612  0.56702543  0.76653579  1
  Nb  Nb106  1  0.38573145  0.45751609  0.55231042  1
  Nb  Nb107  1  0.64226549  0.73141349  0.48939771  1
  Nb  Nb108  1  0.54798917  0.51160363  0.17265291  1
  Nb  Nb109  1  0.75043809  0.53234224  0.20526018  1
  Nb  Nb110  1  0.33910722  0.31427712  0.87073179  1
  Nb  Nb111  1  0.89824654  0.96177987  0.57447962  1
  Nb  Nb112  1  0.34142841  0.77486448  0.13089471  1
  Nb  Nb113  1  0.44504010  0.44955452  0.74978410  1
  Nb  Nb114  1  0.77961690  0.54001566  0.95736094  1
  Nb  Nb115  1  0.06050511  0.06840021  0.02664460  1
  Nb  Nb116  1  0.29400274  0.73170594  0.95263628  1
  Nb  Nb117  1  0.91095164  0.08263238  0.17147098  1
  Nb  Nb118  1  0.04301099  0.91114645  0.70169529  1
  Nb  Nb119  1  0.41074289  0.95522796  0.73665849  1
  Nb  Nb120  1  0.45317558  0.82314700  0.89732910  1
  Nb  Nb121  1  0.17873228  0.21236438  0.90179552  1
  Nb  Nb122  1  0.86170389  0.92874262  0.31748845  1
  Nb  Nb123  1  0.46679657  0.65015116  0.03657681  1
  Nb  Nb124  1  0.82924682  0.91204097  0.76918341  1
