# generated using pymatgen
data_Zr2Sc2Nb
_symmetry_space_group_name_H-M   'P 1'
_cell_length_a   14.21675687
_cell_length_b   14.28724155
_cell_length_c   14.11453722
_cell_angle_alpha   90.21694489
_cell_angle_beta   90.42169550
_cell_angle_gamma   90.30150068
_symmetry_Int_Tables_number   1
_chemical_formula_structural   Zr2Sc2Nb
_chemical_formula_sum   'Zr50 Sc50 Nb25'
_cell_volume   2866.78163489
_cell_formula_units_Z   25
loop_
 _symmetry_equiv_pos_site_id
 _symmetry_equiv_pos_as_xyz
  1  'x, y, z'
loop_
 _atom_site_type_symbol
 _atom_site_label
 _atom_site_symmetry_multiplicity
 _atom_site_fract_x
 _atom_site_fract_y
 _atom_site_fract_z
 _atom_site_occupancy
  Zr  Zr0  1  0.26984078  0.21918908  0.52935600  1
  Zr  Zr1  1  0.72136786  0.61127943  0.17265059  1
  Zr  Zr2  1  0.51326854  0.43249665  0.88285774  1
  Zr  Zr3  1  0.62991967  0.65097852  0.89732870  1
  Zr  Zr4  1  0.37809890  0.90520072  0.27907957  1
  Zr  Zr5  1  0.78613285  0.03547584  0.82906891  1
  Zr  Zr6  1  0.27939129  0.73805552  0.78143014  1
  Zr  Zr7  1  0.19709113  0.90557652  0.66495276  1
  Zr  Zr8  1  0.11507410  0.69736474  0.63536652  1
  Zr  Zr9  1  0.93368568  0.49335945  0.12926892  1
  Zr  Zr10  1  0.55052559  0.53206145  0.07938944  1
  Zr  Zr11  1  0.45450334  0.77472936  0.90864539  1
  Zr  Zr12  1  0.80355834  0.72679178  0.01250272  1
  Zr  Zr13  1  0.48357483  0.48245173  0.66150587  1
  Zr  Zr14  1  0.20632757  0.82468932  0.17782530  1
  Zr  Zr15  1  0.70235243  0.68645984  0.69846669  1
  Zr  Zr16  1  0.74452472  0.71248196  0.38207637  1
  Zr  Zr17  1  0.61891204  0.29642659  0.00907954  1
  Zr  Zr18  1  0.37308604  0.90897093  0.05009272  1
  Zr  Zr19  1  0.55025335  0.98350841  0.12173901  1
  Zr  Zr20  1  0.39535163  0.69892493  0.11536925  1
  Zr  Zr21  1  0.66762762  0.08757218  0.27063339  1
  Zr  Zr22  1  0.27767618  0.35488056  0.92297994  1
  Zr  Zr23  1  0.68125419  0.37506741  0.55064590  1
  Zr  Zr24  1  0.92909931  0.15081759  0.92931099  1
  Zr  Zr25  1  0.43321177  0.34860356  0.07480645  1
  Zr  Zr26  1  0.08881876  0.27926708  1.01217355  1
  Zr  Zr27  1  0.90813171  0.68426096  0.22056031  1
  Zr  Zr28  1  0.86509377  0.59404638  0.83763052  1
  Zr  Zr29  1  0.05077291  0.16046620  0.42854879  1
  Zr  Zr30  1  0.90002176  0.05121797  0.14806275  1
  Zr  Zr31  1  0.42081703  0.48775196  0.25273969  1
  Zr  Zr32  1  0.61827530  0.47997157  0.32349876  1
  Zr  Zr33  1  0.86549969  0.11534727  0.33260488  1
  Zr  Zr34  1  0.77086627  0.28026478  0.86723686  1
  Zr  Zr35  1  0.88199582  0.27934748  0.08198379  1
  Zr  Zr36  1  0.73193232  0.39147118  0.17168549  1
  Zr  Zr37  1  0.93587607  0.93078167  0.70707774  1
  Zr  Zr38  1  0.59891795  0.80296804  0.54547915  1
  Zr  Zr39  1  0.96993307  0.37867014  0.85465027  1
  Zr  Zr40  1  0.81708324  0.51439835  0.34547866  1
  Zr  Zr41  1  0.93815239  0.32568189  0.28882642  1
  Zr  Zr42  1  0.11344060  0.50156020  0.54011412  1
  Zr  Zr43  1  0.34910489  0.55292753  0.86168960  1
  Zr  Zr44  1  0.22150961  0.87866163  0.42447692  1
  Zr  Zr45  1  0.29749913  0.92506708  0.84744403  1
  Zr  Zr46  1  0.86918901  0.23248636  0.52045425  1
  Zr  Zr47  1  0.89474267  0.02941937  0.53143039  1
  Zr  Zr48  1  0.27569254  0.11506116  0.95019735  1
  Zr  Zr49  1  0.94122639  0.16555907  0.72021000  1
  Sc  Sc50  1  0.90900497  0.88263955  0.34186986  1
  Sc  Sc51  1  0.72224352  0.11745564  0.05253405  1
  Sc  Sc52  1  0.53131676  0.67009235  0.29848528  1
  Sc  Sc53  1  0.53136772  0.99338752  0.46735652  1
  Sc  Sc54  1  0.95248144  0.65544516  0.47404821  1
  Sc  Sc55  1  0.47877652  0.68849199  0.69707777  1
  Sc  Sc56  1  0.75579905  0.47947083  0.98089764  1
  Sc  Sc57  1  0.34852160  0.33045040  0.71815888  1
  Sc  Sc58  1  0.00948668  0.68638378  0.01680890  1
  Sc  Sc59  1  0.44469658  0.10306497  0.29383672  1
  Sc  Sc60  1  0.14547149  0.23156402  0.80164182  1
  Sc  Sc61  1  0.56688629  0.29046203  0.72700222  1
  Sc  Sc62  1  0.73124453  0.18025431  0.67861033  1
  Sc  Sc63  1  0.22903983  0.70121540  0.98630963  1
  Sc  Sc64  1  0.32316733  0.29012105  0.31534236  1
  Sc  Sc65  1  0.14748700  0.89695222  -0.00145620  1
  Sc  Sc66  1  0.07874284  0.75145157  0.32036386  1
  Sc  Sc67  1  0.58934585  0.76395139  0.09068957  1
  Sc  Sc68  1  0.27146659  0.05386725  0.16521850  1
  Sc  Sc69  1  0.58376375  0.86651813  0.29807359  1
  Sc  Sc70  1  0.76728786  0.87826342  0.17594208  1
  Sc  Sc71  1  0.09981842  0.60599022  0.82110871  1
  Sc  Sc72  1  0.30130008  0.51010694  0.08247081  1
  Sc  Sc73  1  0.71667557  -0.03477477  0.63656838  1
  Sc  Sc74  1  0.59906742  0.87012599  0.77840386  1
  Sc  Sc75  1  0.73363879  0.93892194  0.41930017  1
  Sc  Sc76  1  0.47027563  0.39936984  0.45179506  1
  Sc  Sc77  1  0.07105955  0.30448927  0.61175441  1
  Sc  Sc78  1  0.03077282  0.85781080  0.52347801  1
  Sc  Sc79  1  0.52872464  0.07540243  0.67961159  1
  Sc  Sc80  1  0.11790257  0.07673127  0.60053039  1
  Sc  Sc81  1  0.91810373  0.92274065  0.96120992  1
  Sc  Sc82  1  0.67827329  0.91529713  0.96564376  1
  Sc  Sc83  1  0.09034717  0.03047690  0.82959353  1
  Sc  Sc84  1  0.08444350  0.98642005  0.27964046  1
  Sc  Sc85  1  0.04155075  0.52782613  0.32707751  1
  Sc  Sc86  1  0.92658311  0.41864604  0.48797502  1
  Sc  Sc87  1  0.49044923  0.20166166  0.49753375  1
  Sc  Sc88  1  0.14567221  0.40119657  0.18853337  1
  Sc  Sc89  1  0.31146218  0.69166271  0.30297565  1
  Sc  Sc90  1  0.32121311  0.10297467  0.72617405  1
  Sc  Sc91  1  0.73137599  0.29243728  0.36049152  1
  Sc  Sc92  1  0.09981953  0.19753255  0.22796550  1
  Sc  Sc93  1  0.08313678  0.07501547  0.05865757  1
  Sc  Sc94  1  0.40471910  0.59745440  0.47806427  1
  Sc  Sc95  1  0.54759122  0.28068064  0.24050478  1
  Sc  Sc96  1  0.69202282  0.47423936  0.75854550  1
  Sc  Sc97  1  0.61583714  0.58834845  0.51222460  1
  Sc  Sc98  1  0.10875750  0.48926054  0.98682702  1
  Sc  Sc99  1  0.05742658  0.80862978  0.82726344  1
  Nb  Nb100  1  0.46456894  0.14318671  0.06234929  1
  Nb  Nb101  1  0.85076103  0.36367335  0.68442087  1
  Nb  Nb102  1  0.28644000  0.56976199  0.65903508  1
  Nb  Nb103  1  0.27297785  0.24846200  0.10519421  1
  Nb  Nb104  1  0.17080830  0.43740735  0.74958121  1
  Nb  Nb105  1  0.24436091  0.09399296  0.37608735  1
  Nb  Nb106  1  0.19641061  0.65551321  0.45828993  1
  Nb  Nb107  1  0.80798757  0.56012236  0.58674313  1
  Nb  Nb108  1  0.14509314  0.61941703  0.17321193  1
  Nb  Nb109  1  0.61246946  0.12715712  0.87392144  1
  Nb  Nb110  1  0.28658267  0.41815455  0.53740479  1
  Nb  Nb111  1  0.13367750  0.33614158  0.40170936  1
  Nb  Nb112  1  0.42931419  0.81044354  0.44930474  1
  Nb  Nb113  1  0.47378181  1.00595366  0.89221045  1
  Nb  Nb114  1  0.99075133  0.85276050  0.14172871  1
  Nb  Nb115  1  0.42241097  0.89619500  0.67260849  1
  Nb  Nb116  1  0.30959592  0.76589444  0.58018181  1
  Nb  Nb117  1  0.92426900  0.71039855  0.68809688  1
  Nb  Nb118  1  0.97682488  0.51103534  0.68318801  1
  Nb  Nb119  1  0.43823177  0.22287460  0.88507934  1
  Nb  Nb120  1  0.24960135  0.49453737  0.35079644  1
  Nb  Nb121  1  0.80524287  0.81121808  0.81446795  1
  Nb  Nb122  1  0.81846231  0.79967625  0.56088432  1
  Nb  Nb123  1  0.34100465  0.00712861  0.52803082  1
  Nb  Nb124  1  0.69244978  0.13064658  0.48405610  1
