# generated using pymatgen
data_Zr2Sc2Nb
_symmetry_space_group_name_H-M   'P 1'
_cell_length_a   13.99998745
_cell_length_b   14.75771964
_cell_length_c   13.90390984
_cell_angle_alpha   92.82684640
_cell_angle_beta   90.97883198
_cell_angle_gamma   91.74988303
_symmetry_Int_Tables_number   1
_chemical_formula_structural   Zr2Sc2Nb
_chemical_formula_sum   'Zr50 Sc50 Nb25'
_cell_volume   2867.32661668
_cell_formula_units_Z   25
loop_
 _symmetry_equiv_pos_site_id
 _symmetry_equiv_pos_as_xyz
  1  'x, y, z'
loop_
 _atom_site_type_symbol
 _atom_site_label
 _atom_site_symmetry_multiplicity
 _atom_site_fract_x
 _atom_site_fract_y
 _atom_site_fract_z
 _atom_site_occupancy
  Zr  Zr0  1  0.11644019  0.10513794  0.93167336  1
  Zr  Zr1  1  0.70221165  0.67349920  0.36443079  1
  Zr  Zr2  1  0.72883035  0.42508939  0.33568394  1
  Zr  Zr3  1  0.90569112  0.75500269  0.77238284  1
  Zr  Zr4  1  0.96343059  0.95433854  0.83899604  1
  Zr  Zr5  1  0.16654932  0.64203526  0.92844929  1
  Zr  Zr6  1  0.49711314  0.87394334  0.60321433  1
  Zr  Zr7  1  0.28182081  0.71744921  0.10848038  1
  Zr  Zr8  1  0.29038476  0.26017581  0.90268054  1
  Zr  Zr9  1  0.33841228  0.44758331  0.50390898  1
  Zr  Zr10  1  0.95330536  -0.01959133  0.41818156  1
  Zr  Zr11  1  0.69035129  0.82914206  0.72268734  1
  Zr  Zr12  1  0.92712238  0.46338169  0.19408081  1
  Zr  Zr13  1  0.18927351  0.51544719  0.15998265  1
  Zr  Zr14  1  0.52842523  0.52014345  0.63266624  1
  Zr  Zr15  1  0.93157949  0.25087469  0.06889849  1
  Zr  Zr16  1  0.51052790  0.77616773  0.39336505  1
  Zr  Zr17  1  0.47655880  0.33733037  0.75236761  1
  Zr  Zr18  1  0.27116965  0.68005724  0.32344334  1
  Zr  Zr19  1  0.24560302  0.14720036  0.35633193  1
  Zr  Zr20  1  0.29235897  0.94691440  0.70596241  1
  Zr  Zr21  1  0.73149220  0.11683630  0.04174121  1
  Zr  Zr22  1  0.15254292  0.03454709  0.52098320  1
  Zr  Zr23  1  0.06507466  0.33787831  0.26322742  1
  Zr  Zr24  1  0.65372344  1.02157662  0.61484443  1
  Zr  Zr25  1  0.08952187  0.65107969  0.72474990  1
  Zr  Zr26  1  0.36717508  0.50516466  0.29247595  1
  Zr  Zr27  1  0.94022935  0.03320939  0.03490179  1
  Zr  Zr28  1  0.74361306  0.56245922  0.17246010  1
  Zr  Zr29  1  0.75490119  0.08343737  0.42151992  1
  Zr  Zr30  1  0.36457791  0.34999922  0.09729101  1
  Zr  Zr31  1  0.28744830  0.45858197  0.91232991  1
  Zr  Zr32  1  0.05673930  0.05835607  0.71151791  1
  Zr  Zr33  1  0.74031570  0.34504776  0.10996672  1
  Zr  Zr34  1  0.09102894  0.24002167  0.60740537  1
  Zr  Zr35  1  0.55076949  0.23708565  0.11618107  1
  Zr  Zr36  1  0.10829937  0.46447328  0.59176875  1
  Zr  Zr37  1  0.65974928  0.22141962  0.29515592  1
  Zr  Zr38  1  -0.02877412  0.81876069  0.01014290  1
  Zr  Zr39  1  0.90646534  0.77916188  0.40726801  1
  Zr  Zr40  1  0.26511720  0.32361636  0.27434176  1
  Zr  Zr41  1  0.00957058  0.63626555  0.51563280  1
  Zr  Zr42  1  0.93361808  0.57854940  0.86908854  1
  Zr  Zr43  1  0.71219874  0.41955743  0.72933259  1
  Zr  Zr44  1  0.40508706  0.64763701  0.51171209  1
  Zr  Zr45  1  0.07480386  0.12875616  0.19156219  1
  Zr  Zr46  1  0.28764027  0.75064851  0.71802134  1
  Zr  Zr47  1  0.65852572  0.75519009  0.15540034  1
  Zr  Zr48  1  0.08010036  0.27218790  0.83006938  1
  Zr  Zr49  1  0.63760799  0.05944227  0.85151570  1
  Sc  Sc50  1  0.78324605  0.29123566  0.49763505  1
  Sc  Sc51  1  0.71378561  0.85563534  0.50872095  1
  Sc  Sc52  1  0.72277547  0.62021828  0.75635917  1
  Sc  Sc53  1  0.69836186  0.20993690  0.69256526  1
  Sc  Sc54  1  0.00521080  0.62399382  0.08000676  1
  Sc  Sc55  1  0.11346969  0.78882290  0.19397977  1
  Sc  Sc56  1  0.87481382  0.73327256  0.20330909  1
  Sc  Sc57  1  0.25516808  0.35404714  0.70266516  1
  Sc  Sc58  1  0.90324503  0.89706709  0.61184756  1
  Sc  Sc59  1  0.10376432  0.83912911  0.62520026  1
  Sc  Sc60  1  0.79088165  0.69526013  0.98815607  1
  Sc  Sc61  1  0.32596596  0.88955456  0.29969706  1
  Sc  Sc62  1  0.48519993  0.90491410  0.82931646  1
  Sc  Sc63  1  0.68054000  0.27890695  0.90466755  1
  Sc  Sc64  1  0.72224026  0.49278205  0.95075347  1
  Sc  Sc65  1  0.88385990  0.16422937  0.85555445  1
  Sc  Sc66  1  1.01678906  0.17714626  0.40554080  1
  Sc  Sc67  1  0.91549044  0.33948800  0.67268945  1
  Sc  Sc68  1  0.46734277  0.31163095  0.34633245  1
  Sc  Sc69  1  0.47136053  0.10436267  0.69937940  1
  Sc  Sc70  1  0.06795981  0.44042044  0.99472732  1
  Sc  Sc71  1  0.55576035  0.52842560  0.40860336  1
  Sc  Sc72  1  0.88958967  0.12290482  0.59442425  1
  Sc  Sc73  1  0.36929316  0.03036229  0.49845146  1
  Sc  Sc74  1  0.86604073  0.28087639  0.28895620  1
  Sc  Sc75  1  0.30351969  0.83261875  0.50996439  1
  Sc  Sc76  1  0.32255903  0.03443217  0.90947420  1
  Sc  Sc77  1  0.52866699  0.53111163  0.84029108  1
  Sc  Sc78  1  0.15519763  0.94690465  0.06801026  1
  Sc  Sc79  1  0.55528972  0.44664637  0.18776836  1
  Sc  Sc80  1  0.49020909  0.70896192  0.72730592  1
  Sc  Sc81  1  0.74893415  0.89456740  0.30879375  1
  Sc  Sc82  1  0.60308671  0.91042004  0.01510542  1
  Sc  Sc83  1  0.55910317  0.16353025  0.48722322  1
  Sc  Sc84  1  0.46748305  0.76122683  0.04939891  1
  Sc  Sc85  1  0.55972784  0.97383997  0.40643320  1
  Sc  Sc86  1  0.47995232  0.19503758  0.90953425  1
  Sc  Sc87  1  0.44775796  0.09168371  0.26778405  1
  Sc  Sc88  1  0.88746839  0.37634046  0.89015404  1
  Sc  Sc89  1  0.35507031  0.24146381  0.54168821  1
  Sc  Sc90  1  0.25646685  0.14510875  0.71841060  1
  Sc  Sc91  1  0.29660040  0.13335810  0.11596118  1
  Sc  Sc92  1  0.85969796  0.08633207  0.23383428  1
  Sc  Sc93  1  0.77867449  0.89217005  0.90932179  1
  Sc  Sc94  1  0.13118287  0.84964874  0.84924767  1
  Sc  Sc95  1  0.15338525  0.50167943  0.38064507  1
  Sc  Sc96  1  0.15310171  0.28064879  0.06696747  1
  Sc  Sc97  1  0.11370604  0.81598841  0.40732852  1
  Sc  Sc98  1  0.30387190  0.55075719  0.70994760  1
  Sc  Sc99  1  0.58322567  0.35459754  0.54347204  1
  Nb  Nb100  1  0.52347286  0.88853854  0.21282169  1
  Nb  Nb101  1  0.81793990  0.68859746  0.57458765  1
  Nb  Nb102  1  0.20696844  0.64956308  0.53172122  1
  Nb  Nb103  1  0.36672411  0.92959291  0.09409827  1
  Nb  Nb104  1  0.31554127  0.82530907  0.92141347  1
  Nb  Nb105  1  0.08381325  0.46335247  0.78889548  1
  Nb  Nb106  1  0.95337628  0.41760571  0.45220964  1
  Nb  Nb107  1  0.64528001  0.03951310  0.20680396  1
  Nb  Nb108  1  0.90618968  0.53420141  0.66146378  1
  Nb  Nb109  1  0.38837362  0.54985046  0.07585621  1
  Nb  Nb110  1  0.79234039  0.91248031  0.11218414  1
  Nb  Nb111  1  0.60522263  0.73095895  0.90192479  1
  Nb  Nb112  1  0.13979164  -0.01214884  0.30251560  1
  Nb  Nb113  1  0.80062508  1.01153574  0.74355414  1
  Nb  Nb114  1  0.96969954  0.92090053  0.21754147  1
  Nb  Nb115  1  0.50074581  0.05714245  0.05248200  1
  Nb  Nb116  1  0.17299140  0.32083110  0.45653590  1
  Nb  Nb117  1  0.51100823  0.39503626  0.97391594  1
  Nb  Nb118  1  0.57137758  0.59504378  1.03955070  1
  Nb  Nb119  1  0.74777996  0.50652832  0.53683465  1
  Nb  Nb120  1  0.86882994  0.56839352  0.37630254  1
  Nb  Nb121  1  0.48732552  0.65765174  0.23192954  1
  Nb  Nb122  1  0.04187690  0.63160718  0.29746882  1
  Nb  Nb123  1  0.61977588  0.68184179  0.56267932  1
  Nb  Nb124  1  0.38051318  0.65010544  0.90062854  1
