# generated using pymatgen
data_Zr2Sc2Nb
_symmetry_space_group_name_H-M   'P 1'
_cell_length_a   14.09704981
_cell_length_b   14.07079199
_cell_length_c   14.43739657
_cell_angle_alpha   91.68013573
_cell_angle_beta   89.58889078
_cell_angle_gamma   89.40463316
_symmetry_Int_Tables_number   1
_chemical_formula_structural   Zr2Sc2Nb
_chemical_formula_sum   'Zr50 Sc50 Nb25'
_cell_volume   2862.28783759
_cell_formula_units_Z   25
loop_
 _symmetry_equiv_pos_site_id
 _symmetry_equiv_pos_as_xyz
  1  'x, y, z'
loop_
 _atom_site_type_symbol
 _atom_site_label
 _atom_site_symmetry_multiplicity
 _atom_site_fract_x
 _atom_site_fract_y
 _atom_site_fract_z
 _atom_site_occupancy
  Zr  Zr0  1  0.27996667  0.13888204  0.10672590  1
  Zr  Zr1  1  0.78280319  0.64414486  0.31274393  1
  Zr  Zr2  1  0.31532134  0.92765750  0.20529125  1
  Zr  Zr3  1  0.19625391  0.61671322  0.32846779  1
  Zr  Zr4  1  0.07488985  0.10923580  0.99046670  1
  Zr  Zr5  1  0.98704620  0.23761940  0.16150479  1
  Zr  Zr6  1  0.72437898  0.33232405  0.67133672  1
  Zr  Zr7  1  0.73276340  0.16311780  0.11886774  1
  Zr  Zr8  1  0.53926250  0.89130195  0.94962361  1
  Zr  Zr9  1  0.04366286  0.29063625  0.86367790  1
  Zr  Zr10  1  0.59117555  0.96258579  0.75516767  1
  Zr  Zr11  1  0.67357776  0.10705793  0.58444079  1
  Zr  Zr12  1  0.05621170  0.73170324  0.48013163  1
  Zr  Zr13  1  0.38130644  0.94191765  0.82421160  1
  Zr  Zr14  1  0.48701391  0.80799047  0.13652309  1
  Zr  Zr15  1  0.28068683  0.50237484  0.06838014  1
  Zr  Zr16  1  0.05429602  0.06264940  0.79025875  1
  Zr  Zr17  1  0.02860192  0.89405315  0.93009896  1
  Zr  Zr18  1  0.18139892  0.82995982  0.31448022  1
  Zr  Zr19  1  0.24238060  0.64800076  0.55507269  1
  Zr  Zr20  1  0.29427429  0.70095340  0.16140771  1
  Zr  Zr21  1  0.37235361  0.50444165  0.47310830  1
  Zr  Zr22  1  0.30627430  0.15782279  0.51566412  1
  Zr  Zr23  1  0.82078435  0.83236993  0.00113729  1
  Zr  Zr24  1  0.34282848  0.27312409  0.74624703  1
  Zr  Zr25  1  0.40274305  0.48390401  0.68822112  1
  Zr  Zr26  1  0.09461764  0.70221336  0.69892930  1
  Zr  Zr27  1  0.49662060  0.29257973  0.60024246  1
  Zr  Zr28  1  0.14748757  0.24000477  0.69406053  1
  Zr  Zr29  1  0.29887654  0.64883830  0.76520526  1
  Zr  Zr30  1  0.19074291  0.85214002  0.79799983  1
  Zr  Zr31  1  0.35957998  0.74880089  0.95882723  1
  Zr  Zr32  1  0.45429483  0.09166869  0.66797226  1
  Zr  Zr33  1  0.19883647  0.26223349  0.34535287  1
  Zr  Zr34  1  0.92800121  0.49111845  0.20976324  1
  Zr  Zr35  1  0.10730921  0.80910532  0.10701194  1
  Zr  Zr36  1  0.52857812  0.92000548  0.31982483  1
  Zr  Zr37  1  0.38915736  0.51473715  0.25952182  1
  Zr  Zr38  1  0.51599999  0.35690157  0.83343742  1
  Zr  Zr39  1  0.84936955  -0.01384155  0.82468429  1
  Zr  Zr40  1  -0.00412595  0.53802134  0.59769083  1
  Zr  Zr41  1  0.46660476  0.01277646  0.09746784  1
  Zr  Zr42  1  0.01957017  0.45727612  0.01524782  1
  Zr  Zr43  1  0.36375470  0.95814148  0.44447104  1
  Zr  Zr44  1  0.68110410  0.04463356  0.94624981  1
  Zr  Zr45  1  0.74183071  0.57101063  0.50445205  1
  Zr  Zr46  1  0.42463328  0.31324034  0.38836474  1
  Zr  Zr47  1  0.09361940  0.02723402  0.17880433  1
  Zr  Zr48  1  0.80904617  0.35819861  0.09819602  1
  Zr  Zr49  1  1.00591797  0.90376478  0.65987385  1
  Sc  Sc50  1  0.39579692  0.12610861  0.28753005  1
  Sc  Sc51  1  0.67453852  0.95125410  0.13071634  1
  Sc  Sc52  1  0.89200125  0.03284645  0.05678592  1
  Sc  Sc53  1  0.87723189  0.72513738  0.58554386  1
  Sc  Sc54  1  0.68299882  0.70915021  0.10103754  1
  Sc  Sc55  1  0.62153263  0.11718034  0.29080084  1
  Sc  Sc56  1  0.65653949  0.17218475  0.78082480  1
  Sc  Sc57  1  0.24791658  0.14067152  0.87910227  1
  Sc  Sc58  1  0.19961713  0.04980642  0.35438101  1
  Sc  Sc59  1  0.88935779  0.16399195  0.68727486  1
  Sc  Sc60  1  0.76124926  0.90377601  0.63631725  1
  Sc  Sc61  1  0.67811158  0.70338582  0.68014846  1
  Sc  Sc62  1  0.49467722  0.65892938  0.56102979  1
  Sc  Sc63  1  0.60133347  0.32750677  0.24387297  1
  Sc  Sc64  1  0.90771304  0.76648552  0.79396036  1
  Sc  Sc65  1  0.86329767  0.19283876  0.91945684  1
  Sc  Sc66  1  0.66899366  0.77103810  0.46551992  1
  Sc  Sc67  1  0.36948771  0.74130798  0.39213644  1
  Sc  Sc68  1  0.05082944  0.30050600  0.52742882  1
  Sc  Sc69  1  0.47025759  0.12948254  0.89857962  1
  Sc  Sc70  1  0.24546857  0.03167508  0.67967592  1
  Sc  Sc71  1  0.82165096  0.40693283  0.87467131  1
  Sc  Sc72  1  0.24898664  0.94569963  -0.00138663  1
  Sc  Sc73  1  0.66914631  0.51631653  0.18238779  1
  Sc  Sc74  1  0.57161293  0.49715695  0.38873424  1
  Sc  Sc75  1  0.83842238  0.04415049  0.29113272  1
  Sc  Sc76  1  0.16883568  0.30500853  0.04552170  1
  Sc  Sc77  1  0.14303982  0.42521110  0.22622010  1
  Sc  Sc78  1  0.60666085  0.53375025  0.78194847  1
  Sc  Sc79  1  0.50418571  0.20703151  0.10220183  1
  Sc  Sc80  1  0.84436443  0.20233512  0.47284726  1
  Sc  Sc81  1  0.65350628  0.28471248  0.96805613  1
  Sc  Sc82  1  0.22853264  0.43047268  0.86926555  1
  Sc  Sc83  1  0.15004197  0.46301077  0.44882566  1
  Sc  Sc84  1  0.81105269  0.53242336  0.70108550  1
  Sc  Sc85  1  0.92710835  0.88518328  0.19864133  1
  Sc  Sc86  1  0.17015218  0.65111160  0.93493539  1
  Sc  Sc87  1  0.65226412  0.29380091  0.45516027  1
  Sc  Sc88  1  -0.00309163  0.54174974  0.82600577  1
  Sc  Sc89  1  0.88676799  1.00509085  0.51067652  1
  Sc  Sc90  1  0.57632505  0.68428939  0.93420375  1
  Sc  Sc91  1  0.54050036  0.91398962  0.55501568  1
  Sc  Sc92  1  0.08078025  0.08735740  0.54333310  1
  Sc  Sc93  1  0.55679525  0.68690928  0.29297770  1
  Sc  Sc94  1  0.49292640  0.41468656  0.07440815  1
  Sc  Sc95  1  0.17996824  0.88502380  0.52920652  1
  Sc  Sc96  1  0.48911029  0.75102817  0.76918033  1
  Sc  Sc97  1  0.16948833  0.46561656  0.67774757  1
  Sc  Sc98  1  0.95158941  0.55624225  0.40388506  1
  Sc  Sc99  1  0.35313876  0.82954282  0.63263333  1
  Nb  Nb100  1  0.59724321  0.46846917  0.58989779  1
  Nb  Nb101  1  0.36415511  0.30664924  0.96980315  1
  Nb  Nb102  1  0.97461461  0.34685382  0.35008336  1
  Nb  Nb103  1  0.64591639  0.49877072  0.97918111  1
  Nb  Nb104  1  0.02501195  0.93787834  0.37541137  1
  Nb  Nb105  1  0.00958873  0.15042946  0.35021101  1
  Nb  Nb106  1  0.97199534  0.68590473  0.98253742  1
  Nb  Nb107  1  0.77815494  0.63811542  0.88571293  1
  Nb  Nb108  1  0.77604308  0.42815909  0.34522087  1
  Nb  Nb109  1  0.33927545  0.32283290  0.18870533  1
  Nb  Nb110  1  0.81179159  0.25406274  0.28052974  1
  Nb  Nb111  1  1.01241407  0.71646820  0.28840393  1
  Nb  Nb112  1  0.83372858  0.55420232  0.03826996  1
  Nb  Nb113  1  0.70518320  0.83024229  0.84338970  1
  Nb  Nb114  1  0.42068186  0.53403560  0.91092061  1
  Nb  Nb115  1  0.72853264  0.83542413  0.27116166  1
  Nb  Nb116  1  0.88552445  0.69951538  0.15455080  1
  Nb  Nb117  1  0.84985800  0.39888099  0.52657671  1
  Nb  Nb118  1  0.51209415  0.11072909  0.46559434  1
  Nb  Nb119  1  0.86779460  0.82121294  0.40128603  1
  Nb  Nb120  1  0.69819012  0.97698693  0.42659773  1
  Nb  Nb121  1  0.95327257  0.36519695  0.70307886  1
  Nb  Nb122  1  0.28510324  0.34379563  0.55367910  1
  Nb  Nb123  1  0.47839001  0.61123840  0.09614277  1
  Nb  Nb124  1  0.08894546  0.60950252  0.13449871  1
