# generated using pymatgen
data_Zr2Sc2Nb
_symmetry_space_group_name_H-M   'P 1'
_cell_length_a   14.08930842
_cell_length_b   14.43518301
_cell_length_c   14.06656485
_cell_angle_alpha   88.67297700
_cell_angle_beta   91.09475869
_cell_angle_gamma   91.06955714
_symmetry_Int_Tables_number   1
_chemical_formula_structural   Zr2Sc2Nb
_chemical_formula_sum   'Zr50 Sc50 Nb25'
_cell_volume   2859.11783370
_cell_formula_units_Z   25
loop_
 _symmetry_equiv_pos_site_id
 _symmetry_equiv_pos_as_xyz
  1  'x, y, z'
loop_
 _atom_site_type_symbol
 _atom_site_label
 _atom_site_symmetry_multiplicity
 _atom_site_fract_x
 _atom_site_fract_y
 _atom_site_fract_z
 _atom_site_occupancy
  Zr  Zr0  1  0.32621701  0.72921416  0.94045424  1
  Zr  Zr1  1  0.57836688  0.15696527  0.69123121  1
  Zr  Zr2  1  0.85879786  0.03702496  0.22032194  1
  Zr  Zr3  1  0.71555857  0.90118568  0.34577914  1
  Zr  Zr4  1  0.84639600  0.36967589  1.03114646  1
  Zr  Zr5  1  0.60580252  0.57396742  0.53519915  1
  Zr  Zr6  1  0.97763501  0.89156756  0.11384988  1
  Zr  Zr7  1  0.66660136  0.39717481  0.42882456  1
  Zr  Zr8  1  0.10742132  0.28865992  0.43995573  1
  Zr  Zr9  1  -0.03553925  0.17942262  0.33273648  1
  Zr  Zr10  1  0.65981632  0.26201691  1.01008625  1
  Zr  Zr11  1  -0.00940229  0.52643307  -0.03695618  1
  Zr  Zr12  1  0.25277869  0.22739682  0.10561660  1
  Zr  Zr13  1  0.17538005  0.13491898  0.28631716  1
  Zr  Zr14  1  0.65797130  0.95157977  0.77736453  1
  Zr  Zr15  1  0.40086461  0.93857367  0.00591033  1
  Zr  Zr16  1  0.83744363  0.05541851  0.44424601  1
  Zr  Zr17  1  0.48775523  0.26665574  0.49459173  1
  Zr  Zr18  1  0.50447058  0.91616436  0.61350168  1
  Zr  Zr19  1  0.36217487  0.82756215  0.26986790  1
  Zr  Zr20  1  0.72998564  0.25310944  0.59315464  1
  Zr  Zr21  1  0.77812780  0.45752487  0.60713390  1
  Zr  Zr22  1  0.99894615  0.69224625  0.44478819  1
  Zr  Zr23  1  0.35250847  0.77342479  0.49976609  1
  Zr  Zr24  1  0.53484804  0.66730328  0.89646269  1
  Zr  Zr25  1  1.01127392  0.21998329  0.12991862  1
  Zr  Zr26  1  0.28614311  0.43947538  0.12607779  1
  Zr  Zr27  1  0.12613299  0.28005728  0.65144815  1
  Zr  Zr28  1  0.21178628  0.54494743  0.92787118  1
  Zr  Zr29  1  0.08217988  0.70460911  0.01529418  1
  Zr  Zr30  1  0.66020755  0.65470515  0.09227591  1
  Zr  Zr31  1  0.28475270  0.65443303  0.73268302  1
  Zr  Zr32  1  0.19167746  0.60437106  0.53704587  1
  Zr  Zr33  1  0.52304808  0.29239233  0.83601602  1
  Zr  Zr34  1  0.14353749  0.84065850  0.49180094  1
  Zr  Zr35  1  0.03521938  0.70934880  0.22403935  1
  Zr  Zr36  1  0.89327400  0.46993121  0.78754847  1
  Zr  Zr37  1  0.09035104  0.51891951  0.15826249  1
  Zr  Zr38  1  0.35793001  0.26698369  0.67988544  1
  Zr  Zr39  1  0.08507092  0.04134575  0.46008408  1
  Zr  Zr40  1  0.74954260  0.22885994  0.36250803  1
  Zr  Zr41  1  0.87467830  0.55679667  0.15457647  1
  Zr  Zr42  1  0.46345970  0.73717258  0.09986528  1
  Zr  Zr43  1  0.72264730  0.75107185  0.88490727  1
  Zr  Zr44  1  0.21585078  0.98818104  0.86427750  1
  Zr  Zr45  1  0.94226006  0.87762270  0.33747527  1
  Zr  Zr46  1  0.59628804  0.45969125  0.96544982  1
  Zr  Zr47  1  0.70241467  0.42730210  0.17321946  1
  Zr  Zr48  1  0.50461689  0.93305174  0.39204512  1
  Zr  Zr49  1  0.29299619  0.97957124  0.42395060  1
  Sc  Sc50  1  0.65713522  0.54552636  0.75844806  1
  Sc  Sc51  1  0.39587294  0.53948058  0.56487055  1
  Sc  Sc52  1  0.84686418  0.53046660  0.39912683  1
  Sc  Sc53  1  0.56490870  0.29016721  0.25375013  1
  Sc  Sc54  1  0.40034734  0.05554559  0.76022635  1
  Sc  Sc55  1  0.49170979  0.51733867  0.18767895  1
  Sc  Sc56  1  0.68421649  0.74476053  0.67554605  1
  Sc  Sc57  1  0.75850926  0.15373112  0.83918121  1
  Sc  Sc58  1  0.94783547  0.27118330  0.89429740  1
  Sc  Sc59  1  0.33589326  0.30551244  0.30684967  1
  Sc  Sc60  1  0.02368710  0.47580324  0.59986654  1
  Sc  Sc61  1  0.32013385  0.02041481  0.18246408  1
  Sc  Sc62  1  0.26659638  0.65376437  0.15096169  1
  Sc  Sc63  1  0.86360375  0.88248844  0.74293759  1
  Sc  Sc64  1  0.81619324  0.71540413  0.26327174  1
  Sc  Sc65  1  0.20626924  0.09328299  0.65628974  1
  Sc  Sc66  1  0.49428295  0.13213278  0.11236073  1
  Sc  Sc67  1  0.07063309  0.93755443  0.69221195  1
  Sc  Sc68  1  0.45203161  0.33314624  0.05665272  1
  Sc  Sc69  1  0.44024250  0.12258741  0.33371173  1
  Sc  Sc70  1  0.90882518  0.09049456  1.00793805  1
  Sc  Sc71  1  0.74100233  0.86135680  0.13825961  1
  Sc  Sc72  1  0.43026343  0.64372065  0.35758269  1
  Sc  Sc73  1  0.06387921  0.50205528  0.37548948  1
  Sc  Sc74  1  0.98317171  0.09000614  0.79233728  1
  Sc  Sc75  1  0.45839056  0.85585632  0.82121344  1
  Sc  Sc76  1  0.81441083  0.92170129  0.94381153  1
  Sc  Sc77  1  0.26884823  0.50482054  0.33635067  1
  Sc  Sc78  1  0.34831604  0.15143599  0.93834486  1
  Sc  Sc79  1  0.90388067  0.33146266  0.48322574  1
  Sc  Sc80  1  0.28563169  0.88034403  0.66912707  1
  Sc  Sc81  1  0.44134914  0.49326104  0.78235780  1
  Sc  Sc82  1  0.30183269  0.35751552  0.88745257  1
  Sc  Sc83  1  0.55401487  0.07252826  0.90897956  1
  Sc  Sc84  1  0.88506195  0.64799629  0.64394625  1
  Sc  Sc85  1  0.92877459  0.88411814  0.54418021  1
  Sc  Sc86  1  0.93995326  0.71403868  0.84418266  1
  Sc  Sc87  1  0.70982869  0.91227635  0.56059408  1
  Sc  Sc88  1  0.77789062  0.55622703  0.94670779  1
  Sc  Sc89  1  0.48159044  0.70276141  0.67131193  1
  Sc  Sc90  1  0.77287739  0.72213523  0.46951032  1
  Sc  Sc91  1  0.11343598  0.35837278  0.01306077  1
  Sc  Sc92  1  0.69348742  0.05280991  0.06440118  1
  Sc  Sc93  1  0.12959370  0.06002181  0.04291464  1
  Sc  Sc94  1  0.62228528  0.08904683  0.48969488  1
  Sc  Sc95  1  0.20746195  0.86065078  0.06715792  1
  Sc  Sc96  1  0.64590502  0.58391748  0.32294691  1
  Sc  Sc97  1  0.14437892  0.90608154  0.27437653  1
  Sc  Sc98  1  0.91496003  0.37351869  0.25528468  1
  Sc  Sc99  1  0.15610544  0.78544514  0.83240138  1
  Nb  Nb100  1  0.97465322  0.14541898  0.57591403  1
  Nb  Nb101  1  0.41231480  0.07959476  0.55443678  1
  Nb  Nb102  1  0.53606435  0.93740023  0.17782668  1
  Nb  Nb103  1  0.08545179  0.58691952  0.76912266  1
  Nb  Nb104  1  0.87657908  0.72836516  0.04401846  1
  Nb  Nb105  1  0.56065339  0.38887773  0.63350980  1
  Nb  Nb106  1  0.28152679  0.38158692  0.51172952  1
  Nb  Nb107  1  0.72322637  0.35178898  0.80326959  1
  Nb  Nb108  1  0.07774568  0.73366098  0.64701576  1
  Nb  Nb109  1  0.27307811  0.18656111  0.47840885  1
  Nb  Nb110  1  0.23817729  0.45739892  0.69734843  1
  Nb  Nb111  1  0.78944196  0.21847716  0.16618395  1
  Nb  Nb112  1  0.20190653  0.70513896  0.35125323  1
  Nb  Nb113  1  0.56782939  0.76369286  0.47145891  1
  Nb  Nb114  1  0.59403085  0.86405767  -0.01034949  1
  Nb  Nb115  1  0.15477865  0.20255660  0.86344952  1
  Nb  Nb116  1  0.08904393  0.39347269  0.80665490  1
  Nb  Nb117  1  0.13307515  0.33817377  0.24473289  1
  Nb  Nb118  1  0.64903571  0.07903649  0.26986244  1
  Nb  Nb119  1  0.47435895  0.44276017  0.40357032  1
  Nb  Nb120  1  0.40783764  0.54210737  0.99324460  1
  Nb  Nb121  1  0.58436829  0.76703569  0.26426059  1
  Nb  Nb122  1  0.02012127  0.90550479  0.91880615  1
  Nb  Nb123  1  0.80454427  0.07353987  0.65363035  1
  Nb  Nb124  1  0.90751733  0.28393445  0.69491840  1
