# generated using pymatgen
data_Zr2Sc2Nb
_symmetry_space_group_name_H-M   'P 1'
_cell_length_a   14.31607319
_cell_length_b   14.55454934
_cell_length_c   13.77663897
_cell_angle_alpha   89.88803134
_cell_angle_beta   89.49522824
_cell_angle_gamma   90.12679025
_symmetry_Int_Tables_number   1
_chemical_formula_structural   Zr2Sc2Nb
_chemical_formula_sum   'Zr50 Sc50 Nb25'
_cell_volume   2870.43149589
_cell_formula_units_Z   25
loop_
 _symmetry_equiv_pos_site_id
 _symmetry_equiv_pos_as_xyz
  1  'x, y, z'
loop_
 _atom_site_type_symbol
 _atom_site_label
 _atom_site_symmetry_multiplicity
 _atom_site_fract_x
 _atom_site_fract_y
 _atom_site_fract_z
 _atom_site_occupancy
  Zr  Zr0  1  0.19047535  0.40802683  0.94756275  1
  Zr  Zr1  1  0.19851139  0.36685877  0.70520383  1
  Zr  Zr2  1  0.90635549  0.35424812  0.24016180  1
  Zr  Zr3  1  0.19216556  0.66510408  0.23541691  1
  Zr  Zr4  1  0.56152556  0.39914853  0.67816761  1
  Zr  Zr5  1  0.32021082  0.87978726  0.90605404  1
  Zr  Zr6  1  0.34247622  0.55943367  0.34435182  1
  Zr  Zr7  1  0.54949358  0.19511744  0.47217667  1
  Zr  Zr8  1  0.91550173  0.74154630  0.92029999  1
  Zr  Zr9  1  0.26703656  0.44725242  0.51189097  1
  Zr  Zr10  1  0.82987118  0.96601450  0.65663553  1
  Zr  Zr11  1  0.31232216  0.33792978  0.31867754  1
  Zr  Zr12  1  0.46200808  0.72547722  0.95368543  1
  Zr  Zr13  1  0.68086489  0.23638024  0.89567615  1
  Zr  Zr14  1  0.48885668  0.31962488  0.87428767  1
  Zr  Zr15  1  0.41281701  0.13903755  0.27031894  1
  Zr  Zr16  1  0.75221853  0.31637645  0.68933502  1
  Zr  Zr17  1  0.14659335  0.61692077  0.44531037  1
  Zr  Zr18  1  0.18662833  0.57366176  0.70085455  1
  Zr  Zr19  1  0.58870307  0.37163393  0.06104145  1
  Zr  Zr20  1  0.12639002  0.82244516  0.39423058  1
  Zr  Zr21  1  0.88867893  0.32299240  0.49898043  1
  Zr  Zr22  1  0.30888229  0.24442540  0.83982366  1
  Zr  Zr23  1  0.92647185  0.84095390  0.29158355  1
  Zr  Zr24  1  0.80384553  0.41727338  0.04988735  1
  Zr  Zr25  1  0.44999916  0.09234981  0.86237522  1
  Zr  Zr26  1  0.53377454  0.69057608  0.74375404  1
  Zr  Zr27  1  0.85939014  0.48986416  0.66644809  1
  Zr  Zr28  1  0.51738478  0.93787730  -0.00290451  1
  Zr  Zr29  1  0.65977489  0.80679649  0.63413260  1
  Zr  Zr30  1  0.19591278  0.14912953  0.65929438  1
  Zr  Zr31  1  0.70481512  -0.00774048  1.06193396  1
  Zr  Zr32  1  0.09639067  0.44779600  0.34323684  1
  Zr  Zr33  1  0.87862891  0.32886565  0.85996106  1
  Zr  Zr34  1  0.38228788  0.28261826  0.62644401  1
  Zr  Zr35  1  0.70635440  0.64280006  0.92161795  1
  Zr  Zr36  1  0.99012049  0.20295508  0.36485449  1
  Zr  Zr37  1  0.31971723  0.15498216  0.46336138  1
  Zr  Zr38  1  0.61512050  0.09888909  0.26357864  1
  Zr  Zr39  1  0.84134284  0.15483953  0.99896029  1
  Zr  Zr40  1  0.67638026  0.83273694  0.88682944  1
  Zr  Zr41  1  0.74474868  0.23737244  0.37607678  1
  Zr  Zr42  1  -0.01160476  0.83396200  0.73540728  1
  Zr  Zr43  1  0.39175758  0.05949221  0.65172249  1
  Zr  Zr44  1  0.36042444  0.78477191  0.34305104  1
  Zr  Zr45  1  0.07446135  0.59574539  0.93819682  1
  Zr  Zr46  1  0.60284810  0.99561628  0.60425327  1
  Zr  Zr47  1  0.99909274  0.16664952  0.15051481  1
  Zr  Zr48  1  0.76554410  0.14799234  0.57750111  1
  Zr  Zr49  1  0.84302187  0.60970457  0.10153443  1
  Sc  Sc50  1  0.03333109  0.03224806  0.75115426  1
  Sc  Sc51  1  0.73042871  0.24658032  0.15409160  1
  Sc  Sc52  1  0.52700979  0.53016061  0.86827824  1
  Sc  Sc53  1  0.59665272  0.77442231  0.11882430  1
  Sc  Sc54  1  0.73795740  0.64343923  0.50871723  1
  Sc  Sc55  1  0.22700637  0.71772817  0.02741191  1
  Sc  Sc56  1  0.18746401  0.21419786  0.03412476  1
  Sc  Sc57  1  0.45374796  0.82499718  0.57075908  1
  Sc  Sc58  1  0.40714134  0.48038253  0.02486085  1
  Sc  Sc59  1  0.19697849  0.16096082  0.27086659  1
  Sc  Sc60  1  0.95485203  0.69897115  0.52724992  1
  Sc  Sc61  1  0.39075950  0.51127533  0.68766116  1
  Sc  Sc62  1  0.02611541  0.50509453  0.12621633  1
  Sc  Sc63  1  0.94384407  0.94885025  0.10165945  1
  Sc  Sc64  1  0.30342527  0.58993087  0.88130936  1
  Sc  Sc65  1  0.14789039  0.75948982  0.60902781  1
  Sc  Sc66  1  0.50557358  0.92812005  0.23682880  1
  Sc  Sc67  1  0.54033955  0.65187397  0.31039671  1
  Sc  Sc68  1  0.86388663  0.95310614  0.89394536  1
  Sc  Sc69  1  0.53475914  0.60795874  0.53426404  1
  Sc  Sc70  1  0.35337052  0.06478422  0.07055455  1
  Sc  Sc71  1  0.21942965  0.06025490  0.88391993  1
  Sc  Sc72  1  0.83065135  0.07475846  0.24446837  1
  Sc  Sc73  1  0.46801793  -0.00443995  0.43274310  1
  Sc  Sc74  1  0.08237573  0.23525701  0.83502774  1
  Sc  Sc75  1  0.67408466  0.03636032  0.82176862  1
  Sc  Sc76  1  1.05203245  1.00517546  0.29738947  1
  Sc  Sc77  1  0.80639559  0.84603465  0.47603276  1
  Sc  Sc78  1  0.81142799  0.70927343  0.72695470  1
  Sc  Sc79  1  0.24675629  0.48197187  0.15542527  1
  Sc  Sc80  1  0.04386843  0.47467282  0.56767725  1
  Sc  Sc81  1  0.87516849  0.50628225  0.40023731  1
  Sc  Sc82  1  0.98531801  0.64622145  0.29602441  1
  Sc  Sc83  1  0.13953830  0.85296706  0.18512360  1
  Sc  Sc84  1  0.69072747  0.45048789  0.26729260  1
  Sc  Sc85  1  0.08877819  0.88671331  0.95261147  1
  Sc  Sc86  1  0.27401324  0.92325647  0.50790720  1
  Sc  Sc87  1  0.49422053  0.89793837  0.77570049  1
  Sc  Sc88  1  0.54942813  0.15656713  0.05718212  1
  Sc  Sc89  1  0.21381152  0.92605204  0.71347004  1
  Sc  Sc90  1  0.60595577  0.57096000  0.09820741  1
  Sc  Sc91  1  0.68925008  0.42558693  0.50113099  1
  Sc  Sc92  1  0.37584405  0.29046516  0.10295123  1
  Sc  Sc93  1  0.72211371  0.89613941  0.26184378  1
  Sc  Sc94  1  0.75645927  0.68907322  0.28689367  1
  Sc  Sc95  1  0.47613873  0.40526710  0.45030370  1
  Sc  Sc96  1  0.13565837  0.28147627  0.49448122  1
  Sc  Sc97  1  0.32783962  0.66587277  0.53680888  1
  Sc  Sc98  1  0.34512371  0.85644218  0.12899435  1
  Sc  Sc99  1  0.56636863  0.18801859  0.69988991  1
  Nb  Nb100  1  0.00654654  0.73070915  0.10240961  1
  Nb  Nb101  1  0.86608255  0.14529005  0.77935987  1
  Nb  Nb102  1  0.15744311  0.74456676  0.82341673  1
  Nb  Nb103  1  0.02138374  0.92273647  0.54568684  1
  Nb  Nb104  1  1.00143300  0.32600947  0.01740539  1
  Nb  Nb105  1  0.33636654  0.74257909  0.74122274  1
  Nb  Nb106  1  0.80018924  0.80181038  0.08008688  1
  Nb  Nb107  1  0.39713516  0.65114813  0.14894092  1
  Nb  Nb108  1  0.11722475  0.32692609  0.19056803  1
  Nb  Nb109  1  0.67803154  0.55663037  0.70491973  1
  Nb  Nb110  1  0.69730002  0.43510038  0.86517723  1
  Nb  Nb111  1  0.15811515  0.02497765  0.10298339  1
  Nb  Nb112  1  0.87520503  0.53902657  0.88256510  1
  Nb  Nb113  1  0.03610947  0.44432341  0.80560311  1
  Nb  Nb114  1  0.98136957  0.29806339  0.67242642  1
  Nb  Nb115  1  0.54379332  0.29318286  0.26912284  1
  Nb  Nb116  1  0.69209663  0.01893004  0.42968456  1
  Nb  Nb117  1  0.46793977  0.46101034  0.22681835  1
  Nb  Nb118  1  0.60089819  0.82244283  0.42115765  1
  Nb  Nb119  1  0.89430905  1.02881088  0.44022796  1
  Nb  Nb120  1  0.97704677  0.13471595  0.58209356  1
  Nb  Nb121  1  0.01897043  0.09420778  0.95806906  1
  Nb  Nb122  1  0.13131686  0.06360425  0.47384577  1
  Nb  Nb123  1  0.00202838  0.63085941  0.73613035  1
  Nb  Nb124  1  0.27574251  0.97834649  0.29966349  1
