# generated using pymatgen
data_Zr2Sc2Nb
_symmetry_space_group_name_H-M   'P 1'
_cell_length_a   14.29358728
_cell_length_b   14.09353864
_cell_length_c   14.23419551
_cell_angle_alpha   89.27391692
_cell_angle_beta   91.42169795
_cell_angle_gamma   89.12111837
_symmetry_Int_Tables_number   1
_chemical_formula_structural   Zr2Sc2Nb
_chemical_formula_sum   'Zr50 Sc50 Nb25'
_cell_volume   2865.97486073
_cell_formula_units_Z   25
loop_
 _symmetry_equiv_pos_site_id
 _symmetry_equiv_pos_as_xyz
  1  'x, y, z'
loop_
 _atom_site_type_symbol
 _atom_site_label
 _atom_site_symmetry_multiplicity
 _atom_site_fract_x
 _atom_site_fract_y
 _atom_site_fract_z
 _atom_site_occupancy
  Zr  Zr0  1  0.70356760  0.60485788  0.60548778  1
  Zr  Zr1  1  0.79684186  0.85366143  0.32108423  1
  Zr  Zr2  1  0.64837935  0.49877662  0.11466207  1
  Zr  Zr3  1  0.08557965  0.64775704  0.97425072  1
  Zr  Zr4  1  0.74747183  0.13462092  0.85837066  1
  Zr  Zr5  1  0.43490978  0.36450332  0.84802067  1
  Zr  Zr6  1  0.45263131  0.43035482  0.06823542  1
  Zr  Zr7  1  0.95881481  0.16399346  0.17740133  1
  Zr  Zr8  1  0.28060763  0.91169130  0.59586372  1
  Zr  Zr9  1  0.50395183  0.09075518  0.12908154  1
  Zr  Zr10  1  0.96780915  0.11811221  -0.02258635  1
  Zr  Zr11  1  0.57293381  0.11298087  0.34580786  1
  Zr  Zr12  1  0.58795432  0.21061872  0.71092006  1
  Zr  Zr13  1  0.93395963  0.70086267  0.29372480  1
  Zr  Zr14  1  0.36622608  0.14745850  0.83023747  1
  Zr  Zr15  1  0.61805563  0.28095485  0.09653217  1
  Zr  Zr16  1  0.63481848  0.47636051  0.46769652  1
  Zr  Zr17  1  0.87193157  0.30781497  0.81693189  1
  Zr  Zr18  1  0.28987555  0.92470897  0.80412342  1
  Zr  Zr19  1  0.12470798  0.10053901  0.29257917  1
  Zr  Zr20  1  0.12832332  0.00897328  0.08642581  1
  Zr  Zr21  1  0.84110132  0.43891496  0.46390489  1
  Zr  Zr22  1  0.26683752  0.60026657  0.08109871  1
  Zr  Zr23  1  0.24038923  0.80232574  0.96969243  1
  Zr  Zr24  1  0.65659741  0.69186391  0.39636530  1
  Zr  Zr25  1  0.48282931  0.84443686  0.69271132  1
  Zr  Zr26  1  0.24363518  0.30435763  0.76633863  1
  Zr  Zr27  1  0.30937857  0.70626802  0.69361944  1
  Zr  Zr28  1  0.24563604  0.12367956  0.63332049  1
  Zr  Zr29  1  0.95806283  0.49264123  0.29086853  1
  Zr  Zr30  1  0.73396507  0.63186300  0.97834404  1
  Zr  Zr31  1  0.86997238  0.98281051  0.13091752  1
  Zr  Zr32  1  0.84218369  0.94011428  0.92101991  1
  Zr  Zr33  1  0.25910063  0.40599495  0.96382292  1
  Zr  Zr34  1  0.75834408  0.55297127  0.28175239  1
  Zr  Zr35  1  0.26688746  0.93156927  0.36097488  1
  Zr  Zr36  1  0.94000584  0.09577943  0.78046306  1
  Zr  Zr37  1  0.09722033  0.97761614  0.68716447  1
  Zr  Zr38  1  0.28317810  0.39891842  0.18068899  1
  Zr  Zr39  1  0.89978321  0.56673156  0.09951694  1
  Zr  Zr40  1  0.36382354  0.23498123  0.03321095  1
  Zr  Zr41  1  0.43976243  0.04767915  0.67445399  1
  Zr  Zr42  1  0.91959865  0.70281113  0.65000439  1
  Zr  Zr43  1  0.50261189  0.29951990  0.48207085  1
  Zr  Zr44  1  0.30188852  0.10478303  0.20829853  1
  Zr  Zr45  1  0.33451233  0.59144186  0.88178347  1
  Zr  Zr46  1  0.32262164  0.01374265  0.00794041  1
  Zr  Zr47  1  0.02694300  0.83077355  0.04632441  1
  Zr  Zr48  1  0.35786968  0.13584266  0.44042915  1
  Zr  Zr49  1  0.71499166  0.24831636  0.47740781  1
  Sc  Sc50  1  0.11613805  0.75791441  0.78873700  1
  Sc  Sc51  1  0.16404680  0.10630164  0.87047102  1
  Sc  Sc52  1  0.83389401  0.77936800  0.10486117  1
  Sc  Sc53  1  0.44795852  0.93321640  0.48464557  1
  Sc  Sc54  1  0.15457574  0.23351880  0.09265860  1
  Sc  Sc55  1  0.65098815  0.83029683  0.98089947  1
  Sc  Sc56  1  0.50350965  0.97390110  0.88480226  1
  Sc  Sc57  1  0.55385079  0.54197096  0.90489997  1
  Sc  Sc58  1  0.13837909  0.72935680  0.37650600  1
  Sc  Sc59  1  0.67101825  0.96893189  0.73609466  1
  Sc  Sc60  1  0.47017028  0.65254051  0.08080958  1
  Sc  Sc61  1  0.09979478  0.19128180  0.48203742  1
  Sc  Sc62  1  0.74690684  0.12750343  0.24180869  1
  Sc  Sc63  1  0.73977617  0.52668299  0.79351915  1
  Sc  Sc64  1  0.45553850  0.76001480  0.88724187  1
  Sc  Sc65  1  0.62600693  0.35080857  0.30101161  1
  Sc  Sc66  1  0.04646311  0.88455311  0.25538909  1
  Sc  Sc67  1  0.67853560  0.74564787  0.77257437  1
  Sc  Sc68  1  0.92778107  0.02633657  0.34776932  1
  Sc  Sc69  1  0.90509813  0.23447149  0.38606415  1
  Sc  Sc70  1  0.47180348  0.77757773  0.31059500  1
  Sc  Sc71  1  0.43900985  0.26422971  0.25396568  1
  Sc  Sc72  1  0.91504780  0.49542879  0.66110953  1
  Sc  Sc73  1  0.67827315  0.03480246  0.03305765  1
  Sc  Sc74  1  0.51835785  0.54653969  0.28057209  1
  Sc  Sc75  1  0.78104453  0.14470846  0.64861641  1
  Sc  Sc76  1  0.44538731  0.55924986  0.51149856  1
  Sc  Sc77  1  0.59287938  0.07533157  0.54729380  1
  Sc  Sc78  1  0.11163217  0.78015028  0.57221893  1
  Sc  Sc79  1  0.31719312  0.62869966  0.28966802  1
  Sc  Sc80  1  0.54734012  0.43003158  0.67032561  1
  Sc  Sc81  1  0.25817093  0.83042433  0.17792884  1
  Sc  Sc82  1  0.10189864  0.96978245  0.47083050  1
  Sc  Sc83  1  0.93495399  0.50702073  0.89412238  1
  Sc  Sc84  1  0.26345660  0.33778643  0.52887825  1
  Sc  Sc85  1  0.09264813  0.46501937  0.09373665  1
  Sc  Sc86  1  0.73715943  0.83019283  0.56243670  1
  Sc  Sc87  1  0.65607356  0.34216708  0.86267366  1
  Sc  Sc88  1  0.81685847  0.34565520  0.20508895  1
  Sc  Sc89  1  0.54588399  0.17927658  0.92983114  1
  Sc  Sc90  1  0.90023233  0.73734828  0.87342577  1
  Sc  Sc91  1  0.07155469  0.30770851  0.88694584  1
  Sc  Sc92  1  0.33269135  0.74135812  0.48351535  1
  Sc  Sc93  1  0.46435067  0.87333063  0.09494535  1
  Sc  Sc94  1  0.32512334  0.48803490  0.68382743  1
  Sc  Sc95  1  0.64653256  0.72349393  0.18133399  1
  Sc  Sc96  1  0.89290324  0.90723414  0.69969991  1
  Sc  Sc97  1  0.16029902  0.50424677  0.30945860  1
  Sc  Sc98  1  0.09836406  0.40003945  0.64105577  1
  Sc  Sc99  1  0.14068753  0.51337508  0.82412353  1
  Nb  Nb100  1  0.76965673  0.02325159  0.46237437  1
  Nb  Nb101  1  0.40841212  0.25884594  0.65113128  1
  Nb  Nb102  1  0.94927825  0.33338398  0.04912445  1
  Nb  Nb103  1  0.36790258  0.42795552  0.37230273  1
  Nb  Nb104  1  0.06572814  0.20281811  0.69180541  1
  Nb  Nb105  1  0.64071355  0.93440799  0.20740357  1
  Nb  Nb106  1  0.50468859  0.63095145  0.71312708  1
  Nb  Nb107  1  0.22510871  0.55025550  0.49598602  1
  Nb  Nb108  1  0.54280941  0.74193766  0.54294591  1
  Nb  Nb109  1  0.44151859  0.98031395  0.28062713  1
  Nb  Nb110  1  0.94155685  0.07030681  0.55676666  1
  Nb  Nb111  1  0.74140438  0.36619185  0.64710690  1
  Nb  Nb112  1  0.61932754  0.90531749  0.39624582  1
  Nb  Nb113  1  0.23151639  0.28129153  0.33304092  1
  Nb  Nb114  1  0.01944844  0.58665446  0.48117459  1
  Nb  Nb115  1  0.79403432  0.20958636  1.03300725  1
  Nb  Nb116  1  0.12073555  0.59918300  0.64652689  1
  Nb  Nb117  1  0.05773263  0.31871567  0.25622511  1
  Nb  Nb118  1  0.93221105  0.84747851  0.47883065  1
  Nb  Nb119  1  0.77784114  0.41700043  0.99695107  1
  Nb  Nb120  1  0.92040836  0.28494939  0.59200729  1
  Nb  Nb121  1  0.05466706  0.93006232  0.88233027  1
  Nb  Nb122  1  0.05864564  0.39055748  0.44807604  1
  Nb  Nb123  1  0.84177082  0.65425435  0.46380507  1
  Nb  Nb124  1  0.09555878  0.67009466  0.17613679  1
