# generated using pymatgen
data_Zr2Sc2Nb
_symmetry_space_group_name_H-M   'P 1'
_cell_length_a   13.56721190
_cell_length_b   14.37784637
_cell_length_c   14.67101387
_cell_angle_alpha   88.76643521
_cell_angle_beta   91.67728932
_cell_angle_gamma   92.95699595
_symmetry_Int_Tables_number   1
_chemical_formula_structural   Zr2Sc2Nb
_chemical_formula_sum   'Zr50 Sc50 Nb25'
_cell_volume   2856.22543732
_cell_formula_units_Z   25
loop_
 _symmetry_equiv_pos_site_id
 _symmetry_equiv_pos_as_xyz
  1  'x, y, z'
loop_
 _atom_site_type_symbol
 _atom_site_label
 _atom_site_symmetry_multiplicity
 _atom_site_fract_x
 _atom_site_fract_y
 _atom_site_fract_z
 _atom_site_occupancy
  Zr  Zr0  1  0.38917339  0.90629824  0.44291592  1
  Zr  Zr1  1  0.00242930  0.10638218  0.04910484  1
  Zr  Zr2  1  0.31634568  0.52650080  0.84441741  1
  Zr  Zr3  1  0.07397366  0.59610767  0.78463300  1
  Zr  Zr4  1  0.47513939  0.45312564  0.68658158  1
  Zr  Zr5  1  0.52714772  0.49725951  0.90367304  1
  Zr  Zr6  1  0.70630360  0.12244600  0.28652955  1
  Zr  Zr7  1  0.47274251  0.64599229  0.72062752  1
  Zr  Zr8  1  0.13549440  0.00195202  0.92868833  1
  Zr  Zr9  1  0.73312215  0.56473312  0.98905045  1
  Zr  Zr10  1  0.99046448  0.45659443  0.47910803  1
  Zr  Zr11  1  0.65101852  0.58761096  0.58857770  1
  Zr  Zr12  1  0.52620941  0.05951097  0.17950530  1
  Zr  Zr13  1  0.89336696  0.71022928  0.12798706  1
  Zr  Zr14  1  0.55622570  1.04544673  -0.01941453  1
  Zr  Zr15  1  0.77596835  0.45337468  0.47061375  1
  Zr  Zr16  1  0.08711459  0.64324342  0.37405049  1
  Zr  Zr17  1  0.65247112  0.60814496  0.38266443  1
  Zr  Zr18  1  0.73766417  0.03484871  0.49893152  1
  Zr  Zr19  1  0.36873687  0.52092379  0.06724027  1
  Zr  Zr20  1  0.51806210  0.87887430  0.86028059  1
  Zr  Zr21  1  0.28142958  0.53260488  0.25583598  1
  Zr  Zr22  1  0.13371070  0.82770134  0.25251570  1
  Zr  Zr23  1  0.87024026  0.27917160  0.56671959  1
  Zr  Zr24  1  0.48759130  0.07209599  0.77981129  1
  Zr  Zr25  1  0.35024942  0.93728435  0.00987048  1
  Zr  Zr26  1  0.36399782  0.92375843  0.22758126  1
  Zr  Zr27  1  0.20977255  0.49159533  0.44442398  1
  Zr  Zr28  1  0.06965061  0.82137248  0.65038425  1
  Zr  Zr29  1  0.92212943  0.77885682  0.33051146  1
  Zr  Zr30  1  0.32809916  0.13516748  0.90223175  1
  Zr  Zr31  1  0.11366538  0.41837930  0.89124547  1
  Zr  Zr32  1  0.93714392  0.29964369  0.98329995  1
  Zr  Zr33  1  0.69364912  0.25113265  0.43436346  1
  Zr  Zr34  1  0.78335292  0.12185146  0.01849499  1
  Zr  Zr35  1  0.87558942  0.48916465  0.65123631  1
  Zr  Zr36  1  0.07773523  0.04220280  0.52924890  1
  Zr  Zr37  1  0.72530544  0.93439372  0.89197937  1
  Zr  Zr38  1  0.28865743  0.93537517  0.80262819  1
  Zr  Zr39  1  0.53858131  0.64630131  0.07513075  1
  Zr  Zr40  1  0.09870230  0.63455047  0.17113456  1
  Zr  Zr41  1  0.28797142  0.14102424  0.47950711  1
  Zr  Zr42  1  0.80750677  -0.05264851  0.33324344  1
  Zr  Zr43  1  0.50124001  0.71460761  0.26992466  1
  Zr  Zr44  1  0.86699167  0.57050280  0.30309866  1
  Zr  Zr45  1  0.08417105  0.41661846  0.67854828  1
  Zr  Zr46  1  0.51419898  0.10143826  0.41712179  1
  Zr  Zr47  1  0.58069306  0.90824215  0.32642897  1
  Zr  Zr48  1  0.54366098  0.24125515  0.03697464  1
  Zr  Zr49  1  0.05679831  0.80696961  0.84719595  1
  Sc  Sc50  1  0.71391892  0.78184090  0.03919606  1
  Sc  Sc51  1  0.05087538  0.45459243  0.27816439  1
  Sc  Sc52  1  0.68594210  0.37171829  0.67942586  1
  Sc  Sc53  1  0.44341824  0.84584710  0.66854736  1
  Sc  Sc54  1  0.41980721  0.55589223  0.48931826  1
  Sc  Sc55  1  0.88158243  0.68943206  0.69317643  1
  Sc  Sc56  1  0.88186489  0.31455347  0.32650209  1
  Sc  Sc57  1  0.49578188  0.49210830  0.26451370  1
  Sc  Sc58  1  0.91327625  0.13219462  0.42538656  1
  Sc  Sc59  1  0.45818046  0.24832229  0.60414444  1
  Sc  Sc60  1  0.75671590  0.28043409  0.14083608  1
  Sc  Sc61  1  0.10431592  0.14767065  0.28512988  1
  Sc  Sc62  1  0.89800165  0.28288821  0.77216617  1
  Sc  Sc63  1  0.88727111  0.65977240  0.49591213  1
  Sc  Sc64  1  0.87538342  0.46428975  0.12257755  1
  Sc  Sc65  1  0.17560270  0.01520582  0.14822218  1
  Sc  Sc66  1  0.94195699  0.91934395  0.15738863  1
  Sc  Sc67  1  0.70494839  0.15325356  0.82477997  1
  Sc  Sc68  1  0.09901879  0.28087319  0.44344747  1
  Sc  Sc69  1  0.39346220  0.72595584  0.93271482  1
  Sc  Sc70  1  0.08744024  0.62214055  0.58414087  1
  Sc  Sc71  1  0.87090997  0.89974847  0.73452512  1
  Sc  Sc72  1  0.29908386  0.73001156  0.35090316  1
  Sc  Sc73  1  0.72619316  0.79458589  0.47002548  1
  Sc  Sc74  1  0.56384618  0.40520076  0.47828496  1
  Sc  Sc75  1  0.83291285  0.72683899  0.87950378  1
  Sc  Sc76  1  0.34819652  0.33839837  0.96684887  1
  Sc  Sc77  1  0.65149180  0.16418393  0.62254676  1
  Sc  Sc78  1  0.72202558  0.96245815  0.13350927  1
  Sc  Sc79  1  0.26956580  0.12600790  0.69357994  1
  Sc  Sc80  1  0.25421978  0.72589747  0.75894972  1
  Sc  Sc81  1  0.31755683  0.73472272  0.13201168  1
  Sc  Sc82  1  0.28233313  0.33042104  0.76971915  1
  Sc  Sc83  1  0.51215614  0.28340889  0.82128962  1
  Sc  Sc84  1  0.27230064  0.34413138  0.57201497  1
  Sc  Sc85  1  0.37366939  0.33765791  0.38521411  1
  Sc  Sc86  1  -0.01577592  0.60403822  0.98287490  1
  Sc  Sc87  1  0.28853556  0.71956291  0.55132739  1
  Sc  Sc88  1  0.11077140  0.20652743  0.86913131  1
  Sc  Sc89  1  0.11066077  0.81807736  0.04476621  1
  Sc  Sc90  1  0.15133883  0.43656524  1.08870844  1
  Sc  Sc91  1  0.33316194  0.14838873  0.27453299  1
  Sc  Sc92  1  0.24899184  0.93730265  0.59305344  1
  Sc  Sc93  1  0.19504904  0.63144444  0.97065360  1
  Sc  Sc94  1  0.91686275  0.07791489  0.84904321  1
  Sc  Sc95  1  0.54360697  0.26627408  0.25599284  1
  Sc  Sc96  1  0.88490725  0.47875406  0.85150197  1
  Sc  Sc97  1  0.66502759  0.77562418  0.68855378  1
  Sc  Sc98  1  0.71051758  0.35471436  0.92672650  1
  Sc  Sc99  1  0.06929913  0.20876805  0.65415648  1
  Nb  Nb100  1  0.37164319  0.33629114  0.16121132  1
  Nb  Nb101  1  0.89412303  0.11550302  0.21396431  1
  Nb  Nb102  1  0.66010923  0.98106030  0.70350757  1
  Nb  Nb103  1  0.71162143  0.77230201  0.24301195  1
  Nb  Nb104  1  0.69664967  0.59140436  0.18333280  1
  Nb  Nb105  1  0.52456681  0.85359592  0.09913515  1
  Nb  Nb106  1  0.36236454  0.13305741  0.08463863  1
  Nb  Nb107  1  0.60623104  0.70222104  0.87807210  1
  Nb  Nb108  1  0.18613591  0.22864928  0.07806682  1
  Nb  Nb109  1  0.51159751  0.74040503  0.48804227  1
  Nb  Nb110  1  1.01588195  0.97071782  0.34534696  1
  Nb  Nb111  1  0.69199832  0.56121547  0.77853469  1
  Nb  Nb112  1  0.87508971  0.08564708  0.64548432  1
  Nb  Nb113  1  0.21730641  0.98084563  0.37010531  1
  Nb  Nb114  1  0.69849432  0.41880353  0.28254052  1
  Nb  Nb115  1  0.91958692  0.90535427  0.96491629  1
  Nb  Nb116  1  0.27111529  0.53344307  0.65790001  1
  Nb  Nb117  1  0.58610822  0.42898951  0.09675365  1
  Nb  Nb118  1  0.07317721  1.00527286  0.73138276  1
  Nb  Nb119  1  1.00511571  0.28362451  0.16279483  1
  Nb  Nb120  1  0.10759343  0.82696067  0.45851996  1
  Nb  Nb121  1  0.91747685  0.90545115  0.52553288  1
  Nb  Nb122  1  0.44982113  0.04215583  0.59865212  1
  Nb  Nb123  1  0.57977793  -0.07861824  0.53585376  1
  Nb  Nb124  1  0.20657326  0.32947397  0.26060098  1
