# generated using pymatgen
data_Zr2Sc2Nb
_symmetry_space_group_name_H-M   'P 1'
_cell_length_a   14.03112314
_cell_length_b   14.34459810
_cell_length_c   14.23246159
_cell_angle_alpha   89.86556995
_cell_angle_beta   90.19357147
_cell_angle_gamma   90.53040189
_symmetry_Int_Tables_number   1
_chemical_formula_structural   Zr2Sc2Nb
_chemical_formula_sum   'Zr50 Sc50 Nb25'
_cell_volume   2864.43248190
_cell_formula_units_Z   25
loop_
 _symmetry_equiv_pos_site_id
 _symmetry_equiv_pos_as_xyz
  1  'x, y, z'
loop_
 _atom_site_type_symbol
 _atom_site_label
 _atom_site_symmetry_multiplicity
 _atom_site_fract_x
 _atom_site_fract_y
 _atom_site_fract_z
 _atom_site_occupancy
  Zr  Zr0  1  0.55634172  0.07915313  0.13268903  1
  Zr  Zr1  1  0.08242407  0.27934950  0.48996209  1
  Zr  Zr2  1  0.95400346  0.74666664  0.88423442  1
  Zr  Zr3  1  0.29608898  0.76662639  0.61492198  1
  Zr  Zr4  1  0.93141441  0.45786854  0.17030625  1
  Zr  Zr5  1  0.30134027  0.67785773  0.41286333  1
  Zr  Zr6  1  0.63590063  0.52058313  0.86378853  1
  Zr  Zr7  1  0.72773798  1.00089812  0.28032172  1
  Zr  Zr8  1  0.70620056  0.79251450  0.26025552  1
  Zr  Zr9  1  0.43460725  0.26147048  0.64550852  1
  Zr  Zr10  1  0.91503003  0.96330033  0.96036279  1
  Zr  Zr11  1  0.09949974  0.33306071  0.72096664  1
  Zr  Zr12  1  0.80462253  0.76620022  0.02274575  1
  Zr  Zr13  1  0.44171717  0.22681004  0.04037910  1
  Zr  Zr14  1  0.65359121  0.63855206  0.12835115  1
  Zr  Zr15  1  0.31851329  1.01917756  0.36931209  1
  Zr  Zr16  1  0.73564482  0.57662580  0.31133985  1
  Zr  Zr17  1  0.31981294  0.22149510  0.84405778  1
  Zr  Zr18  1  0.12124932  0.05286992  0.47350809  1
  Zr  Zr19  1  0.92717811  0.26373644  0.30378476  1
  Zr  Zr20  1  0.33087868  0.03400702  0.16951538  1
  Zr  Zr21  1  0.79027264  0.50510191  0.50445518  1
  Zr  Zr22  1  0.90113286  0.86097670  0.33881261  1
  Zr  Zr23  1  0.66674659  0.60193438  0.63387539  1
  Zr  Zr24  1  0.03867016  0.59691631  0.03287992  1
  Zr  Zr25  1  0.93204609  0.08940407  0.17221029  1
  Zr  Zr26  1  0.59398154  0.08558536  0.91079659  1
  Zr  Zr27  1  0.91004798  0.89824717  0.73750426  1
  Zr  Zr28  1  0.20552121  0.17060543  0.66068261  1
  Zr  Zr29  1  0.48148042  0.08149266  0.51932844  1
  Zr  Zr30  1  0.58941426  0.71263255  0.95110211  1
  Zr  Zr31  1  0.57116606  0.51194562  0.45460951  1
  Zr  Zr32  1  0.13216320  0.27062599  0.91556509  1
  Zr  Zr33  1  0.71130388  0.43336433  0.14194515  1
  Zr  Zr34  1  0.69816301  0.14674968  0.45156603  1
  Zr  Zr35  1  0.61069927  0.91767134  0.45547171  1
  Zr  Zr36  1  0.16111664  0.50029497  0.44375450  1
  Zr  Zr37  1  0.37528973  0.03954397  0.96448711  1
  Zr  Zr38  1  0.30219759  0.99314578  0.59807117  1
  Zr  Zr39  1  0.51687453  0.69429307  0.32468258  1
  Zr  Zr40  1  0.16783277  0.36299852  0.28820426  1
  Zr  Zr41  1  0.73837150  0.73522107  0.46678482  1
  Zr  Zr42  1  0.29523012  0.20376432  0.47031982  1
  Zr  Zr43  1  0.50955413  0.90914522  0.27262859  1
  Zr  Zr44  1  0.50292708  0.33456334  0.86533698  1
  Zr  Zr45  1  0.30166337  0.82163504  0.25254377  1
  Zr  Zr46  1  0.72385285  0.36265236  0.34854564  1
  Zr  Zr47  1  0.97414619  0.45721366  0.59518940  1
  Zr  Zr48  1  0.47884172  0.89239599  0.64332306  1
  Zr  Zr49  1  0.09556057  0.94419429  0.25905860  1
  Sc  Sc50  1  0.29126603  0.56107995  0.24813016  1
  Sc  Sc51  1  0.11684544  0.94455330  0.66957327  1
  Sc  Sc52  1  0.51482208  0.28682608  0.43159494  1
  Sc  Sc53  1  0.80260898  -0.04115885  0.53749206  1
  Sc  Sc54  1  0.15835944  0.53537816  0.66198363  1
  Sc  Sc55  1  0.51740204  0.46789110  0.04416403  1
  Sc  Sc56  1  0.52335934  0.45449163  0.68880187  1
  Sc  Sc57  1  0.04503983  0.26916608  0.12362065  1
  Sc  Sc58  1  0.36529658  0.42778512  0.39356430  1
  Sc  Sc59  1  0.78179139  0.37000300  0.91234379  1
  Sc  Sc60  1  0.65789052  0.90227626  0.07406671  1
  Sc  Sc61  1  0.24449258  0.22533847  0.09398843  1
  Sc  Sc62  1  0.10792907  0.68386391  0.51767780  1
  Sc  Sc63  1  0.89258181  0.66730157  0.63129617  1
  Sc  Sc64  1  -0.04204524  0.10723314  0.61048040  1
  Sc  Sc65  1  0.50337555  0.89366363  0.85642547  1
  Sc  Sc66  1  0.72461589  0.89831887  0.86630150  1
  Sc  Sc67  1  0.64262062  0.05042901  0.66589479  1
  Sc  Sc68  1  0.55291496  0.29784227  0.21705477  1
  Sc  Sc69  1  0.11415334  0.06167212  0.02332996  1
  Sc  Sc70  1  0.45273237  0.87035401  0.07796971  1
  Sc  Sc71  1  0.66190986  0.34026650  0.57346993  1
  Sc  Sc72  1  0.86155023  0.28435458  0.51811446  1
  Sc  Sc73  1  0.76490805  0.68094916  0.80986844  1
  Sc  Sc74  1  0.03382438  0.10160153  0.80464719  1
  Sc  Sc75  1  0.93349287  0.65163231  0.40666789  1
  Sc  Sc76  1  0.03619443  0.81760621  0.08428366  1
  Sc  Sc77  1  0.92014456  0.19242248  0.95437829  1
  Sc  Sc78  1  0.43741308  0.07520979  0.75201162  1
  Sc  Sc79  1  0.66069244  0.25341296  0.76500258  1
  Sc  Sc80  1  0.09671047  0.74001789  0.72507623  1
  Sc  Sc81  1  0.99292614  0.86097461  0.52050032  1
  Sc  Sc82  1  0.68508619  0.82314600  0.66360756  1
  Sc  Sc83  1  0.14086816  0.15051325  0.28672209  1
  Sc  Sc84  1  0.36230288  0.22146178  0.27401094  1
  Sc  Sc85  1  0.49853670  0.69499375  0.74969199  1
  Sc  Sc86  1  0.51627782  0.71305778  0.53108548  1
  Sc  Sc87  1  0.90362862  0.68598824  0.19503143  1
  Sc  Sc88  1  0.82289085  0.55993688  0.99302747  1
  Sc  Sc89  1  0.91381644  0.07579739  0.38969314  1
  Sc  Sc90  1  0.95918642  0.44558407  0.38054846  1
  Sc  Sc91  1  0.65172186  0.25459447  0.02234205  1
  Sc  Sc92  1  0.43639675  0.65813039  0.13081965  1
  Sc  Sc93  1  0.37140687  0.73587013  0.93982066  1
  Sc  Sc94  1  0.36581664  0.55390138  0.58963019  1
  Sc  Sc95  1  0.23666372  0.88368271  1.03045034  1
  Sc  Sc96  1  0.15634854  0.49014714  0.87560760  1
  Sc  Sc97  1  0.89257848  0.28850176  0.74311884  1
  Sc  Sc98  1  0.80521217  0.08755825  0.80834516  1
  Sc  Sc99  1  0.95271527  0.53069547  0.80559197  1
  Nb  Nb100  1  0.28925738  0.86038063  0.79723003  1
  Nb  Nb101  1  0.28801909  0.63521219  0.78371366  1
  Nb  Nb102  1  0.77246250  0.45760726  0.71291947  1
  Nb  Nb103  1  0.76455015  0.07972469  0.05283381  1
  Nb  Nb104  1  0.52874926  0.49882235  0.25765342  1
  Nb  Nb105  1  0.20018963  0.69237265  0.12584126  1
  Nb  Nb106  1  0.53348277  0.10124641  0.32833749  1
  Nb  Nb107  1  0.42560767  0.53728468  0.86917147  1
  Nb  Nb108  1  0.23003858  0.03884062  0.82853855  1
  Nb  Nb109  1  0.15812417  0.44219544  0.09623967  1
  Nb  Nb110  1  0.98012862  0.39766698  0.97091016  1
  Nb  Nb111  1  0.31979968  0.38162746  0.96557738  1
  Nb  Nb112  1  0.19711543  0.86581836  0.44733345  1
  Nb  Nb113  1  0.36012328  0.39987563  0.16187677  1
  Nb  Nb114  1  0.83849085  0.28507869  0.11268318  1
  Nb  Nb115  1  0.10316662  0.74886081  0.30906796  1
  Nb  Nb116  1  0.72978806  0.18750018  0.23815980  1
  Nb  Nb117  1  0.31248389  0.40963161  0.75791042  1
  Nb  Nb118  1  0.40529609  0.86268927  0.44745768  1
  Nb  Nb119  1  0.86264880  0.90957462  0.15395969  1
  Nb  Nb120  1  0.09332578  0.89830314  0.87457747  1
  Nb  Nb121  1  0.25841235  0.36605795  0.57533440  1
  Nb  Nb122  1  0.16393827  0.71210947  0.92099847  1
  Nb  Nb123  1  0.28965359  0.56190746  0.01608349  1
  Nb  Nb124  1  0.08580882  0.57015536  0.25376081  1
