# generated using pymatgen
data_Zr2Sc2Nb
_symmetry_space_group_name_H-M   'P 1'
_cell_length_a   14.46864339
_cell_length_b   14.55510166
_cell_length_c   13.63655113
_cell_angle_alpha   90.02823741
_cell_angle_beta   88.09016607
_cell_angle_gamma   91.03435508
_symmetry_Int_Tables_number   1
_chemical_formula_structural   Zr2Sc2Nb
_chemical_formula_sum   'Zr50 Sc50 Nb25'
_cell_volume   2869.69348404
_cell_formula_units_Z   25
loop_
 _symmetry_equiv_pos_site_id
 _symmetry_equiv_pos_as_xyz
  1  'x, y, z'
loop_
 _atom_site_type_symbol
 _atom_site_label
 _atom_site_symmetry_multiplicity
 _atom_site_fract_x
 _atom_site_fract_y
 _atom_site_fract_z
 _atom_site_occupancy
  Zr  Zr0  1  0.61288901  0.44220598  0.07872798  1
  Zr  Zr1  1  0.44782552  0.74390203  0.69962274  1
  Zr  Zr2  1  0.09479428  0.04697272  0.28831593  1
  Zr  Zr3  1  0.67111370  0.08500766  0.54983259  1
  Zr  Zr4  1  0.19618975  0.72378008  0.70633306  1
  Zr  Zr5  1  0.24087264  0.08975629  0.84818767  1
  Zr  Zr6  1  0.23419033  0.42412812  0.54811698  1
  Zr  Zr7  1  0.86050082  0.12778889  0.60994668  1
  Zr  Zr8  1  0.27307830  0.74758833  0.48884132  1
  Zr  Zr9  1  0.20507138  0.28362438  0.72851791  1
  Zr  Zr10  1  0.39902217  0.27744207  0.82626434  1
  Zr  Zr11  1  0.87681794  0.54406602  0.59804634  1
  Zr  Zr12  1  0.82898191  0.80731054  0.85679183  1
  Zr  Zr13  1  0.02826939  0.41697706  0.47419436  1
  Zr  Zr14  1  0.32896206  0.59138660  0.62041984  1
  Zr  Zr15  1  0.01625307  0.84980574  0.29952275  1
  Zr  Zr16  1  0.63569830  0.46573391  0.49157540  1
  Zr  Zr17  1  0.07614702  0.22439855  0.89024229  1
  Zr  Zr18  1  0.45697918  0.06547957  0.50851004  1
  Zr  Zr19  1  0.70753822  0.66528876  0.43729092  1
  Zr  Zr20  1  1.02327580  0.51055578  0.07851370  1
  Zr  Zr21  1  0.62163421  0.23705269  0.15864371  1
  Zr  Zr22  1  0.59292796  0.80123590  0.32919304  1
  Zr  Zr23  1  0.91155975  0.35390927  0.94910947  1
  Zr  Zr24  1  0.24611397  0.31914205  0.97328532  1
  Zr  Zr25  1  0.34305968  0.63672698  0.86398480  1
  Zr  Zr26  1  0.45329852  0.11874015  0.72080407  1
  Zr  Zr27  1  0.80685424  0.83461437  0.32212143  1
  Zr  Zr28  1  0.42731908  0.97606367  0.88864346  1
  Zr  Zr29  1  0.67581210  0.12756650  0.77221885  1
  Zr  Zr30  1  0.86996541  0.92550690  0.52053580  1
  Zr  Zr31  1  0.95748225  0.21794879  0.44461273  1
  Zr  Zr32  1  0.66434289  0.86248953  0.52759541  1
  Zr  Zr33  1  0.54850614  0.14595472  0.94304439  1
  Zr  Zr34  1  0.11390134  0.60940227  0.49893358  1
  Zr  Zr35  1  0.34518205  0.12190469  1.02813567  1
  Zr  Zr36  1  0.47550848  0.46190273  0.70310227  1
  Zr  Zr37  1  0.87509189  0.78976733  0.08770750  1
  Zr  Zr38  1  0.57147289  0.58029360  0.85729429  1
  Zr  Zr39  1  0.53999827  0.02886546  0.11952532  1
  Zr  Zr40  1  0.59370739  0.34488368  0.86964499  1
  Zr  Zr41  1  -0.01656252  0.69403227  0.71841657  1
  Zr  Zr42  1  0.27112002  0.27098118  0.18215176  1
  Zr  Zr43  1  0.71513945  0.67475532  0.21061667  1
  Zr  Zr44  1  0.91559265  0.62558854  0.94779694  1
  Zr  Zr45  1  0.70351109  0.46119945  0.70704717  1
  Zr  Zr46  1  0.80569144  0.75821492  0.63163140  1
  Zr  Zr47  1  0.59127647  0.28197788  0.64848167  1
  Zr  Zr48  1  0.47541463  0.78179323  0.91797162  1
  Zr  Zr49  1  0.69565770  0.41110692  0.28316256  1
  Sc  Sc50  1  0.45138433  0.30284484  0.06015367  1
  Sc  Sc51  1  0.27011447  0.46435825  0.79611034  1
  Sc  Sc52  1  0.94160012  0.64987235  0.23733034  1
  Sc  Sc53  1  0.44458423  0.16652733  0.26752743  1
  Sc  Sc54  1  0.49001048  0.37170911  0.28268622  1
  Sc  Sc55  1  0.94048039  0.38257169  0.26476797  1
  Sc  Sc56  1  0.76891942  0.22311981  0.33760840  1
  Sc  Sc57  1  0.03698140  0.82104403  0.89714565  1
  Sc  Sc58  1  0.94856116  0.94287317  0.72595400  1
  Sc  Sc59  1  0.06231776  0.04406905  0.50877521  1
  Sc  Sc60  1  0.69147069  0.69776618  -0.00627315  1
  Sc  Sc61  1  0.82860063  -0.00977886  0.95193658  1
  Sc  Sc62  1  0.14764105  0.93684233  0.72202821  1
  Sc  Sc63  1  0.79536905  0.33214197  0.54002429  1
  Sc  Sc64  1  0.49219511  0.61431992  0.07101307  1
  Sc  Sc65  1  0.95161378  0.97984145  0.13263143  1
  Sc  Sc66  1  0.23170788  0.86403588  0.26214387  1
  Sc  Sc67  1  0.38054050  0.26682855  0.57179493  1
  Sc  Sc68  1  0.14835174  0.46178007  0.26991126  1
  Sc  Sc69  1  0.53298364  0.81452145  0.12272702  1
  Sc  Sc70  1  0.92803550  0.70639449  0.45186336  1
  Sc  Sc71  1  0.15711890  0.67342952  0.28909481  1
  Sc  Sc72  1  0.07227749  0.82766501  0.53829816  1
  Sc  Sc73  1  0.39616569  0.72988706  0.29080919  1
  Sc  Sc74  1  0.25500131  0.95472640  0.46359837  1
  Sc  Sc75  1  0.11637834  0.25776670  0.31480598  1
  Sc  Sc76  1  0.34396032  0.92388258  0.67861060  1
  Sc  Sc77  1  0.64293803  1.01752649  0.33570056  1
  Sc  Sc78  1  0.45498799  0.85132103  0.49801889  1
  Sc  Sc79  1  0.87051045  0.03616268  0.34489156  1
  Sc  Sc80  1  0.81538070  0.51624705  0.12306467  1
  Sc  Sc81  1  0.09437070  0.51238312  0.68592463  1
  Sc  Sc82  1  0.43113814  0.95106056  0.30053405  1
  Sc  Sc83  1  0.84023206  0.51432709  0.38517505  1
  Sc  Sc84  1  0.09005297  0.72641545  0.08262486  1
  Sc  Sc85  1  0.25643918  0.83326410  0.89466528  1
  Sc  Sc86  1  0.61805381  0.63454648  0.63503975  1
  Sc  Sc87  1  0.98592620  0.31747641  0.68218461  1
  Sc  Sc88  1  0.76080501  0.09301923  0.14421402  1
  Sc  Sc89  1  0.31410651  0.55700182  0.38554176  1
  Sc  Sc90  1  0.35791715  0.47619203  0.17505802  1
  Sc  Sc91  1  0.30629990  0.72174756  0.08509033  1
  Sc  Sc92  1  0.55487164  0.94342312  0.69875111  1
  Sc  Sc93  1  0.22383613  0.52585650  0.02949989  1
  Sc  Sc94  1  0.54515194  0.56945213  0.29957057  1
  Sc  Sc95  1  0.63371558  0.93335817  0.93271013  1
  Sc  Sc96  1  0.57173606  0.25199924  0.43214829  1
  Sc  Sc97  1  0.27672439  0.14853917  0.40627897  1
  Sc  Sc98  1  0.88826469  0.14056016  0.81837454  1
  Sc  Sc99  1  0.15865704  0.94056903  0.06876587  1
  Nb  Nb100  1  0.36562580  0.92071185  0.08407272  1
  Nb  Nb101  1  0.12757927  0.13985990  0.08450082  1
  Nb  Nb102  1  0.08597716  0.42907679  0.88801204  1
  Nb  Nb103  1  0.06797507  0.12461187  0.70227598  1
  Nb  Nb104  1  0.78812800  0.30629008  0.76919486  1
  Nb  Nb105  1  0.71829955  0.89286088  0.14679739  1
  Nb  Nb106  1  0.73788483  0.22776731  0.96140678  1
  Nb  Nb107  1  0.75381928  0.95492216  0.71680708  1
  Nb  Nb108  1  0.42177905  0.46200603  -0.06030843  1
  Nb  Nb109  1  0.14421685  0.24682282  0.53266026  1
  Nb  Nb110  1  0.25573857  0.10455451  0.62610091  1
  Nb  Nb111  1  0.75148229  0.46261881  0.92445695  1
  Nb  Nb112  1  0.04314371  0.02740677  0.91163496  1
  Nb  Nb113  1  0.77457894  0.62595249  0.79199009  1
  Nb  Nb114  1  0.30385192  0.34646486  0.37462815  1
  Nb  Nb115  1  0.91480483  0.49029460  0.79520245  1
  Nb  Nb116  1  0.44822035  0.44650586  0.48959027  1
  Nb  Nb117  1  0.95164726  0.18410553  0.21586394  1
  Nb  Nb118  1  0.92924801  0.16464780  0.02717664  1
  Nb  Nb119  1  0.27674863  0.05903340  0.21069407  1
  Nb  Nb120  1  0.48331288  0.64910195  0.48635328  1
  Nb  Nb121  1  0.06616880  0.32024080  0.09703131  1
  Nb  Nb122  1  0.11529757  0.62181021  0.87863056  1
  Nb  Nb123  1  0.80819826  0.31182137  0.12367523  1
  Nb  Nb124  1  0.64474113  0.78020216  0.78141993  1
