# generated using pymatgen
data_Zr2Sc2Nb
_symmetry_space_group_name_H-M   'P 1'
_cell_length_a   13.90258374
_cell_length_b   14.46401714
_cell_length_c   14.21838619
_cell_angle_alpha   89.40249322
_cell_angle_beta   89.42637369
_cell_angle_gamma   90.69181513
_symmetry_Int_Tables_number   1
_chemical_formula_structural   Zr2Sc2Nb
_chemical_formula_sum   'Zr50 Sc50 Nb25'
_cell_volume   2858.62479431
_cell_formula_units_Z   25
loop_
 _symmetry_equiv_pos_site_id
 _symmetry_equiv_pos_as_xyz
  1  'x, y, z'
loop_
 _atom_site_type_symbol
 _atom_site_label
 _atom_site_symmetry_multiplicity
 _atom_site_fract_x
 _atom_site_fract_y
 _atom_site_fract_z
 _atom_site_occupancy
  Zr  Zr0  1  0.54687983  0.60116665  0.09011409  1
  Zr  Zr1  1  0.86730268  0.19045206  0.84336631  1
  Zr  Zr2  1  0.06585860  0.52348045  0.89068501  1
  Zr  Zr3  1  0.03704798  0.68202313  0.33688518  1
  Zr  Zr4  1  0.35930202  0.50036818  0.17718289  1
  Zr  Zr5  1  0.36522110  0.07862329  0.59079776  1
  Zr  Zr6  1  0.21491949  0.17648045  0.70662883  1
  Zr  Zr7  1  0.25666770  0.62433615  0.90108017  1
  Zr  Zr8  1  0.41433869  0.92807169  0.72014220  1
  Zr  Zr9  1  0.07670840  0.71726044  0.56179441  1
  Zr  Zr10  1  0.28800655  0.04100336  0.88988635  1
  Zr  Zr11  1  0.32433888  0.31780090  0.27405908  1
  Zr  Zr12  1  0.01432386  0.10060858  0.11069884  1
  Zr  Zr13  1  0.27950518  0.67287587  0.47190697  1
  Zr  Zr14  1  0.06034007  0.30778971  0.76766252  1
  Zr  Zr15  1  0.90460930  0.80335388  0.47472631  1
  Zr  Zr16  1  0.23688964  0.42475520  0.81281762  1
  Zr  Zr17  1  0.59642155  0.81586170  0.71236644  1
  Zr  Zr18  1  0.66573049  0.88265953  0.91894670  1
  Zr  Zr19  1  0.75121448  0.91699963  0.59040343  1
  Zr  Zr20  1  0.63804035  0.70774633  0.29257884  1
  Zr  Zr21  1  0.54503862  0.21140774  0.59804527  1
  Zr  Zr22  1  0.48932584  0.70482737  0.89169675  1
  Zr  Zr23  1  -0.01705877  0.90465675  0.63709630  1
  Zr  Zr24  1  0.08027429  0.12286933  0.91000934  1
  Zr  Zr25  1  0.35025143  0.93134691  0.10143712  1
  Zr  Zr26  1  0.61591208  1.03543328  0.70613753  1
  Zr  Zr27  1  0.46405292  0.14590371  1.01267326  1
  Zr  Zr28  1  0.37596274  0.32730522  0.67802797  1
  Zr  Zr29  1  0.81570129  0.02961223  1.01334913  1
  Zr  Zr30  1  0.24714765  0.13221749  0.09026239  1
  Zr  Zr31  1  0.96149568  0.90451287  0.09004326  1
  Zr  Zr32  1  0.13092386  0.45951724  0.26757138  1
  Zr  Zr33  1  0.47459760  0.94470215  0.91558994  1
  Zr  Zr34  1  0.32268069  0.70334268  0.09120303  1
  Zr  Zr35  1  0.46512266  0.15865547  0.39836122  1
  Zr  Zr36  1  0.26712796  0.25065408  0.90442256  1
  Zr  Zr37  1  0.07571498  0.75224002  0.97409754  1
  Zr  Zr38  1  0.89478440  0.59666798  0.50584434  1
  Zr  Zr39  1  0.01969690  0.93335311  0.86893882  1
  Zr  Zr40  1  0.91328119  0.69123108  0.12196467  1
  Zr  Zr41  1  0.80743709  0.13168695  0.63880792  1
  Zr  Zr42  1  0.13175964  0.79542639  0.17875735  1
  Zr  Zr43  1  0.04561433  0.22107518  0.55485307  1
  Zr  Zr44  1  0.94213084  0.45839972  0.07084619  1
  Zr  Zr45  1  0.73673675  0.50779069  0.38175419  1
  Zr  Zr46  1  0.88738436  0.62248910  0.88878375  1
  Zr  Zr47  1  0.56030053  0.47176236  0.26995235  1
  Zr  Zr48  1  0.17219735  0.39837208  0.59067276  1
  Zr  Zr49  1  1.00378191  0.09304445  0.70850759  1
  Sc  Sc50  1  0.29505463  0.25393461  0.49672809  1
  Sc  Sc51  1  0.52218339  0.80537196  0.09506683  1
  Sc  Sc52  1  0.81906685  0.97141087  0.78919367  1
  Sc  Sc53  1  0.48390257  0.76487387  0.49674536  1
  Sc  Sc54  1  0.15672324  0.05265179  0.50754511  1
  Sc  Sc55  1  0.11489436  0.59837230  0.10539742  1
  Sc  Sc56  1  0.05533239  0.73761471  0.77272889  1
  Sc  Sc57  1  0.74982928  0.88006960  0.16751017  1
  Sc  Sc58  1  0.87850864  0.32710487  0.66641913  1
  Sc  Sc59  1  0.62905605  0.07384884  0.27725416  1
  Sc  Sc60  1  0.20823180  0.43327360  0.03746054  1
  Sc  Sc61  1  0.49541265  0.36471541  0.45720331  1
  Sc  Sc62  1  0.30760589  0.47161457  0.40661846  1
  Sc  Sc63  1  0.73355507  0.90322564  0.37518794  1
  Sc  Sc64  1  0.86918726  0.21652937  0.43294286  1
  Sc  Sc65  1  0.12623563  0.86088796  0.40615198  1
  Sc  Sc66  1  0.68621775  0.18859203  0.11053633  1
  Sc  Sc67  1  0.92404703  0.51510637  0.27802018  1
  Sc  Sc68  1  0.51446318  0.89433718  0.28718224  1
  Sc  Sc69  1  0.17299281  0.98503151  0.23273947  1
  Sc  Sc70  1  0.87950578  0.24968625  0.04388739  1
  Sc  Sc71  1  0.65156630  0.11080097  0.89828024  1
  Sc  Sc72  1  0.60012902  0.50480320  0.86325092  1
  Sc  Sc73  1  0.53333622  0.96569641  0.51572512  1
  Sc  Sc74  1  0.95323604  0.40393731  0.46518446  1
  Sc  Sc75  1  0.76298054  0.51358496  0.71243857  1
  Sc  Sc76  1  0.71415186  0.35120357  0.53831654  1
  Sc  Sc77  1  0.18322244  0.95830542  0.71921260  1
  Sc  Sc78  1  0.43795903  0.66048774  0.29733406  1
  Sc  Sc79  1  0.44993580  0.14360468  0.78640384  1
  Sc  Sc80  1  0.68621374  0.10780217  0.47486344  1
  Sc  Sc81  1  0.47777011  0.33281057  0.86969653  1
  Sc  Sc82  1  0.27627981  0.82812933  0.88271317  1
  Sc  Sc83  1  0.51716212  0.26451239  0.21345877  1
  Sc  Sc84  1  0.13010479  0.27699842  0.16721576  1
  Sc  Sc85  1  0.70559421  0.70553371  0.52063351  1
  Sc  Sc86  1  0.54410415  0.56490251  0.47478431  1
  Sc  Sc87  1  0.28539508  0.86215462  0.55526742  1
  Sc  Sc88  1  0.34349737  -0.01762616  0.38848798  1
  Sc  Sc89  1  1.03825201  0.12004177  0.32617111  1
  Sc  Sc90  1  0.83812753  0.74252518  0.70023568  1
  Sc  Sc91  1  0.92769889  0.29696549  0.24699360  1
  Sc  Sc92  1  0.69001331  0.28616909  0.33185652  1
  Sc  Sc93  1  0.56663224  0.40123518  0.06311226  1
  Sc  Sc94  1  0.70947487  0.32369609  0.93045312  1
  Sc  Sc95  1  0.90983362  0.01646492  0.46315714  1
  Sc  Sc96  1  0.20323697  0.59340961  0.68138979  1
  Sc  Sc97  1  0.37814108  0.71663783  0.69573048  1
  Sc  Sc98  1  0.71704905  0.71728215  0.04154117  1
  Sc  Sc99  1  0.99528793  0.51934442  0.68459038  1
  Nb  Nb100  1  0.36579356  0.30871614  0.07381651  1
  Nb  Nb101  1  0.37850079  0.51713667  0.59490424  1
  Nb  Nb102  1  0.22749718  0.63445572  0.28260713  1
  Nb  Nb103  1  0.74066009  0.57091198  0.18425707  1
  Nb  Nb104  1  0.05989685  0.31138906  0.96248422  1
  Nb  Nb105  1  0.82995727  0.70715532  0.31634381  1
  Nb  Nb106  1  0.94810027  0.89596330  0.28529631  1
  Nb  Nb107  1  0.75473493  0.51862357  0.99580989  1
  Nb  Nb108  1  0.24980640  0.15160825  0.32027378  1
  Nb  Nb109  1  0.15845068  0.94714386  0.02125075  1
  Nb  Nb110  1  0.41350476  0.08789862  0.20941471  1
  Nb  Nb111  1  0.41122352  0.52785092  0.77910242  1
  Nb  Nb112  1  0.84377192  0.07067533  0.23862312  1
  Nb  Nb113  1  0.11155262  0.54007353  0.46440517  1
  Nb  Nb114  1  0.67064396  0.27111303  0.74002182  1
  Nb  Nb115  1  0.58326299  0.00143187  0.09020748  1
  Nb  Nb116  1  0.69380539  0.68351961  0.84278887  1
  Nb  Nb117  1  0.40019279  0.50476368  -0.02546476  1
  Nb  Nb118  1  0.89128258  0.40460456  0.86719454  1
  Nb  Nb119  1  0.86298364  0.81361461  0.92677115  1
  Nb  Nb120  1  0.56902882  0.62094255  0.68009710  1
  Nb  Nb121  1  0.30809724  0.81340722  0.29086226  1
  Nb  Nb122  1  0.55913698  0.42636340  0.66452690  1
  Nb  Nb123  1  0.12480029  0.30716881  0.38791121  1
  Nb  Nb124  1  0.75187837  0.38958067  0.16103930  1
