# generated using pymatgen
data_Zr2Sc2Nb
_symmetry_space_group_name_H-M   'P 1'
_cell_length_a   14.35502723
_cell_length_b   14.26639458
_cell_length_c   14.01503810
_cell_angle_alpha   86.24767752
_cell_angle_beta   89.72139219
_cell_angle_gamma   88.81980400
_symmetry_Int_Tables_number   1
_chemical_formula_structural   Zr2Sc2Nb
_chemical_formula_sum   'Zr50 Sc50 Nb25'
_cell_volume   2863.42420011
_cell_formula_units_Z   25
loop_
 _symmetry_equiv_pos_site_id
 _symmetry_equiv_pos_as_xyz
  1  'x, y, z'
loop_
 _atom_site_type_symbol
 _atom_site_label
 _atom_site_symmetry_multiplicity
 _atom_site_fract_x
 _atom_site_fract_y
 _atom_site_fract_z
 _atom_site_occupancy
  Zr  Zr0  1  0.30393472  0.89584775  0.70349148  1
  Zr  Zr1  1  0.92627882  0.46362241  0.90934238  1
  Zr  Zr2  1  0.71976141  0.64251306  0.36699029  1
  Zr  Zr3  1  0.69018379  0.83754286  0.53276953  1
  Zr  Zr4  1  0.66522408  0.83157456  0.94363758  1
  Zr  Zr5  1  0.31725946  0.52062939  0.74113510  1
  Zr  Zr6  1  0.14711150  0.03899101  0.72540364  1
  Zr  Zr7  1  0.07279109  0.98509708  0.12887183  1
  Zr  Zr8  1  0.47486826  0.81397593  0.02021866  1
  Zr  Zr9  1  0.28293650  0.23866455  1.00181673  1
  Zr  Zr10  1  0.06813109  0.45640547  0.24545192  1
  Zr  Zr11  1  0.72604910  0.93711068  0.73487373  1
  Zr  Zr12  1  0.30531904  0.45322443  0.97404056  1
  Zr  Zr13  1  0.59822548  0.68132199  0.17395021  1
  Zr  Zr14  1  0.98619788  0.85244251  0.27935630  1
  Zr  Zr15  1  0.92577519  0.53984052  0.51807780  1
  Zr  Zr16  1  0.85222416  0.95372828  0.11725935  1
  Zr  Zr17  1  0.02636736  0.41976411  0.67917296  1
  Zr  Zr18  1  0.77383217  0.86351565  0.32325998  1
  Zr  Zr19  1  0.71642056  0.46326880  0.93714729  1
  Zr  Zr20  1  0.87570401  0.87409640  0.89332163  1
  Zr  Zr21  1  0.42629514  0.34292572  0.40247498  1
  Zr  Zr22  1  0.55940475  0.49247907  0.48907775  1
  Zr  Zr23  1  0.63721238  0.72524888  0.76541908  1
  Zr  Zr24  1  0.74373412  0.45462420  0.53077548  1
  Zr  Zr25  1  0.88152798  0.15308756  0.12440549  1
  Zr  Zr26  1  0.50730067  0.90720674  0.78786920  1
  Zr  Zr27  1  0.64419199  0.30349338  0.66994967  1
  Zr  Zr28  1  0.03188252  0.95871333  0.44694965  1
  Zr  Zr29  1  0.44843812  0.39961287  0.64369038  1
  Zr  Zr30  1  0.08973249  0.19821621  0.10191183  1
  Zr  Zr31  1  0.58561380  0.10469371  0.77572538  1
  Zr  Zr32  1  0.09267505  0.88850887  0.87584266  1
  Zr  Zr33  1  0.06548084  0.37522753  0.46338180  1
  Zr  Zr34  1  0.30180439  0.71144217  0.60176168  1
  Zr  Zr35  1  0.07122773  0.85116815  0.65176047  1
  Zr  Zr36  1  0.51818503  0.69986267  0.43244648  1
  Zr  Zr37  1  0.56436118  0.26163759  0.24365946  1
  Zr  Zr38  1  0.29091213  0.15851083  0.65723510  1
  Zr  Zr39  1  0.72164788  0.34012609  0.11901817  1
  Zr  Zr40  1  0.50305407  0.05210898  0.19617564  1
  Zr  Zr41  1  0.63381713  0.90274630  0.14099700  1
  Zr  Zr42  1  0.35871196  0.06799366  0.83013903  1
  Zr  Zr43  1  0.02033678  0.21045745  0.68387634  1
  Zr  Zr44  1  0.24723734  0.78509015  0.10669353  1
  Zr  Zr45  1  0.96115539  0.06404773  0.93488829  1
  Zr  Zr46  1  0.40246663  0.61983630  0.06697027  1
  Zr  Zr47  1  1.00971014  0.23930477  0.30702857  1
  Zr  Zr48  1  0.85928879  0.78358792  0.69096725  1
  Zr  Zr49  1  0.28406017  0.67489660  0.33303124  1
  Sc  Sc50  1  0.21348550  0.31366375  0.79418439  1
  Sc  Sc51  1  0.71857366  0.05377454  0.42492529  1
  Sc  Sc52  1  0.79349483  0.23582783  0.31350849  1
  Sc  Sc53  1  0.42331510  0.82426684  0.23233027  1
  Sc  Sc54  1  0.19994759  0.71692380  0.78566368  1
  Sc  Sc55  1  0.77274813  0.54547455  0.12832083  1
  Sc  Sc56  1  0.26020486  0.34838176  0.55465498  1
  Sc  Sc57  1  0.30092521  -0.00009876  0.11358951  1
  Sc  Sc58  1  1.01367184  0.79818380  0.05463703  1
  Sc  Sc59  1  0.80285712  0.66139835  0.92207987  1
  Sc  Sc60  1  0.50892388  0.02856846  0.97856308  1
  Sc  Sc61  1  0.64023853  0.49896300  0.73424867  1
  Sc  Sc62  1  0.75075694  0.13277077  0.60311319  1
  Sc  Sc63  1  0.84981486  0.57292720  0.72389915  1
  Sc  Sc64  1  0.02861770  0.26998725  0.89227560  1
  Sc  Sc65  1  0.13468976  0.76085469  0.46519510  1
  Sc  Sc66  1  0.93547647  0.36269995  0.11345141  1
  Sc  Sc67  1  0.65029694  0.45369098  0.29632108  1
  Sc  Sc68  1  0.93667268  0.00737738  0.70274465  1
  Sc  Sc69  1  0.41687348  0.99571489  0.55574888  1
  Sc  Sc70  1  0.29732543  0.87257523  0.91645881  1
  Sc  Sc71  1  0.79844043  0.75616505  0.12282656  1
  Sc  Sc72  1  0.73790412  0.03167049  0.94160669  1
  Sc  Sc73  1  0.55497743  0.91464261  0.38020456  1
  Sc  Sc74  1  0.48208565  0.28852883  0.03923402  1
  Sc  Sc75  1  0.65916429  0.15840711  0.06789467  1
  Sc  Sc76  1  0.81626133  0.16041526  0.78973387  1
  Sc  Sc77  1  0.87075889  0.43637076  0.33639492  1
  Sc  Sc78  1  0.22301449  0.96778186  0.50806656  1
  Sc  Sc79  1  0.91086336  0.64335447  0.28272821  1
  Sc  Sc80  1  0.63771647  0.28356788  0.88363405  1
  Sc  Sc81  1  0.17211553  0.08028721  0.93509991  1
  Sc  Sc82  1  0.64043578  0.27776621  0.45641968  1
  Sc  Sc83  1  0.35324469  0.19114844  0.22407373  1
  Sc  Sc84  1  0.12158284  0.51854399  0.82518293  1
  Sc  Sc85  1  0.69320084  0.64518333  0.57922562  1
  Sc  Sc86  1  0.83071038  0.36282008  0.75263887  1
  Sc  Sc87  1  0.48691534  0.19155494  0.59356641  1
  Sc  Sc88  1  0.87961900  0.30725295  0.54187749  1
  Sc  Sc89  1  0.91166020  0.74850633  0.47685341  1
  Sc  Sc90  1  0.45380660  0.55620411  0.28460956  1
  Sc  Sc91  1  0.10666397  0.69054195  0.22072453  1
  Sc  Sc92  1  0.49100190  0.47667958  0.88089150  1
  Sc  Sc93  1  0.42772667  0.26870469  0.81775873  1
  Sc  Sc94  1  0.99546928  0.58244006  0.06832622  1
  Sc  Sc95  1  0.41892087  0.69943854  0.83302743  1
  Sc  Sc96  1  0.16135340  0.08487910  0.30004748  1
  Sc  Sc97  1  -0.00057051  0.69338887  0.85550837  1
  Sc  Sc98  1  0.12515925  0.16305613  0.50744497  1
  Sc  Sc99  1  0.17699507  0.53944329  0.57311330  1
  Nb  Nb100  1  0.70372380  0.06288373  0.23638846  1
  Nb  Nb101  1  0.51945424  0.11969892  0.39401259  1
  Nb  Nb102  1  0.85121234  0.94183945  0.53014220  1
  Nb  Nb103  1  0.32907123  0.16072066  0.44416598  1
  Nb  Nb104  1  0.25151468  0.47181961  0.34986148  1
  Nb  Nb105  1  0.20501072  0.87712288  0.29231258  1
  Nb  Nb106  1  0.90431988  0.04272722  0.30821072  1
  Nb  Nb107  1  0.60035658  1.00164992  0.59063589  1
  Nb  Nb108  1  0.48477805  0.61171453  0.64752850  1
  Nb  Nb109  1  0.11759054  0.41766328  0.01085332  1
  Nb  Nb110  1  0.83201554  0.26432732  0.95939442  1
  Nb  Nb111  1  0.49898444  0.80531666  0.61133400  1
  Nb  Nb112  1  0.36703086  0.55027080  0.49553521  1
  Nb  Nb113  1  0.03655658  0.65265683  0.64719158  1
  Nb  Nb114  1  0.59786766  0.63454264  0.97112973  1
  Nb  Nb115  1  0.18441245  0.64260899  -0.01434733  1
  Nb  Nb116  1  0.35659340  0.99774862  0.33749074  1
  Nb  Nb117  1  0.92486263  0.12462457  0.48717226  1
  Nb  Nb118  1  0.23302809  0.54607517  0.15470581  1
  Nb  Nb119  1  0.55599298  0.47507088  0.09901916  1
  Nb  Nb120  1  0.20705168  0.34107881  0.16196507  1
  Nb  Nb121  1  0.35817894  0.82273397  0.44573903  1
  Nb  Nb122  1  0.21378034  0.28968207  0.34565344  1
  Nb  Nb123  1  0.08125292  0.58216158  0.39868052  1
  Nb  Nb124  1  0.38318923  0.40055763  0.18688565  1
