# generated using pymatgen
data_Zr2Sc2Nb
_symmetry_space_group_name_H-M   'P 1'
_cell_length_a   13.81997769
_cell_length_b   14.10345063
_cell_length_c   14.78471187
_cell_angle_alpha   89.90400189
_cell_angle_beta   89.26223426
_cell_angle_gamma   90.09695940
_symmetry_Int_Tables_number   1
_chemical_formula_structural   Zr2Sc2Nb
_chemical_formula_sum   'Zr50 Sc50 Nb25'
_cell_volume   2881.43175383
_cell_formula_units_Z   25
loop_
 _symmetry_equiv_pos_site_id
 _symmetry_equiv_pos_as_xyz
  1  'x, y, z'
loop_
 _atom_site_type_symbol
 _atom_site_label
 _atom_site_symmetry_multiplicity
 _atom_site_fract_x
 _atom_site_fract_y
 _atom_site_fract_z
 _atom_site_occupancy
  Zr  Zr0  1  0.99820214  0.75791991  0.94924483  1
  Zr  Zr1  1  0.71679713  0.06954583  0.35926027  1
  Zr  Zr2  1  0.94440923  0.60838271  0.22696054  1
  Zr  Zr3  1  0.99656394  0.87775322  0.66512385  1
  Zr  Zr4  1  0.63860923  0.72370497  0.63391740  1
  Zr  Zr5  1  0.69544839  0.68452759  0.24919269  1
  Zr  Zr6  1  0.86789982  0.74522319  0.37450933  1
  Zr  Zr7  1  0.85285390  0.75358935  0.57800673  1
  Zr  Zr8  1  0.89389579  0.69321570  0.77414735  1
  Zr  Zr9  1  0.11482964  1.02862371  0.18368490  1
  Zr  Zr10  1  0.57036424  0.06477498  0.71797554  1
  Zr  Zr11  1  0.91141034  0.39310143  0.50966878  1
  Zr  Zr12  1  0.35707122  0.35626581  0.56823619  1
  Zr  Zr13  1  0.35248213  1.01057676  0.26806583  1
  Zr  Zr14  1  0.12195355  0.67055157  0.78740117  1
  Zr  Zr15  1  0.94094433  0.58505449  0.47630420  1
  Zr  Zr16  1  0.13369848  0.45051173  0.53419922  1
  Zr  Zr17  1  0.86724046  0.75167912  0.12207023  1
  Zr  Zr18  1  0.68087032  0.65490194  0.83355854  1
  Zr  Zr19  1  0.84615008  0.94455539  0.49086603  1
  Zr  Zr20  1  0.06167590  0.87825889  0.46486025  1
  Zr  Zr21  1  0.87057522  0.56436133  -0.00481940  1
  Zr  Zr22  1  0.30546745  0.54032876  0.44181343  1
  Zr  Zr23  1  0.49901893  0.75559266  0.18037328  1
  Zr  Zr24  1  0.57682832  0.92613798  0.25982852  1
  Zr  Zr25  1  0.78210213  0.81093631  0.93354920  1
  Zr  Zr26  1  0.10181912  0.77361390  0.15020824  1
  Zr  Zr27  1  0.01562655  0.28130653  0.65687084  1
  Zr  Zr28  1  0.48372271  0.62607507  0.35301125  1
  Zr  Zr29  1  0.31055101  0.23643892  0.22525042  1
  Zr  Zr30  1  0.75338469  0.49002408  0.14924782  1
  Zr  Zr31  1  0.36675526  0.17913718  0.41517442  1
  Zr  Zr32  1  0.50909589  0.32206409  0.88436510  1
  Zr  Zr33  1  0.35730076  0.22549930  0.74249183  1
  Zr  Zr34  1  0.33154624  0.63233968  0.06658948  1
  Zr  Zr35  1  0.08589582  0.69389316  0.58785844  1
  Zr  Zr36  1  0.79549851  0.90030885  0.26664799  1
  Zr  Zr37  1  0.13109594  0.93703075  1.00648514  1
  Zr  Zr38  1  0.21404111  0.19635206  0.57978697  1
  Zr  Zr39  1  0.61671529  0.47161283  0.74936023  1
  Zr  Zr40  1  0.04668336  0.47228389  0.87350914  1
  Zr  Zr41  1  0.25153796  0.53397096  0.89681728  1
  Zr  Zr42  1  0.16085524  0.88187216  0.81418048  1
  Zr  Zr43  1  0.64457398  0.83671913  0.44030952  1
  Zr  Zr44  1  0.49598774  0.98402013  0.07823280  1
  Zr  Zr45  1  0.26651089  0.75081732  0.47055107  1
  Zr  Zr46  1  0.64302033  0.45942058  0.97455253  1
  Zr  Zr47  1  0.28700893  0.58672202  0.64515574  1
  Zr  Zr48  1  0.19518683  0.39451757  0.72094398  1
  Zr  Zr49  1  0.45216759  0.09764765  0.88844765  1
  Sc  Sc50  1  0.09589356  0.26777677  0.23965342  1
  Sc  Sc51  1  0.78783536  0.30365192  0.02575023  1
  Sc  Sc52  1  0.92483613  0.17138255  0.13955885  1
  Sc  Sc53  1  0.02004687  0.07704757  0.54725522  1
  Sc  Sc54  1  0.40318613  0.45058140  0.76092892  1
  Sc  Sc55  1  0.16623140  0.20523340  0.05308526  1
  Sc  Sc56  1  0.07531583  0.08534378  0.74459516  1
  Sc  Sc57  1  0.68710250  0.62030184  0.45595196  1
  Sc  Sc58  1  0.34403538  0.46627623  0.23100671  1
  Sc  Sc59  1  0.94731398  0.07584030  0.33890137  1
  Sc  Sc60  1  0.33134143  0.00702131  0.71836427  1
  Sc  Sc61  1  0.09365821  0.68921513  0.35982396  1
  Sc  Sc62  1  0.16616576  0.09794015  0.37208545  1
  Sc  Sc63  1  0.07954102  0.58052245  0.05449603  1
  Sc  Sc64  1  0.53751075  0.35175263  0.14678676  1
  Sc  Sc65  1  0.90480261  0.23831675  0.83835951  1
  Sc  Sc66  1  0.28889042  0.97322282  0.49681677  1
  Sc  Sc67  1  0.50816676  0.78026578  0.97709626  1
  Sc  Sc68  1  0.48779427  0.58235421  0.91338467  1
  Sc  Sc69  1  0.68937456  0.40114801  0.48795679  1
  Sc  Sc70  1  0.93702764  0.93688895  0.84983743  1
  Sc  Sc71  1  0.80016357  0.06610146  0.95634063  1
  Sc  Sc72  1  0.19111757  0.40764364  0.08031258  1
  Sc  Sc73  1  0.59246202  0.21340071  0.45030876  1
  Sc  Sc74  1  0.29197867  0.68455899  0.26503633  1
  Sc  Sc75  1  0.01509404  0.10674298  0.95981063  1
  Sc  Sc76  1  0.60689031  0.17651169  0.02507306  1
  Sc  Sc77  1  0.78480482  0.31734086  0.66839775  1
  Sc  Sc78  1  0.68308289  0.21384975  0.82888789  1
  Sc  Sc79  1  0.29321481  0.79938286  0.66486737  1
  Sc  Sc80  1  0.48361502  0.89808195  0.58063339  1
  Sc  Sc81  1  0.61901121  0.47421024  0.30123094  1
  Sc  Sc82  1  0.45738773  0.38121508  0.39109079  1
  Sc  Sc83  1  0.52290897  0.14763703  0.23929246  1
  Sc  Sc84  1  0.31047698  0.85147090  0.12445315  1
  Sc  Sc85  1  0.71564529  0.27610894  0.23968310  1
  Sc  Sc86  1  0.39580773  0.22673030  0.04406767  1
  Sc  Sc87  1  0.89504968  0.29664207  0.32770737  1
  Sc  Sc88  1  0.62291793  -0.03528472  0.90724459  1
  Sc  Sc89  1  0.06823685  0.46118130  0.33398172  1
  Sc  Sc90  1  0.72865430  0.06284603  0.15007351  1
  Sc  Sc91  1  0.82326198  0.44375312  0.83734659  1
  Sc  Sc92  1  0.55867465  0.28818492  0.65088005  1
  Sc  Sc93  1  0.74425946  0.88869143  0.72413193  1
  Sc  Sc94  1  0.23687702  0.09915726  0.88616539  1
  Sc  Sc95  1  0.50156527  0.85006548  0.77596631  1
  Sc  Sc96  1  0.77690315  0.54714463  0.63508996  1
  Sc  Sc97  1  -0.01099921  0.51046497  0.68164431  1
  Sc  Sc98  1  0.82554115  0.18469855  0.50299446  1
  Sc  Sc99  1  0.83402882  0.08302463  0.69192228  1
  Nb  Nb100  1  0.99646287  0.87663341  0.27401731  1
  Nb  Nb101  1  0.67414584  0.66231480  0.04475421  1
  Nb  Nb102  1  0.52612239  0.56401480  0.13426898  1
  Nb  Nb103  1  0.82680199  0.49515425  0.33687312  1
  Nb  Nb104  1  0.94603854  0.41147761  0.16069611  1
  Nb  Nb105  1  0.51211209  0.51573545  0.56613680  1
  Nb  Nb106  1  0.68533095  0.86467630  0.09256789  1
  Nb  Nb107  1  0.44241200  0.12149279  0.57938130  1
  Nb  Nb108  1  0.45812236  0.69844231  0.53016449  1
  Nb  Nb109  1  0.11360555  0.27033515  0.85075547  1
  Nb  Nb110  1  0.33671840  0.71714471  0.84180208  1
  Nb  Nb111  1  0.42180469  0.83431111  0.37028518  1
  Nb  Nb112  1  0.91896784  -0.05959206  0.08260397  1
  Nb  Nb113  1  0.50623229  0.01773213  0.42011539  1
  Nb  Nb114  1  0.28654849  0.32561665  0.90386430  1
  Nb  Nb115  1  0.20397316  0.87856251  0.31316780  1
  Nb  Nb116  1  0.05849942  0.26201687  0.45157828  1
  Nb  Nb117  1  0.34537112  0.91165444  0.92188034  1
  Nb  Nb118  1  0.23728711  0.33561023  0.39344411  1
  Nb  Nb119  1  0.47761365  0.64629438  0.71812360  1
  Nb  Nb120  1  0.20446496  0.74618714  0.96853246  1
  Nb  Nb121  1  0.99708515  0.33669168  1.00402668  1
  Nb  Nb122  1  0.30430634  0.05102328  0.07633891  1
  Nb  Nb123  1  0.40079173  0.43837149  0.02196538  1
  Nb  Nb124  1  0.66053356  1.03069440  0.55227858  1
