# generated using pymatgen
data_Zr2Sc2Nb
_symmetry_space_group_name_H-M   'P 1'
_cell_length_a   14.17647216
_cell_length_b   14.15369555
_cell_length_c   14.33284313
_cell_angle_alpha   90.76096221
_cell_angle_beta   89.86435728
_cell_angle_gamma   90.26949512
_symmetry_Int_Tables_number   1
_chemical_formula_structural   Zr2Sc2Nb
_chemical_formula_sum   'Zr50 Sc50 Nb25'
_cell_volume   2875.58430226
_cell_formula_units_Z   25
loop_
 _symmetry_equiv_pos_site_id
 _symmetry_equiv_pos_as_xyz
  1  'x, y, z'
loop_
 _atom_site_type_symbol
 _atom_site_label
 _atom_site_symmetry_multiplicity
 _atom_site_fract_x
 _atom_site_fract_y
 _atom_site_fract_z
 _atom_site_occupancy
  Zr  Zr0  1  0.79522470  0.48099130  0.51958557  1
  Zr  Zr1  1  0.45263564  0.03936270  0.39210799  1
  Zr  Zr2  1  0.20001777  0.72545962  0.01891633  1
  Zr  Zr3  1  0.71654649  0.85877766  0.73930498  1
  Zr  Zr4  1  0.85159017  0.15436392  0.25683079  1
  Zr  Zr5  1  0.07514285  0.66378638  0.47100152  1
  Zr  Zr6  1  0.66729539  1.04727392  0.28822491  1
  Zr  Zr7  1  0.32005286  0.22311851  0.79287859  1
  Zr  Zr8  1  0.67571717  0.47109817  0.16022904  1
  Zr  Zr9  1  0.67795426  0.56368235  0.96230151  1
  Zr  Zr10  1  0.50286143  0.91690895  0.81229989  1
  Zr  Zr11  1  0.00404651  0.54902001  0.28961048  1
  Zr  Zr12  1  0.28971344  0.66739967  0.82092798  1
  Zr  Zr13  1  0.94701026  0.84776715  0.44293161  1
  Zr  Zr14  1  0.29417202  0.54447188  0.99141535  1
  Zr  Zr15  1  0.50395556  0.92145943  0.01493475  1
  Zr  Zr16  1  0.50671003  0.71900432  0.52892660  1
  Zr  Zr17  1  0.48358905  0.42305614  0.26875276  1
  Zr  Zr18  1  0.32209379  0.16938394  0.02879476  1
  Zr  Zr19  1  0.06931415  0.14219615  0.34745251  1
  Zr  Zr20  1  0.19183111  0.10568137  0.67704163  1
  Zr  Zr21  1  0.87465436  0.36135928  0.67825926  1
  Zr  Zr22  1  0.09747940  0.54273703  0.86268580  1
  Zr  Zr23  1  0.86890100  0.05269397  0.43516290  1
  Zr  Zr24  1  0.89263764  0.06139033  0.02526583  1
  Zr  Zr25  1  0.49285874  0.90966047  0.21767825  1
  Zr  Zr26  1  0.03464480  0.39903059  0.99693664  1
  Zr  Zr27  1  0.13362422  0.26158807  0.53071979  1
  Zr  Zr28  1  0.16311664  0.24770617  0.16043686  1
  Zr  Zr29  1  0.12570802  0.93385451  0.96051490  1
  Zr  Zr30  1  0.53862151  0.16642915  0.54252958  1
  Zr  Zr31  1  0.69234707  0.11624244  0.07968823  1
  Zr  Zr32  1  0.47835973  0.53912177  0.84029702  1
  Zr  Zr33  1  0.00207677  0.46390833  0.47944447  1
  Zr  Zr34  1  0.24977017  0.06149602  0.46578543  1
  Zr  Zr35  1  0.54993615  0.29738334  0.08425858  1
  Zr  Zr36  1  0.74954681  0.83547514  0.52084504  1
  Zr  Zr37  1  0.07839546  0.05019560  0.14819041  1
  Zr  Zr38  1  0.90606899  0.95423931  0.23772486  1
  Zr  Zr39  1  0.06205367  0.34292696  0.31309592  1
  Zr  Zr40  1  0.58285406  0.85649630  0.38853814  1
  Zr  Zr41  1  0.84430554  0.37767644  0.31093743  1
  Zr  Zr42  1  0.30494433  0.03196024  0.86100515  1
  Zr  Zr43  1  0.39259761  0.03875575  0.65461568  1
  Zr  Zr44  1  0.26901239  0.45332445  0.77689653  1
  Zr  Zr45  1  0.97182510  0.74396944  0.25949817  1
  Zr  Zr46  1  0.15475706  0.47675884  0.15234609  1
  Zr  Zr47  1  0.57818921  0.62368242  0.28778758  1
  Zr  Zr48  1  0.07720539  0.43940957  0.66124912  1
  Zr  Zr49  1  0.97191476  0.17956058  0.66167097  1
  Sc  Sc50  1  0.28917991  0.27512114  0.36504294  1
  Sc  Sc51  1  1.02591385  0.02506367  0.79730270  1
  Sc  Sc52  1  0.02298120  0.62714205  0.06390209  1
  Sc  Sc53  1  0.19024274  0.70961734  0.29124885  1
  Sc  Sc54  1  0.05568272  0.75384828  0.85364734  1
  Sc  Sc55  1  0.49573159  0.51713058  0.05885091  1
  Sc  Sc56  1  0.22029229  0.34805234  0.96432571  1
  Sc  Sc57  1  0.64188923  0.42982552  0.39049481  1
  Sc  Sc58  1  0.91752155  0.26373263  0.47458521  1
  Sc  Sc59  1  0.80050931  0.68186270  0.10582938  1
  Sc  Sc60  1  0.11044043  0.15639554  0.95913299  1
  Sc  Sc61  1  0.65012758  0.33819651  0.60335050  1
  Sc  Sc62  1  0.57245416  0.53047948  0.58729774  1
  Sc  Sc63  1  0.81822316  0.09194892  0.81635942  1
  Sc  Sc64  1  0.66041581  0.78029180  0.92846077  1
  Sc  Sc65  1  0.93023575  0.58362988  0.67248584  1
  Sc  Sc66  1  0.41876758  0.34783385  0.92357239  1
  Sc  Sc67  1  0.85019132  0.98618233  0.63726749  1
  Sc  Sc68  1  0.11575156  0.28766352  0.78322414  1
  Sc  Sc69  1  0.70168701  0.50011119  0.75047364  1
  Sc  Sc70  1  0.35956401  0.80483289  0.67260040  1
  Sc  Sc71  1  0.87212599  0.89237620  0.88139853  1
  Sc  Sc72  1  0.34952222  0.58086139  0.20384753  1
  Sc  Sc73  1  0.95989223  0.83995237  0.06122930  1
  Sc  Sc74  1  0.57704659  0.72741899  0.11756886  1
  Sc  Sc75  1  0.92855326  0.25197058  0.87762698  1
  Sc  Sc76  1  0.52163885  0.13024649  0.92982046  1
  Sc  Sc77  1  0.95348392  0.25802126  0.12349671  1
  Sc  Sc78  1  0.76197458  0.79138000  0.30100851  1
  Sc  Sc79  1  0.30161203  0.96896045  0.08506064  1
  Sc  Sc80  1  0.55349059  0.70485052  0.74630781  1
  Sc  Sc81  1  0.95715621  0.79420884  0.65040582  1
  Sc  Sc82  1  0.10046203  0.93672750  0.34181788  1
  Sc  Sc83  1  0.88051961  0.47641514  0.12026570  1
  Sc  Sc84  1  0.18033663  0.88596595  0.72874530  1
  Sc  Sc85  1  0.51430824  0.22808584  0.33089705  1
  Sc  Sc86  1  0.76796041  0.31070605  0.01706860  1
  Sc  Sc87  1  0.15826177  0.65331554  0.66188118  1
  Sc  Sc88  1  0.40785300  0.73915538  0.33038534  1
  Sc  Sc89  1  0.52983168  0.21380862  0.74752089  1
  Sc  Sc90  1  0.55104486  0.91318676  0.59829655  1
  Sc  Sc91  1  0.34279858  0.35093968  0.14697032  1
  Sc  Sc92  1  0.05405132  0.00370962  0.55516914  1
  Sc  Sc93  1  0.72869847  0.90428401  0.10546147  1
  Sc  Sc94  1  0.47835108  0.10871149  0.16025765  1
  Sc  Sc95  1  0.83804980  0.67834031  0.84608129  1
  Sc  Sc96  1  0.26822151  0.44151295  0.55489968  1
  Sc  Sc97  1  0.44878903  0.38753432  0.69151864  1
  Sc  Sc98  1  0.86357055  0.46203029  0.88021702  1
  Sc  Sc99  1  0.22116608  0.49678059  0.36378789  1
  Nb  Nb100  1  0.67990670  0.99011073  0.91341013  1
  Nb  Nb101  1  0.68648945  0.27275663  0.22406199  1
  Nb  Nb102  1  0.29521667  0.90598553  0.29837597  1
  Nb  Nb103  1  0.61178862  0.37801065  0.89488918  1
  Nb  Nb104  1  0.64444346  0.05720745  0.71362538  1
  Nb  Nb105  1  0.14328953  0.85774360  0.15966763  1
  Nb  Nb106  1  0.87683601  0.65933597  0.46463969  1
  Nb  Nb107  1  0.45678004  0.36420166  0.48416337  1
  Nb  Nb108  1  0.35763744  0.77607761  0.12305517  1
  Nb  Nb109  1  0.38058202  0.58915275  0.64572866  1
  Nb  Nb110  1  0.72845148  0.27009269  0.79381994  1
  Nb  Nb111  1  0.34095647  0.23032287  0.58035571  1
  Nb  Nb112  1  0.71486446  0.22468683  0.41839402  1
  Nb  Nb113  1  0.31949897  0.84567264  0.90650792  1
  Nb  Nb114  1  0.18285896  0.84038350  0.50736813  1
  Nb  Nb115  1  0.79715434  0.57864929  0.30181654  1
  Nb  Nb116  1  0.37119799  0.88191091  0.48205494  1
  Nb  Nb117  1  0.27263549  0.09166910  0.25002561  1
  Nb  Nb118  1  0.67672345  0.03308971  0.49258582  1
  Nb  Nb119  1  0.45051481  0.71145943  0.95297543  1
  Nb  Nb120  1  0.74259801  0.67249252  0.63555865  1
  Nb  Nb121  1  0.29001409  0.67461371  0.49219533  1
  Nb  Nb122  1  0.76616033  0.17433373  0.61028802  1
  Nb  Nb123  1  0.43261602  0.54779679  0.42802862  1
  Nb  Nb124  1  0.67632999  0.64852845  0.44940590  1
