# generated using pymatgen
data_Zr2Sc2Nb
_symmetry_space_group_name_H-M   'P 1'
_cell_length_a   14.49053959
_cell_length_b   14.26457656
_cell_length_c   13.94108610
_cell_angle_alpha   91.59553597
_cell_angle_beta   90.54974179
_cell_angle_gamma   90.81405682
_symmetry_Int_Tables_number   1
_chemical_formula_structural   Zr2Sc2Nb
_chemical_formula_sum   'Zr50 Sc50 Nb25'
_cell_volume   2880.09031546
_cell_formula_units_Z   25
loop_
 _symmetry_equiv_pos_site_id
 _symmetry_equiv_pos_as_xyz
  1  'x, y, z'
loop_
 _atom_site_type_symbol
 _atom_site_label
 _atom_site_symmetry_multiplicity
 _atom_site_fract_x
 _atom_site_fract_y
 _atom_site_fract_z
 _atom_site_occupancy
  Zr  Zr0  1  0.98062001  0.90333257  0.11196112  1
  Zr  Zr1  1  0.28704945  0.67650687  0.58561037  1
  Zr  Zr2  1  0.63332376  0.28131729  0.87723100  1
  Zr  Zr3  1  0.44870688  0.83894499  0.32150738  1
  Zr  Zr4  1  -0.00535561  0.05811555  0.95043925  1
  Zr  Zr5  1  0.99692996  0.59616763  0.34155582  1
  Zr  Zr6  1  0.66604562  0.37797416  0.67981381  1
  Zr  Zr7  1  0.59318165  0.80645307  0.72524157  1
  Zr  Zr8  1  0.30680710  0.97071085  0.01916188  1
  Zr  Zr9  1  0.23044837  0.50550697  0.69972224  1
  Zr  Zr10  1  0.48785121  0.90070576  0.89235506  1
  Zr  Zr11  1  0.88252784  1.02754410  0.70512859  1
  Zr  Zr12  1  0.15974802  0.16865727  0.63324092  1
  Zr  Zr13  1  0.68409772  0.75232949  0.53472584  1
  Zr  Zr14  1  0.64210284  0.77665908  0.20920797  1
  Zr  Zr15  1  0.50937398  0.46570475  0.96234705  1
  Zr  Zr16  1  0.23488571  0.87499626  0.61932764  1
  Zr  Zr17  1  0.91886165  0.36530416  0.16509241  1
  Zr  Zr18  1  0.26294386  0.32110746  0.40184827  1
  Zr  Zr19  1  0.67500429  0.55540679  0.25931075  1
  Zr  Zr20  1  0.10541260  0.01991955  0.75249943  1
  Zr  Zr21  1  0.00829043  0.36350905  0.71501178  1
  Zr  Zr22  1  0.37042503  0.65410296  0.38578400  1
  Zr  Zr23  1  0.07529227  0.97762574  0.52322917  1
  Zr  Zr24  1  0.46138653  0.83284339  0.53966522  1
  Zr  Zr25  1  0.50451078  0.62552599  0.58818309  1
  Zr  Zr26  1  0.11995077  0.88584931  0.91964545  1
  Zr  Zr27  1  0.28140982  0.15082088  0.26785291  1
  Zr  Zr28  1  0.94311128  0.05418583  0.38203339  1
  Zr  Zr29  1  0.34432739  0.53860373  0.08528356  1
  Zr  Zr30  1  0.55084747  0.64689220  0.82802402  1
  Zr  Zr31  1  0.82686037  0.25257686  0.70185541  1
  Zr  Zr32  1  0.63612234  -0.00383295  0.17821025  1
  Zr  Zr33  1  0.47431756  0.88877302  0.11400991  1
  Zr  Zr34  1  0.96883353  0.19831013  0.55125812  1
  Zr  Zr35  1  0.92212566  0.66268823  0.75871077  1
  Zr  Zr36  1  0.13759161  0.36109116  0.55543046  1
  Zr  Zr37  1  0.16294650  0.82797392  0.13091488  1
  Zr  Zr38  1  0.72516347  0.41266629  0.07131901  1
  Zr  Zr39  1  0.21086577  0.43111272  0.97518978  1
  Zr  Zr40  1  0.83498670  0.46550966  0.34716116  1
  Zr  Zr41  1  0.66359370  0.13092663  0.72232919  1
  Zr  Zr42  1  0.33658917  0.30574779  0.09841693  1
  Zr  Zr43  1  0.38317301  0.32297780  0.87239636  1
  Zr  Zr44  1  0.88371297  0.40902641  0.54318975  1
  Zr  Zr45  1  0.69199110  0.49005077  0.86149886  1
  Zr  Zr46  1  0.61950365  0.06858247  0.98528417  1
  Zr  Zr47  1  0.16730487  0.71312654  0.77354615  1
  Zr  Zr48  1  0.65915492  0.83806273  -0.00074291  1
  Zr  Zr49  1  1.03373625  0.38791711  0.38009343  1
  Sc  Sc50  1  0.47579613  0.05402042  0.32930474  1
  Sc  Sc51  1  0.81688957  0.91704270  0.25512196  1
  Sc  Sc52  1  0.32876109  0.32825325  0.64137952  1
  Sc  Sc53  1  0.54715066  0.27127416  0.06754608  1
  Sc  Sc54  1  0.81262107  0.71103934  0.32893056  1
  Sc  Sc55  1  0.71136377  0.11549096  0.33455401  1
  Sc  Sc56  1  0.15938309  0.39621343  0.19569066  1
  Sc  Sc57  1  0.89521283  0.87542975  0.88740376  1
  Sc  Sc58  1  0.66807474  0.33575949  0.27605422  1
  Sc  Sc59  1  0.29704815  0.94882262  0.80357540  1
  Sc  Sc60  1  0.21353424  0.14076827  0.91448712  1
  Sc  Sc61  1  0.04278140  0.55202124  0.60988076  1
  Sc  Sc62  1  0.64271998  0.91783272  0.40209860  1
  Sc  Sc63  1  0.06227936  0.52396184  0.85384697  1
  Sc  Sc64  1  0.18348006  0.31074745  0.80053755  1
  Sc  Sc65  1  0.01052102  0.84335671  0.69404253  1
  Sc  Sc66  1  0.74937836  0.19784395  0.11477011  1
  Sc  Sc67  1  0.43858329  0.10409328  0.12033356  1
  Sc  Sc68  1  0.47169269  1.00099681  0.68450270  1
  Sc  Sc69  1  0.48078211  0.69675000  0.01557388  1
  Sc  Sc70  1  0.71651544  0.28276902  0.49352402  1
  Sc  Sc71  1  0.21428340  0.79828110  0.35733340  1
  Sc  Sc72  1  0.86743415  0.55781379  0.95914872  1
  Sc  Sc73  1  0.34026933  0.57952612  0.86214275  1
  Sc  Sc74  1  0.46152429  0.27918605  0.29645894  1
  Sc  Sc75  1  0.00021053  0.71498604  0.96167776  1
  Sc  Sc76  1  0.18326138  0.54260555  0.43669221  1
  Sc  Sc77  1  0.44834219  0.12310679  0.89021037  1
  Sc  Sc78  1  0.86237637  0.88763370  0.50625268  1
  Sc  Sc79  1  0.50866836  0.33818481  0.51524090  1
  Sc  Sc80  1  0.07874699  0.73929613  0.51933613  1
  Sc  Sc81  1  0.71125155  0.95358493  0.82967549  1
  Sc  Sc82  1  0.86551114  0.64041037  0.53919656  1
  Sc  Sc83  1  0.88928687  0.35089542  0.91215995  1
  Sc  Sc84  1  0.29107892  0.98249763  0.44129409  1
  Sc  Sc85  1  0.87199604  0.24885627  0.34766417  1
  Sc  Sc86  1  0.14511668  0.06404140  0.10780705  1
  Sc  Sc87  1  0.06468399  0.27124676  0.02015769  1
  Sc  Sc88  1  0.68380525  0.51374463  0.49975083  1
  Sc  Sc89  1  0.34435287  0.46387177  0.28036501  1
  Sc  Sc90  1  0.00184219  0.83333224  0.33381071  1
  Sc  Sc91  1  0.36251637  0.16379680  0.51506399  1
  Sc  Sc92  1  0.66641849  0.61460277  0.04971249  1
  Sc  Sc93  1  0.57365887  0.11513621  0.52174402  1
  Sc  Sc94  1  0.47927031  0.46055318  0.72626411  1
  Sc  Sc95  1  0.81242261  0.14482046  0.90167856  1
  Sc  Sc96  1  0.92574323  0.10484295  0.16528020  1
  Sc  Sc97  1  0.07493533  0.21477195  0.25850267  1
  Sc  Sc98  1  0.30650945  0.77642498  0.94234832  1
  Sc  Sc99  1  0.18461086  0.61129462  0.22539088  1
  Nb  Nb100  1  0.84718812  0.48228945  0.73392738  1
  Nb  Nb101  1  0.75545721  0.71104627  0.86949761  1
  Nb  Nb102  1  0.67691789  0.95151706  0.61161855  1
  Nb  Nb103  1  0.36259385  0.48591563  0.51502712  1
  Nb  Nb104  1  0.52143622  0.44916967  0.16448797  1
  Nb  Nb105  1  0.70669272  0.61245790  0.69213308  1
  Nb  Nb106  1  0.49752881  0.23322187  0.70430492  1
  Nb  Nb107  1  0.57438476  0.68907207  0.39153936  1
  Nb  Nb108  1  0.78767968  0.09145421  0.53209600  1
  Nb  Nb109  1  0.38878680  0.76575385  0.73967744  1
  Nb  Nb110  1  1.00666155  0.18836065  0.80153731  1
  Nb  Nb111  1  0.30487970  -0.04780363  0.22516964  1
  Nb  Nb112  1  0.51712880  0.49430520  0.37726780  1
  Nb  Nb113  1  1.00336379  0.69609453  0.16523034  1
  Nb  Nb114  1  0.79979194  0.81061818  0.69607442  1
  Nb  Nb115  1  0.32073514  0.14217529  0.73203616  1
  Nb  Nb116  1  0.79978750  -0.01863072  0.04527463  1
  Nb  Nb117  1  0.82828254  0.75925797  1.08571099  1
  Nb  Nb118  1  0.12200230  -0.00289455  0.29890568  1
  Nb  Nb119  1  0.17648920  0.63996144  0.01313029  1
  Nb  Nb120  1  0.03510916  0.51297665  0.07887387  1
  Nb  Nb121  1  0.85828765  0.56963279  0.16540763  1
  Nb  Nb122  1  0.14632398  0.15307801  0.43442720  1
  Nb  Nb123  1  0.48716872  0.63592656  0.21562238  1
  Nb  Nb124  1  0.33193310  0.74459979  0.16339034  1
