# generated using pymatgen
data_Zr2Sc2Nb
_symmetry_space_group_name_H-M   'P 1'
_cell_length_a   14.27273482
_cell_length_b   14.24804141
_cell_length_c   14.18272934
_cell_angle_alpha   89.42263748
_cell_angle_beta   89.62805610
_cell_angle_gamma   89.91724578
_symmetry_Int_Tables_number   1
_chemical_formula_structural   Zr2Sc2Nb
_chemical_formula_sum   'Zr50 Sc50 Nb25'
_cell_volume   2883.96885746
_cell_formula_units_Z   25
loop_
 _symmetry_equiv_pos_site_id
 _symmetry_equiv_pos_as_xyz
  1  'x, y, z'
loop_
 _atom_site_type_symbol
 _atom_site_label
 _atom_site_symmetry_multiplicity
 _atom_site_fract_x
 _atom_site_fract_y
 _atom_site_fract_z
 _atom_site_occupancy
  Zr  Zr0  1  0.24276434  0.59427235  0.90603026  1
  Zr  Zr1  1  0.32481945  0.60277489  0.29673518  1
  Zr  Zr2  1  0.05899207  0.91665185  0.25287009  1
  Zr  Zr3  1  0.12506571  0.07386141  0.58164750  1
  Zr  Zr4  1  0.28201208  0.77382760  0.78904993  1
  Zr  Zr5  1  0.15697435  0.74135840  0.37210558  1
  Zr  Zr6  1  0.06987800  0.33060648  0.30249431  1
  Zr  Zr7  1  0.36177702  0.84093714  -0.01412813  1
  Zr  Zr8  1  0.96508466  0.35933337  0.77447907  1
  Zr  Zr9  1  0.98610314  0.69646657  0.96825939  1
  Zr  Zr10  1  0.23011574  0.96796817  0.79168491  1
  Zr  Zr11  1  0.96367462  0.09535730  0.35844044  1
  Zr  Zr12  1  0.06411907  0.27230748  0.93310422  1
  Zr  Zr13  1  0.35437345  0.81089039  0.38935375  1
  Zr  Zr14  1  0.74237680  0.14783479  0.44438402  1
  Zr  Zr15  1  0.57274214  0.06839269  0.83435259  1
  Zr  Zr16  1  0.84312357  0.26384017  0.95583062  1
  Zr  Zr17  1  0.26119536  0.84434271  0.19963892  1
  Zr  Zr18  1  0.40273481  0.47224591  0.84815001  1
  Zr  Zr19  1  0.87084890  0.76753480  0.14912669  1
  Zr  Zr20  1  0.12307584  0.54101404  0.34495260  1
  Zr  Zr21  1  0.66941708  0.85778731  0.15834120  1
  Zr  Zr22  1  0.48417055  0.42126764  0.32409780  1
  Zr  Zr23  1  0.32183198  0.94936486  0.59003703  1
  Zr  Zr24  1  0.47946200  0.46779839  0.53245814  1
  Zr  Zr25  1  0.27692657  0.39879796  0.26603667  1
  Zr  Zr26  1  0.52422189  0.51062677  0.12575133  1
  Zr  Zr27  1  0.09775352  0.87226362  0.65159581  1
  Zr  Zr28  1  0.76985907  0.04505555  0.87757103  1
  Zr  Zr29  1  0.55269160  0.86547790  0.39019777  1
  Zr  Zr30  1  0.73106387  0.67825983  0.96995011  1
  Zr  Zr31  1  0.15313477  0.10467000  0.95335847  1
  Zr  Zr32  1  0.85030033  0.92895537  0.30354992  1
  Zr  Zr33  1  0.52070270  0.58788360  0.68951523  1
  Zr  Zr34  1  0.63016075  0.72001727  0.55015170  1
  Zr  Zr35  1  0.65230588  0.26147344  0.88292142  1
  Zr  Zr36  1  0.62836007  0.56477216  0.38829549  1
  Zr  Zr37  1  0.13318643  0.49915067  0.69519210  1
  Zr  Zr38  1  0.35984487  0.05651721  0.91468413  1
  Zr  Zr39  1  0.90165347  0.53582131  0.66675295  1
  Zr  Zr40  1  0.69401535  0.49883174  0.59695198  1
  Zr  Zr41  1  0.71541205  0.63581068  0.75311619  1
  Zr  Zr42  1  0.90680091  0.11140751  0.57232183  1
  Zr  Zr43  1  0.36339748  0.01202329  0.35062795  1
  Zr  Zr44  1  0.23633041  0.32589826  0.45741664  1
  Zr  Zr45  1  0.84920289  -0.00905798  0.11258781  1
  Zr  Zr46  1  0.89572807  0.73172401  0.77178206  1
  Zr  Zr47  1  0.44061890  0.11449538  0.67269511  1
  Zr  Zr48  1  0.68819802  0.84082937  0.74101576  1
  Zr  Zr49  1  0.53731535  0.73088152  0.06328319  1
  Sc  Sc50  1  0.74677588  0.92845601  0.49141840  1
  Sc  Sc51  1  0.05040077  0.89575054  0.86484223  1
  Sc  Sc52  1  0.93927077  0.33916811  0.12706009  1
  Sc  Sc53  1  0.31525914  0.44680400  0.05181794  1
  Sc  Sc54  1  0.97220212  0.89874738  0.48397703  1
  Sc  Sc55  1  0.54890779  0.93785450  0.59769408  1
  Sc  Sc56  1  0.64086488  0.28502766  0.11636553  1
  Sc  Sc57  1  0.67410774  0.07472808  0.06161283  1
  Sc  Sc58  1  0.51037568  0.09508419  0.21189698  1
  Sc  Sc59  1  0.72440202  0.42081589  0.25217211  1
  Sc  Sc60  1  0.24895657  0.17891038  0.76115627  1
  Sc  Sc61  1  0.09629187  0.68505744  0.77325396  1
  Sc  Sc62  1  0.03118363  0.11528540  0.76460836  1
  Sc  Sc63  1  0.48287795  0.69083382  0.86400894  1
  Sc  Sc64  1  0.46302525  0.90212665  0.79921781  1
  Sc  Sc65  1  0.33094206  0.36283107  0.65700702  1
  Sc  Sc66  1  0.05879688  0.49095125  0.92032385  1
  Sc  Sc67  1  0.84870719  0.32825316  0.58650269  1
  Sc  Sc68  1  0.73067267  0.75074591  0.35013169  1
  Sc  Sc69  1  0.18134149  0.14575509  0.32693173  1
  Sc  Sc70  1  0.92945468  0.50833679  0.28462882  1
  Sc  Sc71  1  0.70201044  0.62214030  0.17747557  1
  Sc  Sc72  1  0.47327387  0.27030238  0.50917901  1
  Sc  Sc73  1  0.84321968  0.85936888  0.93807313  1
  Sc  Sc74  1  0.89062330  0.55262526  0.08928840  1
  Sc  Sc75  1  0.25844924  0.53268434  0.50510861  1
  Sc  Sc76  1  0.03759542  0.65615042  0.54704706  1
  Sc  Sc77  1  0.02089397  0.43774768  0.50309829  1
  Sc  Sc78  1  0.54981987  0.38405872  0.72523523  1
  Sc  Sc79  1  0.71396213  0.04706509  0.66465279  1
  Sc  Sc80  1  0.17787288  0.94644983  0.42934483  1
  Sc  Sc81  1  0.65253335  0.23547119  0.63931590  1
  Sc  Sc82  1  0.11833766  0.29006867  0.64759974  1
  Sc  Sc83  1  0.85556991  0.52658513  0.88130698  1
  Sc  Sc84  1  0.86660449  0.31460082  0.37668825  1
  Sc  Sc85  1  0.03136840  0.11179997  0.14124511  1
  Sc  Sc86  1  0.11526754  0.49518537  0.13087052  1
  Sc  Sc87  1  0.33307853  0.66046839  0.10011527  1
  Sc  Sc88  1  0.83324527  0.72798101  0.56324635  1
  Sc  Sc89  1  0.17798500  0.27463970  0.12273852  1
  Sc  Sc90  1  0.23695024  0.73845353  0.57113015  1
  Sc  Sc91  1  0.44358427  0.65053136  0.46756361  1
  Sc  Sc92  1  0.49359387  0.17121285  0.01176518  1
  Sc  Sc93  1  0.79986759  0.17351743  0.22406363  1
  Sc  Sc94  1  0.43563134  0.76895267  0.63529913  1
  Sc  Sc95  1  0.08891723  0.70402471  0.16914772  1
  Sc  Sc96  1  0.31377519  0.09274359  0.13837752  1
  Sc  Sc97  1  0.53102795  0.08421430  0.44818781  1
  Sc  Sc98  1  0.89466869  0.94441670  0.71577361  1
  Sc  Sc99  1  0.94417923  0.71397919  0.35201149  1
  Nb  Nb100  1  0.83722409  0.19516947  0.76203149  1
  Nb  Nb101  1  0.04139523  0.22837820  0.47458641  1
  Nb  Nb102  1  0.43381293  0.25305081  0.82313893  1
  Nb  Nb103  1  0.50791223  0.37268334  -0.02211637  1
  Nb  Nb104  1  1.01672628  0.89264390  0.06523410  1
  Nb  Nb105  1  0.51120162  0.69463222  0.26353378  1
  Nb  Nb106  1  0.50425389  0.96274238  0.03425424  1
  Nb  Nb107  1  0.82410203  0.53385721  0.45455572  1
  Nb  Nb108  1  0.59908857  0.24158340  0.31716073  1
  Nb  Nb109  1  0.17413914  0.76726638  0.98253027  1
  Nb  Nb110  1  0.63330301  0.87156009  0.93526018  1
  Nb  Nb111  1  0.38211453  0.22026207  0.33082080  1
  Nb  Nb112  1  0.31843130  0.58599101  0.70112772  1
  Nb  Nb113  1  0.75479756  0.39414227  0.77679730  1
  Nb  Nb114  1  0.61488989  0.51370900  0.88632001  1
  Nb  Nb115  1  0.66967869  1.01295028  0.29051696  1
  Nb  Nb116  1  0.42748282  0.29807251  0.15930693  1
  Nb  Nb117  1  0.72151936  0.44368698  0.02051263  1
  Nb  Nb118  1  0.22192089  0.38003039  0.83793552  1
  Nb  Nb119  1  0.94787595  0.07118427  0.94606126  1
  Nb  Nb120  1  0.29937624  0.14466487  0.51756870  1
  Nb  Nb121  1  0.46171647  0.88328524  0.20385663  1
  Nb  Nb122  1  0.31037090  0.26062866  0.96749652  1
  Nb  Nb123  1  0.19497970  0.94701445  0.04398594  1
  Nb  Nb124  1  0.66704509  0.36122466  0.45512702  1
