# generated using pymatgen
data_Zr2Sc2Nb
_symmetry_space_group_name_H-M   'P 1'
_cell_length_a   14.66520022
_cell_length_b   13.65561467
_cell_length_c   14.35718364
_cell_angle_alpha   93.22769509
_cell_angle_beta   89.31262978
_cell_angle_gamma   91.67297680
_symmetry_Int_Tables_number   1
_chemical_formula_structural   Zr2Sc2Nb
_chemical_formula_sum   'Zr50 Sc50 Nb25'
_cell_volume   2869.26387982
_cell_formula_units_Z   25
loop_
 _symmetry_equiv_pos_site_id
 _symmetry_equiv_pos_as_xyz
  1  'x, y, z'
loop_
 _atom_site_type_symbol
 _atom_site_label
 _atom_site_symmetry_multiplicity
 _atom_site_fract_x
 _atom_site_fract_y
 _atom_site_fract_z
 _atom_site_occupancy
  Zr  Zr0  1  0.54926902  0.24688731  0.43733453  1
  Zr  Zr1  1  0.19551094  0.75830028  0.82661364  1
  Zr  Zr2  1  0.94074891  0.80521300  0.34831939  1
  Zr  Zr3  1  0.45174065  0.31535241  0.82270449  1
  Zr  Zr4  1  0.46176312  0.26712614  1.03128778  1
  Zr  Zr5  1  0.92412714  0.05619867  0.04976159  1
  Zr  Zr6  1  0.33021920  0.91531267  0.16788746  1
  Zr  Zr7  1  0.94619554  0.84086609  0.10724585  1
  Zr  Zr8  1  0.72838060  0.12844825  0.36809079  1
  Zr  Zr9  1  0.12334389  1.00872234  0.08820645  1
  Zr  Zr10  1  0.68479511  0.01959437  1.00525413  1
  Zr  Zr11  1  -0.04421229  0.05099885  0.28271236  1
  Zr  Zr12  1  0.04300559  0.10774010  0.62308458  1
  Zr  Zr13  1  0.91528950  0.53743300  0.06880021  1
  Zr  Zr14  1  0.70012180  0.86917186  0.61834937  1
  Zr  Zr15  1  1.10580460  0.54254883  0.74761836  1
  Zr  Zr16  1  0.78020468  0.13976383  0.16870293  1
  Zr  Zr17  1  0.39653005  0.35814532  0.52227654  1
  Zr  Zr18  1  0.50519931  0.80165991  0.54503063  1
  Zr  Zr19  1  0.86802873  0.41513132  0.47257201  1
  Zr  Zr20  1  0.12096319  0.11433071  0.40724258  1
  Zr  Zr21  1  0.74626842  0.06232133  0.81137852  1
  Zr  Zr22  1  0.60170305  0.68731982  0.91876545  1
  Zr  Zr23  1  0.99253895  0.61840926  0.42246054  1
  Zr  Zr24  1  0.88439736  0.76304248  0.56095398  1
  Zr  Zr25  1  0.54342753  0.42373673  0.17419469  1
  Zr  Zr26  1  0.39737483  0.47320894  0.01946339  1
  Zr  Zr27  1  0.26015213  0.56175054  0.88559832  1
  Zr  Zr28  1  0.47394715  0.58287306  0.57556334  1
  Zr  Zr29  1  0.97166113  0.08932559  0.83407579  1
  Zr  Zr30  1  0.32406947  0.66587116  0.69299686  1
  Zr  Zr31  1  0.18219048  0.08233707  0.83232340  1
  Zr  Zr32  1  0.71320484  0.34784472  0.33195535  1
  Zr  Zr33  1  0.78145367  0.46829912  0.91991506  1
  Zr  Zr34  1  0.72671816  0.82706749  0.06436303  1
  Zr  Zr35  1  0.84409977  0.15033795  0.65528259  1
  Zr  Zr36  1  0.76726955  0.68284248  0.75646987  1
  Zr  Zr37  1  0.74955833  0.39608085  0.13587418  1
  Zr  Zr38  1  0.59648737  0.21264779  0.19452181  1
  Zr  Zr39  1  0.08689001  0.20670082  0.98417621  1
  Zr  Zr40  1  0.04488150  0.34403341  0.36905850  1
  Zr  Zr41  1  0.49080651  0.63975086  0.20783175  1
  Zr  Zr42  1  0.34204613  0.50570403  0.23613291  1
  Zr  Zr43  1  0.51541785  0.91639642  0.90004366  1
  Zr  Zr44  1  0.55429241  -0.01160438  0.71682445  1
  Zr  Zr45  1  0.67085101  0.25835932  0.75702354  1
  Zr  Zr46  1  0.33615456  0.16746758  0.45580832  1
  Zr  Zr47  1  0.38490375  0.10025215  0.84031324  1
  Zr  Zr48  1  0.89615962  0.49153825  0.27091688  1
  Zr  Zr49  1  0.05702757  0.90766070  0.91841867  1
  Sc  Sc50  1  0.09899971  0.28236514  0.76751630  1
  Sc  Sc51  1  0.10710395  0.91315481  0.70631341  1
  Sc  Sc52  1  0.16936402  0.78835855  0.06538048  1
  Sc  Sc53  1  0.28570121  0.92925035  0.38172219  1
  Sc  Sc54  1  0.05539724  0.42494529  0.93898946  1
  Sc  Sc55  1  0.67970446  0.59801701  0.08550255  1
  Sc  Sc56  1  0.28994505  0.80331090  0.54312623  1
  Sc  Sc57  1  0.58972436  0.42970606  0.94266886  1
  Sc  Sc58  1  0.07303449  0.90890175  0.48862154  1
  Sc  Sc59  1  0.70330051  0.24367920  0.98303844  1
  Sc  Sc60  1  0.10448798  0.70396892  0.60120527  1
  Sc  Sc61  1  0.26426794  0.11803785  0.24975231  1
  Sc  Sc62  1  0.47175823  0.05860791  0.07195025  1
  Sc  Sc63  1  0.15407991  0.52844909  0.31021100  1
  Sc  Sc64  1  0.84365581  0.97761281  0.48012366  1
  Sc  Sc65  1  0.16475130  0.28153425  0.54992124  1
  Sc  Sc66  1  0.65737563  0.08695776  0.56513457  1
  Sc  Sc67  1  0.61341311  -0.01857168  0.20972937  1
  Sc  Sc68  1  0.51141206  0.82427888  0.08471215  1
  Sc  Sc69  1  0.30020021  0.22068246  0.68945802  1
  Sc  Sc70  1  0.46239927  0.06808063  0.31131283  1
  Sc  Sc71  1  0.55092279  0.39138046  0.65512541  1
  Sc  Sc72  1  0.46852018  0.54746694  0.80561719  1
  Sc  Sc73  1  0.28279252  0.13754012  0.03557459  1
  Sc  Sc74  1  0.45179605  1.00483064  0.51811313  1
  Sc  Sc75  1  0.87829824  0.28760317  0.84036825  1
  Sc  Sc76  1  0.04901756  0.65495677  -0.05322899  1
  Sc  Sc77  1  0.29659321  0.44191576  0.69803870  1
  Sc  Sc78  1  0.25263574  0.33765066  0.35782219  1
  Sc  Sc79  1  0.35779597  0.89615667  0.73136892  1
  Sc  Sc80  1  0.27500315  0.54358911  0.49331776  1
  Sc  Sc81  1  0.07694255  0.19952393  0.19656809  1
  Sc  Sc82  1  0.08377347  0.48086134  0.54176165  1
  Sc  Sc83  1  0.64207264  0.46684253  0.48999107  1
  Sc  Sc84  1  0.88797052  0.93045704  0.70438486  1
  Sc  Sc85  1  0.94587491  0.35461171  0.65159886  1
  Sc  Sc86  1  0.83786708  0.69251108  0.95121062  1
  Sc  Sc87  1  0.04372435  0.67037463  0.20629536  1
  Sc  Sc88  1  0.29681010  0.92316679  0.95124917  1
  Sc  Sc89  1  0.79487268  0.92225992  0.25670579  1
  Sc  Sc90  1  0.35213368  0.68648787  0.05333069  1
  Sc  Sc91  1  0.11950344  0.89755768  0.26297713  1
  Sc  Sc92  1  -0.02784729  0.74108172  0.77385318  1
  Sc  Sc93  1  0.75397128  0.45973311  0.69069937  1
  Sc  Sc94  1  0.24566190  0.33555979  0.13241127  1
  Sc  Sc95  1  0.90877537  0.29118469  0.05448742  1
  Sc  Sc96  1  0.92011198  0.19458807  0.46435832  1
  Sc  Sc97  1  0.18358879  0.54975860  0.08832487  1
  Sc  Sc98  1  0.24385609  0.03223506  0.59180447  1
  Sc  Sc99  1  0.26152877  0.32017146  0.90724461  1
  Nb  Nb100  1  0.64266153  0.76725503  0.24518524  1
  Nb  Nb101  1  0.46469668  0.83915956  0.31871045  1
  Nb  Nb102  1  0.68114618  0.65852402  0.58436948  1
  Nb  Nb103  1  0.54587142  0.75062413  0.73258588  1
  Nb  Nb104  1  0.72956688  0.28330583  0.55003711  1
  Nb  Nb105  1  0.86111207  0.90492141  0.91263180  1
  Nb  Nb106  1  0.41945522  0.28156364  0.26057031  1
  Nb  Nb107  1  0.48061595  0.47226744  0.37140104  1
  Nb  Nb108  1  0.69558933  0.85972277  0.83794823  1
  Nb  Nb109  1  0.56127221  0.14009258  0.87637603  1
  Nb  Nb110  1  0.90905704  0.57837281  0.61933276  1
  Nb  Nb111  1  0.27482374  0.72550286  0.24203003  1
  Nb  Nb112  1  0.16449982  0.72933661  0.39379609  1
  Nb  Nb113  1  0.57803412  0.67008070  0.40861551  1
  Nb  Nb114  1  0.89224442  0.27348595  0.26817138  1
  Nb  Nb115  1  0.40210474  0.74264857  0.87258220  1
  Nb  Nb116  1  0.04549961  0.40685060  0.16258128  1
  Nb  Nb117  1  0.82301529  0.68752956  0.21983726  1
  Nb  Nb118  1  0.92378204  0.52611574  0.81098171  1
  Nb  Nb119  1  0.37908669  0.67842565  0.39177040  1
  Nb  Nb120  1  0.49213830  0.18251481  0.65141519  1
  Nb  Nb121  1  0.67566797  0.55509109  0.28732779  1
  Nb  Nb122  1  0.74213797  0.77964703  0.41308981  1
  Nb  Nb123  1  0.79619004  0.59893917  0.42878691  1
  Nb  Nb124  1  0.62210391  0.92411618  0.41030195  1
