# generated using pymatgen
data_Zr2Sc2Nb
_symmetry_space_group_name_H-M   'P 1'
_cell_length_a   14.34984213
_cell_length_b   13.77669328
_cell_length_c   14.55406853
_cell_angle_alpha   89.98458120
_cell_angle_beta   90.60285873
_cell_angle_gamma   95.17503657
_symmetry_Int_Tables_number   1
_chemical_formula_structural   Zr2Sc2Nb
_chemical_formula_sum   'Zr50 Sc50 Nb25'
_cell_volume   2865.35538034
_cell_formula_units_Z   25
loop_
 _symmetry_equiv_pos_site_id
 _symmetry_equiv_pos_as_xyz
  1  'x, y, z'
loop_
 _atom_site_type_symbol
 _atom_site_label
 _atom_site_symmetry_multiplicity
 _atom_site_fract_x
 _atom_site_fract_y
 _atom_site_fract_z
 _atom_site_occupancy
  Zr  Zr0  1  0.81543220  0.33206332  0.44575023  1
  Zr  Zr1  1  0.17479914  0.10841661  0.94643471  1
  Zr  Zr2  1  0.46420478  0.93253914  0.85952179  1
  Zr  Zr3  1  0.26522087  0.91009993  0.94091709  1
  Zr  Zr4  1  0.17216218  0.44825058  0.39369602  1
  Zr  Zr5  1  0.39939342  0.53251826  0.07072833  1
  Zr  Zr6  1  0.57755945  0.11776538  0.76222505  1
  Zr  Zr7  1  0.51221047  0.69859722  0.16414256  1
  Zr  Zr8  1  0.90145863  0.19393499  0.59170662  1
  Zr  Zr9  1  0.85327910  0.71309565  0.44016607  1
  Zr  Zr10  1  0.07417979  0.10654779  0.52956058  1
  Zr  Zr11  1  0.62726584  0.88104970  0.18932762  1
  Zr  Zr12  1  0.60048645  0.51072638  0.13129294  1
  Zr  Zr13  1  0.67183433  0.88437040  0.79300004  1
  Zr  Zr14  1  0.84492201  0.85781206  0.92882983  1
  Zr  Zr15  1  0.72448327  0.27205118  0.25076421  1
  Zr  Zr16  1  0.60814598  0.35089037  0.43216609  1
  Zr  Zr17  1  0.50394763  0.54865012  0.88887628  1
  Zr  Zr18  1  0.13906501  0.13397217  0.14220082  1
  Zr  Zr19  1  0.39875208  0.07368758  0.67404893  1
  Zr  Zr20  1  0.85747226  0.31328472  1.00626293  1
  Zr  Zr21  1  0.08456906  0.72429239  0.95864693  1
  Zr  Zr22  1  0.92266463  0.37221779  0.25790900  1
  Zr  Zr23  1  0.31029967  0.46734941  0.83995978  1
  Zr  Zr24  1  0.49345546  0.72567193  0.76543844  1
  Zr  Zr25  1  0.56566184  0.09706713  0.16414386  1
  Zr  Zr26  1  0.39402553  0.99099506  0.28080152  1
  Zr  Zr27  1  0.95003547  0.51744018  0.43934791  1
  Zr  Zr28  1  0.56324124  0.10084164  0.54672682  1
  Zr  Zr29  1  0.65692597  0.46739326  0.72653144  1
  Zr  Zr30  1  0.80062353  0.89372011  0.34192052  1
  Zr  Zr31  1  0.80557880  0.50097422  0.11377287  1
  Zr  Zr32  1  0.48050988  0.29781399  0.59175427  1
  Zr  Zr33  1  0.91606592  0.17146125  0.16339687  1
  Zr  Zr34  1  0.73566022  0.05177949  0.65760636  1
  Zr  Zr35  1  0.70677306  0.28280025  0.63346250  1
  Zr  Zr36  1  0.18377471  0.05128585  0.35892939  1
  Zr  Zr37  1  0.46503723  0.72415028  0.55502564  1
  Zr  Zr38  1  0.38778827  0.36219426  0.40421408  1
  Zr  Zr39  1  0.27335524  0.39244219  0.20659268  1
  Zr  Zr40  1  0.73338769  0.12376078  0.44812337  1
  Zr  Zr41  1  0.48392044  0.53279349  0.30778463  1
  Zr  Zr42  1  0.89418826  -0.01166810  0.75504856  1
  Zr  Zr43  1  0.05630068  0.92803451  0.86841499  1
  Zr  Zr44  1  0.75426136  0.07148808  0.88575577  1
  Zr  Zr45  1  0.75483616  0.70508671  0.22770379  1
  Zr  Zr46  1  0.91268068  0.42069228  0.64027908  1
  Zr  Zr47  1  0.21632758  0.75468395  0.53046787  1
  Zr  Zr48  1  0.30538461  0.40103864  0.60620398  1
  Zr  Zr49  1  0.25484073  0.26214368  0.79330791  1
  Sc  Sc50  1  0.47221673  0.32079040  0.78939911  1
  Sc  Sc51  1  0.68116682  0.87452883  0.52894868  1
  Sc  Sc52  1  0.04679670  0.86838337  0.44641539  1
  Sc  Sc53  1  1.00010141  0.00108779  0.26344561  1
  Sc  Sc54  1  0.65027218  0.67630544  0.62565126  1
  Sc  Sc55  1  0.15216946  0.77037345  0.74992002  1
  Sc  Sc56  1  0.03775332  0.90827332  0.07213739  1
  Sc  Sc57  1  0.12346079  0.53395833  0.57527302  1
  Sc  Sc58  1  0.87506103  0.23909442  0.78880357  1
  Sc  Sc59  1  0.07031715  0.32195200  0.08196715  1
  Sc  Sc60  1  0.21685362  0.01140982  0.75617890  1
  Sc  Sc61  1  0.69618331  0.70742808  0.03274529  1
  Sc  Sc62  1  0.40047493  0.91937903  0.49067486  1
  Sc  Sc63  1  0.31031996  0.69222394  0.88737533  1
  Sc  Sc64  1  0.36453851  0.13156295  0.46430380  1
  Sc  Sc65  1  0.10127247  0.32380697  0.64646089  1
  Sc  Sc66  1  -0.00134259  0.69720352  0.59113063  1
  Sc  Sc67  1  0.26607853  0.31163192  0.00202430  1
  Sc  Sc68  1  0.53719729  0.17014945  0.34740199  1
  Sc  Sc69  1  0.06073218  0.13677589  0.75165031  1
  Sc  Sc70  1  0.21829463  0.82790118  0.32788501  1
  Sc  Sc71  1  0.33848846  0.84993499  0.69244252  1
  Sc  Sc72  1  0.99062963  0.51887848  0.02864190  1
  Sc  Sc73  1  0.30199958  0.73971738  0.09140925  1
  Sc  Sc74  1  0.95861720  0.10952430  0.96571888  1
  Sc  Sc75  1  0.06509099  0.35698715  0.86740270  1
  Sc  Sc76  1  0.58369063  0.95616755  0.37149673  1
  Sc  Sc77  1  0.74585528  0.51586043  0.53396935  1
  Sc  Sc78  1  0.43042592  0.76816237  0.33859495  1
  Sc  Sc79  1  0.92439866  0.15322650  0.37214323  1
  Sc  Sc80  1  0.04296573  0.56621624  0.79227419  1
  Sc  Sc81  1  0.33291039  0.57673287  0.46849349  1
  Sc  Sc82  1  0.47719380  0.33660965  -0.00769396  1
  Sc  Sc83  1  0.68425977  0.28526930  0.86738653  1
  Sc  Sc84  1  0.31431026  0.19503358  0.26488544  1
  Sc  Sc85  1  0.55380734  0.12169266  0.96663847  1
  Sc  Sc86  1  0.35957641  0.11987970  0.07336485  1
  Sc  Sc87  1  0.49290573  0.32802044  0.20635997  1
  Sc  Sc88  1  0.09169787  0.50052294  0.21753366  1
  Sc  Sc89  1  0.22669142  0.94192045  0.15269936  1
  Sc  Sc90  1  0.28016802  0.61333152  0.26007148  1
  Sc  Sc91  1  0.68798166  0.48434512  0.94446069  1
  Sc  Sc92  1  0.72650899  0.50283930  0.31933837  1
  Sc  Sc93  1  0.29664068  0.61964080  0.68498115  1
  Sc  Sc94  1  0.44353217  0.91551393  0.08152383  1
  Sc  Sc95  1  0.19771492  0.53433906  0.02196318  1
  Sc  Sc96  1  0.82993254  0.92440616  0.12596669  1
  Sc  Sc97  1  0.62761577  0.69756299  0.39554536  1
  Sc  Sc98  1  0.69898143  0.67907974  0.82727572  1
  Sc  Sc99  1  0.88607554  0.97290717  0.52250110  1
  Nb  Nb100  1  0.37133939  0.12715535  0.86967964  1
  Nb  Nb101  1  0.82772823  0.80968014  0.65757110  1
  Nb  Nb102  1  0.66306055  0.30357093  0.07524377  1
  Nb  Nb103  1  0.08958599  0.65745991  0.37793861  1
  Nb  Nb104  1  0.10246127  0.70828437  0.16456329  1
  Nb  Nb105  1  0.74214819  0.11823144  0.06879977  1
  Nb  Nb106  1  -0.03005060  0.79183616  0.26661529  1
  Nb  Nb107  1  0.86906625  0.62968149  0.92142548  1
  Nb  Nb108  1  0.85645079  0.44763031  0.83965141  1
  Nb  Nb109  1  0.94622523  0.76251411  0.78984431  1
  Nb  Nb110  1  0.46932363  0.52153758  0.68266346  1
  Nb  Nb111  1  0.74670210  0.06646173  0.25792740  1
  Nb  Nb112  1  0.50480561  0.74718046  0.96961765  1
  Nb  Nb113  1  0.91238753  0.71665121  0.08936725  1
  Nb  Nb114  1  0.92518131  0.59902706  0.25619843  1
  Nb  Nb115  1  0.53751739  0.91573380  0.65639550  1
  Nb  Nb116  1  0.21725919  0.97013371  0.55339089  1
  Nb  Nb117  1  0.09843239  0.26072709  0.28687340  1
  Nb  Nb118  1  0.52999565  0.51604523  0.51118326  1
  Nb  Nb119  1  0.25256186  0.18259410  0.62002756  1
  Nb  Nb120  1  0.20580726  0.25851357  0.44936479  1
  Nb  Nb121  1  0.04321388  0.91226440  0.65079457  1
  Nb  Nb122  1  0.64044303  0.92206540  0.99649354  1
  Nb  Nb123  1  0.84091436  0.60054512  0.70820180  1
  Nb  Nb124  1  1.01840537  0.32566387  0.46209669  1
