# generated using pymatgen
data_Zr2Sc2Nb
_symmetry_space_group_name_H-M   'P 1'
_cell_length_a   14.18126062
_cell_length_b   14.16064109
_cell_length_c   14.36244999
_cell_angle_alpha   89.85691521
_cell_angle_beta   89.67368421
_cell_angle_gamma   89.28980082
_symmetry_Int_Tables_number   1
_chemical_formula_structural   Zr2Sc2Nb
_chemical_formula_sum   'Zr50 Sc50 Nb25'
_cell_volume   2883.92921557
_cell_formula_units_Z   25
loop_
 _symmetry_equiv_pos_site_id
 _symmetry_equiv_pos_as_xyz
  1  'x, y, z'
loop_
 _atom_site_type_symbol
 _atom_site_label
 _atom_site_symmetry_multiplicity
 _atom_site_fract_x
 _atom_site_fract_y
 _atom_site_fract_z
 _atom_site_occupancy
  Zr  Zr0  1  0.91569358  0.49423169  0.85906776  1
  Zr  Zr1  1  0.20768039  0.48336485  0.07430090  1
  Zr  Zr2  1  0.57112256  0.70045711  0.11745132  1
  Zr  Zr3  1  0.62391129  0.32731489  0.74783381  1
  Zr  Zr4  1  0.74345812  0.51568002  0.73885813  1
  Zr  Zr5  1  0.65786775  0.22162001  0.51164186  1
  Zr  Zr6  1  0.10106662  0.69097355  0.41087363  1
  Zr  Zr7  1  0.28281452  0.74162870  0.32469285  1
  Zr  Zr8  1  0.71869316  0.29441936  0.08398432  1
  Zr  Zr9  1  0.14135416  0.47461083  0.47844986  1
  Zr  Zr10  1  0.73109816  0.84189420  0.18281130  1
  Zr  Zr11  1  0.93041474  0.34861459  0.42983735  1
  Zr  Zr12  1  0.89902236  0.87305258  0.87374835  1
  Zr  Zr13  1  0.51398118  0.49463422  0.81620197  1
  Zr  Zr14  1  0.69182614  0.28934698  0.29875753  1
  Zr  Zr15  1  0.12842661  0.57269275  0.87791509  1
  Zr  Zr16  1  0.43166399  0.25680868  0.81209473  1
  Zr  Zr17  1  0.90321541  0.16731229  0.11683099  1
  Zr  Zr18  1  0.47539070  0.30601347  0.60156068  1
  Zr  Zr19  1  0.66481547  0.12356984  0.92910301  1
  Zr  Zr20  1  0.08222242  0.77730289  0.84748461  1
  Zr  Zr21  1  0.90020698  0.70683562  0.53126884  1
  Zr  Zr22  1  0.55711262  0.50357331  0.61165325  1
  Zr  Zr23  1  0.90836809  0.30829481  0.74869147  1
  Zr  Zr24  1  0.05119707  0.04176303  0.38597629  1
  Zr  Zr25  1  0.27065236  0.09031325  0.85391191  1
  Zr  Zr26  1  0.09182136  0.65250915  0.20878463  1
  Zr  Zr27  1  0.75980097  0.37436373  0.57552516  1
  Zr  Zr28  1  0.93660294  0.79036614  0.13447532  1
  Zr  Zr29  1  0.76122729  0.32160290  0.89042292  1
  Zr  Zr30  1  0.27591359  0.31413307  0.53722451  1
  Zr  Zr31  1  0.86470470  0.83283076  0.66983713  1
  Zr  Zr32  1  0.88708626  0.78939958  0.34324896  1
  Zr  Zr33  1  0.75690634  0.67981308  0.04600779  1
  Zr  Zr34  1  0.87663136  0.97215630  0.04294389  1
  Zr  Zr35  1  0.78393218  0.69969588  0.84787382  1
  Zr  Zr36  1  0.16909467  0.69571072  0.02645908  1
  Zr  Zr37  1  0.46147959  0.27763850  0.37892262  1
  Zr  Zr38  1  0.08955581  0.89469991  0.69015926  1
  Zr  Zr39  1  0.10059912  0.36128195  0.89209225  1
  Zr  Zr40  1  0.30744283  0.14662868  0.65958098  1
  Zr  Zr41  1  0.24625899  0.71205081  0.73969113  1
  Zr  Zr42  1  0.46563446  0.77296413  0.26453047  1
  Zr  Zr43  1  0.08605741  0.16998703  0.77507706  1
  Zr  Zr44  1  0.52573505  0.32655618  0.98279466  1
  Zr  Zr45  1  0.94631568  0.56624565  0.38557983  1
  Zr  Zr46  1  0.09206377  0.69233740  0.61216924  1
  Zr  Zr47  1  0.27230275  0.10361241  0.44515334  1
  Zr  Zr48  1  0.46232563  0.06515064  0.94713874  1
  Zr  Zr49  1  0.26206598  0.87977204  0.91275433  1
  Sc  Sc50  1  0.36165985  0.67006157  0.91355453  1
  Sc  Sc51  1  0.48182027  0.54635284  0.28129566  1
  Sc  Sc52  1  0.65458027  0.71763618  0.68503308  1
  Sc  Sc53  1  0.60179864  0.10492489  0.34554070  1
  Sc  Sc54  1  0.43697464  0.84600112  0.03566618  1
  Sc  Sc55  1  0.30869371  0.92948198  0.69936137  1
  Sc  Sc56  1  0.88233727  0.37237640  0.20593803  1
  Sc  Sc57  1  0.52631171  0.08321631  0.72853092  1
  Sc  Sc58  1  0.51594762  0.88465548  0.61397394  1
  Sc  Sc59  1  0.72438319  0.06470444  0.16744710  1
  Sc  Sc60  1  0.11086083  0.07615307  0.58252130  1
  Sc  Sc61  1  0.12925475  0.28726472  0.12800511  1
  Sc  Sc62  1  0.28458896  0.26433375  0.97216340  1
  Sc  Sc63  1  0.32618006  0.45618710  0.90033258  1
  Sc  Sc64  1  0.09622392  0.86587275  0.27615736  1
  Sc  Sc65  1  0.68517769  0.68145673  0.31798436  1
  Sc  Sc66  1  0.86224937  0.96749827  0.49267069  1
  Sc  Sc67  1  0.07482928  0.30853340  0.61663060  1
  Sc  Sc68  1  0.44548303  0.68428619  0.69572524  1
  Sc  Sc69  1  0.66989979  0.50338907  0.16973411  1
  Sc  Sc70  1  0.35140357  0.64323021  0.12998158  1
  Sc  Sc71  1  0.69867139  0.81091920  0.50195947  1
  Sc  Sc72  1  0.28302498  0.03736065  0.07801196  1
  Sc  Sc73  1  0.07360118  0.03314925  0.14558250  1
  Sc  Sc74  1  0.74046049  0.15477901  0.71058701  1
  Sc  Sc75  1  0.92289734  0.03201669  0.70647499  1
  Sc  Sc76  1  0.26567516  0.32165197  0.31709868  1
  Sc  Sc77  1  0.07078272  0.42893846  0.27812632  1
  Sc  Sc78  1  0.35664820  0.22621410  0.15464861  1
  Sc  Sc79  1  0.13254157  0.49451697  0.69726833  1
  Sc  Sc80  1  0.66361862  0.89166257  0.98170894  1
  Sc  Sc81  1  0.90357865  0.18273655  0.55348553  1
  Sc  Sc82  1  0.69530301  0.93704716  0.76346595  1
  Sc  Sc83  1  0.88912594  0.12889065  0.89282671  1
  Sc  Sc84  1  0.72921889  0.58679861  0.52267404  1
  Sc  Sc85  1  0.48101038  0.87715445  0.82678705  1
  Sc  Sc86  1  0.26043199  0.53476459  0.30140412  1
  Sc  Sc87  1  0.46999757  0.09742315  0.52083471  1
  Sc  Sc88  1  0.93470868  0.49875723  0.60691065  1
  Sc  Sc89  1  0.29264916  0.64341549  0.52493963  1
  Sc  Sc90  1  0.24077562  0.87644448  0.49556240  1
  Sc  Sc91  1  0.57435332  0.69241712  0.89903224  1
  Sc  Sc92  1  1.01430757  0.49941189  0.06888276  1
  Sc  Sc93  1  0.50984613  0.66914248  0.46893102  1
  Sc  Sc94  1  0.76822042  0.47425682  0.35673381  1
  Sc  Sc95  1  0.54661421  0.16009398  0.12608348  1
  Sc  Sc96  1  0.82393598  0.13701803  0.36074290  1
  Sc  Sc97  1  0.49285507  0.91753324  0.40720891  1
  Sc  Sc98  1  0.52742105  0.95563113  0.18712010  1
  Sc  Sc99  1  0.34464421  0.47953584  0.67528538  1
  Nb  Nb100  1  0.39163860  0.46589284  0.46260686  1
  Nb  Nb101  1  0.58606559  0.42728372  0.42842515  1
  Nb  Nb102  1  0.50197840  0.52484745  0.03561545  1
  Nb  Nb103  1  0.93787664  0.31443549  0.99112075  1
  Nb  Nb104  1  0.24376016  0.30788834  0.75831876  1
  Nb  Nb105  1  0.95477601  0.65987925  0.74980968  1
  Nb  Nb106  1  0.40662074  0.09959401  0.29584768  1
  Nb  Nb107  1  0.95311104  0.67259099  0.97587937  1
  Nb  Nb108  1  0.25326989  0.83564004  0.13748515  1
  Nb  Nb109  1  0.82487846  0.48472229  0.03489187  1
  Nb  Nb110  1  0.10778953  0.24337488  0.42905954  1
  Nb  Nb111  1  0.30136443  0.94613286  0.28812667  1
  Nb  Nb112  1  0.67257072  0.50286758  0.93301406  1
  Nb  Nb113  1  0.07759675  0.87387469  0.02999521  1
  Nb  Nb114  1  0.00814604  0.20682462  0.27744263  1
  Nb  Nb115  1  0.37335311  0.42163827  0.13468265  1
  Nb  Nb116  1  0.03170349  0.86719396  0.49771404  1
  Nb  Nb117  1  0.08964584  0.15645533  0.98011646  1
  Nb  Nb118  1  0.66971584  0.01916535  0.54737238  1
  Nb  Nb119  1  0.87139741  0.60436306  0.19936694  1
  Nb  Nb120  1  0.90145614  0.97758412  0.25479035  1
  Nb  Nb121  1  0.71224578  0.93735734  0.34756514  1
  Nb  Nb122  1  0.53262443  0.35323957  0.20248469  1
  Nb  Nb123  1  0.07286846  0.99491662  0.88175997  1
  Nb  Nb124  1  0.20113343  0.12710892  0.26443355  1
