# generated using pymatgen
data_Zr2Sc2Nb
_symmetry_space_group_name_H-M   'P 1'
_cell_length_a   14.19328020
_cell_length_b   14.39189740
_cell_length_c   14.07818305
_cell_angle_alpha   90.39791823
_cell_angle_beta   90.26333521
_cell_angle_gamma   91.35291382
_symmetry_Int_Tables_number   1
_chemical_formula_structural   Zr2Sc2Nb
_chemical_formula_sum   'Zr50 Sc50 Nb25'
_cell_volume   2874.82198195
_cell_formula_units_Z   25
loop_
 _symmetry_equiv_pos_site_id
 _symmetry_equiv_pos_as_xyz
  1  'x, y, z'
loop_
 _atom_site_type_symbol
 _atom_site_label
 _atom_site_symmetry_multiplicity
 _atom_site_fract_x
 _atom_site_fract_y
 _atom_site_fract_z
 _atom_site_occupancy
  Zr  Zr0  1  0.86131328  0.88866142  0.22423717  1
  Zr  Zr1  1  0.74609192  0.96294255  0.71150194  1
  Zr  Zr2  1  0.39906043  0.77403986  0.89131044  1
  Zr  Zr3  1  0.11710213  0.52134751  0.86813511  1
  Zr  Zr4  1  0.52458823  0.44375448  0.71508539  1
  Zr  Zr5  1  0.37761832  0.34727336  0.50598373  1
  Zr  Zr6  1  0.72058818  0.00108863  0.09629505  1
  Zr  Zr7  1  0.33033357  0.14621488  0.26681087  1
  Zr  Zr8  1  0.10646971  0.38480884  0.27868107  1
  Zr  Zr9  1  0.92153957  0.08838411  0.12447803  1
  Zr  Zr10  1  0.43753232  0.37776300  0.93562689  1
  Zr  Zr11  1  0.52088152  0.90336084  0.11556981  1
  Zr  Zr12  1  0.11394645  0.87178523  0.47058337  1
  Zr  Zr13  1  0.10762990  0.58719594  0.25899394  1
  Zr  Zr14  1  0.91953432  0.29194018  0.63273078  1
  Zr  Zr15  1  0.27951247  0.80807208  0.07335449  1
  Zr  Zr16  1  0.60154045  0.74318218  0.92478968  1
  Zr  Zr17  1  0.12208287  0.61921804  0.68130841  1
  Zr  Zr18  1  0.60355294  0.62025547  0.44415438  1
  Zr  Zr19  1  0.72279888  0.38051054  0.68718060  1
  Zr  Zr20  1  0.89303465  0.48222821  0.91587394  1
  Zr  Zr21  1  0.70166914  0.94206643  0.34542432  1
  Zr  Zr22  1  0.13160529  0.24729911  0.07763180  1
  Zr  Zr23  1  0.70791765  0.55145729  0.83460096  1
  Zr  Zr24  1  0.23462552  0.45210045  0.11182371  1
  Zr  Zr25  1  0.26507096  0.95124123  0.84732719  1
  Zr  Zr26  1  0.33280309  0.71022973  0.70776520  1
  Zr  Zr27  1  0.24780426  0.51460461  0.40482792  1
  Zr  Zr28  1  0.89005956  0.86551119  0.45267631  1
  Zr  Zr29  1  0.65317874  0.38706100  0.94322828  1
  Zr  Zr30  1  0.75127483  0.74722668  0.75096164  1
  Zr  Zr31  1  0.18809034  0.28624258  0.45047937  1
  Zr  Zr32  1  0.48117598  0.00315743  0.30766351  1
  Zr  Zr33  1  0.07712686  0.82107193  0.17473552  1
  Zr  Zr34  1  0.91492967  0.89101733  0.02532581  1
  Zr  Zr35  1  0.53393209  0.64645404  0.72984279  1
  Zr  Zr36  1  0.72935421  0.16629503  0.69449287  1
  Zr  Zr37  1  0.50925780  0.25936592  0.34810210  1
  Zr  Zr38  1  1.03180056  0.44099646  0.06597636  1
  Zr  Zr39  1  0.59996339  0.41126507  0.49104224  1
  Zr  Zr40  1  0.80764404  0.04294488  0.53387538  1
  Zr  Zr41  1  0.74906640  0.71966830  0.31755187  1
  Zr  Zr42  1  0.81140911  0.42593564  0.09889095  1
  Zr  Zr43  1  0.62760647  0.11547265  0.45813614  1
  Zr  Zr44  1  0.33182794  0.11897963  0.68935569  1
  Zr  Zr45  1  0.31053104  0.59015031  0.97652284  1
  Zr  Zr46  1  0.69753578  0.57860227  0.62097110  1
  Zr  Zr47  1  0.95010168  0.10348610  0.73235225  1
  Zr  Zr48  1  0.31686711  0.34828075  0.27505117  1
  Zr  Zr49  1  0.83755362  0.07469028  0.91324795  1
  Sc  Sc50  1  0.12034197  0.02669741  0.11296525  1
  Sc  Sc51  1  0.53835510  0.24738918  0.60101902  1
  Sc  Sc52  1  0.32334846  0.02668259  0.05408498  1
  Sc  Sc53  1  0.93228510  0.28610055  0.20071420  1
  Sc  Sc54  1  0.70401849  0.80527381  0.54007697  1
  Sc  Sc55  1  0.46620961  0.47892127  0.33329390  1
  Sc  Sc56  1  0.80993563  0.70900998  0.95575801  1
  Sc  Sc57  1  0.21312280  0.17259412  0.87128425  1
  Sc  Sc58  1  0.57079199  0.33821325  0.14949154  1
  Sc  Sc59  1  0.04466987  0.05895822  0.91890195  1
  Sc  Sc60  1  0.11165202  0.17233733  0.28392151  1
  Sc  Sc61  1  0.21009799  0.43817316  0.62275969  1
  Sc  Sc62  1  0.74915326  0.22390510  0.06928974  1
  Sc  Sc63  1  0.14178171  0.22625273  0.65381856  1
  Sc  Sc64  1  0.02407989  0.98348721  0.31775971  1
  Sc  Sc65  1  -0.00844274  0.69651555  0.85918755  1
  Sc  Sc66  1  0.04254256  0.32329398  0.82387029  1
  Sc  Sc67  1  0.34474762  0.25908063  0.07487191  1
  Sc  Sc68  1  0.51150021  0.12825074  0.08852766  1
  Sc  Sc69  1  0.91481336  0.51802274  0.69492794  1
  Sc  Sc70  1  0.34863663  0.31109621  0.74285506  1
  Sc  Sc71  1  0.55638788  0.85558908  0.73431840  1
  Sc  Sc72  1  0.73903151  0.31037903  0.31065895  1
  Sc  Sc73  1  0.24369474  0.95134072  0.26674872  1
  Sc  Sc74  1  0.53536172  0.06503459  0.70989311  1
  Sc  Sc75  1  0.81237877  0.44156773  0.48879053  1
  Sc  Sc76  1  0.35112213  0.88306292  0.43988057  1
  Sc  Sc77  1  0.68581638  0.50572648  0.27619759  1
  Sc  Sc78  1  0.32958261  0.52087983  0.78126171  1
  Sc  Sc79  1  0.95469106  0.28779293  0.41719290  1
  Sc  Sc80  1  0.94837508  0.74521816  0.64915696  1
  Sc  Sc81  1  0.03792795  0.47030283  0.49386890  1
  Sc  Sc82  1  0.85693458  0.64061869  0.48526741  1
  Sc  Sc83  1  0.91082802  0.49837489  0.29981795  1
  Sc  Sc84  1  0.68922637  0.78638376  0.12758425  1
  Sc  Sc85  1  0.48343717  0.75414480  0.55234037  1
  Sc  Sc86  1  0.01277935  0.10833638  0.51016957  1
  Sc  Sc87  1  0.11586527  0.65108028  0.04985063  1
  Sc  Sc88  1  0.81339428  0.28391151  0.84792251  1
  Sc  Sc89  1  0.64869364  0.12922040  0.24378098  1
  Sc  Sc90  1  0.21375648  0.06669122  0.46938744  1
  Sc  Sc91  1  0.63853014  0.11690733  0.90759165  1
  Sc  Sc92  1  0.84698149  0.11237393  0.33395495  1
  Sc  Sc93  1  0.35649007  0.91910089  0.64972042  1
  Sc  Sc94  1  0.41197922  0.11268597  0.48507307  1
  Sc  Sc95  1  0.97229474  0.73175506  0.32223034  1
  Sc  Sc96  1  0.26204815  0.69259245  0.51764629  1
  Sc  Sc97  1  0.90225719  0.64117399  0.13244119  1
  Sc  Sc98  1  0.65773168  0.57262225  0.06658887  1
  Sc  Sc99  1  0.48892411  0.96482537  0.91274961  1
  Nb  Nb100  1  0.11008351  0.86022093  0.97743237  1
  Nb  Nb101  1  0.44995977  0.49692733  0.11597061  1
  Nb  Nb102  1  0.70670448  0.90598771  0.91648331  1
  Nb  Nb103  1  0.07135735  0.67122950  0.48250088  1
  Nb  Nb104  1  0.40232507  0.66879236  0.37750099  1
  Nb  Nb105  1  0.55385388  0.94888862  0.52526049  1
  Nb  Nb106  1  0.55676427  0.81477463  0.35446623  1
  Nb  Nb107  1  0.46661320  0.70058418  0.07388449  1
  Nb  Nb108  1  0.94797610  0.25701530  -0.00530572  1
  Nb  Nb109  1  0.50760372  0.56123162  0.91490680  1
  Nb  Nb110  1  0.19767240  0.73137572  0.85654110  1
  Nb  Nb111  1  0.06925303  0.88885608  0.79387348  1
  Nb  Nb112  1  0.39392907  0.80799499  0.23975453  1
  Nb  Nb113  1  0.41839103  0.15941216  0.88820570  1
  Nb  Nb114  1  0.16232814  0.81639933  0.65168117  1
  Nb  Nb115  1  0.14935464  0.02034236  0.67245848  1
  Nb  Nb116  1  0.31877547  0.61779415  0.20357350  1
  Nb  Nb117  1  0.23079700  0.37378911  0.92412349  1
  Nb  Nb118  1  0.88913380  0.88812790  0.82706931  1
  Nb  Nb119  1  0.96802352  0.93777523  0.62847744  1
  Nb  Nb120  1  0.56383549  0.26729823  0.80224524  1
  Nb  Nb121  1  0.41644771  0.54539071  0.55862978  1
  Nb  Nb122  1  0.20829251  0.74618703  0.31998666  1
  Nb  Nb123  1  0.54455513  0.65673249  0.23541034  1
  Nb  Nb124  1  0.75727121  0.25002147  0.51083552  1
