# generated using pymatgen
data_Zr2Sc2Nb
_symmetry_space_group_name_H-M   'P 1'
_cell_length_a   14.41787720
_cell_length_b   13.85815600
_cell_length_c   14.32638063
_cell_angle_alpha   90.05942865
_cell_angle_beta   91.45750847
_cell_angle_gamma   90.46059715
_symmetry_Int_Tables_number   1
_chemical_formula_structural   Zr2Sc2Nb
_chemical_formula_sum   'Zr50 Sc50 Nb25'
_cell_volume   2861.46443496
_cell_formula_units_Z   25
loop_
 _symmetry_equiv_pos_site_id
 _symmetry_equiv_pos_as_xyz
  1  'x, y, z'
loop_
 _atom_site_type_symbol
 _atom_site_label
 _atom_site_symmetry_multiplicity
 _atom_site_fract_x
 _atom_site_fract_y
 _atom_site_fract_z
 _atom_site_occupancy
  Zr  Zr0  1  0.90155426  0.66928265  0.90768351  1
  Zr  Zr1  1  0.90215876  0.35271610  0.53458018  1
  Zr  Zr2  1  0.03616047  0.21702101  0.94898703  1
  Zr  Zr3  1  0.10145762  0.41831381  0.03576050  1
  Zr  Zr4  1  0.17117887  0.27793233  0.15733018  1
  Zr  Zr5  1  0.09257623  0.98433312  0.94579564  1
  Zr  Zr6  1  0.56033603  0.54884957  0.05427485  1
  Zr  Zr7  1  0.33270530  0.47560044  0.14051138  1
  Zr  Zr8  1  0.06128497  0.05182006  0.75350175  1
  Zr  Zr9  1  1.01173034  0.10563908  0.44583930  1
  Zr  Zr10  1  0.51607658  1.00521026  0.33982529  1
  Zr  Zr11  1  0.86913927  0.93579302  0.42104168  1
  Zr  Zr12  1  0.72106797  0.29566462  0.82382678  1
  Zr  Zr13  1  0.08249282  0.07706303  0.12680132  1
  Zr  Zr14  1  0.93225553  0.70807172  0.69157646  1
  Zr  Zr15  1  0.30851828  0.60054620  0.33052501  1
  Zr  Zr16  1  0.28740149  1.00621440  0.44213228  1
  Zr  Zr17  1  0.91015421  0.47149901  0.33809565  1
  Zr  Zr18  1  0.92333419  0.30081395  0.77494830  1
  Zr  Zr19  1  0.81727822  0.21595233  0.39256730  1
  Zr  Zr20  1  0.80856193  0.50988443  0.78359600  1
  Zr  Zr21  1  0.17860084  0.88804872  0.12278349  1
  Zr  Zr22  1  0.60153038  0.12947955  0.50577591  1
  Zr  Zr23  1  0.12029095  -0.02717079  0.54916840  1
  Zr  Zr24  1  0.50072330  0.55405484  0.47352993  1
  Zr  Zr25  1  0.28265003  0.31877381  0.97890688  1
  Zr  Zr26  1  0.44910998  0.95353007  0.54532154  1
  Zr  Zr27  1  0.28927078  0.66259943  0.76264419  1
  Zr  Zr28  1  0.83905836  0.89311973  0.20972787  1
  Zr  Zr29  1  0.41990588  0.72145111  0.61647638  1
  Zr  Zr30  1  0.11060220  0.82810835  0.72280099  1
  Zr  Zr31  1  0.89902858  0.57237313  0.52222835  1
  Zr  Zr32  1  0.53194499  0.16694817  0.11835451  1
  Zr  Zr33  1  0.59386684  0.45381358  0.85939167  1
  Zr  Zr34  1  0.66992042  0.82998364  0.33836311  1
  Zr  Zr35  1  0.23303090  0.77751490  0.50326867  1
  Zr  Zr36  1  0.20922497  0.17304725  0.84701682  1
  Zr  Zr37  1  0.38293349  0.46263352  0.85505750  1
  Zr  Zr38  1  0.62824760  0.96274424  0.14455054  1
  Zr  Zr39  1  0.72696353  0.53729930  0.21116051  1
  Zr  Zr40  1  0.54511951  0.33296425  0.50662081  1
  Zr  Zr41  1  0.09811250  0.61573886  0.40222577  1
  Zr  Zr42  1  0.79978253  0.76767803  0.53718374  1
  Zr  Zr43  1  0.54417900  0.80112569  0.00204634  1
  Zr  Zr44  1  -0.00205888  0.47675138  0.68901847  1
  Zr  Zr45  1  0.63385037  0.91991709  0.85871869  1
  Zr  Zr46  1  0.44058118  0.40694963  0.34215932  1
  Zr  Zr47  1  0.54987194  0.28688588  0.70182749  1
  Zr  Zr48  1  0.30327929  0.88745052  0.66883426  1
  Zr  Zr49  1  0.64648986  0.91461369  0.51608485  1
  Sc  Sc50  1  0.74798379  0.14828871  0.15401672  1
  Sc  Sc51  1  0.11882358  0.27229181  0.66303324  1
  Sc  Sc52  1  0.26530503  0.82022712  0.30435747  1
  Sc  Sc53  1  0.67974419  0.11429857  0.94748946  1
  Sc  Sc54  1  0.24177480  0.36773973  0.34847173  1
  Sc  Sc55  1  0.39392071  0.65568004  0.97361210  1
  Sc  Sc56  1  0.08431742  0.60763078  0.82228457  1
  Sc  Sc57  1  0.11375723  0.42880264  0.51196088  1
  Sc  Sc58  1  0.76672557  0.47536805  0.00004594  1
  Sc  Sc59  1  0.92670272  0.88286435  0.84307444  1
  Sc  Sc60  1  0.72967570  0.72066687  0.75350400  1
  Sc  Sc61  1  0.37282982  0.25996935  0.19159490  1
  Sc  Sc62  1  0.46766317  0.77155935  0.41462060  1
  Sc  Sc63  1  0.94582087  0.15948324  0.61837784  1
  Sc  Sc64  1  0.25907859  0.68192314  0.13210743  1
  Sc  Sc65  1  0.19363567  0.77379111  0.92570823  1
  Sc  Sc66  1  0.12434068  0.51124423  0.22680168  1
  Sc  Sc67  1  0.83739332  0.09749074  0.79497184  1
  Sc  Sc68  1  0.18529460  0.13112099  0.30679947  1
  Sc  Sc69  1  0.69121193  0.62290872  0.40879214  1
  Sc  Sc70  1  0.06837264  0.92601833  0.31080438  1
  Sc  Sc71  1  0.01349508  0.78454109  0.48814439  1
  Sc  Sc72  1  0.51050084  0.60523723  0.25516375  1
  Sc  Sc73  1  0.95831892  0.26903212  0.15292798  1
  Sc  Sc74  1  0.48667827  0.22520395  0.89423491  1
  Sc  Sc75  1  0.29009372  0.56592612  0.52881909  1
  Sc  Sc76  1  0.77978274  0.86372993  0.00263999  1
  Sc  Sc77  1  0.46174709  0.82138589  0.20133639  1
  Sc  Sc78  1  0.47678455  0.01137351  0.97684303  1
  Sc  Sc79  1  0.66712761  0.73651121  0.15916391  1
  Sc  Sc80  1  0.35093301  1.02168074  0.21623435  1
  Sc  Sc81  1  0.46126469  0.49388150  0.66479348  1
  Sc  Sc82  1  0.89245310  0.05474096  0.01888408  1
  Sc  Sc83  1  0.33037611  0.29006166  0.73030960  1
  Sc  Sc84  1  0.70944014  0.40668827  0.40010919  1
  Sc  Sc85  1  0.53085463  0.66245296  0.80080446  1
  Sc  Sc86  1  0.28268687  0.10036113  0.03898670  1
  Sc  Sc87  1  0.69741005  0.66583622  0.94908258  1
  Sc  Sc88  1  0.03496417  0.29619710  0.35081063  1
  Sc  Sc89  1  0.92153046  0.08348018  0.25479624  1
  Sc  Sc90  1  0.92689316  0.48338527  0.12911535  1
  Sc  Sc91  1  0.76092169  0.91763779  0.69349737  1
  Sc  Sc92  1  0.68534097  0.48337888  0.61290700  1
  Sc  Sc93  1  0.60192329  0.22385150  0.31236444  1
  Sc  Sc94  1  0.27008291  -0.03014228  0.85704084  1
  Sc  Sc95  1  0.40984786  0.16407820  0.57807658  1
  Sc  Sc96  1  0.86904350  0.68841581  0.11761940  1
  Sc  Sc97  1  0.87854270  0.70054967  0.33072155  1
  Sc  Sc98  1  0.06516394  0.64441773  0.04157871  1
  Sc  Sc99  1  0.44401328  0.04948650  0.75909182  1
  Nb  Nb100  1  0.78851085  0.07039876  0.54894155  1
  Nb  Nb101  1  0.64759695  0.31450207  1.03321919  1
  Nb  Nb102  1  0.61011265  0.70244775  0.58401459  1
  Nb  Nb103  1  0.93989643  0.93662308  0.62307590  1
  Nb  Nb104  1  0.22990623  0.53914892  0.94537326  1
  Nb  Nb105  1  0.77158671  0.34477199  0.20038188  1
  Nb  Nb106  1  0.84180333  0.27754537  0.98778000  1
  Nb  Nb107  1  0.71696867  0.03788825  0.33830598  1
  Nb  Nb108  1  0.34610975  0.86997050  0.03515742  1
  Nb  Nb109  1  0.33913717  0.36205603  0.53495621  1
  Nb  Nb110  1  0.24456579  0.08617164  0.65988619  1
  Nb  Nb111  1  0.46353237  0.37693431  0.02940616  1
  Nb  Nb112  1  0.22388204  0.47485972  0.70138117  1
  Nb  Nb113  1  0.11375952  0.63735807  0.61353784  1
  Nb  Nb114  1  0.98890112  0.85898029  0.07499468  1
  Nb  Nb115  1  0.55043329  0.86532668  0.69414893  1
  Nb  Nb116  1  0.20913592  0.20505521  0.49771791  1
  Nb  Nb117  1  0.13522032  0.38347306  0.83845363  1
  Nb  Nb118  1  0.56986221  0.39289065  0.19649255  1
  Nb  Nb119  1  0.74450110  0.25755430  0.61765108  1
  Nb  Nb120  1  0.39355661  0.19239620  0.38554175  1
  Nb  Nb121  1  0.06365206  0.72913829  0.23153357  1
  Nb  Nb122  1  0.63858132  0.09036682  0.70643169  1
  Nb  Nb123  1  0.95454449  0.45209495  0.91225675  1
  Nb  Nb124  1  0.41812108  0.83264970  0.84038589  1
