# generated using pymatgen
data_Zr2Sc2Nb
_symmetry_space_group_name_H-M   'P 1'
_cell_length_a   13.92708061
_cell_length_b   14.27698916
_cell_length_c   14.42896170
_cell_angle_alpha   90.39918144
_cell_angle_beta   91.28953498
_cell_angle_gamma   87.51458797
_symmetry_Int_Tables_number   1
_chemical_formula_structural   Zr2Sc2Nb
_chemical_formula_sum   'Zr50 Sc50 Nb25'
_cell_volume   2865.53189456
_cell_formula_units_Z   25
loop_
 _symmetry_equiv_pos_site_id
 _symmetry_equiv_pos_as_xyz
  1  'x, y, z'
loop_
 _atom_site_type_symbol
 _atom_site_label
 _atom_site_symmetry_multiplicity
 _atom_site_fract_x
 _atom_site_fract_y
 _atom_site_fract_z
 _atom_site_occupancy
  Zr  Zr0  1  0.35218617  0.33866418  0.01926366  1
  Zr  Zr1  1  0.26918357  0.51959174  0.71550754  1
  Zr  Zr2  1  0.69015613  0.27724919  0.37118515  1
  Zr  Zr3  1  0.16868744  0.14569213  0.66166068  1
  Zr  Zr4  1  0.29101688  0.85685831  0.24028802  1
  Zr  Zr5  1  0.95868839  0.09423070  0.65998602  1
  Zr  Zr6  1  0.93150941  0.33932452  0.39760839  1
  Zr  Zr7  1  0.34150819  0.07179508  0.77440789  1
  Zr  Zr8  1  0.47681125  0.78820415  0.37134062  1
  Zr  Zr9  1  0.65920578  0.86530393  0.06858241  1
  Zr  Zr10  1  0.06823190  0.17918920  0.47438859  1
  Zr  Zr11  1  0.14480505  0.28828146  0.05216554  1
  Zr  Zr12  1  0.04756076  0.21125866  0.24331349  1
  Zr  Zr13  1  0.11086666  -0.02280243  0.52629060  1
  Zr  Zr14  1  0.38042514  0.23510205  0.61917987  1
  Zr  Zr15  1  0.97489364  0.32322298  0.62402252  1
  Zr  Zr16  1  0.16699127  0.81170693  0.89618118  1
  Zr  Zr17  1  0.66377373  0.06000650  0.13244083  1
  Zr  Zr18  1  0.59240719  0.29256687  0.58543925  1
  Zr  Zr19  1  0.62159737  0.50229154  0.62187849  1
  Zr  Zr20  1  0.84889456  0.36487706  0.20436868  1
  Zr  Zr21  1  0.70098879  0.71909182  0.24184689  1
  Zr  Zr22  1  0.44037524  0.97696735  0.10543850  1
  Zr  Zr23  1  0.08933525  0.73186293  0.53255958  1
  Zr  Zr24  1  0.28289634  0.19263244  0.41975450  1
  Zr  Zr25  1  0.63613014  0.89780943  0.74924827  1
  Zr  Zr26  1  0.49587257  0.77366386  0.14934112  1
  Zr  Zr27  1  0.70040951  0.11749644  0.78706558  1
  Zr  Zr28  1  0.39319039  0.00501394  0.34547401  1
  Zr  Zr29  1  0.80434156  0.89876383  0.25297725  1
  Zr  Zr30  1  0.80079230  0.52675165  0.34011654  1
  Zr  Zr31  1  0.77725768  0.78723501  0.88042968  1
  Zr  Zr32  1  0.46879417  0.36361301  0.20308361  1
  Zr  Zr33  1  -0.00206522  0.55049568  0.42098324  1
  Zr  Zr34  1  0.97664090  0.41180497  0.00645766  1
  Zr  Zr35  1  0.29551005  0.86305572  0.47974143  1
  Zr  Zr36  1  0.97263378  0.91807536  0.93933690  1
  Zr  Zr37  1  0.07796644  0.09809975  0.05251769  1
  Zr  Zr38  1  0.29300816  0.12754395  0.17113182  1
  Zr  Zr39  1  0.83987264  0.56204634  0.12481287  1
  Zr  Zr40  1  0.65325597  0.47647987  0.19139254  1
  Zr  Zr41  1  0.86281180  0.32085019  0.84422320  1
  Zr  Zr42  1  0.52520942  0.08122734  0.68080014  1
  Zr  Zr43  1  0.61825011  0.52081702  0.85436869  1
  Zr  Zr44  1  0.53746502  0.92835177  0.51920977  1
  Zr  Zr45  1  0.78931745  0.24525929  0.65487807  1
  Zr  Zr46  1  0.03496863  0.59455111  0.06943786  1
  Zr  Zr47  1  0.74415254  0.40387007  1.00241820  1
  Zr  Zr48  1  -0.00429911  0.70883314  0.90462829  1
  Zr  Zr49  1  0.39976873  0.52651098  0.89668986  1
  Sc  Sc50  1  0.22227184  0.93764755  0.05663361  1
  Sc  Sc51  1  0.12839368  0.67205562  0.72509781  1
  Sc  Sc52  1  1.04026972  0.47144823  0.80670001  1
  Sc  Sc53  1  0.50580334  0.15166849  0.25947079  1
  Sc  Sc54  1  0.48974152  0.21765457  0.85108809  1
  Sc  Sc55  1  0.03624522  0.90644513  0.16680032  1
  Sc  Sc56  1  0.46647571  0.39726851  0.74807388  1
  Sc  Sc57  1  0.52696692  0.75510403  0.88507447  1
  Sc  Sc58  1  0.34045655  0.73198185  1.01282687  1
  Sc  Sc59  1  0.46811006  0.54907400  0.08511089  1
  Sc  Sc60  1  0.54134602  1.01457097  0.91986326  1
  Sc  Sc61  1  0.29478077  0.12840333  0.96544532  1
  Sc  Sc62  1  0.87221905  1.03180178  0.10392619  1
  Sc  Sc63  1  0.18605839  0.35368372  0.61593374  1
  Sc  Sc64  1  0.13459802  0.02599985  0.84592019  1
  Sc  Sc65  1  0.65804414  0.65298343  0.44409278  1
  Sc  Sc66  1  0.33612770  0.03967603  0.56177144  1
  Sc  Sc67  1  0.84184174  0.56197657  0.89620119  1
  Sc  Sc68  1  0.50930404  0.60203160  0.28744742  1
  Sc  Sc69  1  0.14443827  0.60702491  0.28680530  1
  Sc  Sc70  1  0.89753165  0.93356583  0.52362875  1
  Sc  Sc71  1  0.66357085  0.26641933  0.15399996  1
  Sc  Sc72  1  0.04813534  0.43113224  0.21777124  1
  Sc  Sc73  1  0.10316178  0.82163295  0.35019281  1
  Sc  Sc74  1  0.43175128  0.86624149  0.70495989  1
  Sc  Sc75  1  0.71369242  0.05536185  0.36859771  1
  Sc  Sc76  1  0.82616942  0.59378969  0.55393808  1
  Sc  Sc77  1  0.90851554  0.68951378  0.71212468  1
  Sc  Sc78  1  0.72144857  0.03620141  0.58516465  1
  Sc  Sc79  1  0.53109177  0.12882879  0.46971117  1
  Sc  Sc80  1  0.15063523  0.38218439  0.41598467  1
  Sc  Sc81  1  0.66186653  0.64381061  0.02969417  1
  Sc  Sc82  1  0.25796656  0.31666275  0.23954582  1
  Sc  Sc83  1  0.22595494  0.88925367  0.69570566  1
  Sc  Sc84  1  0.38994182  0.43414900  0.55229822  1
  Sc  Sc85  1  0.07188163  0.24350652  0.84294392  1
  Sc  Sc86  1  0.95781816  0.02543857  0.34644090  1
  Sc  Sc87  1  0.33852826  0.48792486  0.34436637  1
  Sc  Sc88  1  0.27399518  0.31003067  0.81783733  1
  Sc  Sc89  1  0.01902760  0.87302390  0.71441934  1
  Sc  Sc90  1  0.19321807  0.58469627  0.92382408  1
  Sc  Sc91  1  0.88012155  0.74814032  0.42537489  1
  Sc  Sc92  1  0.69081990  0.66601370  0.73377591  1
  Sc  Sc93  1  0.58208882  0.45087510  0.41366825  1
  Sc  Sc94  1  0.90472934  0.10850075  0.87098334  1
  Sc  Sc95  1  0.95005758  0.70051130  0.24219734  1
  Sc  Sc96  1  0.87108257  0.78838417  0.07034860  1
  Sc  Sc97  1  0.17080155  0.03324674  0.31627987  1
  Sc  Sc98  1  0.89342381  0.22821208  0.05205649  1
  Sc  Sc99  1  0.24430548  0.50183527  0.11598593  1
  Nb  Nb100  1  0.14936188  0.73961379  0.10769944  1
  Nb  Nb101  1  0.78406411  0.39719939  0.51861535  1
  Nb  Nb102  1  0.54986760  0.36947729  0.98569248  1
  Nb  Nb103  1  0.32596684  0.71383431  0.80562549  1
  Nb  Nb104  1  0.82298974  0.46543692  0.70895219  1
  Nb  Nb105  1  0.44854796  0.61140053  0.49551909  1
  Nb  Nb106  1  0.57727848  0.92864253  0.26908373  1
  Nb  Nb107  1  0.46872876  0.61393069  0.71124794  1
  Nb  Nb108  1  0.69118899  0.19516591  0.96334472  1
  Nb  Nb109  1  0.85702348  0.17422655  0.47739565  1
  Nb  Nb110  1  0.28918078  0.69229278  0.39811451  1
  Nb  Nb111  1  0.83905298  0.17341393  0.26031606  1
  Nb  Nb112  1  0.55339199  0.74523129  0.58956899  1
  Nb  Nb113  1  0.48924962  0.18375463  0.05710988  1
  Nb  Nb114  1  0.35130611  0.91123612  0.89588251  1
  Nb  Nb115  1  0.20892489  0.55894062  0.51461183  1
  Nb  Nb116  1  0.75537007  0.98097658  0.93801070  1
  Nb  Nb117  1  0.83298062  0.93692774  0.75073697  1
  Nb  Nb118  1  0.32559262  0.66827831  0.20842005  1
  Nb  Nb119  1  0.44405242  0.30069068  0.40031920  1
  Nb  Nb120  1  0.75149426  0.80829259  0.60071986  1
  Nb  Nb121  1  0.03114387  0.51917963  0.60776699  1
  Nb  Nb122  1  0.66478884  0.33604728  0.79754583  1
  Nb  Nb123  1  0.31430194  0.70331872  0.60698551  1
  Nb  Nb124  1  0.69307360  0.85351399  0.42274825  1
