# generated using pymatgen
data_Zr2Sc2Nb
_symmetry_space_group_name_H-M   'P 1'
_cell_length_a   14.00234580
_cell_length_b   14.34509061
_cell_length_c   14.27930780
_cell_angle_alpha   89.65490202
_cell_angle_beta   93.43351605
_cell_angle_gamma   90.83898061
_symmetry_Int_Tables_number   1
_chemical_formula_structural   Zr2Sc2Nb
_chemical_formula_sum   'Zr50 Sc50 Nb25'
_cell_volume   2862.71847653
_cell_formula_units_Z   25
loop_
 _symmetry_equiv_pos_site_id
 _symmetry_equiv_pos_as_xyz
  1  'x, y, z'
loop_
 _atom_site_type_symbol
 _atom_site_label
 _atom_site_symmetry_multiplicity
 _atom_site_fract_x
 _atom_site_fract_y
 _atom_site_fract_z
 _atom_site_occupancy
  Zr  Zr0  1  0.52894828  0.02769266  0.83656037  1
  Zr  Zr1  1  0.89238638  0.52293529  0.65848374  1
  Zr  Zr2  1  0.57500279  0.40898018  0.32410056  1
  Zr  Zr3  1  0.20827036  0.29793924  0.70553291  1
  Zr  Zr4  1  0.92393399  0.31295645  0.41596389  1
  Zr  Zr5  1  0.37377918  0.07578259  0.95329788  1
  Zr  Zr6  1  1.01493603  0.16780861  1.00486510  1
  Zr  Zr7  1  0.80349672  0.42969664  0.29167982  1
  Zr  Zr8  1  0.33748818  0.76267727  0.54412174  1
  Zr  Zr9  1  0.13021593  0.28258420  0.36947186  1
  Zr  Zr10  1  0.51701438  0.70432387  0.41822415  1
  Zr  Zr11  1  0.26635287  0.48010344  0.80947476  1
  Zr  Zr12  1  0.94062709  0.79981155  0.16429902  1
  Zr  Zr13  1  0.69446924  0.60455017  0.33187342  1
  Zr  Zr14  1  0.89235910  1.04309040  0.87883055  1
  Zr  Zr15  1  0.44888274  0.51011155  0.99424623  1
  Zr  Zr16  1  0.74465885  0.65099089  0.93758232  1
  Zr  Zr17  1  0.15709966  0.30054583  0.15637603  1
  Zr  Zr18  1  0.52194463  0.66642850  0.62335651  1
  Zr  Zr19  1  0.57394970  0.90211766  0.51079714  1
  Zr  Zr20  1  0.36957374  0.80502481  0.14939897  1
  Zr  Zr21  1  0.52906075  0.47484967  0.54837859  1
  Zr  Zr22  1  0.70172005  0.12284060  0.56027312  1
  Zr  Zr23  1  0.21075272  0.93342532  0.46168318  1
  Zr  Zr24  1  0.99338861  0.91999062  0.52164365  1
  Zr  Zr25  1  0.07447794  0.08959825  0.41068498  1
  Zr  Zr26  1  0.26612500  0.09424785  0.30725794  1
  Zr  Zr27  1  0.00139636  0.21292478  0.78226725  1
  Zr  Zr28  1  0.38725660  0.89104207  0.36250316  1
  Zr  Zr29  1  0.73088144  0.88613497  0.13599746  1
  Zr  Zr30  1  0.33405576  0.53550579  0.61669657  1
  Zr  Zr31  1  0.07002148  0.96336385  0.82625181  1
  Zr  Zr32  1  0.20435542  0.10073750  0.08994526  1
  Zr  Zr33  1  0.63056190  0.50202334  0.13682043  1
  Zr  Zr34  1  0.70346198  0.04234256  0.37622395  1
  Zr  Zr35  1  0.30986049  0.66299137  0.96304764  1
  Zr  Zr36  1  0.25154761  0.91116226  0.99894259  1
  Zr  Zr37  1  0.93391991  0.72081631  0.59091018  1
  Zr  Zr38  1  0.63977597  0.31752693  0.64583878  1
  Zr  Zr39  1  0.81647175  0.35676235  0.80160669  1
  Zr  Zr40  1  0.54598155  0.96007420  0.26674573  1
  Zr  Zr41  1  0.41788645  0.83461191  0.90997747  1
  Zr  Zr42  1  0.88463091  0.11074716  0.47766600  1
  Zr  Zr43  1  0.16890310  0.30283113  0.92412050  1
  Zr  Zr44  1  0.18389962  0.11591275  0.86772787  1
  Zr  Zr45  1  0.28855675  0.36657251  0.50931438  1
  Zr  Zr46  1  0.13280756  0.82137663  0.65770208  1
  Zr  Zr47  1  0.87817536  0.04542905  0.10619169  1
  Zr  Zr48  1  0.93508598  0.55336668  0.44241093  1
  Zr  Zr49  1  0.70393940  0.03537044  0.95865015  1
  Sc  Sc50  1  0.94178547  0.30446842  0.16825600  1
  Sc  Sc51  1  0.86511752  0.28873488  0.61478501  1
  Sc  Sc52  1  0.37733958  0.29849117  0.88776091  1
  Sc  Sc53  1  0.49897127  0.85540175  0.70775088  1
  Sc  Sc54  1  0.90412167  0.74886270  0.37300486  1
  Sc  Sc55  1  0.09679541  0.65489534  0.26324386  1
  Sc  Sc56  1  0.25400855  0.44669420  0.03413272  1
  Sc  Sc57  1  0.17304272  0.90747850  0.23553979  1
  Sc  Sc58  1  0.52905194  0.65730020  0.83441660  1
  Sc  Sc59  1  0.48607182  0.46026581  0.77257146  1
  Sc  Sc60  1  0.04820889  0.94582433  0.04368547  1
  Sc  Sc61  1  0.87000081  0.83787690  0.94832092  1
  Sc  Sc62  1  0.30408845  0.70002472  0.33221614  1
  Sc  Sc63  1  0.64519620  0.84160923  0.89902985  1
  Sc  Sc64  1  0.72486829  0.68244251  0.52880706  1
  Sc  Sc65  1  0.09606808  0.55847714  0.90964369  1
  Sc  Sc66  1  0.31745272  0.70225844  0.74877623  1
  Sc  Sc67  1  0.11423786  0.74256160  0.46154696  1
  Sc  Sc68  1  0.52928145  0.93639948  0.05621584  1
  Sc  Sc69  1  0.66120749  0.44695248  0.92166814  1
  Sc  Sc70  1  0.34722092  0.13095169  0.73655431  1
  Sc  Sc71  1  0.14581238  0.04522410  0.64192545  1
  Sc  Sc72  1  0.51641701  0.20146345  0.24449889  1
  Sc  Sc73  1  0.70230271  0.29139867  0.17620211  1
  Sc  Sc74  1  0.74943478  0.15969097  0.77070537  1
  Sc  Sc75  1  0.13331707  0.76720254  0.86722053  1
  Sc  Sc76  1  0.57267116  0.24731245  0.84204690  1
  Sc  Sc77  1  0.74509629  0.68619783  0.14671306  1
  Sc  Sc78  1  0.51957735  0.11617979  0.63670513  1
  Sc  Sc79  1  0.34613111  0.28848157  0.32048429  1
  Sc  Sc80  1  0.68781423  0.53156945  0.71849626  1
  Sc  Sc81  1  0.13923155  0.73385432  0.07921957  1
  Sc  Sc82  1  0.83193619  0.47257028  0.07023803  1
  Sc  Sc83  1  0.54063536  0.70195047  0.04302921  1
  Sc  Sc84  1  0.11293819  0.60157312  0.67705351  1
  Sc  Sc85  1  0.39496294  0.50965906  0.38626634  1
  Sc  Sc86  1  0.73817942  0.44371682  0.49625469  1
  Sc  Sc87  1  -0.01994964  0.37640782  0.96452423  1
  Sc  Sc88  1  0.91173269  0.87305685  0.72572232  1
  Sc  Sc89  1  0.28961791  0.92771108  0.77096621  1
  Sc  Sc90  1  0.68700414  0.08776121  0.17109230  1
  Sc  Sc91  1  0.47524172  0.08620866  0.42330377  1
  Sc  Sc92  1  0.70689045  0.96036579  0.71696218  1
  Sc  Sc93  1  0.77232662  0.23815593  -0.01302361  1
  Sc  Sc94  1  0.17834614  0.54647670  0.44482903  1
  Sc  Sc95  1  0.28936408  0.15910274  0.52099311  1
  Sc  Sc96  1  0.71354192  0.82913073  0.35622439  1
  Sc  Sc97  1  0.90561202  0.95993067  0.30957168  1
  Sc  Sc98  1  0.74187980  0.73655992  0.73319170  1
  Sc  Sc99  1  0.06897637  0.41528094  0.55991046  1
  Nb  Nb100  1  0.37023888  0.96689330  0.57732619  1
  Nb  Nb101  1  0.90535598  0.59051978  0.22778584  1
  Nb  Nb102  1  0.54125220  0.14987039  0.03504192  1
  Nb  Nb103  1  0.03045065  0.44828365  0.30057486  1
  Nb  Nb104  1  0.53288772  0.33252221  0.04844467  1
  Nb  Nb105  1  0.48227749  0.60050140  0.22337521  1
  Nb  Nb106  1  0.05007494  0.11366841  0.21695235  1
  Nb  Nb107  1  0.41356822  0.41861513  0.17982529  1
  Nb  Nb108  1  0.94605719  0.68574930  0.80433262  1
  Nb  Nb109  1  0.87445504  0.52920680  0.86470323  1
  Nb  Nb110  1  0.50781961  0.28337729  0.47834066  1
  Nb  Nb111  1  0.03492457  0.41279821  0.76514571  1
  Nb  Nb112  1  0.35253359  0.24436469  0.09345498  1
  Nb  Nb113  1  0.38496975  0.03413956  0.16384860  1
  Nb  Nb114  1  0.06879092  0.50864088  0.11616948  1
  Nb  Nb115  1  0.79564677  0.90809148  0.53736093  1
  Nb  Nb116  1  0.94548394  0.64784718  0.02621830  1
  Nb  Nb117  1  0.70207317  0.25131894  0.39612343  1
  Nb  Nb118  1  0.06088690  0.21507249  0.57319181  1
  Nb  Nb119  1  0.55882052  0.77063595  0.23319613  1
  Nb  Nb120  1  0.91406937  0.06608436  0.66484643  1
  Nb  Nb121  1  0.86038331  0.16714208  0.28502932  1
  Nb  Nb122  1  0.42187113  0.31024886  0.65681076  1
  Nb  Nb123  1  0.29314354  0.59976306  0.15333462  1
  Nb  Nb124  1  0.22643751  0.46174835  0.26329574  1
