# generated using pymatgen
data_Zr2Sc2Nb
_symmetry_space_group_name_H-M   'P 1'
_cell_length_a   13.92673907
_cell_length_b   14.36717259
_cell_length_c   14.43563749
_cell_angle_alpha   90.13154164
_cell_angle_beta   88.50333960
_cell_angle_gamma   88.99253261
_symmetry_Int_Tables_number   1
_chemical_formula_structural   Zr2Sc2Nb
_chemical_formula_sum   'Zr50 Sc50 Nb25'
_cell_volume   2886.95316232
_cell_formula_units_Z   25
loop_
 _symmetry_equiv_pos_site_id
 _symmetry_equiv_pos_as_xyz
  1  'x, y, z'
loop_
 _atom_site_type_symbol
 _atom_site_label
 _atom_site_symmetry_multiplicity
 _atom_site_fract_x
 _atom_site_fract_y
 _atom_site_fract_z
 _atom_site_occupancy
  Zr  Zr0  1  0.74783185  0.03409194  0.08318755  1
  Zr  Zr1  1  0.25722042  0.91028469  0.17634135  1
  Zr  Zr2  1  0.68812548  0.23562378  -0.01042881  1
  Zr  Zr3  1  0.66462960  0.59975177  0.75342583  1
  Zr  Zr4  1  0.24490727  0.15671281  0.89323446  1
  Zr  Zr5  1  0.05120370  0.04097371  0.93949998  1
  Zr  Zr6  1  0.46993136  0.75232315  0.46311361  1
  Zr  Zr7  1  0.92953258  0.05982167  0.73130707  1
  Zr  Zr8  1  1.00126348  0.86965809  0.83782209  1
  Zr  Zr9  1  0.55194980  0.08043450  0.68152250  1
  Zr  Zr10  1  0.09491963  0.77213868  0.26132807  1
  Zr  Zr11  1  0.47166564  0.12928628  0.50458989  1
  Zr  Zr12  1  0.16229795  0.08930831  0.11240603  1
  Zr  Zr13  1  0.10251943  0.26637884  0.03288390  1
  Zr  Zr14  1  0.47721610  0.48508882  0.08103854  1
  Zr  Zr15  1  0.93190216  0.86366320  0.61994024  1
  Zr  Zr16  1  0.72874831  0.94564702  0.64636985  1
  Zr  Zr17  1  0.15727252  0.99051738  0.76155734  1
  Zr  Zr18  1  0.34775773  0.60235538  0.97077787  1
  Zr  Zr19  1  0.27226768  0.07081122  0.50064610  1
  Zr  Zr20  1  0.07268403  0.47803781  0.93877008  1
  Zr  Zr21  1  0.97761431  0.68074158  0.93392044  1
  Zr  Zr22  1  0.93387184  0.28762676  0.67847482  1
  Zr  Zr23  1  0.41237674  0.95059702  0.38581898  1
  Zr  Zr24  1  0.38967416  0.84746969  0.98418450  1
  Zr  Zr25  1  0.51014641  0.32524904  0.57273718  1
  Zr  Zr26  1  0.00871144  0.40720295  0.14442054  1
  Zr  Zr27  1  0.82839835  0.94403522  0.44712549  1
  Zr  Zr28  1  0.35632813  0.26140582  0.38269409  1
  Zr  Zr29  1  0.16571962  0.36938622  0.73831800  1
  Zr  Zr30  1  0.47484334  0.11669914  0.26561676  1
  Zr  Zr31  1  0.86360096  0.10981464  0.92873255  1
  Zr  Zr32  1  0.32649774  0.24731134  0.11186320  1
  Zr  Zr33  1  0.85483854  0.12759957  0.30687461  1
  Zr  Zr34  1  0.80421353  0.56174413  0.91161767  1
  Zr  Zr35  1  0.66195635  0.40865955  0.87587322  1
  Zr  Zr36  1  0.96093406  0.04705915  0.12991891  1
  Zr  Zr37  1  0.47922607  0.69787868  0.83803196  1
  Zr  Zr38  1  0.00754805  0.57423668  0.25378203  1
  Zr  Zr39  1  0.52932545  0.54518431  0.59837146  1
  Zr  Zr40  1  0.67791907  0.41755617  0.45635754  1
  Zr  Zr41  1  0.81163001  0.35471127  0.27621472  1
  Zr  Zr42  1  0.69423124  0.82332253  0.13304637  1
  Zr  Zr43  1  0.03386396  0.23274865  0.84400142  1
  Zr  Zr44  1  0.58949034  0.26483048  0.76063478  1
  Zr  Zr45  1  0.37280404  0.26177579  0.74152247  1
  Zr  Zr46  1  0.89001575  0.36931457  0.93444720  1
  Zr  Zr47  1  0.04425737  0.01715353  0.33212743  1
  Zr  Zr48  1  0.25419722  0.10657341  0.28488241  1
  Zr  Zr49  1  0.51012975  0.71181300  0.06866464  1
  Sc  Sc50  1  0.56373214  0.29186058  0.35419200  1
  Sc  Sc51  1  0.16052699  0.57196764  0.61764097  1
  Sc  Sc52  1  0.66359218  0.99186937  0.27512896  1
  Sc  Sc53  1  0.73970859  0.40799042  0.66386016  1
  Sc  Sc54  1  0.23296937  0.57170801  0.27333728  1
  Sc  Sc55  1  0.23473685  0.56306295  0.80453457  1
  Sc  Sc56  1  0.10155016  0.96599759  0.56156704  1
  Sc  Sc57  1  0.85907417  0.29184153  0.47360833  1
  Sc  Sc58  1  0.43271044  0.04519164  0.87131557  1
  Sc  Sc59  1  0.79971050  0.56371821  0.29401515  1
  Sc  Sc60  1  0.61227596  0.92693173  0.47585226  1
  Sc  Sc61  1  0.06054035  0.39439116  0.55871663  1
  Sc  Sc62  1  0.70517546  0.77242750  0.32835215  1
  Sc  Sc63  1  0.53220242  0.30078724  0.14629062  1
  Sc  Sc64  1  0.56533777  0.89039638  0.79591068  1
  Sc  Sc65  1  0.45972252  0.47276621  0.79870711  1
  Sc  Sc66  1  0.55104198  0.09888908  0.07204761  1
  Sc  Sc67  1  0.11535030  0.21930841  0.43458962  1
  Sc  Sc68  1  0.95895838  0.50838311  0.74530678  1
  Sc  Sc69  1  0.18838348  0.33144980  0.25219532  1
  Sc  Sc70  1  0.19537104  0.75071860  0.91620597  1
  Sc  Sc71  1  0.57238949  0.76037904  0.63800988  1
  Sc  Sc72  1  0.07839046  0.57465811  0.43601592  1
  Sc  Sc73  1  0.13402628  0.76952908  0.70143786  1
  Sc  Sc74  1  0.23625284  0.46675154  0.09606708  1
  Sc  Sc75  1  0.28340662  0.37480189  0.91664888  1
  Sc  Sc76  1  0.46890393  0.25317924  0.94017499  1
  Sc  Sc77  1  0.74890177  0.16627024  0.63490514  1
  Sc  Sc78  1  0.12390529  0.76263490  0.48306653  1
  Sc  Sc79  1  0.62108583  0.60931587  0.42109651  1
  Sc  Sc80  1  0.93804764  0.10298483  0.52046843  1
  Sc  Sc81  1  0.87421975  0.87098173  0.01737305  1
  Sc  Sc82  1  0.69949368  0.74517502  0.93674868  1
  Sc  Sc83  1  0.30829070  0.76397817  0.32964336  1
  Sc  Sc84  1  0.07760319  0.85027536  0.06980712  1
  Sc  Sc85  1  0.84326298  0.72837673  0.76001697  1
  Sc  Sc86  1  0.87346039  0.24012501  0.10254398  1
  Sc  Sc87  1  0.71719931  0.42085140  0.08685292  1
  Sc  Sc88  1  0.23647760  0.42708121  0.43597856  1
  Sc  Sc89  1  0.86993933  0.51676816  0.49823189  1
  Sc  Sc90  1  0.12567078  0.17111964  0.65432765  1
  Sc  Sc91  1  0.91984107  0.73652328  0.39795805  1
  Sc  Sc92  1  0.87929941  0.89647207  0.24673091  1
  Sc  Sc93  1  0.47854990  0.88961437  0.18901536  1
  Sc  Sc94  1  0.33592763  0.86546078  0.77017611  1
  Sc  Sc95  1  0.68561956  0.13813774  0.43796999  1
  Sc  Sc96  1  0.35950206  0.67847934  0.65857453  1
  Sc  Sc97  1  0.76485216  0.72901886  0.55124429  1
  Sc  Sc98  1  0.46215951  0.62540011  0.26244807  1
  Sc  Sc99  1  0.77940299  0.92857368  0.84638049  1
  Nb  Nb100  1  0.89144888  0.71484496  0.15369521  1
  Nb  Nb101  1  0.68330848  0.61780996  0.13183477  1
  Nb  Nb102  1  0.33829204  0.45552354  0.61973963  1
  Nb  Nb103  1  0.36432709  0.04868506  0.07295762  1
  Nb  Nb104  1  0.28058294  0.71476522  0.12358313  1
  Nb  Nb105  1  0.58961114  0.57188398  0.94997776  1
  Nb  Nb106  1  0.89027871  0.54601806  0.08101850  1
  Nb  Nb107  1  0.38960516  0.41631249  0.25457829  1
  Nb  Nb108  1  0.20608645  0.92490977  0.37776931  1
  Nb  Nb109  1  0.79430643  0.24657918  0.81039590  1
  Nb  Nb110  1  0.58507781  0.92091659  0.99361624  1
  Nb  Nb111  1  0.97092864  0.66653823  0.60056036  1
  Nb  Nb112  1  0.31876518  0.61564747  0.47063195  1
  Nb  Nb113  1  0.29274844  0.85050859  0.54925308  1
  Nb  Nb114  1  0.65001571  0.08798491  0.86254056  1
  Nb  Nb115  1  0.68919871  0.19589556  0.21197954  1
  Nb  Nb116  1  0.23108950  0.95687517  0.95262412  1
  Nb  Nb117  1  0.45357079  0.46928301  0.42524720  1
  Nb  Nb118  1  0.00443909  0.39267248  0.35446244  1
  Nb  Nb119  1  0.32940415  0.07331643  0.68499302  1
  Nb  Nb120  1  0.28788955  0.27114015  0.57133529  1
  Nb  Nb121  1  0.44975681  0.93089768  0.60401622  1
  Nb  Nb122  1  0.60483577  0.46742224  0.26084314  1
  Nb  Nb123  1  0.10043496  0.63115691  0.08453719  1
  Nb  Nb124  1  1.02503361  0.21522780  0.24491253  1
