# generated using pymatgen
data_Zr2Sc2Nb
_symmetry_space_group_name_H-M   'P 1'
_cell_length_a   14.07194355
_cell_length_b   14.30784471
_cell_length_c   14.29982652
_cell_angle_alpha   90.74979067
_cell_angle_beta   87.57745277
_cell_angle_gamma   90.20265430
_symmetry_Int_Tables_number   1
_chemical_formula_structural   Zr2Sc2Nb
_chemical_formula_sum   'Zr50 Sc50 Nb25'
_cell_volume   2876.28311575
_cell_formula_units_Z   25
loop_
 _symmetry_equiv_pos_site_id
 _symmetry_equiv_pos_as_xyz
  1  'x, y, z'
loop_
 _atom_site_type_symbol
 _atom_site_label
 _atom_site_symmetry_multiplicity
 _atom_site_fract_x
 _atom_site_fract_y
 _atom_site_fract_z
 _atom_site_occupancy
  Zr  Zr0  1  0.86676686  0.71102556  0.67169349  1
  Zr  Zr1  1  1.00182658  0.20162946  0.80518594  1
  Zr  Zr2  1  0.83285332  0.49715097  0.57503973  1
  Zr  Zr3  1  0.38858753  0.56041322  0.26533633  1
  Zr  Zr4  1  0.50472146  0.89338299  0.06954684  1
  Zr  Zr5  1  0.72314725  0.94068939  0.96017232  1
  Zr  Zr6  1  0.46104093  0.14988886  0.84068774  1
  Zr  Zr7  1  0.29329812  0.77675490  0.25870657  1
  Zr  Zr8  1  0.56797137  0.95671988  0.45160248  1
  Zr  Zr9  1  0.78516278  0.37590488  0.35950238  1
  Zr  Zr10  1  0.43424909  0.13025104  0.38676966  1
  Zr  Zr11  1  0.95253404  0.36553732  0.12756787  1
  Zr  Zr12  1  0.52580550  0.80970547  0.27156588  1
  Zr  Zr13  1  0.26162630  0.48561324  0.59784948  1
  Zr  Zr14  1  0.77200237  0.67895705  0.87662296  1
  Zr  Zr15  1  0.45477609  0.08550952  0.61251738  1
  Zr  Zr16  1  0.88284904  0.18023235  0.00420223  1
  Zr  Zr17  1  0.67530843  0.64701543  0.66559024  1
  Zr  Zr18  1  0.98367120  0.59062822  0.15156840  1
  Zr  Zr19  1  0.34398778  0.51853042  0.76796853  1
  Zr  Zr20  1  0.60403683  0.62085655  0.30299801  1
  Zr  Zr21  1  0.26696451  0.03031453  0.49703724  1
  Zr  Zr22  1  0.53790560  0.59465100  0.80562966  1
  Zr  Zr23  1  0.83077484  0.69331112  0.25930985  1
  Zr  Zr24  1  0.38702312  0.70531975  0.42316143  1
  Zr  Zr25  1  0.68202866  0.10722869  0.09513779  1
  Zr  Zr26  1  0.38648885  0.76815651  0.86095351  1
  Zr  Zr27  1  0.67948227  0.03312625  0.70996327  1
  Zr  Zr28  1  0.64545075  0.50098325  0.95319616  1
  Zr  Zr29  1  0.38452631  0.86335103  0.57219785  1
  Zr  Zr30  1  0.11012589  0.53992153  0.76500969  1
  Zr  Zr31  1  0.72340739  0.85612193  0.57721145  1
  Zr  Zr32  1  0.50397462  0.28452419  0.50897724  1
  Zr  Zr33  1  0.14067380  0.97118342  0.13880751  1
  Zr  Zr34  1  0.03519377  0.58200967  0.57615403  1
  Zr  Zr35  1  0.54672970  0.03000621  0.24140337  1
  Zr  Zr36  1  0.36752623  0.28058629  -0.00344708  1
  Zr  Zr37  1  0.94662742  0.52079564  0.37427296  1
  Zr  Zr38  1  0.66890068  0.66717482  0.10181268  1
  Zr  Zr39  1  0.05261396  0.76073162  0.71553550  1
  Zr  Zr40  1  0.01162542  0.29717288  0.31649623  1
  Zr  Zr41  1  0.44713077  0.63983628  0.62184644  1
  Zr  Zr42  1  0.53486897  0.96157978  0.86973235  1
  Zr  Zr43  1  0.45476453  0.67859515  0.10953459  1
  Zr  Zr44  1  0.22539494  0.62118905  0.13857167  1
  Zr  Zr45  1  0.74838670  0.02687668  0.30939774  1
  Zr  Zr46  1  0.92609024  0.87603528  0.27879315  1
  Zr  Zr47  1  0.85368740  0.05136063  0.83157235  1
  Zr  Zr48  1  0.84271007  0.17917544  0.43103690  1
  Zr  Zr49  1  0.84776380  0.19069210  0.21949068  1
  Sc  Sc50  1  0.10635287  0.40186984  0.48436896  1
  Sc  Sc51  1  0.36681961  0.28824985  0.70741264  1
  Sc  Sc52  1  0.34677027  0.99257544  0.19311303  1
  Sc  Sc53  1  0.58673040  0.75563907  0.92994552  1
  Sc  Sc54  1  0.07885340  0.19000339  0.49519230  1
  Sc  Sc55  1  0.53844003  0.82307068  0.70722723  1
  Sc  Sc56  1  0.56385095  0.39227189  0.32342218  1
  Sc  Sc57  1  0.70603712  0.31487716  0.13731767  1
  Sc  Sc58  1  0.93233367  0.85182906  0.87638686  1
  Sc  Sc59  1  0.21662101  0.14775472  0.30285928  1
  Sc  Sc60  1  0.95725732  0.79134734  0.48242675  1
  Sc  Sc61  1  0.23771001  0.15226362  0.86009614  1
  Sc  Sc62  1  0.85414923  0.52815566  1.00706079  1
  Sc  Sc63  1  0.21101980  0.58341267  0.41186187  1
  Sc  Sc64  1  0.92436728  0.11730782  0.62165132  1
  Sc  Sc65  1  0.78913434  0.66370964  0.46184113  1
  Sc  Sc66  1  0.07429822  0.77642815  1.07887813  1
  Sc  Sc67  1  0.15796791  0.32947497  0.70798127  1
  Sc  Sc68  1  0.70999408  0.87604303  0.16303715  1
  Sc  Sc69  1  0.21390293  0.64059102  0.92357738  1
  Sc  Sc70  1  0.42163695  0.49019320  0.46291341  1
  Sc  Sc71  1  0.69248062  0.43426702  0.73867916  1
  Sc  Sc72  1  0.79167486  0.24515163  0.70719386  1
  Sc  Sc73  1  0.40615697  0.53485936  -0.03161221  1
  Sc  Sc74  1  0.78376809  0.33247489  0.90929641  1
  Sc  Sc75  1  0.07235337  0.04328535  0.95725090  1
  Sc  Sc76  1  0.66494564  0.12187885  0.52664000  1
  Sc  Sc77  1  0.57584129  0.74109000  0.48445271  1
  Sc  Sc78  1  0.86296137  0.75847935  0.05584596  1
  Sc  Sc79  1  0.90309710  0.98840390  0.09856438  1
  Sc  Sc80  1  0.88517797  0.53471187  0.78134604  1
  Sc  Sc81  1  0.33844527  -0.03110803  0.76189692  1
  Sc  Sc82  1  0.16908222  0.85559402  0.87527211  1
  Sc  Sc83  1  0.18632843  0.11918417  0.66434748  1
  Sc  Sc84  1  0.76334789  0.50304795  0.20018197  1
  Sc  Sc85  1  -0.00169911  0.06448535  0.33208700  1
  Sc  Sc86  1  0.23734610  0.40037303  0.89997474  1
  Sc  Sc87  1  0.15725637  0.92641881  0.34256599  1
  Sc  Sc88  1  0.07291887  0.71170593  0.30121879  1
  Sc  Sc89  1  0.45825274  0.24384411  0.18753693  1
  Sc  Sc90  1  0.31357583  0.35833321  0.32505155  1
  Sc  Sc91  1  0.10221874  0.25897977  0.98862895  1
  Sc  Sc92  1  0.13143545  0.47403822  0.25823787  1
  Sc  Sc93  1  0.28716726  0.26162787  0.51273039  1
  Sc  Sc94  1  0.25492602  0.70398743  0.68669821  1
  Sc  Sc95  1  0.18549699  0.78456638  0.48933089  1
  Sc  Sc96  1  0.29373476  0.81426179  0.05319373  1
  Sc  Sc97  1  0.53236969  0.45900963  0.12508108  1
  Sc  Sc98  1  -0.00165901  0.40343689  0.89316600  1
  Sc  Sc99  1  0.63102553  0.51617969  0.49283304  1
  Nb  Nb100  1  0.04984891  0.99394282  0.75478277  1
  Nb  Nb101  1  0.38228842  0.91667163  0.37915449  1
  Nb  Nb102  1  0.50936416  0.43795810  0.64869670  1
  Nb  Nb103  1  0.58378318  0.24241222  0.70671397  1
  Nb  Nb104  1  0.31186200  0.43561374  0.12008855  1
  Nb  Nb105  1  0.91120890  0.33137028  0.51411587  1
  Nb  Nb106  1  0.32721762  -0.00715485  0.96838013  1
  Nb  Nb107  1  0.18193345  0.90420767  0.65122599  1
  Nb  Nb108  1  0.57674073  0.28199892  -0.01524165  1
  Nb  Nb109  1  0.96646314  0.37481606  0.68146447  1
  Nb  Nb110  1  0.72690219  0.83407658  0.36603223  1
  Nb  Nb111  1  0.25582686  0.13718858  0.08126945  1
  Nb  Nb112  1  0.84659174  0.97488465  0.47499243  1
  Nb  Nb113  1  0.73306356  0.85018320  0.78330817  1
  Nb  Nb114  1  0.69563276  0.32665067  0.53873422  1
  Nb  Nb115  1  1.00322313  0.64774113  0.91871978  1
  Nb  Nb116  1  0.89969230  0.91394877  0.66532683  1
  Nb  Nb117  1  0.48382648  0.09677813  0.03526860  1
  Nb  Nb118  1  0.49988509  0.37786777  0.84306900  1
  Nb  Nb119  1  0.05292278  0.97510337  0.53207878  1
  Nb  Nb120  1  0.18267296  0.30504721  0.15881488  1
  Nb  Nb121  1  0.66893510  0.14604220  0.88703586  1
  Nb  Nb122  1  0.04570723  0.15471443  0.15205560  1
  Nb  Nb123  1  0.11176198  0.48425646  0.04095939  1
  Nb  Nb124  1  0.64330666  0.20563628  0.33520091  1
