# generated using pymatgen
data_Zr2Sc2Nb
_symmetry_space_group_name_H-M   'P 1'
_cell_length_a   14.22015343
_cell_length_b   14.44134822
_cell_length_c   14.04570018
_cell_angle_alpha   92.05943274
_cell_angle_beta   89.79228937
_cell_angle_gamma   90.22568096
_symmetry_Int_Tables_number   1
_chemical_formula_structural   Zr2Sc2Nb
_chemical_formula_sum   'Zr50 Sc50 Nb25'
_cell_volume   2882.49658819
_cell_formula_units_Z   25
loop_
 _symmetry_equiv_pos_site_id
 _symmetry_equiv_pos_as_xyz
  1  'x, y, z'
loop_
 _atom_site_type_symbol
 _atom_site_label
 _atom_site_symmetry_multiplicity
 _atom_site_fract_x
 _atom_site_fract_y
 _atom_site_fract_z
 _atom_site_occupancy
  Zr  Zr0  1  0.04171897  0.22046767  0.33291278  1
  Zr  Zr1  1  0.13817417  0.84376769  0.73833545  1
  Zr  Zr2  1  0.98024790  0.55605775  0.89730412  1
  Zr  Zr3  1  0.46559850  0.95062643  0.30041013  1
  Zr  Zr4  1  0.88045580  0.29500259  0.20991040  1
  Zr  Zr5  1  0.68965157  0.38145232  0.72344570  1
  Zr  Zr6  1  0.41959990  0.78292097  0.92511467  1
  Zr  Zr7  1  0.08912447  0.73862263  0.94189673  1
  Zr  Zr8  1  0.92975694  0.79197161  0.80958230  1
  Zr  Zr9  1  0.58592180  0.07332310  0.42310349  1
  Zr  Zr10  1  0.92635925  0.83913188  0.20850682  1
  Zr  Zr11  1  0.21147892  0.11704568  0.26845962  1
  Zr  Zr12  1  0.85764272  0.27760655  0.82804237  1
  Zr  Zr13  1  0.49751751  0.27812106  0.68838759  1
  Zr  Zr14  1  0.33373545  0.82063748  0.15874914  1
  Zr  Zr15  1  0.25802814  0.29018394  0.38734754  1
  Zr  Zr16  1  0.78706833  0.68391395  0.25685280  1
  Zr  Zr17  1  0.07650326  0.62638936  0.72008981  1
  Zr  Zr18  1  0.82162056  0.12065260  0.32716474  1
  Zr  Zr19  1  0.17005124  0.63125669  0.34733805  1
  Zr  Zr20  1  0.11073851  0.53355860  0.10195827  1
  Zr  Zr21  1  0.94463186  0.65282406  0.41874247  1
  Zr  Zr22  1  0.72638322  0.77621113  0.71399124  1
  Zr  Zr23  1  0.70471035  0.93365923  0.29292728  1
  Zr  Zr24  1  0.29725529  0.43108941  0.05051126  1
  Zr  Zr25  1  0.49899451  0.68229577  0.52154557  1
  Zr  Zr26  1  0.76826859  0.04402311  0.52256368  1
  Zr  Zr27  1  0.04453882  0.02042267  0.70304277  1
  Zr  Zr28  1  0.80186290  0.44922754  0.93332261  1
  Zr  Zr29  1  0.65487508  0.58823089  0.69338010  1
  Zr  Zr30  1  0.46748925  0.46958393  0.65643847  1
  Zr  Zr31  1  0.50898163  0.96086338  0.87035570  1
  Zr  Zr32  1  0.34846370  0.51023621  0.47404818  1
  Zr  Zr33  1  0.34569577  0.11550111  0.92422684  1
  Zr  Zr34  1  0.39779102  0.53794924  0.88448369  1
  Zr  Zr35  1  0.44433006  0.66467680  0.73116890  1
  Zr  Zr36  1  0.35089292  0.02037847  0.12953605  1
  Zr  Zr37  1  0.63631491  0.28492701  0.91502441  1
  Zr  Zr38  1  0.25967112  0.89918110  0.95119803  1
  Zr  Zr39  1  0.37123189  0.10090186  0.47651258  1
  Zr  Zr40  1  0.70188839  0.39796825  0.11373972  1
  Zr  Zr41  1  0.32221114  0.14289057  0.69136812  1
  Zr  Zr42  1  0.95221302  0.48694005  0.54331531  1
  Zr  Zr43  1  0.90622747  0.67049738  0.05617397  1
  Zr  Zr44  1  0.24514927  0.94937397  0.36814389  1
  Zr  Zr45  1  0.52699484  0.11888303  0.03478266  1
  Zr  Zr46  1  0.95754530  0.14204579  0.51548054  1
  Zr  Zr47  1  0.16907007  0.10837911  0.04187964  1
  Zr  Zr48  1  0.06331976  0.95254146  0.92438807  1
  Zr  Zr49  1  0.17200633  0.13623919  0.50538169  1
  Sc  Sc50  1  0.46578167  0.29648297  0.47701470  1
  Sc  Sc51  1  1.01023101  0.35754008  -0.01784732  1
  Sc  Sc52  1  0.86753313  0.85408742  0.41546850  1
  Sc  Sc53  1  0.53100901  0.30114133  0.12003474  1
  Sc  Sc54  1  0.01000425  0.01318549  0.31326962  1
  Sc  Sc55  1  0.75104389  0.46117252  0.53707311  1
  Sc  Sc56  1  0.15124726  0.51981444  0.52696988  1
  Sc  Sc57  1  0.13257551  0.93137625  0.14647763  1
  Sc  Sc58  1  0.50828036  0.69336328  0.11621591  1
  Sc  Sc59  1  0.62782895  0.54594972  0.25478743  1
  Sc  Sc60  1  0.64591167  0.13813795  0.21528083  1
  Sc  Sc61  1  0.68920700  0.17355121  0.72090572  1
  Sc  Sc62  1  0.88290443  0.90100589  0.63274985  1
  Sc  Sc63  1  0.33089226  0.75957340  0.36510539  1
  Sc  Sc64  1  0.51893779  0.04600804  0.63948190  1
  Sc  Sc65  1  0.44795230  0.39865342  0.28142414  1
  Sc  Sc66  1  0.65068462  0.87152980  0.51330326  1
  Sc  Sc67  1  0.72237859  0.66428778  0.47244186  1
  Sc  Sc68  1  0.42585712  0.89299037  0.51425494  1
  Sc  Sc69  1  0.27512845  0.66039118  1.00519501  1
  Sc  Sc70  1  0.59963668  0.70112818  0.89759840  1
  Sc  Sc71  1  0.32706320  0.24163934  0.11867652  1
  Sc  Sc72  1  0.71501157  0.78838691  0.09455316  1
  Sc  Sc73  1  0.28771722  0.72571546  0.58930733  1
  Sc  Sc74  1  0.57175561  0.76327554  0.32240160  1
  Sc  Sc75  1  0.10536003  0.21911002  0.70472391  1
  Sc  Sc76  1  0.88093247  0.66639918  0.63390666  1
  Sc  Sc77  1  0.05670344  0.94940368  0.50083241  1
  Sc  Sc78  1  0.59626862  0.48946416  0.89396622  1
  Sc  Sc79  1  0.54827248  0.91518768  0.08621599  1
  Sc  Sc80  1  0.69050876  0.24576990  0.52677552  1
  Sc  Sc81  1  0.08262787  0.75144608  0.54185121  1
  Sc  Sc82  1  0.31147737  0.34861503  0.78220836  1
  Sc  Sc83  1  0.18294024  0.50001375  0.88466833  1
  Sc  Sc84  1  0.89236999  0.48488360  0.13275061  1
  Sc  Sc85  1  0.01957574  0.15787833  0.89402256  1
  Sc  Sc86  1  0.53668072  0.83648022  0.70180127  1
  Sc  Sc87  1  0.06620822  0.41461423  0.72603785  1
  Sc  Sc88  1  0.75982755  1.00362494  0.09059465  1
  Sc  Sc89  1  0.24746197  0.45104204  0.26923490  1
  Sc  Sc90  1  0.87195038  0.31683505  0.42309081  1
  Sc  Sc91  1  0.67261779  0.33366756  0.32321818  1
  Sc  Sc92  1  0.43779908  0.16756447  0.28390721  1
  Sc  Sc93  1  0.89884536  0.86461754  0.00605051  1
  Sc  Sc94  1  0.56609905  0.49337931  0.45734363  1
  Sc  Sc95  1  0.96457353  0.09550553  0.11746722  1
  Sc  Sc96  1  0.12145182  0.29993632  0.15316736  1
  Sc  Sc97  1  0.03233828  0.44442765  0.32765854  1
  Sc  Sc98  1  0.86531446  0.01280365  0.86185248  1
  Sc  Sc99  1  0.79935179  0.21079846  0.02821963  1
  Nb  Nb100  1  0.85918426  0.49352555  0.73876341  1
  Nb  Nb101  1  0.82292910  0.49791892  0.33366510  1
  Nb  Nb102  1  0.69989349  0.97648301  0.72508954  1
  Nb  Nb103  1  0.08747889  0.81170035  0.33367575  1
  Nb  Nb104  1  0.43559843  0.32119300  0.93585832  1
  Nb  Nb105  1  0.24062430  0.96293761  0.59930911  1
  Nb  Nb106  1  0.27166549  0.33620648  0.58563560  1
  Nb  Nb107  1  0.13440323  0.73131485  0.15349729  1
  Nb  Nb108  1  0.43853861  0.59682881  0.31375720  1
  Nb  Nb109  1  0.48708667  0.49707752  0.08992520  1
  Nb  Nb110  1  0.88617983  0.30921862  0.63457800  1
  Nb  Nb111  1  0.67785474  0.07500975  0.90599702  1
  Nb  Nb112  1  0.71005770  0.87319696  0.89992811  1
  Nb  Nb113  1  0.69923487  0.58892435  0.05841301  1
  Nb  Nb114  1  0.34358360  0.90128147  0.74593895  1
  Nb  Nb115  1  0.27456495  0.53259595  0.69220306  1
  Nb  Nb116  1  0.07557825  0.32205109  0.51810861  1
  Nb  Nb117  1  0.87578375  0.11959461  0.69401019  1
  Nb  Nb118  1  0.20522507  0.26619143  0.92482408  1
  Nb  Nb119  1  0.98986498  0.63702288  0.23718004  1
  Nb  Nb120  1  0.79356765  0.65479435  0.87471679  1
  Nb  Nb121  1  0.50557263  0.15265871  0.82477061  1
  Nb  Nb122  1  0.25802842  0.70340763  0.80709742  1
  Nb  Nb123  1  0.31322968  0.61360908  0.18257385  1
  Nb  Nb124  1  0.20013853  0.05074844  0.81418766  1
