# generated using pymatgen
data_Zr2Sc2Nb
_symmetry_space_group_name_H-M   'P 1'
_cell_length_a   14.18550171
_cell_length_b   14.37224360
_cell_length_c   14.04773188
_cell_angle_alpha   89.76584682
_cell_angle_beta   91.99785492
_cell_angle_gamma   93.30953346
_symmetry_Int_Tables_number   1
_chemical_formula_structural   Zr2Sc2Nb
_chemical_formula_sum   'Zr50 Sc50 Nb25'
_cell_volume   2857.49551428
_cell_formula_units_Z   25
loop_
 _symmetry_equiv_pos_site_id
 _symmetry_equiv_pos_as_xyz
  1  'x, y, z'
loop_
 _atom_site_type_symbol
 _atom_site_label
 _atom_site_symmetry_multiplicity
 _atom_site_fract_x
 _atom_site_fract_y
 _atom_site_fract_z
 _atom_site_occupancy
  Zr  Zr0  1  0.18358692  0.63573672  0.95487320  1
  Zr  Zr1  1  0.35916880  1.06141999  0.48493997  1
  Zr  Zr2  1  0.91553479  0.17428553  0.28368595  1
  Zr  Zr3  1  0.93522454  0.09704495  0.50023407  1
  Zr  Zr4  1  0.41475661  0.43395344  0.74325155  1
  Zr  Zr5  1  0.22174490  0.63589140  0.29583396  1
  Zr  Zr6  1  0.90551909  0.39888762  0.38659775  1
  Zr  Zr7  1  0.05762472  0.11724966  0.70125637  1
  Zr  Zr8  1  0.27272430  0.64100307  0.50788254  1
  Zr  Zr9  1  0.27089233  0.42985897  0.56333781  1
  Zr  Zr10  1  0.43568463  0.22723603  0.80986754  1
  Zr  Zr11  1  0.46032175  0.66924863  0.38120794  1
  Zr  Zr12  1  0.57515867  0.36366641  0.89083386  1
  Zr  Zr13  1  0.14581390  0.44355717  0.89382332  1
  Zr  Zr14  1  0.31207988  0.94505993  0.69413576  1
  Zr  Zr15  1  0.36428087  0.04881244  0.91002015  1
  Zr  Zr16  1  0.10721117  0.88643030  0.67910555  1
  Zr  Zr17  1  0.52044838  0.67337434  0.03154227  1
  Zr  Zr18  1  0.31946963  0.32678366  0.95550416  1
  Zr  Zr19  1  -0.01122066  0.32628028  0.77008724  1
  Zr  Zr20  1  0.46053830  0.49463870  0.51264327  1
  Zr  Zr21  1  0.82665017  0.76085805  0.35851699  1
  Zr  Zr22  1  0.45629466  0.64401358  0.64650179  1
  Zr  Zr23  1  0.57171246  0.26818968  0.23435003  1
  Zr  Zr24  1  0.75097735  0.25833015  0.35090988  1
  Zr  Zr25  1  0.91004350  0.16745650  0.05690712  1
  Zr  Zr26  1  0.24623614  0.00943584  0.31221561  1
  Zr  Zr27  1  0.36902735  0.52286170  0.95405020  1
  Zr  Zr28  1  0.88668906  0.57742947  0.48425458  1
  Zr  Zr29  1  0.62628671  0.82968224  0.36314106  1
  Zr  Zr30  1  0.40555487  0.58048277  0.18286948  1
  Zr  Zr31  1  0.17289314  0.04365197  0.86745833  1
  Zr  Zr32  1  0.49657470  0.80559543  0.18873111  1
  Zr  Zr33  1  0.15182591  0.01984005  0.53546541  1
  Zr  Zr34  1  0.62229855  0.79263669  0.85826598  1
  Zr  Zr35  1  0.73389882  0.14515066  0.14344112  1
  Zr  Zr36  1  0.53842048  0.16142164  0.44029225  1
  Zr  Zr37  1  0.71822126  0.03311155  0.73034421  1
  Zr  Zr38  1  0.56248895  0.57319999  0.84850124  1
  Zr  Zr39  1  0.54717951  0.02983035  0.11637268  1
  Zr  Zr40  1  0.34080332  0.95937586  0.12124811  1
  Zr  Zr41  1  0.30577330  0.73721303  0.08911608  1
  Zr  Zr42  1  0.71781996  -0.01832043  0.98026015  1
  Zr  Zr43  1  0.91020143  0.35342115  0.96124174  1
  Zr  Zr44  1  0.68450750  0.65151657  0.67956969  1
  Zr  Zr45  1  0.71083643  0.34435821  0.06504662  1
  Zr  Zr46  1  0.47099594  0.96962463  0.32492747  1
  Zr  Zr47  1  0.72500874  0.14281751  0.53498262  1
  Zr  Zr48  1  0.47115530  0.87299134  0.98017746  1
  Zr  Zr49  1  0.67423354  0.59173497  0.44842861  1
  Sc  Sc50  1  0.51995994  0.46677743  0.30305526  1
  Sc  Sc51  1  0.40283702  0.30113232  0.39198973  1
  Sc  Sc52  1  1.03173698  0.51047595  0.05740541  1
  Sc  Sc53  1  0.71240647  0.89910916  0.17980983  1
  Sc  Sc54  1  0.27922135  0.13893231  0.69308370  1
  Sc  Sc55  1  0.89150450  0.96685415  0.29087876  1
  Sc  Sc56  1  0.71981187  0.45473832  0.25086507  1
  Sc  Sc57  1  0.49103474  0.08075586  0.65611857  1
  Sc  Sc58  1  0.55528382  0.03544180  0.85908749  1
  Sc  Sc59  1  0.02399766  0.29414618  0.55884129  1
  Sc  Sc60  1  0.62796074  0.44507015  0.67760392  1
  Sc  Sc61  1  0.49201092  0.21170612  0.03292885  1
  Sc  Sc62  1  0.05650451  0.70228718  0.57030708  1
  Sc  Sc63  1  0.66133030  0.66019586  0.22502024  1
  Sc  Sc64  1  0.50164154  0.86026958  0.70578251  1
  Sc  Sc65  1  0.30964613  0.81729839  0.29896492  1
  Sc  Sc66  1  0.85405516  0.52888213  0.69164195  1
  Sc  Sc67  1  0.09501601  0.22058070  0.92605666  1
  Sc  Sc68  1  0.11942065  0.31933896  0.11887713  1
  Sc  Sc69  1  0.39384062  0.70967601  0.84549436  1
  Sc  Sc70  1  0.75499357  0.47482338  0.88165895  1
  Sc  Sc71  1  0.91567767  0.94203244  0.05976133  1
  Sc  Sc72  1  0.27107890  0.15080472  0.06894751  1
  Sc  Sc73  1  0.09459938  0.51281681  0.45550179  1
  Sc  Sc74  1  0.27125590  0.44290137  0.33230031  1
  Sc  Sc75  1  0.07282014  0.49683583  0.66917187  1
  Sc  Sc76  1  0.72204431  0.18642433  0.91287407  1
  Sc  Sc77  1  0.91033628  0.08092650  0.86062001  1
  Sc  Sc78  1  0.61641801  0.36076064  0.47466366  1
  Sc  Sc79  1  0.90394216  0.36263463  0.17693393  1
  Sc  Sc80  1  0.62744124  0.23735907  0.69400254  1
  Sc  Sc81  1  0.23521598  0.21084593  0.27712006  1
  Sc  Sc82  1  0.02066472  0.89971129  0.86203192  1
  Sc  Sc83  1  0.40231909  0.84052587  0.50737439  1
  Sc  Sc84  1  0.08269123  0.69019273  0.14898506  1
  Sc  Sc85  1  0.21549384  0.32299394  0.73894586  1
  Sc  Sc86  1  0.81329183  0.35127893  0.57163762  1
  Sc  Sc87  1  0.73925806  0.75538076  0.03928930  1
  Sc  Sc88  1  0.89234737  0.58160332  0.26266356  1
  Sc  Sc89  1  0.77902009  0.93847151  0.48920829  1
  Sc  Sc90  1  0.10186990  0.68733457  0.78065691  1
  Sc  Sc91  1  0.07678759  0.87664391  0.27473373  1
  Sc  Sc92  1  0.67499997  0.05456913  0.32611184  1
  Sc  Sc93  1  0.13868820  0.89651081  0.06093596  1
  Sc  Sc94  1  0.95973366  0.72759491  0.96982018  1
  Sc  Sc95  1  0.08031687  0.08440295  0.15737527  1
  Sc  Sc96  1  0.24985491  0.84596397  0.88358737  1
  Sc  Sc97  1  0.90947066  0.74380128  0.73425349  1
  Sc  Sc98  1  0.07835206  0.30544425  0.34696995  1
  Sc  Sc99  1  0.21881592  0.22378772  0.49983809  1
  Nb  Nb100  1  0.23456531  0.50018690  0.11294114  1
  Nb  Nb101  1  0.50957239  0.42810922  0.08197174  1
  Nb  Nb102  1  0.07099326  0.49452108  0.25548523  1
  Nb  Nb103  1  0.18916697  0.83735118  0.47049380  1
  Nb  Nb104  1  0.65956618  0.54413586  0.04126707  1
  Nb  Nb105  1  0.98794281  0.88290141  0.47576009  1
  Nb  Nb106  1  0.27229902  0.75275209  0.66950779  1
  Nb  Nb107  1  0.36367096  0.34244679  0.16781250  1
  Nb  Nb108  1  0.07423736  0.08123084  0.36738729  1
  Nb  Nb109  1  0.79531070  0.32590671  0.78049458  1
  Nb  Nb110  1  0.86387335  0.17373611  0.68070339  1
  Nb  Nb111  1  0.81495926  0.87348459  0.85685115  1
  Nb  Nb112  1  0.41812689  0.13866132  0.23896881  1
  Nb  Nb113  1  0.84568449  0.56654774  0.06120131  1
  Nb  Nb114  1  0.90641809  0.95159155  0.66695233  1
  Nb  Nb115  1  0.82662283  0.75038952  0.55189435  1
  Nb  Nb116  1  0.03551558  0.69980036  0.36410596  1
  Nb  Nb117  1  0.89848107  0.76766660  0.17884965  1
  Nb  Nb118  1  0.71767264  0.85000700  0.67696546  1
  Nb  Nb119  1  0.26631487  0.56269436  0.74270492  1
  Nb  Nb120  1  0.77578778  0.66139691  0.86902818  1
  Nb  Nb121  1  0.42782014  0.28224203  0.60063818  1
  Nb  Nb122  1  0.96032799  0.53942949  0.86581195  1
  Nb  Nb123  1  0.60161053  0.75999126  0.53634353  1
  Nb  Nb124  1  0.58326638  0.96544261  0.52582029  1
