# generated using pymatgen
data_Zr2Sc2Nb
_symmetry_space_group_name_H-M   'P 1'
_cell_length_a   14.08605256
_cell_length_b   14.50781833
_cell_length_c   14.13360418
_cell_angle_alpha   89.18033735
_cell_angle_beta   89.84039468
_cell_angle_gamma   91.27403368
_symmetry_Int_Tables_number   1
_chemical_formula_structural   Zr2Sc2Nb
_chemical_formula_sum   'Zr50 Sc50 Nb25'
_cell_volume   2887.29013307
_cell_formula_units_Z   25
loop_
 _symmetry_equiv_pos_site_id
 _symmetry_equiv_pos_as_xyz
  1  'x, y, z'
loop_
 _atom_site_type_symbol
 _atom_site_label
 _atom_site_symmetry_multiplicity
 _atom_site_fract_x
 _atom_site_fract_y
 _atom_site_fract_z
 _atom_site_occupancy
  Zr  Zr0  1  0.57080521  0.35663691  0.39978384  1
  Zr  Zr1  1  0.20908611  0.24266990  0.33412860  1
  Zr  Zr2  1  0.16257287  0.04140517  0.23069776  1
  Zr  Zr3  1  0.87616941  0.28920974  0.67665472  1
  Zr  Zr4  1  0.42741792  0.22700950  0.28378501  1
  Zr  Zr5  1  0.24577276  0.70016353  0.68427674  1
  Zr  Zr6  1  0.24770855  0.69746272  0.28906484  1
  Zr  Zr7  1  0.28929594  0.56352446  0.13843895  1
  Zr  Zr8  1  0.11728512  0.15003627  0.01162906  1
  Zr  Zr9  1  0.29742254  0.33379544  0.66317915  1
  Zr  Zr10  1  0.56066239  0.80197239  0.92538767  1
  Zr  Zr11  1  0.13541909  0.52149968  0.62730906  1
  Zr  Zr12  1  0.35637345  0.52925284  0.66149709  1
  Zr  Zr13  1  0.98973333  0.94263897  0.35292273  1
  Zr  Zr14  1  0.09085429  0.62397125  0.84724753  1
  Zr  Zr15  1  0.32127808  0.19438273  0.50837526  1
  Zr  Zr16  1  0.12506582  0.71280997  0.48946994  1
  Zr  Zr17  1  0.97549859  0.47938063  0.75631366  1
  Zr  Zr18  1  0.16529285  0.80999956  0.85120401  1
  Zr  Zr19  1  0.51776886  0.59730751  0.88500832  1
  Zr  Zr20  1  0.83755635  0.25432106  0.44332584  1
  Zr  Zr21  1  0.19596342  0.73171335  0.06394910  1
  Zr  Zr22  1  0.31520115  0.64640401  0.89110290  1
  Zr  Zr23  1  0.76966676  0.83680745  0.03180859  1
  Zr  Zr24  1  0.10032649  0.30754503  0.70312514  1
  Zr  Zr25  1  0.72486208  0.64441578  0.95117961  1
  Zr  Zr26  1  0.82843967  0.08991462  0.71207011  1
  Zr  Zr27  1  0.48069916  0.10880710  0.65077621  1
  Zr  Zr28  1  0.96208958  1.03871123  0.15495121  1
  Zr  Zr29  1  0.91869865  0.57725445  0.56180334  1
  Zr  Zr30  1  0.15360756  0.00320448  0.84330972  1
  Zr  Zr31  1  0.47386420  0.06865514  0.11845808  1
  Zr  Zr32  1  0.56939235  0.50478078  0.70109252  1
  Zr  Zr33  1  0.34577260  0.89576143  0.74424963  1
  Zr  Zr34  1  0.86655946  0.22675323  0.22109916  1
  Zr  Zr35  1  0.32662776  0.88252955  0.18572903  1
  Zr  Zr36  1  0.65309551  0.69598490  0.15191451  1
  Zr  Zr37  1  0.74540375  0.05650538  0.10910152  1
  Zr  Zr38  1  0.56562621  0.36300824  0.18112526  1
  Zr  Zr39  1  0.78063618  0.90367710  0.64460383  1
  Zr  Zr40  1  0.79325350  0.06045545  0.33129286  1
  Zr  Zr41  1  0.49462574  0.33405207  0.60443362  1
  Zr  Zr42  1  0.91038602  0.55289690  0.95983760  1
  Zr  Zr43  1  0.35124105  0.87468400  0.96706737  1
  Zr  Zr44  1  0.94498814  0.72558377  0.38435479  1
  Zr  Zr45  1  0.78072125  0.14308221  0.90748623  1
  Zr  Zr46  1  0.73279717  0.28545335  0.07510406  1
  Zr  Zr47  1  0.56662452  0.91016069  0.72292894  1
  Zr  Zr48  1  0.17800461  0.89121418  0.62608212  1
  Zr  Zr49  1  0.65926870  1.02410225  0.54388870  1
  Sc  Sc50  1  0.52523067  0.14677401  0.44558488  1
  Sc  Sc51  1  0.67926385  0.22028066  0.58724793  1
  Sc  Sc52  1  0.86459090  0.52819671  0.34376449  1
  Sc  Sc53  1  0.49476864  0.74273543  0.31104260  1
  Sc  Sc54  1  0.31076172  0.09366466  0.96779521  1
  Sc  Sc55  1  0.11900560  0.53133832  0.03126563  1
  Sc  Sc56  1  0.26883874  0.11775944  0.71445022  1
  Sc  Sc57  1  0.36036573  0.75611443  0.49863962  1
  Sc  Sc58  1  0.63975152  0.17777334  0.25317356  1
  Sc  Sc59  1  0.59153744  0.81207992  0.52419689  1
  Sc  Sc60  1  0.65743296  0.30335522  0.77711174  1
  Sc  Sc61  1  0.95199461  0.42083615  0.14205814  1
  Sc  Sc62  1  0.05763418  0.81768969  0.20455286  1
  Sc  Sc63  1  0.50173668  0.55565481  0.49327762  1
  Sc  Sc64  1  0.69384006  0.62256666  0.54895965  1
  Sc  Sc65  1  0.04933399  0.06499030  0.66260499  1
  Sc  Sc66  1  0.87384897  0.66877413  0.15816162  1
  Sc  Sc67  1  0.59425447  0.40749082  0.94814089  1
  Sc  Sc68  1  0.04738792  0.35667739  0.93317322  1
  Sc  Sc69  1  0.17754548  0.44022265  0.27072220  1
  Sc  Sc70  1  0.56992360  0.88520810  0.13768063  1
  Sc  Sc71  1  0.52003983  0.54144719  0.10134600  1
  Sc  Sc72  1  0.42224382  0.27808046  0.02462249  1
  Sc  Sc73  1  0.45285838  0.22604661  0.81405455  1
  Sc  Sc74  1  0.74379372  0.49743063  0.11887759  1
  Sc  Sc75  1  0.01040353  0.14617462  0.34340941  1
  Sc  Sc76  1  0.71992370  0.70772662  0.35680105  1
  Sc  Sc77  1  0.79340045  0.87911916  0.44108644  1
  Sc  Sc78  1  0.83451767  0.35933557  0.89734433  1
  Sc  Sc79  1  0.94012530  0.99344530  0.94912819  1
  Sc  Sc80  1  0.98043140  0.76611735  0.98361764  1
  Sc  Sc81  1  0.58577237  0.95882831  0.33978021  1
  Sc  Sc82  1  0.15302134  0.93736045  0.04611043  1
  Sc  Sc83  1  0.46561382  0.71229371  0.69915748  1
  Sc  Sc84  1  0.76374207  0.90172453  0.84268672  1
  Sc  Sc85  1  0.16179027  1.05355068  0.47413703  1
  Sc  Sc86  1  0.97191361  0.88290002  0.76001285  1
  Sc  Sc87  1  0.39772741  0.96394797  0.52952010  1
  Sc  Sc88  1  0.42726669  0.72109058  0.08914691  1
  Sc  Sc89  1  0.67551132  0.71813249  0.74639578  1
  Sc  Sc90  1  0.99664891  0.17587428  0.83386672  1
  Sc  Sc91  1  0.27595501  0.55979703  0.45364397  1
  Sc  Sc92  1  0.77066053  0.51994193  0.75041425  1
  Sc  Sc93  1  0.35774682  0.03786585  0.32537455  1
  Sc  Sc94  1  0.43179910  0.53647007  0.29808265  1
  Sc  Sc95  1  0.20163363  0.87746231  0.38354150  1
  Sc  Sc96  1  0.46318487  0.02358456  0.86463278  1
  Sc  Sc97  1  0.89620509  0.06158589  0.51586883  1
  Sc  Sc98  1  0.73910961  0.42640195  0.52180801  1
  Sc  Sc99  1  0.81130095  0.87019006  0.22867318  1
  Nb  Nb100  1  0.92433239  0.20732092  0.03375257  1
  Nb  Nb101  1  0.03878655  0.71122288  0.67397257  1
  Nb  Nb102  1  0.99489418  0.87490483  0.54186694  1
  Nb  Nb103  1  0.36471096  0.37659017  0.42730938  1
  Nb  Nb104  1  0.63919788  0.08984774  0.77266771  1
  Nb  Nb105  1  0.17257249  0.37314997  0.48930364  1
  Nb  Nb106  1  0.59145044  0.17716299  0.97311645  1
  Nb  Nb107  1  0.42023831  0.41783996  0.81661471  1
  Nb  Nb108  1  0.35679666  0.37842516  0.19505982  1
  Nb  Nb109  1  0.24999018  0.27903940  0.87607830  1
  Nb  Nb110  1  0.88174791  0.69261325  0.80029134  1
  Nb  Nb111  1  -0.02855352  0.39943419  0.53633214  1
  Nb  Nb112  1  0.06641947  0.53892169  0.41188912  1
  Nb  Nb113  1  0.21174273  0.34882999  0.06217660  1
  Nb  Nb114  1  0.07693856  0.25282002  0.17343028  1
  Nb  Nb115  1  0.05047027  0.22630580  0.52416325  1
  Nb  Nb116  1  -0.00229686  0.35515107  0.34645184  1
  Nb  Nb117  1  0.75466084  0.36683677  0.29104642  1
  Nb  Nb118  1  0.21135137  0.45996804  0.82994055  1
  Nb  Nb119  1  0.64119122  0.52910787  0.31087346  1
  Nb  Nb120  1  0.62801857  -0.01057448  -0.03670245  1
  Nb  Nb121  1  0.35404134  0.46484869  0.98312431  1
  Nb  Nb122  1  0.06755461  0.61031740  0.22780272  1
  Nb  Nb123  1  0.85155904  0.74216104  0.59881457  1
  Nb  Nb124  1  0.28131276  0.18007732  0.15025188  1
