# generated using pymatgen
data_Zr2Sc2Nb
_symmetry_space_group_name_H-M   'P 1'
_cell_length_a   14.04167196
_cell_length_b   14.04037843
_cell_length_c   14.62797075
_cell_angle_alpha   89.06374967
_cell_angle_beta   89.40871587
_cell_angle_gamma   90.16777510
_symmetry_Int_Tables_number   1
_chemical_formula_structural   Zr2Sc2Nb
_chemical_formula_sum   'Zr50 Sc50 Nb25'
_cell_volume   2883.35771545
_cell_formula_units_Z   25
loop_
 _symmetry_equiv_pos_site_id
 _symmetry_equiv_pos_as_xyz
  1  'x, y, z'
loop_
 _atom_site_type_symbol
 _atom_site_label
 _atom_site_symmetry_multiplicity
 _atom_site_fract_x
 _atom_site_fract_y
 _atom_site_fract_z
 _atom_site_occupancy
  Zr  Zr0  1  0.67698020  0.39197557  0.63555057  1
  Zr  Zr1  1  0.29891078  0.40798184  0.69538117  1
  Zr  Zr2  1  0.06152596  0.47352830  0.43023527  1
  Zr  Zr3  1  0.25204626  0.83824753  0.25941505  1
  Zr  Zr4  1  0.35316430  0.22100441  0.23005888  1
  Zr  Zr5  1  0.04112764  0.12784116  0.63749449  1
  Zr  Zr6  1  0.87335364  0.58600952  0.91342872  1
  Zr  Zr7  1  0.85981958  0.08874156  0.12428846  1
  Zr  Zr8  1  0.05376548  0.52521557  0.01219036  1
  Zr  Zr9  1  0.84474985  0.46300014  0.34026904  1
  Zr  Zr10  1  0.17297415  0.30179783  0.55365462  1
  Zr  Zr11  1  0.78177014  0.39233812  0.95692688  1
  Zr  Zr12  1  0.14313694  0.69796956  0.13268120  1
  Zr  Zr13  1  0.26455084  0.86006013  0.46658830  1
  Zr  Zr14  1  0.66530415  0.84275486  0.35045403  1
  Zr  Zr15  1  0.12405705  0.69979241  0.91818544  1
  Zr  Zr16  1  0.24473774  0.52461721  0.53519468  1
  Zr  Zr17  1  -0.01783394  0.38711611  0.85190524  1
  Zr  Zr18  1  0.43312151  0.96219063  0.28621320  1
  Zr  Zr19  1  0.36441549  0.71927632  0.60860624  1
  Zr  Zr20  1  0.49744614  0.32706745  0.73217759  1
  Zr  Zr21  1  0.97378243  0.28681381  0.48381806  1
  Zr  Zr22  1  0.58090932  0.85881894  0.15097471  1
  Zr  Zr23  1  0.03848806  0.09211697  0.23606321  1
  Zr  Zr24  1  0.98685382  0.32789792  0.05840256  1
  Zr  Zr25  1  0.06890565  0.50408239  0.22736643  1
  Zr  Zr26  1  0.32269914  0.81487024  0.85893489  1
  Zr  Zr27  1  0.06326463  0.87447183  0.35617927  1
  Zr  Zr28  1  0.67548855  0.14453479  0.63921117  1
  Zr  Zr29  1  0.48657459  0.36249668  0.31671587  1
  Zr  Zr30  1  0.65653533  0.46656113  0.43348451  1
  Zr  Zr31  1  0.84849646  0.72956672  0.68130647  1
  Zr  Zr32  1  0.87225935  0.19937894  0.93047850  1
  Zr  Zr33  1  0.77484265  0.27909867  0.48873499  1
  Zr  Zr34  1  0.47562857  0.54362391  0.70746146  1
  Zr  Zr35  1  0.54763703  0.36846504  0.95166650  1
  Zr  Zr36  1  0.45006155  0.46392060  0.10752942  1
  Zr  Zr37  1  0.06427256  0.45396763  0.64959593  1
  Zr  Zr38  1  0.69771103  0.26648783  0.81000009  1
  Zr  Zr39  1  0.86458973  0.07659071  0.54090436  1
  Zr  Zr40  1  0.05643934  0.10922619  0.03734039  1
  Zr  Zr41  1  0.51091098  0.14243222  0.33751371  1
  Zr  Zr42  1  0.86571992  0.97647824  0.93891370  1
  Zr  Zr43  1  0.92001092  0.78425204  0.86507024  1
  Zr  Zr44  1  0.68203071  0.27281333  0.32257659  1
  Zr  Zr45  1  0.97522626  0.93157163  0.74039428  1
  Zr  Zr46  1  0.36493223  0.83518234  0.08667886  1
  Zr  Zr47  1  0.85949908  0.85511694  0.49409698  1
  Zr  Zr48  1  0.86997790  0.95938978  0.32352133  1
  Zr  Zr49  1  0.50920753  0.16804874  0.92282103  1
  Sc  Sc50  1  0.93836941  0.70255562  0.28373214  1
  Sc  Sc51  1  0.52629445  0.75277658  0.74246194  1
  Sc  Sc52  1  0.27167122  0.61959792  0.76784632  1
  Sc  Sc53  1  0.74062387  0.76223459  0.00357660  1
  Sc  Sc54  1  0.55582453  0.25640229  0.14090915  1
  Sc  Sc55  1  0.04698416  0.11482470  0.84765584  1
  Sc  Sc56  1  0.14788822  0.66579161  0.36185706  1
  Sc  Sc57  1  0.31480999  0.63672777  0.99477731  1
  Sc  Sc58  1  0.67433047  0.02366835  0.45767889  1
  Sc  Sc59  1  0.48400426  0.96061811  0.87680818  1
  Sc  Sc60  1  0.68322108  0.59939655  0.62915540  1
  Sc  Sc61  1  0.94747479  0.72110199  0.06719828  1
  Sc  Sc62  1  0.47350670  0.05576213  0.09763536  1
  Sc  Sc63  1  0.86768471  0.51788793  0.13289049  1
  Sc  Sc64  1  0.65813441  0.45760406  0.20294133  1
  Sc  Sc65  1  0.55062371  0.26772654  0.51536925  1
  Sc  Sc66  1  0.31895707  0.62895220  0.21049811  1
  Sc  Sc67  1  0.35558202  0.93197930  0.67455478  1
  Sc  Sc68  1  0.22637724  0.06914552  0.53785434  1
  Sc  Sc69  1  0.54026820  0.78162903  0.95240192  1
  Sc  Sc70  1  0.24198606  0.05461667  0.33329464  1
  Sc  Sc71  1  0.45154536  0.07296210  0.53265479  1
  Sc  Sc72  1  0.57312876  0.94971486  0.67165311  1
  Sc  Sc73  1  0.12180951  0.91520266  0.92547963  1
  Sc  Sc74  1  0.23584195  0.44706474  0.08432076  1
  Sc  Sc75  1  0.28051757  0.45409584  0.33054466  1
  Sc  Sc76  1  0.28649335  0.07991753  0.90321170  1
  Sc  Sc77  1  1.03394524  0.62493749  0.74992354  1
  Sc  Sc78  1  0.48439169  0.86665354  0.47780179  1
  Sc  Sc79  1  0.54784647  0.66563609  0.48189791  1
  Sc  Sc80  1  0.14401063  0.26848149  0.75626740  1
  Sc  Sc81  1  0.96430576  0.30809144  0.26846064  1
  Sc  Sc82  1  0.24974215  0.04265545  0.11995543  1
  Sc  Sc83  1  0.97888622  0.67023735  0.50733788  1
  Sc  Sc84  1  0.34712073  0.25449611  0.45261125  1
  Sc  Sc85  1  0.86576352  0.48509666  0.54830679  1
  Sc  Sc86  1  0.03799840  0.08444774  0.42992901  1
  Sc  Sc87  1  0.67103500  0.05542195  0.21960749  1
  Sc  Sc88  1  0.70033372  0.67600164  0.21657634  1
  Sc  Sc89  1  0.06922146  0.90062579  0.56467178  1
  Sc  Sc90  1  0.81179392  0.87622009  0.15415207  1
  Sc  Sc91  1  0.88774531  0.29490188  0.68090473  1
  Sc  Sc92  1  0.15495944  0.26953851  0.35326062  1
  Sc  Sc93  1  0.44758996  0.46521673  0.51080818  1
  Sc  Sc94  1  0.16224079  0.25716453  0.15402836  1
  Sc  Sc95  1  0.50651653  0.56918269  0.30272812  1
  Sc  Sc96  1  0.04838253  0.90394339  0.13877932  1
  Sc  Sc97  1  0.76787787  0.66330496  0.42993372  1
  Sc  Sc98  1  0.66569120  0.56149417  0.01794270  1
  Sc  Sc99  1  0.78938598  0.28952397  0.14698651  1
  Nb  Nb100  1  0.69156195  0.16953868  0.00731229  1
  Nb  Nb101  1  0.67546814  0.80475557  0.57709034  1
  Nb  Nb102  1  0.16805726  0.28580784  0.95410781  1
  Nb  Nb103  1  0.67621877  0.05900035  0.83093661  1
  Nb  Nb104  1  0.85269777  0.10066996  0.75784312  1
  Nb  Nb105  1  0.66515244  0.97334166  0.00713953  1
  Nb  Nb106  1  0.34421845  0.67130603  0.41726597  1
  Nb  Nb107  1  0.36247649  0.44707841  0.90119782  1
  Nb  Nb108  1  0.46322579  0.76812864  0.28915695  1
  Nb  Nb109  1  0.31639895  0.18095829  0.67336173  1
  Nb  Nb110  1  0.35631910  0.26419122  0.03743917  1
  Nb  Nb111  1  0.78242820  0.94279536  0.66662365  1
  Nb  Nb112  1  0.71072708  0.86324360  0.82027212  1
  Nb  Nb113  1  0.18348878  1.01418867  0.73639491  1
  Nb  Nb114  1  0.64430648  0.48025371  0.81534662  1
  Nb  Nb115  1  0.48240175  0.12389635  0.73741123  1
  Nb  Nb116  1  0.17157783  0.46489337  0.85999753  1
  Nb  Nb117  1  0.84477491  0.15144633  0.33645639  1
  Nb  Nb118  1  0.69911537  0.66349008  0.82458104  1
  Nb  Nb119  1  0.16630953  0.69655800  0.57566278  1
  Nb  Nb120  1  0.50650781  0.66332250  0.11233587  1
  Nb  Nb121  1  0.16291264  0.81086965  0.73351059  1
  Nb  Nb122  1  0.49691644  0.59104024  0.90340137  1
  Nb  Nb123  1  0.33937019  0.27026075  0.84568457  1
  Nb  Nb124  1  0.83455112  0.49893129  0.74898138  1
