# generated using pymatgen
data_Zr2Sc2Nb
_symmetry_space_group_name_H-M   'P 1'
_cell_length_a   14.36450207
_cell_length_b   14.08444776
_cell_length_c   14.24275346
_cell_angle_alpha   91.25777851
_cell_angle_beta   89.86914069
_cell_angle_gamma   91.65884319
_symmetry_Int_Tables_number   1
_chemical_formula_structural   Zr2Sc2Nb
_chemical_formula_sum   'Zr50 Sc50 Nb25'
_cell_volume   2879.63250100
_cell_formula_units_Z   25
loop_
 _symmetry_equiv_pos_site_id
 _symmetry_equiv_pos_as_xyz
  1  'x, y, z'
loop_
 _atom_site_type_symbol
 _atom_site_label
 _atom_site_symmetry_multiplicity
 _atom_site_fract_x
 _atom_site_fract_y
 _atom_site_fract_z
 _atom_site_occupancy
  Zr  Zr0  1  0.55352053  0.35104900  0.30193222  1
  Zr  Zr1  1  0.82167222  0.54665521  0.87546511  1
  Zr  Zr2  1  0.91478955  0.75397327  0.52651745  1
  Zr  Zr3  1  0.89108052  0.19141516  0.51400966  1
  Zr  Zr4  1  0.09158373  0.19763520  0.94562820  1
  Zr  Zr5  1  0.37495133  0.45520608  0.20003250  1
  Zr  Zr6  1  0.42231018  0.83916568  0.70227118  1
  Zr  Zr7  1  0.75581921  0.85530736  0.64178987  1
  Zr  Zr8  1  0.55969047  0.53917964  0.13818217  1
  Zr  Zr9  1  0.97399473  0.68256341  0.16285013  1
  Zr  Zr10  1  0.18432110  0.19057817  0.74079216  1
  Zr  Zr11  1  -0.00831563  0.96162798  1.02537277  1
  Zr  Zr12  1  0.68050033  0.95301059  0.24847176  1
  Zr  Zr13  1  0.75666568  0.26688688  0.81251375  1
  Zr  Zr14  1  0.70771445  0.19886175  0.22266578  1
  Zr  Zr15  1  0.68956179  0.06336154  0.87963134  1
  Zr  Zr16  1  0.07157507  0.32207092  0.11307502  1
  Zr  Zr17  1  0.30587100  0.83373396  0.15228846  1
  Zr  Zr18  1  0.43573273  0.46462783  0.73716003  1
  Zr  Zr19  1  0.59189063  -0.02499034  0.68860326  1
  Zr  Zr20  1  0.20714465  0.47419516  1.03690020  1
  Zr  Zr21  1  0.90826623  0.33493345  0.94362714  1
  Zr  Zr22  1  0.61662115  0.45322561  0.52034687  1
  Zr  Zr23  1  0.10175299  0.85025939  0.18592844  1
  Zr  Zr24  1  0.10651513  0.87952942  0.47380213  1
  Zr  Zr25  1  0.21260428  0.99256169  0.30576402  1
  Zr  Zr26  1  0.88901989  0.11922400  0.90887636  1
  Zr  Zr27  1  0.64391512  0.23065229  0.45829949  1
  Zr  Zr28  1  0.90151917  0.70490249  0.75476072  1
  Zr  Zr29  1  0.92549188  0.18021996  0.12256213  1
  Zr  Zr30  1  0.10182298  0.05107612  0.60717415  1
  Zr  Zr31  1  0.13506072  0.78948753  0.66950242  1
  Zr  Zr32  1  0.99535706  0.51685884  0.01345640  1
  Zr  Zr33  1  -0.01270958  0.28667967  0.33195263  1
  Zr  Zr34  1  0.55868019  0.84857611  0.52873095  1
  Zr  Zr35  1  0.90539795  0.97835617  0.51584366  1
  Zr  Zr36  1  0.32097365  0.31727943  0.84635664  1
  Zr  Zr37  1  0.79118466  0.57199779  0.09330623  1
  Zr  Zr38  1  0.64500659  0.45230844  0.75713770  1
  Zr  Zr39  1  0.19039431  0.62487498  0.20318890  1
  Zr  Zr40  1  0.70340517  0.67904509  0.50567996  1
  Zr  Zr41  1  0.10003109  0.47332118  0.43773518  1
  Zr  Zr42  1  0.30233289  0.89827870  0.54029011  1
  Zr  Zr43  1  0.81406793  0.07279856  0.69892086  1
  Zr  Zr44  1  0.83588616  0.89905881  0.87824097  1
  Zr  Zr45  1  0.41241827  0.68435315  0.23684223  1
  Zr  Zr46  1  0.39180251  0.71519963  0.47135367  1
  Zr  Zr47  1  0.52054820  0.63228761  0.60833053  1
  Zr  Zr48  1  0.68666192  0.40440717  0.97400409  1
  Zr  Zr49  1  0.48303904  0.53736509  0.38095453  1
  Sc  Sc50  1  0.11618923  0.38406745  0.85883490  1
  Sc  Sc51  1  0.76070462  0.32184042  0.61564333  1
  Sc  Sc52  1  0.85054925  0.85005701  0.13066484  1
  Sc  Sc53  1  0.16410075  0.10138720  0.11486329  1
  Sc  Sc54  1  0.67318319  0.73775236  0.16026310  1
  Sc  Sc55  1  0.80959578  0.53970478  0.62191433  1
  Sc  Sc56  1  0.35355757  0.49149913  0.53974798  1
  Sc  Sc57  1  0.68313184  0.67257067  0.74276860  1
  Sc  Sc58  1  0.45832675  0.65930476  0.82936147  1
  Sc  Sc59  1  0.53987484  0.26044788  0.86179463  1
  Sc  Sc60  1  0.30198959  0.64668462  0.67667879  1
  Sc  Sc61  1  0.25597442  0.96317306  0.75870738  1
  Sc  Sc62  1  0.96163650  0.90177195  0.69441179  1
  Sc  Sc63  1  0.15987632  0.45070327  0.64940016  1
  Sc  Sc64  1  0.52416476  0.72897454  0.03101836  1
  Sc  Sc65  1  0.28658763  0.28244634  0.06990269  1
  Sc  Sc66  1  0.44222536  0.28973552  0.46127289  1
  Sc  Sc67  1  0.57297288  0.08149323  0.07147191  1
  Sc  Sc68  1  0.48720370  0.03939418  0.86127870  1
  Sc  Sc69  1  0.34201310  0.63622706  0.02989818  1
  Sc  Sc70  1  0.51505777  0.28951539  0.09482415  1
  Sc  Sc71  1  0.42000491  0.91093048  0.35067919  1
  Sc  Sc72  1  0.82068368  0.70801954  0.30975998  1
  Sc  Sc73  1  0.79128035  0.35600517  0.36774743  1
  Sc  Sc74  1  0.35305913  0.23421601  0.26819755  1
  Sc  Sc75  1  0.29500032  0.11359328  0.92174539  1
  Sc  Sc76  1  0.94641734  0.88061752  0.33049121  1
  Sc  Sc77  1  0.83818811  0.08343819  0.33053472  1
  Sc  Sc78  1  0.88905732  0.54644677  0.42681001  1
  Sc  Sc79  1  0.97754728  0.22722626  0.71779463  1
  Sc  Sc80  1  0.30791122  0.30035373  0.62383109  1
  Sc  Sc81  1  0.13737170  0.70099153  0.01433485  1
  Sc  Sc82  1  0.59697224  0.83571771  0.84397357  1
  Sc  Sc83  1  0.26701303  0.12518166  0.47617755  1
  Sc  Sc84  1  1.00221257  0.49317221  0.24207917  1
  Sc  Sc85  1  0.36860611  0.04752547  0.13420591  1
  Sc  Sc86  1  0.52629498  0.10314173  0.29522613  1
  Sc  Sc87  1  0.70056013  0.04171663  0.50708463  1
  Sc  Sc88  1  0.94455430  0.44269594  0.74442936  1
  Sc  Sc89  1  0.40239606  0.12966889  0.69937369  1
  Sc  Sc90  1  0.05329864  0.68487928  0.36698261  1
  Sc  Sc91  1  0.58147279  0.75439016  0.34196361  1
  Sc  Sc92  1  0.48560652  0.07049749  0.51499240  1
  Sc  Sc93  1  0.44572893  0.45586655  0.96339788  1
  Sc  Sc94  1  0.08364751  0.61021549  0.81420327  1
  Sc  Sc95  1  0.41181879  0.88480231  0.96697998  1
  Sc  Sc96  1  0.68526756  0.54461030  0.32068811  1
  Sc  Sc97  1  0.26300256  0.75684820  0.85294924  1
  Sc  Sc98  1  0.19789165  0.92606940  0.98812744  1
  Sc  Sc99  1  0.06588967  1.02726248  0.82825577  1
  Nb  Nb100  1  0.24823100  0.34552249  0.42185628  1
  Nb  Nb101  1  0.86344576  0.37111223  0.14266608  1
  Nb  Nb102  1  0.62525693  0.16284606  0.68006920  1
  Nb  Nb103  1  0.27388108  0.55983603  0.36218988  1
  Nb  Nb104  1  0.52724902  0.31097465  0.64473311  1
  Nb  Nb105  1  0.62051181  0.58365972  0.93067159  1
  Nb  Nb106  1  0.74371205  0.73225040  -0.04587220  1
  Nb  Nb107  1  0.68716603  0.39181115  0.17175465  1
  Nb  Nb108  1  0.95470684  0.38584910  0.54344291  1
  Nb  Nb109  1  0.00786259  0.04159390  0.22399778  1
  Nb  Nb110  1  0.10360719  0.25602991  0.52604540  1
  Nb  Nb111  1  0.15299825  0.20400802  0.29727265  1
  Nb  Nb112  1  0.02016393  0.59973880  0.59783746  1
  Nb  Nb113  1  0.50896759  0.88897479  0.16618106  1
  Nb  Nb114  1  0.24478656  0.78075365  0.34703781  1
  Nb  Nb115  1  0.19124545  0.66901778  0.51213361  1
  Nb  Nb116  1  0.75156188  0.86515147  0.42187068  1
  Nb  Nb117  1  0.65787093  0.90366386  0.02734535  1
  Nb  Nb118  1  0.04893700  0.08529602  0.41291239  1
  Nb  Nb119  1  0.05646095  0.82382763  0.86103899  1
  Nb  Nb120  1  0.27494877  0.52933444  0.84851894  1
  Nb  Nb121  1  0.73408774  0.22561796  0.02629676  1
  Nb  Nb122  1  0.79158564  0.04000241  0.08607208  1
  Nb  Nb123  1  0.19053148  0.40127463  0.24843652  1
  Nb  Nb124  1  0.93341068  0.72176871  0.96863103  1
