# generated using pymatgen
data_Zr2Sc2Nb
_symmetry_space_group_name_H-M   'P 1'
_cell_length_a   14.19834170
_cell_length_b   14.04318418
_cell_length_c   14.41282677
_cell_angle_alpha   90.93731582
_cell_angle_beta   89.73083817
_cell_angle_gamma   89.90208506
_symmetry_Int_Tables_number   1
_chemical_formula_structural   Zr2Sc2Nb
_chemical_formula_sum   'Zr50 Sc50 Nb25'
_cell_volume   2873.35165607
_cell_formula_units_Z   25
loop_
 _symmetry_equiv_pos_site_id
 _symmetry_equiv_pos_as_xyz
  1  'x, y, z'
loop_
 _atom_site_type_symbol
 _atom_site_label
 _atom_site_symmetry_multiplicity
 _atom_site_fract_x
 _atom_site_fract_y
 _atom_site_fract_z
 _atom_site_occupancy
  Zr  Zr0  1  0.66142011  0.26748042  0.89005596  1
  Zr  Zr1  1  0.42694604  0.45152242  0.74977168  1
  Zr  Zr2  1  0.87069015  0.20109944  0.29670027  1
  Zr  Zr3  1  0.02931432  0.90057407  0.63437507  1
  Zr  Zr4  1  0.56422861  0.94127567  0.35537640  1
  Zr  Zr5  1  0.86553818  0.80359414  0.47921947  1
  Zr  Zr6  1  0.08196863  0.90892528  0.18545937  1
  Zr  Zr7  1  0.41031585  0.81025523  0.34125160  1
  Zr  Zr8  1  0.14814405  0.50416238  0.55425319  1
  Zr  Zr9  1  0.30140921  0.80344330  0.17409877  1
  Zr  Zr10  1  0.30716618  0.27194131  0.79291084  1
  Zr  Zr11  1  0.93356877  0.53508549  0.50992238  1
  Zr  Zr12  1  0.66279902  0.90114275  0.52370663  1
  Zr  Zr13  1  0.89477013  0.81703326  0.26142951  1
  Zr  Zr14  1  0.66153525  0.10315570  0.01596168  1
  Zr  Zr15  1  0.07070367  0.10865242  0.35372949  1
  Zr  Zr16  1  0.29990846  0.12025004  0.63053253  1
  Zr  Zr17  1  0.91229482  0.69532253  0.66444933  1
  Zr  Zr18  1  0.84812196  0.53583871  0.07523328  1
  Zr  Zr19  1  0.95219081  0.34376363  0.63021108  1
  Zr  Zr20  1  0.05729832  0.13527346  0.55244540  1
  Zr  Zr21  1  0.22188817  0.48711050  0.74506111  1
  Zr  Zr22  1  0.05251841  0.12470151  0.13991207  1
  Zr  Zr23  1  0.66021377  0.34142115  0.30630393  1
  Zr  Zr24  1  0.32933571  0.02606144  0.83397671  1
  Zr  Zr25  1  0.42007527  0.47634599  0.13489961  1
  Zr  Zr26  1  0.46947404  0.67866507  0.07875024  1
  Zr  Zr27  1  0.69433880  0.09493165  0.59653541  1
  Zr  Zr28  1  0.46566188  0.81959029  0.59051507  1
  Zr  Zr29  1  0.24881343  0.61312605  0.07720760  1
  Zr  Zr30  1  0.01076204  0.52249783  0.72605992  1
  Zr  Zr31  1  0.27408069  0.16751364  0.43160557  1
  Zr  Zr32  1  0.53338250  0.25673952  0.68059075  1
  Zr  Zr33  1  0.89201821  0.41371391  0.25433226  1
  Zr  Zr34  1  0.88643566  1.01395537  0.47734455  1
  Zr  Zr35  1  0.54973821  0.48687411  0.59111699  1
  Zr  Zr36  1  0.61872917  0.87072022  0.74242351  1
  Zr  Zr37  1  0.31977270  0.60988401  0.28798882  1
  Zr  Zr38  1  0.75231608  0.29068949  0.12665685  1
  Zr  Zr39  1  0.05038214  0.10725920  0.94715421  1
  Zr  Zr40  1  0.70857008  0.69801538  0.59170886  1
  Zr  Zr41  1  0.66882357  0.08313728  0.79094206  1
  Zr  Zr42  1  0.76504040  0.94082545  0.90413926  1
  Zr  Zr43  1  0.99452371  0.75012727  0.85957068  1
  Zr  Zr44  1  0.26363886  0.88856867  0.67782637  1
  Zr  Zr45  1  0.35812798  0.33679406  0.58610097  1
  Zr  Zr46  1  0.03571894  0.32902333  0.43984978  1
  Zr  Zr47  1  0.44299359  0.27426345  0.25954973  1
  Zr  Zr48  1  0.37577872  0.96834103  0.48434884  1
  Zr  Zr49  1  0.12389187  0.72192194  0.26447993  1
  Sc  Sc50  1  0.81925503  0.75693242  0.97474080  1
  Sc  Sc51  1  0.06343662  0.51547200  0.14528459  1
  Sc  Sc52  1  0.52863801  0.67627110  0.46108129  1
  Sc  Sc53  1  0.52064381  -0.02321973  0.91706855  1
  Sc  Sc54  1  0.11490838  0.51831102  0.34853207  1
  Sc  Sc55  1  0.46878806  0.19197643  0.89247239  1
  Sc  Sc56  1  0.22259087  0.69417249  0.85953983  1
  Sc  Sc57  1  0.05370813  0.70707557  0.47393441  1
  Sc  Sc58  1  0.49443787  0.14025975  0.48579198  1
  Sc  Sc59  1  0.91179615  0.61812420  0.31582697  1
  Sc  Sc60  1  0.97525440  0.71065002  0.09779595  1
  Sc  Sc61  1  0.70527357  0.70431750  0.13662860  1
  Sc  Sc62  1  0.65673630  0.45764346  0.77773211  1
  Sc  Sc63  1  0.35645361  0.53957016  0.49573642  1
  Sc  Sc64  1  0.70380307  0.74720012  0.35301468  1
  Sc  Sc65  1  0.85038952  0.15728030  0.89915581  1
  Sc  Sc66  1  0.51048857  0.42334872  0.94200035  1
  Sc  Sc67  1  0.35551603  0.83647998  0.97664764  1
  Sc  Sc68  1  0.74400078  0.92117692  0.12547063  1
  Sc  Sc69  1  0.69841590  0.53216855  0.45494779  1
  Sc  Sc70  1  0.90363684  0.10535820  0.69774903  1
  Sc  Sc71  1  0.23782704  0.96250802  0.31660086  1
  Sc  Sc72  1  0.42047889  0.62893573  0.88964929  1
  Sc  Sc73  1  0.25320050  0.77338248  0.48041726  1
  Sc  Sc74  1  0.15479645  0.91121592  0.87919025  1
  Sc  Sc75  1  0.34837112  0.65506179  0.67312646  1
  Sc  Sc76  1  0.27777417  0.37409855  0.38034781  1
  Sc  Sc77  1  0.09371128  0.31077725  0.83266695  1
  Sc  Sc78  1  0.68880226  0.15234739  0.40413243  1
  Sc  Sc79  1  0.14835816  0.31669397  0.03934874  1
  Sc  Sc80  1  0.88462638  0.37431960  0.84014482  1
  Sc  Sc81  1  0.94045795  0.31352220  0.04514878  1
  Sc  Sc82  1  0.65266122  0.60401962  0.93946638  1
  Sc  Sc83  1  0.28459763  0.44775827  0.94077693  1
  Sc  Sc84  1  0.76194554  0.27486300  0.70218871  1
  Sc  Sc85  1  0.56029652  0.65903755  0.73767671  1
  Sc  Sc86  1  0.16282180  0.30191606  0.62499587  1
  Sc  Sc87  1  0.50833112  0.49301244  0.33161745  1
  Sc  Sc88  1  0.43689904  0.09704642  0.08788079  1
  Sc  Sc89  1  0.07902608  0.31193732  0.24288231  1
  Sc  Sc90  1  0.81774391  0.90401554  0.68055800  1
  Sc  Sc91  1  0.06332722  0.54893562  0.93550903  1
  Sc  Sc92  1  0.13284046  0.70195842  0.67044578  1
  Sc  Sc93  1  0.61919373  0.49299734  0.12175209  1
  Sc  Sc94  1  0.23593162  -0.00341017  0.06981200  1
  Sc  Sc95  1  0.25670703  0.18402356  0.20304024  1
  Sc  Sc96  1  0.48487652  0.02483983  0.67976205  1
  Sc  Sc97  1  0.51918501  0.88448029  0.14470003  1
  Sc  Sc98  1  0.62724646  0.10947251  0.21553453  1
  Sc  Sc99  1  0.12770018  0.08458420  0.74821436  1
  Nb  Nb100  1  0.41787873  0.05698841  0.29088363  1
  Nb  Nb101  1  0.59385951  0.79268793  0.93841945  1
  Nb  Nb102  1  0.85384710  0.10009078  0.09129348  1
  Nb  Nb103  1  0.91832767  0.01001237  0.25042955  1
  Nb  Nb104  1  0.72771901  0.53502529  0.26757210  1
  Nb  Nb105  1  0.79421293  0.49595242  0.64595532  1
  Nb  Nb106  1  0.67008050  0.32275925  0.53589871  1
  Nb  Nb107  1  0.24661119  0.16361453  0.94998059  1
  Nb  Nb108  1  0.75920147  0.96268984  0.33662369  1
  Nb  Nb109  1  0.95647983  0.92687919  0.03127836  1
  Nb  Nb110  1  0.95447083  0.95362975  0.83648865  1
  Nb  Nb111  1  0.04365440  0.90070042  0.39618994  1
  Nb  Nb112  1  0.56064660  0.28453415  0.08751318  1
  Nb  Nb113  1  0.73922471  0.41654327  0.97382732  1
  Nb  Nb114  1  0.36382465  0.29168084  0.05186564  1
  Nb  Nb115  1  0.84981525  0.57361871  0.85248399  1
  Nb  Nb116  1  0.14448084  0.78392078  0.03567435  1
  Nb  Nb117  1  0.17388014  0.98244187  0.51869964  1
  Nb  Nb118  1  0.53670917  0.67279893  0.25183733  1
  Nb  Nb119  1  0.42165122  0.82577006  0.79173206  1
  Nb  Nb120  1  0.85990078  0.20856242  0.51231968  1
  Nb  Nb121  1  0.24988686  0.41908725  0.18581435  1
  Nb  Nb122  1  0.75690894  0.72592976  0.79064808  1
  Nb  Nb123  1  0.49478081  0.33770306  0.45144486  1
  Nb  Nb124  1  0.82666289  0.37884829  0.43834171  1
