# generated using pymatgen
data_Zr2Sc2Nb
_symmetry_space_group_name_H-M   'P 1'
_cell_length_a   14.40833412
_cell_length_b   13.74788150
_cell_length_c   14.53754019
_cell_angle_alpha   90.21597829
_cell_angle_beta   90.75199709
_cell_angle_gamma   89.74273795
_symmetry_Int_Tables_number   1
_chemical_formula_structural   Zr2Sc2Nb
_chemical_formula_sum   'Zr50 Sc50 Nb25'
_cell_volume   2879.35825772
_cell_formula_units_Z   25
loop_
 _symmetry_equiv_pos_site_id
 _symmetry_equiv_pos_as_xyz
  1  'x, y, z'
loop_
 _atom_site_type_symbol
 _atom_site_label
 _atom_site_symmetry_multiplicity
 _atom_site_fract_x
 _atom_site_fract_y
 _atom_site_fract_z
 _atom_site_occupancy
  Zr  Zr0  1  0.22530103  0.25233907  0.61577580  1
  Zr  Zr1  1  0.37191989  0.49316277  0.29173730  1
  Zr  Zr2  1  0.99700730  0.86309873  0.48073321  1
  Zr  Zr3  1  0.06263632  0.17555824  0.97174927  1
  Zr  Zr4  1  0.31467409  0.40904301  0.47403522  1
  Zr  Zr5  1  0.83933416  0.12101831  0.29972411  1
  Zr  Zr6  1  0.34365473  0.91785867  0.20524702  1
  Zr  Zr7  1  0.94061966  0.23503038  0.13473659  1
  Zr  Zr8  1  0.27060968  0.91305508  1.01008871  1
  Zr  Zr9  1  0.53779414  0.23637434  0.19777535  1
  Zr  Zr10  1  0.27576470  0.99372726  0.60512697  1
  Zr  Zr11  1  0.65518565  0.90505800  0.63729112  1
  Zr  Zr12  1  0.93807811  0.29881786  0.84348590  1
  Zr  Zr13  1  0.88595931  0.50835766  0.57362113  1
  Zr  Zr14  1  0.30805411  0.54561570  0.93749203  1
  Zr  Zr15  1  0.85783430  0.95388833  0.64925787  1
  Zr  Zr16  1  0.92747028  0.05566804  0.83660984  1
  Zr  Zr17  1  0.87105739  0.51967687  0.79022621  1
  Zr  Zr18  1  0.57746207  0.80611845  0.87723499  1
  Zr  Zr19  1  0.34800101  0.15665639  0.47509943  1
  Zr  Zr20  1  0.74783534  0.16313650  0.76117630  1
  Zr  Zr21  1  0.92979262  0.06582276  0.46660299  1
  Zr  Zr22  1  0.05138744  0.65311733  0.46663747  1
  Zr  Zr23  1  0.72733656  0.37076234  0.87064691  1
  Zr  Zr24  1  0.13729288  0.79084061  0.64858074  1
  Zr  Zr25  1  0.66771123  0.53120946  0.08521406  1
  Zr  Zr26  1  0.25719007  0.11216702  0.91659968  1
  Zr  Zr27  1  0.77690915  0.74595817  0.77701974  1
  Zr  Zr28  1  0.38095007  0.14699795  0.73383535  1
  Zr  Zr29  1  0.63054805  0.06344321  0.35696718  1
  Zr  Zr30  1  0.86286830  0.77815852  0.14483671  1
  Zr  Zr31  1  0.07298771  0.83105463  0.08797310  1
  Zr  Zr32  1  0.49321576  0.97884545  0.52483820  1
  Zr  Zr33  1  0.79855461  0.36717490  0.22018667  1
  Zr  Zr34  1  0.02720691  0.36033081  0.67826974  1
  Zr  Zr35  1  0.48806460  0.65269854  0.20281494  1
  Zr  Zr36  1  0.22792539  0.92481543  0.79532008  1
  Zr  Zr37  1  0.11148632  0.51513253  0.84581900  1
  Zr  Zr38  1  0.14631956  0.04474552  0.11875006  1
  Zr  Zr39  1  0.11216304  0.12264993  0.75396495  1
  Zr  Zr40  1  0.66653822  0.74271586  0.08137516  1
  Zr  Zr41  1  0.54738848  0.17325167  0.56451506  1
  Zr  Zr42  1  0.63319384  0.37801281  0.55157938  1
  Zr  Zr43  1  0.82111682  0.17846205  0.97509505  1
  Zr  Zr44  1  0.93847745  0.50179405  0.36985224  1
  Zr  Zr45  1  0.14962918  0.26958488  0.17386834  1
  Zr  Zr46  1  0.57138969  0.28965329  0.75377753  1
  Zr  Zr47  1  0.62849310  0.12901803  0.94082932  1
  Zr  Zr48  1  0.55481328  0.02904096  0.13928882  1
  Zr  Zr49  1  0.07615604  0.38839266  -0.00135731  1
  Sc  Sc50  1  0.22331394  0.49612582  0.13266529  1
  Sc  Sc51  1  0.53203086  0.87251871  0.28682388  1
  Sc  Sc52  1  0.65569470  0.31679159  0.05465066  1
  Sc  Sc53  1  0.73155745  0.95683559  0.83004687  1
  Sc  Sc54  1  0.92148064  0.01435809  0.09965225  1
  Sc  Sc55  1  0.18827177  0.27089783  0.38166186  1
  Sc  Sc56  1  0.52108687  0.55793117  0.43400106  1
  Sc  Sc57  1  0.15707410  0.74368029  0.90466973  1
  Sc  Sc58  1  0.28335118  0.32009021  0.01984935  1
  Sc  Sc59  1  0.64389110  0.50870948  0.71245411  1
  Sc  Sc60  1  0.16162930  0.50094593  0.33364806  1
  Sc  Sc61  1  0.43438135  0.53786631  0.62177467  1
  Sc  Sc62  1  0.44788107  0.43538966  0.10043147  1
  Sc  Sc63  1  0.37159116  0.77980683  0.56565734  1
  Sc  Sc64  1  0.98843865  0.29482386  0.33836977  1
  Sc  Sc65  1  0.86400081  0.43344615  1.02060586  1
  Sc  Sc66  1  0.07018046  0.58500261  0.66310584  1
  Sc  Sc67  1  0.02502355  0.61520129  0.03395175  1
  Sc  Sc68  1  0.15439795  0.88258310  0.28272097  1
  Sc  Sc69  1  0.38104478  0.39980627  0.79491861  1
  Sc  Sc70  1  0.19122493  0.31063785  0.82711564  1
  Sc  Sc71  1  0.03649180  0.68018996  0.24998014  1
  Sc  Sc72  1  0.45670186  0.23862792  0.93577343  1
  Sc  Sc73  1  0.89963185  0.84820204  0.94626751  1
  Sc  Sc74  1  0.72071542  0.94733047  0.03356999  1
  Sc  Sc75  1  0.55957464  0.77833795  0.46395556  1
  Sc  Sc76  1  0.86022486  0.71165547  0.37970357  1
  Sc  Sc77  1  0.27971778  0.65882856  0.74018789  1
  Sc  Sc78  1  0.66654868  0.60459186  0.88972967  1
  Sc  Sc79  1  0.86546247  0.30340424  0.49581754  1
  Sc  Sc80  1  0.36215848  0.12213816  0.10471646  1
  Sc  Sc81  1  0.59073956  0.45043094  0.25948967  1
  Sc  Sc82  1  0.33772587  0.72021057  0.34322871  1
  Sc  Sc83  1  0.45248281  0.00066098  0.91753601  1
  Sc  Sc84  1  1.00743061  0.45477149  0.18306044  1
  Sc  Sc85  1  0.28961096  0.70987102  0.10301521  1
  Sc  Sc86  1  0.47858503  0.83694111  0.06783164  1
  Sc  Sc87  1  0.73962164  0.49784332  0.40017322  1
  Sc  Sc88  1  0.72253290  0.65803552  0.55291876  1
  Sc  Sc89  1  0.43526458  0.89410204  0.73193763  1
  Sc  Sc90  1  0.67725736  0.69266935  0.28924397  1
  Sc  Sc91  1  0.74050378  0.12202344  0.55194933  1
  Sc  Sc92  1  0.56107999  0.71891069  0.67593339  1
  Sc  Sc93  1  0.69016719  0.26803997  0.36774586  1
  Sc  Sc94  1  0.91427380  0.73279958  0.62665652  1
  Sc  Sc95  1  0.48497251  0.30925131  0.39814089  1
  Sc  Sc96  1  0.94023742  0.91304023  0.28847167  1
  Sc  Sc97  1  0.75895965  0.90185531  0.44455985  1
  Sc  Sc98  1  0.15350615  0.03576256  0.44395103  1
  Sc  Sc99  1  0.24531591  0.60936856  0.51721058  1
  Nb  Nb100  1  0.34231597  0.29257260  0.24338308  1
  Nb  Nb101  1  0.06290967  0.99398818  0.62129938  1
  Nb  Nb102  1  0.92488008  0.16788617  0.66061634  1
  Nb  Nb103  1  0.73388128  0.92432108  0.23340257  1
  Nb  Nb104  1  0.44374238  1.09251521  0.31356915  1
  Nb  Nb105  1  0.97496097  0.68339931  0.83080086  1
  Nb  Nb106  1  0.36944141  0.76933964  0.89946396  1
  Nb  Nb107  1  0.53779716  0.44433668  0.91687367  1
  Nb  Nb108  1  0.00589860  0.87376700  0.77194672  1
  Nb  Nb109  1  0.05890264  0.20433421  0.52791703  1
  Nb  Nb110  1  0.04923923  0.10276178  0.28463453  1
  Nb  Nb111  1  0.42305471  0.32385929  0.61049289  1
  Nb  Nb112  1  0.25596251  0.09719617  0.28108818  1
  Nb  Nb113  1  0.23356816  0.45345924  0.66559506  1
  Nb  Nb114  1  0.46840091  0.61023368  0.81772948  1
  Nb  Nb115  1  0.72548641  0.13889764  0.15377741  1
  Nb  Nb116  1  0.34514834  0.93475304  0.40352911  1
  Nb  Nb117  1  0.48702751  0.63186208  0.00520751  1
  Nb  Nb118  1  0.83246679  0.64650605  -0.02091625  1
  Nb  Nb119  1  0.09192766  0.42351981  0.50929895  1
  Nb  Nb120  1  0.56762890  0.06171698  0.74169507  1
  Nb  Nb121  1  0.08438881  -0.03418463  0.93272954  1
  Nb  Nb122  1  0.83554939  0.58184963  0.19060899  1
  Nb  Nb123  1  0.19279934  0.82514884  0.47202415  1
  Nb  Nb124  1  0.79421932  0.34350614  0.67977598  1
