# generated using pymatgen
data_Zr2Sc2Nb
_symmetry_space_group_name_H-M   'P 1'
_cell_length_a   14.50170662
_cell_length_b   14.10194596
_cell_length_c   13.98287719
_cell_angle_alpha   90.06230718
_cell_angle_beta   90.33636654
_cell_angle_gamma   89.88849427
_symmetry_Int_Tables_number   1
_chemical_formula_structural   Zr2Sc2Nb
_chemical_formula_sum   'Zr50 Sc50 Nb25'
_cell_volume   2859.47396192
_cell_formula_units_Z   25
loop_
 _symmetry_equiv_pos_site_id
 _symmetry_equiv_pos_as_xyz
  1  'x, y, z'
loop_
 _atom_site_type_symbol
 _atom_site_label
 _atom_site_symmetry_multiplicity
 _atom_site_fract_x
 _atom_site_fract_y
 _atom_site_fract_z
 _atom_site_occupancy
  Zr  Zr0  1  0.17603745  0.90354966  0.30442071  1
  Zr  Zr1  1  0.00503369  0.99127880  0.64082670  1
  Zr  Zr2  1  0.12798788  0.13644621  0.84231928  1
  Zr  Zr3  1  0.75497074  0.48878324  0.03045054  1
  Zr  Zr4  1  0.72863389  0.32027726  0.19327449  1
  Zr  Zr5  1  0.43688246  0.54971709  0.18942069  1
  Zr  Zr6  1  0.05910382  0.84865243  0.48202717  1
  Zr  Zr7  1  0.45799160  0.48094307  0.41514284  1
  Zr  Zr8  1  0.09067108  0.61852611  0.05770007  1
  Zr  Zr9  1  0.83092006  0.51380893  0.25869132  1
  Zr  Zr10  1  0.94662214  0.85901451  0.29599516  1
  Zr  Zr11  1  0.21099241  0.03284287  0.68027240  1
  Zr  Zr12  1  0.45118316  0.28963249  0.52677228  1
  Zr  Zr13  1  0.10154210  0.41676914  0.59746086  1
  Zr  Zr14  1  0.37608228  0.85224479  0.67613825  1
  Zr  Zr15  1  0.28623776  0.97093179  0.49629324  1
  Zr  Zr16  1  0.59941714  0.90095318  0.24670350  1
  Zr  Zr17  1  0.76547761  0.98196030  0.61240754  1
  Zr  Zr18  1  0.75270747  0.72226534  0.27560147  1
  Zr  Zr19  1  0.01273071  0.06806361  0.24979048  1
  Zr  Zr20  1  0.95975342  0.31810941  0.26738749  1
  Zr  Zr21  1  0.55522404  0.79905433  0.98856217  1
  Zr  Zr22  1  0.26091507  0.68863361  0.14088085  1
  Zr  Zr23  1  0.25324699  0.94970290  0.87944558  1
  Zr  Zr24  1  0.30155518  0.91702387  0.10710937  1
  Zr  Zr25  1  0.88552221  0.36654831  0.64041167  1
  Zr  Zr26  1  0.16145687  0.82176736  0.69679525  1
  Zr  Zr27  1  0.45281572  0.76358940  0.16124016  1
  Zr  Zr28  1  0.77027359  0.74389141  0.76747452  1
  Zr  Zr29  1  0.78740090  0.37627998  0.42517286  1
  Zr  Zr30  1  0.45044853  0.29991996  0.93952083  1
  Zr  Zr31  1  0.23592539  0.31435957  0.93139139  1
  Zr  Zr32  1  0.58345919  0.57317494  0.73351923  1
  Zr  Zr33  1  0.92803775  0.67001833  0.40379539  1
  Zr  Zr34  1  0.05545454  0.31124090  0.77848738  1
  Zr  Zr35  1  0.82230058  0.17410448  0.33796050  1
  Zr  Zr36  1  0.88431474  0.80914818  0.58088931  1
  Zr  Zr37  1  0.14761580  0.63276171  0.81078957  1
  Zr  Zr38  1  0.56420194  0.42283515  0.07914088  1
  Zr  Zr39  1  0.69876632  0.26811779  0.96385179  1
  Zr  Zr40  1  0.75085152  0.84601004  0.42297454  1
  Zr  Zr41  1  0.28150915  0.53329320  -0.02470252  1
  Zr  Zr42  1  0.24882147  0.59711167  0.60980687  1
  Zr  Zr43  1  0.54308660  0.19895398  0.07775285  1
  Zr  Zr44  1  0.68625039  0.90788190  0.87523149  1
  Zr  Zr45  1  0.35081551  0.12691414  0.86046049  1
  Zr  Zr46  1  0.60340539  0.13574560  0.61876050  1
  Zr  Zr47  1  0.71960078  0.59869455  0.44893393  1
  Zr  Zr48  1  0.55393624  0.70405593  0.35613115  1
  Zr  Zr49  1  0.95810790  0.47220312  0.45928558  1
  Sc  Sc50  1  0.62780099  0.49180562  0.29261952  1
  Sc  Sc51  1  0.72510498  0.05487501  0.02778684  1
  Sc  Sc52  1  0.36864601  0.64891356  0.77099170  1
  Sc  Sc53  1  0.11904507  0.04681605  0.04635587  1
  Sc  Sc54  1  0.56247119  0.11261068  0.85845515  1
  Sc  Sc55  1  0.51203357  0.30928779  0.26288644  1
  Sc  Sc56  1  0.12420308  0.79239958  0.93464738  1
  Sc  Sc57  1  0.15836576  0.24244916  0.18941220  1
  Sc  Sc58  1  0.94283102  0.42562489  0.08289599  1
  Sc  Sc59  1  0.25640631  0.47042347  0.28291113  1
  Sc  Sc60  1  0.35083872  0.35342848  0.12559256  1
  Sc  Sc61  1  0.51791753  0.89299334  0.50049746  1
  Sc  Sc62  1  0.45859998  0.66975721  0.55863298  1
  Sc  Sc63  1  0.65529634  0.75420394  0.59366852  1
  Sc  Sc64  1  0.71619353  0.29508454  0.73889881  1
  Sc  Sc65  1  0.62987235  0.42368828  0.57338836  1
  Sc  Sc66  1  0.91684918  0.61079564  0.91716268  1
  Sc  Sc67  1  0.66736869  0.03846240  0.42158056  1
  Sc  Sc68  1  0.41447367  0.07199421  0.66141485  1
  Sc  Sc69  1  0.49178572  0.59575846  0.96000186  1
  Sc  Sc70  1  0.31618304  0.14058175  0.07032613  1
  Sc  Sc71  1  0.38666552  0.88230515  0.32286270  1
  Sc  Sc72  1  0.63166724  0.63982912  0.13093976  1
  Sc  Sc73  1  0.78229276  0.50299607  0.79623618  1
  Sc  Sc74  1  0.87583944  0.18489627  0.11570725  1
  Sc  Sc75  1  0.08323155  0.84369284  0.12611576  1
  Sc  Sc76  1  0.50918532  0.29727196  0.73477063  1
  Sc  Sc77  1  0.25389622  0.09009184  0.30046093  1
  Sc  Sc78  1  0.50684350  0.99108829  0.05119413  1
  Sc  Sc79  1  0.34389573  0.76453207  0.94591062  1
  Sc  Sc80  1  0.04282630  0.51752300  0.25662239  1
  Sc  Sc81  1  0.90125237  0.81898763  -0.05393767  1
  Sc  Sc82  1  0.28192160  0.40518585  0.50605463  1
  Sc  Sc83  1  0.45358923  0.09846035  0.44098627  1
  Sc  Sc84  1  0.74516553  0.83490408  0.08696466  1
  Sc  Sc85  1  0.33938879  0.65940613  0.35058286  1
  Sc  Sc86  1  0.91395788  0.68919314  0.14138162  1
  Sc  Sc87  1  0.29295060  0.27702741  0.70574757  1
  Sc  Sc88  1  0.11800389  0.70691800  0.30029347  1
  Sc  Sc89  1  0.84432235  0.59654301  0.61385568  1
  Sc  Sc90  1  0.07217405  0.45728726  0.91806331  1
  Sc  Sc91  1  0.13242019  0.31234676  0.39657076  1
  Sc  Sc92  1  0.45099178  0.08348132  0.23770975  1
  Sc  Sc93  1  0.91817799  0.10673967  0.91632748  1
  Sc  Sc94  1  0.24493051  0.76860598  0.49460957  1
  Sc  Sc95  1  0.62734058  0.24785900  0.41764072  1
  Sc  Sc96  1  0.96065368  0.23166448  0.48716955  1
  Sc  Sc97  1  0.79869805  0.98467430  0.24197213  1
  Sc  Sc98  1  0.88078121  0.32710624  0.88559220  1
  Sc  Sc99  1  0.09798519  0.06630794  0.45050989  1
  Nb  Nb100  1  0.92741689  -0.03155573  0.07857968  1
  Nb  Nb101  1  0.45384664  0.93057528  0.84977815  1
  Nb  Nb102  1  0.22187616  0.45923000  0.76031479  1
  Nb  Nb103  1  0.05138212  0.25696738  1.00964472  1
  Nb  Nb104  1  0.14436652  0.56037686  0.44037905  1
  Nb  Nb105  1  0.26962705  0.18094899  0.51004269  1
  Nb  Nb106  1  0.65165229  0.12561953  0.22399105  1
  Nb  Nb107  1  0.33734403  0.27446454  0.34111586  1
  Nb  Nb108  1  0.91532056  0.15709212  0.70797451  1
  Nb  Nb109  1  0.05192791  0.65479987  0.58779766  1
  Nb  Nb110  1  0.74625544  0.09917496  0.78723803  1
  Nb  Nb111  1  0.15363079  0.42645285  0.10297703  1
  Nb  Nb112  1  0.69127446  0.65681336  0.92257272  1
  Nb  Nb113  1  0.98093182  0.75639231  0.75319171  1
  Nb  Nb114  1  0.86490784  0.93935331  0.77855559  1
  Nb  Nb115  1  0.10695143  0.19844557  0.62107666  1
  Nb  Nb116  1  0.04232051  0.95336046  0.84684591  1
  Nb  Nb117  1  0.89398449  0.01156170  0.45005338  1
  Nb  Nb118  1  0.60931896  0.43484924  0.87909554  1
  Nb  Nb119  1  0.78107405  0.18639806  0.55971326  1
  Nb  Nb120  1  0.42021924  0.47226115  0.64021218  1
  Nb  Nb121  1  0.54460446  0.76175695  0.78425953  1
  Nb  Nb122  1  0.58901388  0.94114085  0.70270854  1
  Nb  Nb123  1  0.99654179  0.52386529  0.73303034  1
  Nb  Nb124  1  0.40457549  0.45296936  0.82963962  1
