# generated using pymatgen
data_Zr2Sc2Nb
_symmetry_space_group_name_H-M   'P 1'
_cell_length_a   14.58884103
_cell_length_b   14.05605097
_cell_length_c   14.00822795
_cell_angle_alpha   89.55004696
_cell_angle_beta   93.01815750
_cell_angle_gamma   90.46498893
_symmetry_Int_Tables_number   1
_chemical_formula_structural   Zr2Sc2Nb
_chemical_formula_sum   'Zr50 Sc50 Nb25'
_cell_volume   2868.38984493
_cell_formula_units_Z   25
loop_
 _symmetry_equiv_pos_site_id
 _symmetry_equiv_pos_as_xyz
  1  'x, y, z'
loop_
 _atom_site_type_symbol
 _atom_site_label
 _atom_site_symmetry_multiplicity
 _atom_site_fract_x
 _atom_site_fract_y
 _atom_site_fract_z
 _atom_site_occupancy
  Zr  Zr0  1  0.23483989  0.28187722  0.39291001  1
  Zr  Zr1  1  0.23215015  0.52117188  0.29462387  1
  Zr  Zr2  1  0.62412008  0.52565881  0.29860463  1
  Zr  Zr3  1  0.15718233  0.68482548  0.42958957  1
  Zr  Zr4  1  0.08234671  0.72238155  0.02687454  1
  Zr  Zr5  1  0.88467778  0.16447536  0.39191993  1
  Zr  Zr6  1  0.39069001  0.31225061  0.69347870  1
  Zr  Zr7  1  0.24070319  0.07290179  0.31535760  1
  Zr  Zr8  1  0.09277672  0.14027435  0.89423234  1
  Zr  Zr9  1  0.31303331  1.00999792  0.95841055  1
  Zr  Zr10  1  0.63009691  0.89751416  0.12672977  1
  Zr  Zr11  1  0.37409946  0.09870054  0.14552177  1
  Zr  Zr12  1  0.11202792  0.38455086  0.92764127  1
  Zr  Zr13  1  0.67257151  0.85292606  0.55611781  1
  Zr  Zr14  1  0.96115079  0.07067598  0.04123542  1
  Zr  Zr15  1  0.94515094  0.75916262  0.27376187  1
  Zr  Zr16  1  0.28655386  0.79399066  0.94898680  1
  Zr  Zr17  1  0.07493470  0.27260982  0.10033823  1
  Zr  Zr18  1  0.81466082  0.36891231  0.34640941  1
  Zr  Zr19  1  0.50077006  -0.00074829  0.50375789  1
  Zr  Zr20  1  0.16527086  0.08333171  0.10536790  1
  Zr  Zr21  1  0.21004194  0.92946019  0.77448957  1
  Zr  Zr22  1  0.68684013  0.58549608  0.07898753  1
  Zr  Zr23  1  0.56438461  0.67208121  0.61467850  1
  Zr  Zr24  1  0.45495124  0.51955096  0.72026455  1
  Zr  Zr25  1  0.33194800  0.44898088  0.50416543  1
  Zr  Zr26  1  0.31397212  0.09833768  0.54112362  1
  Zr  Zr27  1  0.87651152  0.85110180  0.64076073  1
  Zr  Zr28  1  0.72478062  0.73373181  0.22036668  1
  Zr  Zr29  1  0.32005247  0.73003277  0.75268258  1
  Zr  Zr30  1  0.13480684  0.66326758  0.64199801  1
  Zr  Zr31  1  0.30019681  0.13755789  0.76991880  1
  Zr  Zr32  1  0.88084527  0.86531835  0.05110961  1
  Zr  Zr33  1  0.52771624  0.24366589  0.21664830  1
  Zr  Zr34  1  0.96953965  0.26621962  0.74375275  1
  Zr  Zr35  1  0.70253268  0.78449898  -0.03807134  1
  Zr  Zr36  1  0.63458826  0.07780274  0.86068900  1
  Zr  Zr37  1  0.74730398  0.42743854  0.93756705  1
  Zr  Zr38  1  0.96805587  0.70779062  0.49042540  1
  Zr  Zr39  1  0.25374682  0.49694817  0.70330506  1
  Zr  Zr40  1  0.42205911  0.39216031  0.31198437  1
  Zr  Zr41  1  0.20777557  0.28559097  0.59146861  1
  Zr  Zr42  1  0.86919718  0.11267019  0.84608183  1
  Zr  Zr43  1  0.93437665  0.64298671  0.72157795  1
  Zr  Zr44  1  0.95785688  0.53248865  0.91321239  1
  Zr  Zr45  1  0.74456918  0.26723342  0.77629878  1
  Zr  Zr46  1  0.75644957  0.00879815  0.44380792  1
  Zr  Zr47  1  0.05260703  0.45765103  0.71371311  1
  Zr  Zr48  1  0.26965890  0.23211077  0.97770412  1
  Zr  Zr49  1  0.54936414  0.03311360  0.27522315  1
  Sc  Sc50  1  0.91764434  0.07414687  0.60637347  1
  Sc  Sc51  1  0.79579775  0.27246342  0.56201627  1
  Sc  Sc52  1  0.12937678  0.47546246  0.49412979  1
  Sc  Sc53  1  0.17378133  0.59039858  0.87797938  1
  Sc  Sc54  1  0.10017406  0.10487481  0.46774780  1
  Sc  Sc55  1  0.46749157  0.32557062  0.03626376  1
  Sc  Sc56  1  0.75575109  0.04568143  0.04055678  1
  Sc  Sc57  1  0.59534420  0.89414832  0.73570595  1
  Sc  Sc58  1  0.27606557  0.46732465  0.06714362  1
  Sc  Sc59  1  0.00618373  0.54945540  0.31680164  1
  Sc  Sc60  1  0.47021775  0.79381870  0.46543293  1
  Sc  Sc61  1  0.82359878  0.95791012  0.24267554  1
  Sc  Sc62  1  0.66098979  0.51117914  0.73059079  1
  Sc  Sc63  1  0.51951869  0.14012557  0.68310464  1
  Sc  Sc64  1  0.34875602  0.40142613  0.87651086  1
  Sc  Sc65  1  0.67393244  0.38208671  0.15881043  1
  Sc  Sc66  1  0.55868707  0.32996351  0.83117229  1
  Sc  Sc67  1  0.92356532  0.49141998  0.52672501  1
  Sc  Sc68  1  0.28513450  0.87501494  0.53049727  1
  Sc  Sc69  1  0.51226299  0.71836797  0.03999172  1
  Sc  Sc70  1  0.54394742  0.69822727  0.82828480  1
  Sc  Sc71  1  0.87053983  0.23348367  0.15767540  1
  Sc  Sc72  1  0.23536039  0.88378365  0.15571083  1
  Sc  Sc73  1  0.11144174  0.10571188  0.68152381  1
  Sc  Sc74  1  0.14354467  0.88852517  0.35621882  1
  Sc  Sc75  1  0.44514512  0.27334395  0.50242635  1
  Sc  Sc76  1  0.47699514  0.52598099  0.13380087  1
  Sc  Sc77  1  0.02238403  0.09723894  0.25775612  1
  Sc  Sc78  1  0.00597060  0.28982022  0.53224872  1
  Sc  Sc79  1  0.62271441  0.16180147  0.46585212  1
  Sc  Sc80  1  0.27474799  0.28318556  0.19180652  1
  Sc  Sc81  1  0.79339588  0.92487088  0.83492660  1
  Sc  Sc82  1  0.07971734  0.50988078  0.11623453  1
  Sc  Sc83  1  0.71949123  0.06591807  0.65950228  1
  Sc  Sc84  1  0.34111627  0.65168992  0.55172812  1
  Sc  Sc85  1  0.31774858  0.67830742  0.13351184  1
  Sc  Sc86  1  0.08374549  0.87969003  0.59946359  1
  Sc  Sc87  1  0.78086300  0.65324040  0.57224340  1
  Sc  Sc88  1  0.03155593  0.32717483  0.30811318  1
  Sc  Sc89  1  0.42841545  0.59797645  0.35701732  1
  Sc  Sc90  1  0.87558747  0.45127809  0.14616669  1
  Sc  Sc91  1  0.71302870  0.16200294  0.25688700  1
  Sc  Sc92  1  0.40205107  0.95484587  0.71702594  1
  Sc  Sc93  1  0.71696521  0.47171986  0.51267175  1
  Sc  Sc94  1  0.09758559  0.92121289  0.96586142  1
  Sc  Sc95  1  0.49541086  0.91234409  0.92601694  1
  Sc  Sc96  1  0.95613507  0.93865328  0.42081564  1
  Sc  Sc97  1  0.66924034  0.23704418  1.00501261  1
  Sc  Sc98  1  0.89131923  0.65503228  0.08375610  1
  Sc  Sc99  1  0.91173862  0.30376835  0.94945582  1
  Nb  Nb100  1  0.09356581  0.77347130  0.80519675  1
  Nb  Nb101  1  0.03672481  0.90241147  0.17149396  1
  Nb  Nb102  1  0.45400113  0.15601714  0.89926155  1
  Nb  Nb103  1  0.37935887  0.60102812  0.92061493  1
  Nb  Nb104  1  0.52357489  0.48789259  0.51010464  1
  Nb  Nb105  1  0.79917936  0.79731980  0.41223669  1
  Nb  Nb106  1  0.12912843  0.70366247  0.22400188  1
  Nb  Nb107  1  0.38807674  0.93330909  0.32681062  1
  Nb  Nb108  1  0.77327862  0.61188007  0.88327137  1
  Nb  Nb109  1  0.41290627  0.15830695  0.35288346  1
  Nb  Nb110  1  0.50656635  0.75188424  0.24887090  1
  Nb  Nb111  1  0.62120006  0.87318655  0.35069730  1
  Nb  Nb112  1  0.91756089  0.76333386  0.87983763  1
  Nb  Nb113  1  0.99418811  0.95467510  0.78884266  1
  Nb  Nb114  1  0.60319446  0.33228961  0.61923878  1
  Nb  Nb115  1  0.81364730  0.59229707  0.35104009  1
  Nb  Nb116  1  0.55779633  0.51468876  0.93370216  1
  Nb  Nb117  1  0.63250411  0.67561812  0.41927704  1
  Nb  Nb118  1  0.54352938  0.07959865  0.06093236  1
  Nb  Nb119  1  0.73547750  0.73875400  0.74741063  1
  Nb  Nb120  1  0.84713666  0.44470927  0.73420279  1
  Nb  Nb121  1  0.61173426  0.34004670  0.38636115  1
  Nb  Nb122  1  0.30622246  0.75860906  0.32695394  1
  Nb  Nb123  1  0.18204709  0.29901718  0.77910482  1
  Nb  Nb124  1  0.42868627  0.89587316  0.12990285  1
