# generated using pymatgen
data_Zr2Sc2Nb
_symmetry_space_group_name_H-M   'P 1'
_cell_length_a   14.75980875
_cell_length_b   14.02000941
_cell_length_c   13.84447474
_cell_angle_alpha   91.94552345
_cell_angle_beta   91.38940961
_cell_angle_gamma   91.35608352
_symmetry_Int_Tables_number   1
_chemical_formula_structural   Zr2Sc2Nb
_chemical_formula_sum   'Zr50 Sc50 Nb25'
_cell_volume   2861.52076348
_cell_formula_units_Z   25
loop_
 _symmetry_equiv_pos_site_id
 _symmetry_equiv_pos_as_xyz
  1  'x, y, z'
loop_
 _atom_site_type_symbol
 _atom_site_label
 _atom_site_symmetry_multiplicity
 _atom_site_fract_x
 _atom_site_fract_y
 _atom_site_fract_z
 _atom_site_occupancy
  Zr  Zr0  1  0.31242424  0.85098560  0.35927142  1
  Zr  Zr1  1  0.91116811  0.86944087  0.28641314  1
  Zr  Zr2  1  0.90887239  0.34429034  0.10262204  1
  Zr  Zr3  1  0.10981468  0.41942954  0.18151598  1
  Zr  Zr4  1  0.39368447  0.22916813  0.02989670  1
  Zr  Zr5  1  0.53466293  0.53364981  0.11633404  1
  Zr  Zr6  1  0.37359338  0.69728990  -0.03800757  1
  Zr  Zr7  1  0.25719246  0.05281144  0.09006908  1
  Zr  Zr8  1  0.57673218  0.73404938  0.07152437  1
  Zr  Zr9  1  0.77354810  0.76879907  0.13976287  1
  Zr  Zr10  1  0.85201318  0.31616883  0.46154345  1
  Zr  Zr11  1  0.74220746  0.12846322  0.72818551  1
  Zr  Zr12  1  0.49779193  0.05112491  0.07009097  1
  Zr  Zr13  1  0.05408568  0.41116641  0.78467863  1
  Zr  Zr14  1  0.59109370  0.72191059  0.29847087  1
  Zr  Zr15  1  0.17410331  0.71057434  -0.00089427  1
  Zr  Zr16  1  0.04357414  0.96737916  0.12834852  1
  Zr  Zr17  1  0.87413339  0.66858685  0.95135328  1
  Zr  Zr18  1  0.51540067  0.50926424  0.33002355  1
  Zr  Zr19  1  0.99418802  0.75552335  0.11121869  1
  Zr  Zr20  1  0.50272345  0.91389133  0.36386853  1
  Zr  Zr21  1  0.69752387  0.91355380  0.77669147  1
  Zr  Zr22  1  0.22222963  0.15901047  0.91398930  1
  Zr  Zr23  1  0.05222027  0.85189984  0.91392354  1
  Zr  Zr24  1  0.84246182  0.34100807  0.71304088  1
  Zr  Zr25  1  0.37640017  0.41699594  0.16317005  1
  Zr  Zr26  1  0.70974591  0.45388166  0.60145675  1
  Zr  Zr27  1  0.40790226  0.87480391  0.12989624  1
  Zr  Zr28  1  0.54300194  0.75234586  0.73790178  1
  Zr  Zr29  1  0.57350330  0.36523289  0.96947047  1
  Zr  Zr30  1  0.58530674  0.81835193  0.53564556  1
  Zr  Zr31  1  0.89252312  0.44905932  0.91561273  1
  Zr  Zr32  1  0.92841844  0.16814877  0.61985227  1
  Zr  Zr33  1  0.03395185  0.64335868  0.83926735  1
  Zr  Zr34  1  0.54371532  0.60073029  0.89612713  1
  Zr  Zr35  1  0.58719427  0.12416861  0.88160112  1
  Zr  Zr36  1  0.31225739  0.11161020  0.70079195  1
  Zr  Zr37  1  0.22406536  0.35245278  0.01989657  1
  Zr  Zr38  1  0.41099093  0.97709318  0.54300851  1
  Zr  Zr39  1  0.49332535  0.16333591  0.44431810  1
  Zr  Zr40  1  0.88646783  0.55945639  0.72197896  1
  Zr  Zr41  1  0.93108122  1.00907953  0.76500436  1
  Zr  Zr42  1  0.01331557  0.38323847  0.56930309  1
  Zr  Zr43  1  0.37611156  0.52412303  0.52070071  1
  Zr  Zr44  1  0.70750252  0.51302313  0.81321097  1
  Zr  Zr45  1  0.39228917  0.45948809  0.93696981  1
  Zr  Zr46  1  0.09763214  0.81479486  0.34005328  1
  Zr  Zr47  1  0.87014896  0.89922475  0.99174290  1
  Zr  Zr48  1  0.87107415  0.79249662  0.78374680  1
  Zr  Zr49  1  0.21922255  0.47512463  0.64024082  1
  Sc  Sc50  1  0.87755476  0.54564049  0.50384948  1
  Sc  Sc51  1  0.21950029  0.67325338  0.47981374  1
  Sc  Sc52  1  0.65086826  0.30897333  0.36156025  1
  Sc  Sc53  1  0.25424096  0.24403012  0.23547813  1
  Sc  Sc54  1  0.73096088  0.68809725  0.65664598  1
  Sc  Sc55  1  0.16235902  0.03271446  0.31277116  1
  Sc  Sc56  1  0.49721732  0.87233802  0.91668633  1
  Sc  Sc57  1  0.21210683  0.88317835  0.55054793  1
  Sc  Sc58  1  0.96371439  0.09422087  0.27752470  1
  Sc  Sc59  1  0.63664147  0.02196416  0.54633533  1
  Sc  Sc60  1  0.39097572  0.06676956  0.26734174  1
  Sc  Sc61  1  0.51487054  0.26368023  0.20049340  1
  Sc  Sc62  1  0.16583016  0.26105312  0.62165533  1
  Sc  Sc63  1  0.36463217  0.31388511  0.60475587  1
  Sc  Sc64  1  0.96962882  0.74626773  0.48707752  1
  Sc  Sc65  1  0.06777458  0.60648730  0.62457385  1
  Sc  Sc66  1  0.20969864  0.84444385  0.16211852  1
  Sc  Sc67  1  0.71883841  0.90604219  0.36456493  1
  Sc  Sc68  1  0.03611333  0.83780820  0.67333774  1
  Sc  Sc69  1  0.81974741  0.09673073  0.43192530  1
  Sc  Sc70  1  0.27457322  0.14081637  0.46726433  1
  Sc  Sc71  1  0.27995633  0.52913768  0.31817282  1
  Sc  Sc72  1  0.68979495  0.23582526  0.55581286  1
  Sc  Sc73  1  0.11320064  0.05622730  0.61457618  1
  Sc  Sc74  1  0.72094818  0.54595967  0.02214061  1
  Sc  Sc75  1  0.39560804  0.33715823  0.37781856  1
  Sc  Sc76  1  0.70112793  0.38794853  0.16506779  1
  Sc  Sc77  1  0.99300263  0.96932866  0.46800525  1
  Sc  Sc78  1  0.18994775  0.36004164  0.43191113  1
  Sc  Sc79  1  0.20621622  0.74323793  0.76453054  1
  Sc  Sc80  1  0.38499215  0.67437898  0.19400423  1
  Sc  Sc81  1  0.68229831  0.16970933  0.08797911  1
  Sc  Sc82  1  0.86409267  0.45090627  0.29996647  1
  Sc  Sc83  1  0.35378203  0.88167771  0.74645579  1
  Sc  Sc84  1  0.81827117  0.90313027  0.58542305  1
  Sc  Sc85  1  0.17164874  -0.02252088  0.79708731  1
  Sc  Sc86  1  0.62797699  0.09597045  0.29410102  1
  Sc  Sc87  1  0.03447777  0.07020693  0.94696007  1
  Sc  Sc88  1  0.50496932  0.45456038  0.72281054  1
  Sc  Sc89  1  0.78658912  0.07066404  0.92263724  1
  Sc  Sc90  1  0.05818749  0.53015381  0.39624630  1
  Sc  Sc91  1  0.37427224  0.62006109  0.73558737  1
  Sc  Sc92  1  0.11981180  0.63521725  0.21512785  1
  Sc  Sc93  1  0.21771239  0.53715803  0.86242511  1
  Sc  Sc94  1  0.51766975  0.17235638  0.65707217  1
  Sc  Sc95  1  0.78887077  1.00632805  0.17477579  1
  Sc  Sc96  1  0.76282611  0.71173619  0.42884671  1
  Sc  Sc97  1  0.56021921  0.60345747  0.54799686  1
  Sc  Sc98  1  0.00859483  0.29972115  0.30880644  1
  Sc  Sc99  1  0.43034400  0.26408103  0.82505045  1
  Nb  Nb100  1  0.81142142  0.22687670  0.25564804  1
  Nb  Nb101  1  0.27848871  0.89463542  0.95367203  1
  Nb  Nb102  1  0.05103976  0.30002116  0.96438137  1
  Nb  Nb103  1  0.24189265  0.32942972  0.80703148  1
  Nb  Nb104  1  0.09045006  0.19038533  0.12557833  1
  Nb  Nb105  1  0.04975116  0.18011799  0.46064979  1
  Nb  Nb106  1  1.07168095  0.19224456  0.77799995  1
  Nb  Nb107  1  0.42821814  0.69491812  0.40380528  1
  Nb  Nb108  1  0.59951535  0.90986494  0.18201413  1
  Nb  Nb109  1  0.69407516  0.50747723  0.40429450  1
  Nb  Nb110  1  0.25780168  0.54889340  0.08185850  1
  Nb  Nb111  1  0.90620635  0.22301891  0.86258958  1
  Nb  Nb112  1  0.75295789  0.29758455  0.93531747  1
  Nb  Nb113  1  0.39310905  0.76578347  0.57559030  1
  Nb  Nb114  1  0.52284314  0.97462360  0.72095524  1
  Nb  Nb115  1  0.38907121  0.05052736  0.88588575  1
  Nb  Nb116  1  0.72470024  0.59511147  0.23092182  1
  Nb  Nb117  1  0.91756370  0.66262901  0.29451238  1
  Nb  Nb118  1  0.54242406  0.37947432  0.52346419  1
  Nb  Nb119  1  0.06285168  0.52139945  0.01007046  1
  Nb  Nb120  1  0.90967390  0.55747201  0.12708835  1
  Nb  Nb121  1  0.69910711  0.74363852  0.89722305  1
  Nb  Nb122  1  0.90303155  0.15168318  0.07524405  1
  Nb  Nb123  1  0.64399325  0.31004431  0.76292936  1
  Nb  Nb124  1  0.66828406  0.92887228  1.00265426  1
