# generated using pymatgen
data_Zr2Sc2Nb
_symmetry_space_group_name_H-M   'P 1'
_cell_length_a   14.32728171
_cell_length_b   14.29478960
_cell_length_c   14.03464894
_cell_angle_alpha   89.36932712
_cell_angle_beta   89.92359526
_cell_angle_gamma   90.06363796
_symmetry_Int_Tables_number   1
_chemical_formula_structural   Zr2Sc2Nb
_chemical_formula_sum   'Zr50 Sc50 Nb25'
_cell_volume   2874.19447355
_cell_formula_units_Z   25
loop_
 _symmetry_equiv_pos_site_id
 _symmetry_equiv_pos_as_xyz
  1  'x, y, z'
loop_
 _atom_site_type_symbol
 _atom_site_label
 _atom_site_symmetry_multiplicity
 _atom_site_fract_x
 _atom_site_fract_y
 _atom_site_fract_z
 _atom_site_occupancy
  Zr  Zr0  1  0.36039867  0.23537571  -0.02325403  1
  Zr  Zr1  1  0.86164385  0.32664552  0.16957167  1
  Zr  Zr2  1  0.93042178  0.86597021  0.53251575  1
  Zr  Zr3  1  0.39509168  0.51767024  0.11288078  1
  Zr  Zr4  1  0.50100498  0.88322257  0.81663107  1
  Zr  Zr5  1  0.04990535  0.42611057  0.89066993  1
  Zr  Zr6  1  0.17459944  0.71509595  0.71963868  1
  Zr  Zr7  1  0.98763263  0.93219058  0.05909690  1
  Zr  Zr8  1  0.84738759  0.08600800  0.11676724  1
  Zr  Zr9  1  0.33557475  0.91449774  0.14281089  1
  Zr  Zr10  1  0.26436097  0.68285598  0.49752328  1
  Zr  Zr11  1  0.23557491  0.27614855  0.16380076  1
  Zr  Zr12  1  0.90479309  0.38324884  0.72631302  1
  Zr  Zr13  1  0.97003756  0.52307357  0.24751532  1
  Zr  Zr14  1  0.09686227  0.20823860  0.50602863  1
  Zr  Zr15  1  0.53038916  0.86660203  0.04529258  1
  Zr  Zr16  1  0.16312244  0.86985015  0.58602838  1
  Zr  Zr17  1  0.13784853  0.79696833  0.16818180  1
  Zr  Zr18  1  0.30013349  0.95337578  0.72699578  1
  Zr  Zr19  1  0.07074432  0.24674654  0.74311248  1
  Zr  Zr20  1  0.89938586  0.83175923  0.90125320  1
  Zr  Zr21  1  0.29669075  0.71633992  0.07112667  1
  Zr  Zr22  1  0.89190037  0.69998030  0.36604377  1
  Zr  Zr23  1  0.65967174  0.82090626  0.24122667  1
  Zr  Zr24  1  0.72028637  0.21847255  0.98085797  1
  Zr  Zr25  1  0.63240952  0.66927918  0.57086169  1
  Zr  Zr26  1  0.52596163  0.80099621  0.43179016  1
  Zr  Zr27  1  0.32865115  0.08452396  0.28376462  1
  Zr  Zr28  1  0.78837875  0.04275747  0.53274232  1
  Zr  Zr29  1  0.12025934  0.58200270  0.08838641  1
  Zr  Zr30  1  0.19865694  0.02936210  0.44578276  1
  Zr  Zr31  1  0.17002083  0.48953176  0.43688257  1
  Zr  Zr32  1  0.37769754  1.00075085  0.94380712  1
  Zr  Zr33  1  0.41353668  0.78742601  0.63063342  1
  Zr  Zr34  1  0.46756429  0.60543285  0.46023579  1
  Zr  Zr35  1  0.99230532  0.02938555  0.43234307  1
  Zr  Zr36  1  0.33688617  0.47511252  0.56184482  1
  Zr  Zr37  1  0.10385282  0.64931784  0.31556050  1
  Zr  Zr38  1  0.58488902  0.06998530  0.92399548  1
  Zr  Zr39  1  0.53810664  0.48199519  0.65804645  1
  Zr  Zr40  1  1.01176746  0.06948252  0.89088732  1
  Zr  Zr41  1  0.68832756  0.21543376  0.19066746  1
  Zr  Zr42  1  0.64149115  0.19130392  0.48061923  1
  Zr  Zr43  1  0.74205003  0.84735171  0.43842246  1
  Zr  Zr44  1  0.25792835  0.32304762  0.79898989  1
  Zr  Zr45  1  0.79086064  0.31479194  0.40684160  1
  Zr  Zr46  1  0.12221398  0.16562189  0.29620269  1
  Zr  Zr47  1  0.89918982  0.21150028  0.56293402  1
  Zr  Zr48  1  0.50389551  0.95062878  0.27349356  1
  Zr  Zr49  1  0.24233320  0.41737114  0.01042695  1
  Sc  Sc50  1  0.59929698  0.30595099  0.81666520  1
  Sc  Sc51  1  0.26950058  0.29328193  0.39561826  1
  Sc  Sc52  1  0.44451329  0.65760380  0.93526498  1
  Sc  Sc53  1  0.37182731  0.46937851  0.33197133  1
  Sc  Sc54  1  0.85585439  0.51424900  0.49838268  1
  Sc  Sc55  1  0.79898045  0.42061272  0.89900994  1
  Sc  Sc56  1  0.36417421  0.60355062  0.72259424  1
  Sc  Sc57  1  0.46042990  0.73108002  0.22648297  1
  Sc  Sc58  1  0.49554996  0.35488520  0.46064812  1
  Sc  Sc59  1  0.77353764  0.65384254  0.17720984  1
  Sc  Sc60  1  0.56360701  0.54541292  0.26396430  1
  Sc  Sc61  1  0.08605872  0.83900659  0.38789474  1
  Sc  Sc62  1  0.86562584  0.96271056  0.72830864  1
  Sc  Sc63  1  -0.02225229  0.62090397  0.88474280  1
  Sc  Sc64  1  0.47245044  0.10985999  0.11232925  1
  Sc  Sc65  1  0.04379149  0.65732071  0.53238709  1
  Sc  Sc66  1  0.85183750  0.18580409  0.77963007  1
  Sc  Sc67  1  0.30134313  0.80125208  0.86592292  1
  Sc  Sc68  1  0.67486378  0.10145133  0.72435537  1
  Sc  Sc69  1  0.02054732  0.40167482  0.56203319  1
  Sc  Sc70  1  0.26662096  0.13546234  0.63571215  1
  Sc  Sc71  1  0.76762090  0.85303363  0.06103337  1
  Sc  Sc72  1  0.01809938  0.34730675  0.34568015  1
  Sc  Sc73  1  0.42019894  0.43630049  0.86944402  1
  Sc  Sc74  1  0.90003908  0.16389690  0.31340035  1
  Sc  Sc75  1  0.69973819  0.45918335  0.09610550  1
  Sc  Sc76  1  0.92954579  0.26209906  0.96714291  1
  Sc  Sc77  1  0.98103957  0.77295238  0.71422993  1
  Sc  Sc78  1  0.41960509  0.15267681  0.47375253  1
  Sc  Sc79  1  0.43078798  0.29750357  0.65597370  1
  Sc  Sc80  1  0.95264084  0.71461709  0.10082783  1
  Sc  Sc81  1  0.54036104  0.33597486  0.04679455  1
  Sc  Sc82  1  0.90614589  0.89754247  0.26420305  1
  Sc  Sc83  1  0.04447678  0.14262787  0.10744866  1
  Sc  Sc84  1  0.37754742  0.94389045  0.49275045  1
  Sc  Sc85  1  0.14870314  0.50224445  0.69850635  1
  Sc  Sc86  1  0.77511962  0.48622690  0.29550437  1
  Sc  Sc87  1  0.71368909  0.32958554  0.62449776  1
  Sc  Sc88  1  0.56522024  0.68549110  0.75625179  1
  Sc  Sc89  1  0.49890958  0.02530399  0.64478246  1
  Sc  Sc90  1  0.42509909  0.14648858  0.79740832  1
  Sc  Sc91  1  0.42978481  0.29320163  0.22841315  1
  Sc  Sc92  1  0.61177833  0.52529875  0.89902892  1
  Sc  Sc93  1  0.29167785  0.83510321  0.33566141  1
  Sc  Sc94  1  0.73894513  0.53220516  0.70827526  1
  Sc  Sc95  1  0.73249587  0.03198556  0.31478324  1
  Sc  Sc96  1  0.18053399  0.94019769  0.99583917  1
  Sc  Sc97  1  0.66396380  0.87315676  0.64228049  1
  Sc  Sc98  1  0.22330136  0.58914650  0.89396383  1
  Sc  Sc99  1  0.05482132  0.04861834  0.65459440  1
  Nb  Nb100  1  0.94205427  0.57208193  0.69463267  1
  Nb  Nb101  1  0.18914271  0.45768754  0.23367309  1
  Nb  Nb102  1  0.28305711  0.63492400  0.26689332  1
  Nb  Nb103  1  0.13229542  0.98116024  0.23073226  1
  Nb  Nb104  1  0.05503003  0.36685332  0.11241623  1
  Nb  Nb105  1  0.21517967  0.10210176  0.85153738  1
  Nb  Nb106  1  0.82440575  0.70241464  0.57640524  1
  Nb  Nb107  1  0.64603624  0.74688472  0.92678656  1
  Nb  Nb108  1  0.14454345  0.24393340  0.95869989  1
  Nb  Nb109  1  0.61682318  0.35129502  0.29825801  1
  Nb  Nb110  1  0.65258409  0.47800318  0.47313828  1
  Nb  Nb111  1  0.80738486  0.03765635  0.93251611  1
  Nb  Nb112  1  0.78716960  0.63155113  0.96293683  1
  Nb  Nb113  1  0.10485029  0.76209744  0.94563222  1
  Nb  Nb114  1  0.65733619  0.02090223  0.11293424  1
  Nb  Nb115  1  0.24761270  0.09891314  0.08706334  1
  Nb  Nb116  1  0.54806471  0.14135849  0.30847454  1
  Nb  Nb117  1  0.58796217  0.99422416  0.46110664  1
  Nb  Nb118  1  0.59285959  0.65201639  0.08271344  1
  Nb  Nb119  1  0.78047997  0.72591548  0.76951346  1
  Nb  Nb120  1  0.69084873  0.65702948  0.38470968  1
  Nb  Nb121  1  0.21743347  0.33080137  0.59834816  1
  Nb  Nb122  1  0.91123162  0.50076482  0.05736383  1
  Nb  Nb123  1  0.69638874  0.91174739  0.85290707  1
  Nb  Nb124  1  0.10447976  0.90678104  0.80610997  1
