# generated using pymatgen
data_Zr2Sc2Nb
_symmetry_space_group_name_H-M   'P 1'
_cell_length_a   14.53515495
_cell_length_b   13.44282215
_cell_length_c   14.78468218
_cell_angle_alpha   87.95986772
_cell_angle_beta   89.92256886
_cell_angle_gamma   88.43330680
_symmetry_Int_Tables_number   1
_chemical_formula_structural   Zr2Sc2Nb
_chemical_formula_sum   'Zr50 Sc50 Nb25'
_cell_volume   2885.92028428
_cell_formula_units_Z   25
loop_
 _symmetry_equiv_pos_site_id
 _symmetry_equiv_pos_as_xyz
  1  'x, y, z'
loop_
 _atom_site_type_symbol
 _atom_site_label
 _atom_site_symmetry_multiplicity
 _atom_site_fract_x
 _atom_site_fract_y
 _atom_site_fract_z
 _atom_site_occupancy
  Zr  Zr0  1  0.67578460  0.28487741  0.41116293  1
  Zr  Zr1  1  0.47619055  0.91128322  0.33338512  1
  Zr  Zr2  1  0.30104109  0.10145581  0.70982632  1
  Zr  Zr3  1  0.44180245  0.03433801  0.14171981  1
  Zr  Zr4  1  0.89498695  0.34459563  0.09961448  1
  Zr  Zr5  1  0.64968868  0.51992306  0.64774135  1
  Zr  Zr6  1  0.92697103  0.25015796  0.89827872  1
  Zr  Zr7  1  0.29626593  0.70326357  0.34777148  1
  Zr  Zr8  1  0.71413401  0.27977544  0.21365482  1
  Zr  Zr9  1  0.56472908  0.11432781  0.33248804  1
  Zr  Zr10  1  0.45725173  0.27045758  0.47809743  1
  Zr  Zr11  1  0.81073744  0.59283594  0.76863023  1
  Zr  Zr12  1  0.56432275  0.31899076  0.79010816  1
  Zr  Zr13  1  0.80751470  0.84879345  0.29766425  1
  Zr  Zr14  1  0.02576754  0.57502077  0.62142828  1
  Zr  Zr15  1  0.73335278  0.51168076  0.11293527  1
  Zr  Zr16  1  0.45237222  0.42058605  0.64216339  1
  Zr  Zr17  1  0.63200470  0.92605553  0.84019654  1
  Zr  Zr18  1  0.39531691  0.03899545  0.50888622  1
  Zr  Zr19  1  0.04878901  0.41002933  0.97403695  1
  Zr  Zr20  1  0.93178796  0.20501689  0.25333756  1
  Zr  Zr21  1  0.77219284  0.75848397  0.11695151  1
  Zr  Zr22  1  0.65714177  0.98342620  0.18850860  1
  Zr  Zr23  1  0.05198671  0.34876239  0.58197599  1
  Zr  Zr24  1  0.83838019  0.46853232  0.94156674  1
  Zr  Zr25  1  0.63463416  0.51696572  0.29312840  1
  Zr  Zr26  1  0.68949949  0.69994524  0.46037879  1
  Zr  Zr27  1  0.15923861  0.50335507  0.46158359  1
  Zr  Zr28  1  0.12374681  0.13100311  0.89182787  1
  Zr  Zr29  1  0.92689740  0.03317167  0.95138723  1
  Zr  Zr30  1  0.19966066  0.54116191  0.88536245  1
  Zr  Zr31  1  0.16813535  0.75466360  0.95253284  1
  Zr  Zr32  1  0.15030511  0.79207380  0.16907974  1
  Zr  Zr33  1  0.00949778  0.89872584  0.34626620  1
  Zr  Zr34  1  0.36065906  0.29054265  0.15460787  1
  Zr  Zr35  1  0.42706041  0.53719820  0.26154737  1
  Zr  Zr36  1  0.66400168  0.92583193  0.42281864  1
  Zr  Zr37  1  0.32389560  0.69823717  0.78471180  1
  Zr  Zr38  1  0.49534614  0.67463467  0.40925386  1
  Zr  Zr39  1  0.22448545  0.52902608  0.25729202  1
  Zr  Zr40  1  0.73461917  0.68382317  0.94371570  1
  Zr  Zr41  1  0.36710245  0.69946359  0.97455049  1
  Zr  Zr42  1  0.10126975  0.93051542  0.63410706  1
  Zr  Zr43  1  0.86855106  0.88795523  0.50595708  1
  Zr  Zr44  1  0.46544284  0.28017090  -0.02752813  1
  Zr  Zr45  1  0.03165584  0.17356928  0.07332278  1
  Zr  Zr46  1  0.81949875  0.85129484  0.85238260  1
  Zr  Zr47  1  0.69339548  0.29148996  0.99619913  1
  Zr  Zr48  1  0.23420828  0.69173812  0.55439988  1
  Zr  Zr49  1  0.42452664  0.89436920  0.85533344  1
  Sc  Sc50  1  0.12742287  0.72213876  0.73824988  1
  Sc  Sc51  1  0.75167047  0.11976612  0.87240731  1
  Sc  Sc52  1  0.50151375  0.33429398  0.29703378  1
  Sc  Sc53  1  0.33472247  0.10184631  0.93901842  1
  Sc  Sc54  1  0.08495129  0.14323262  0.68230190  1
  Sc  Sc55  1  0.10303160  0.69312929  0.36379737  1
  Sc  Sc56  1  0.23358102  0.11648247  0.11782983  1
  Sc  Sc57  1  0.30461367  0.90191376  0.04245132  1
  Sc  Sc58  1  0.54964449  0.86014539  1.03276674  1
  Sc  Sc59  1  0.66530563  0.74008819  0.69244803  1
  Sc  Sc60  1  0.84973714  0.41697497  0.28845760  1
  Sc  Sc61  1  0.33269555  0.50104764  0.06408817  1
  Sc  Sc62  1  0.62211598  0.49234876  0.91065425  1
  Sc  Sc63  1  0.11798608  0.58738079  0.08523543  1
  Sc  Sc64  1  0.98400580  0.63426059  0.89014384  1
  Sc  Sc65  1  0.71398649  0.93397685  0.63848186  1
  Sc  Sc66  1  0.78268944  0.11187064  0.53218855  1
  Sc  Sc67  1  0.87910729  0.23486475  0.67529252  1
  Sc  Sc68  1  0.06972691  0.32252289  0.36946381  1
  Sc  Sc69  1  0.32573242  0.87458124  0.65444138  1
  Sc  Sc70  1  0.79549700  0.07514062  0.32887554  1
  Sc  Sc71  1  0.53681351  0.69663065  0.84690446  1
  Sc  Sc72  1  0.28395371  0.33883523  0.35817803  1
  Sc  Sc73  1  0.75702014  0.35542546  0.78634145  1
  Sc  Sc74  1  0.24762477  0.50847034  0.67965780  1
  Sc  Sc75  1  0.93558890  -0.02666482  0.15976510  1
  Sc  Sc76  1  -0.02913788  0.43264087  0.77415200  1
  Sc  Sc77  1  0.40068540  0.75823620  0.18105008  1
  Sc  Sc78  1  0.18641406  0.91024907  0.45289938  1
  Sc  Sc79  1  0.45347283  0.65125636  0.61616376  1
  Sc  Sc80  1  0.88013952  0.29314833  0.46197846  1
  Sc  Sc81  1  0.15335908  0.32990440  0.78133014  1
  Sc  Sc82  1  0.03167527  0.89951874  0.83759223  1
  Sc  Sc83  1  0.95926944  0.80335651  0.02054693  1
  Sc  Sc84  1  0.13078363  0.34655244  0.16822901  1
  Sc  Sc85  1  0.91943676  0.78600136  0.69394072  1
  Sc  Sc86  1  0.50195914  0.11368907  0.83186604  1
  Sc  Sc87  1  0.24276165  0.31355102  0.97395336  1
  Sc  Sc88  1  0.99381096  0.08404503  0.47972608  1
  Sc  Sc89  1  0.35328935  0.13096159  0.31340253  1
  Sc  Sc90  1  0.19770986  0.14362832  0.48671572  1
  Sc  Sc91  1  0.27355103  0.31043446  0.58928198  1
  Sc  Sc92  1  0.89320871  0.02042509  0.71533054  1
  Sc  Sc93  1  0.54278208  0.41724001  0.10841751  1
  Sc  Sc94  1  0.22511181  0.93183959  0.83394239  1
  Sc  Sc95  1  0.41044561  0.49212128  0.85076344  1
  Sc  Sc96  1  0.55582745  0.63805895  0.07647869  1
  Sc  Sc97  1  0.27178269  0.93019670  0.26513398  1
  Sc  Sc98  1  0.11143056  0.09455760  0.28498206  1
  Sc  Sc99  1  0.61501127  0.75372280  0.25322758  1
  Nb  Nb100  1  0.66449311  0.13461926  0.70193016  1
  Nb  Nb101  1  0.83536952  0.64913358  0.57687112  1
  Nb  Nb102  1  0.35933653  0.50794338  0.46504299  1
  Nb  Nb103  1  0.03698680  0.76495812  0.53342412  1
  Nb  Nb104  1  0.65979176  0.31093991  0.59493154  1
  Nb  Nb105  1  0.50680942  0.98083295  0.68105816  1
  Nb  Nb106  1  0.11116636  0.96518390  0.02852191  1
  Nb  Nb107  1  0.75511119  0.94137039  0.01725852  1
  Nb  Nb108  1  0.84525799  0.44159422  0.61208207  1
  Nb  Nb109  1  0.01630756  0.53180838  0.26710231  1
  Nb  Nb110  1  0.56163550  0.19360795  0.14436733  1
  Nb  Nb111  1  0.91561566  0.57751013  0.09663774  1
  Nb  Nb112  1  0.55281856  0.47035389  0.47069597  1
  Nb  Nb113  1  0.80878131  0.62227010  0.27920077  1
  Nb  Nb114  1  0.75227426  0.49395631  0.45720687  1
  Nb  Nb115  1  0.53686448  0.84974023  0.54798680  1
  Nb  Nb116  1  0.59745492  0.07989398  0.00285576  1
  Nb  Nb117  1  0.35289401  0.28958754  0.79230397  1
  Nb  Nb118  1  0.58650368  0.09098086  0.52857626  1
  Nb  Nb119  1  0.96580828  0.73359659  0.21317991  1
  Nb  Nb120  1  0.37086444  0.82525223  0.47146936  1
  Nb  Nb121  1  0.47151888  0.19887870  0.65198173  1
  Nb  Nb122  1  0.90738488  0.69694565  0.40908497  1
  Nb  Nb123  1  0.79338617  0.13238498  0.09309811  1
  Nb  Nb124  1  0.95219844  0.50802581  0.44920363  1
