# generated using pymatgen
data_Zr2Sc2Nb
_symmetry_space_group_name_H-M   'P 1'
_cell_length_a   14.37406335
_cell_length_b   14.44778882
_cell_length_c   13.89416953
_cell_angle_alpha   88.48127912
_cell_angle_beta   92.87360292
_cell_angle_gamma   87.54934612
_symmetry_Int_Tables_number   1
_chemical_formula_structural   Zr2Sc2Nb
_chemical_formula_sum   'Zr50 Sc50 Nb25'
_cell_volume   2877.99911693
_cell_formula_units_Z   25
loop_
 _symmetry_equiv_pos_site_id
 _symmetry_equiv_pos_as_xyz
  1  'x, y, z'
loop_
 _atom_site_type_symbol
 _atom_site_label
 _atom_site_symmetry_multiplicity
 _atom_site_fract_x
 _atom_site_fract_y
 _atom_site_fract_z
 _atom_site_occupancy
  Zr  Zr0  1  0.12220826  0.55373559  0.62572675  1
  Zr  Zr1  1  0.34575118  0.25240180  0.08128474  1
  Zr  Zr2  1  0.45843491  0.64010635  0.27664245  1
  Zr  Zr3  1  0.34129617  0.90793905  0.40106075  1
  Zr  Zr4  1  0.20141039  0.68660582  0.93284154  1
  Zr  Zr5  1  0.79879482  0.49564804  0.31329288  1
  Zr  Zr6  1  0.14761950  0.13772675  0.84572874  1
  Zr  Zr7  1  0.26194589  0.51159312  0.81790466  1
  Zr  Zr8  1  0.97858063  0.42318298  0.91420780  1
  Zr  Zr9  1  0.74730425  0.92878714  0.86441377  1
  Zr  Zr10  1  0.58713996  0.46172571  0.31977351  1
  Zr  Zr11  1  0.41948903  0.71045566  0.49771476  1
  Zr  Zr12  1  0.88716505  0.61961515  0.16655723  1
  Zr  Zr13  1  0.84376975  0.10814309  0.39221282  1
  Zr  Zr14  1  0.28563565  0.86015145  0.59313540  1
  Zr  Zr15  1  0.66617658  0.04887611  0.49435796  1
  Zr  Zr16  1  0.81304481  0.74932976  -0.01188014  1
  Zr  Zr17  1  0.95255269  0.52508772  0.46888939  1
  Zr  Zr18  1  0.00530925  0.80290273  0.91460722  1
  Zr  Zr19  1  0.82879376  0.70009553  0.37119480  1
  Zr  Zr20  1  0.53202216  0.84315426  0.24879884  1
  Zr  Zr21  1  0.15601291  0.11871120  0.22476913  1
  Zr  Zr22  1  0.34924132  0.95916175  0.20214737  1
  Zr  Zr23  1  0.03792093  0.35446769  0.58897383  1
  Zr  Zr24  1  0.19371809  0.32629635  0.21639416  1
  Zr  Zr25  1  0.89537806  0.39759808  0.09936774  1
  Zr  Zr26  1  0.21942256  0.54639881  0.26510132  1
  Zr  Zr27  1  0.36662573  0.11541836  0.89123332  1
  Zr  Zr28  1  0.89121751  0.32100529  0.42734134  1
  Zr  Zr29  1  0.45622120  0.75375187  0.07303865  1
  Zr  Zr30  1  0.90758052  0.45756260  0.69966848  1
  Zr  Zr31  1  0.16832696  0.47679387  0.03388829  1
  Zr  Zr32  1  0.80686900  0.27370206  0.64173098  1
  Zr  Zr33  1  0.37822077  0.50891486  0.41381720  1
  Zr  Zr34  1  0.16464673  0.46768450  0.44602432  1
  Zr  Zr35  1  0.63248508  0.33299942  0.72573620  1
  Zr  Zr36  1  0.93527104  0.87528486  0.35986001  1
  Zr  Zr37  1  0.32271428  0.01039548  0.72519577  1
  Zr  Zr38  1  0.41498280  0.19675187  0.68507737  1
  Zr  Zr39  1  0.63637147  0.66333791  0.40258953  1
  Zr  Zr40  1  0.09576580  0.80164724  0.70373682  1
  Zr  Zr41  1  0.12272196  0.99848309  0.64345523  1
  Zr  Zr42  1  0.49900112  0.27055841  0.30059488  1
  Zr  Zr43  1  0.53738381  0.02465682  0.80864510  1
  Zr  Zr44  1  0.59828302  0.44835652  0.92975314  1
  Zr  Zr45  1  0.86920540  0.82909864  0.71457725  1
  Zr  Zr46  1  0.94295354  0.94389892  0.55604360  1
  Zr  Zr47  1  0.49500640  0.64645731  0.74532678  1
  Zr  Zr48  1  0.72303749  0.28931466  0.02901844  1
  Zr  Zr49  1  0.71151668  0.94410189  0.31907549  1
  Sc  Sc50  1  0.31117698  0.30324030  0.41253614  1
  Sc  Sc51  1  0.93634996  1.02065974  0.20621427  1
  Sc  Sc52  1  0.65282938  0.92260994  0.67029479  1
  Sc  Sc53  1  1.02394586  0.46327810  0.26069287  1
  Sc  Sc54  1  0.06373968  0.00340867  0.03881591  1
  Sc  Sc55  1  0.48125652  0.34873960  0.54983724  1
  Sc  Sc56  1  0.96469487  0.00720582  0.82081690  1
  Sc  Sc57  1  0.37980384  0.42630861  0.20873051  1
  Sc  Sc58  1  0.80682194  0.83369501  0.18582095  1
  Sc  Sc59  1  0.25206228  0.07462389  0.04854729  1
  Sc  Sc60  1  0.74499475  0.29473604  0.25196092  1
  Sc  Sc61  1  0.23543967  0.83713113  0.06844905  1
  Sc  Sc62  1  0.80674838  0.05964110  0.67040121  1
  Sc  Sc63  1  0.27894753  0.69227542  0.71472075  1
  Sc  Sc64  1  0.87256979  0.63632737  0.81758814  1
  Sc  Sc65  1  0.55739916  0.86639572  0.46348401  1
  Sc  Sc66  1  0.81259268  0.64536908  0.59615755  1
  Sc  Sc67  1  0.66932109  0.67217918  0.18730561  1
  Sc  Sc68  1  0.27818811  0.74561540  0.28290541  1
  Sc  Sc69  1  0.43684561  0.95036771  0.00381282  1
  Sc  Sc70  1  0.05136908  0.68883153  0.32623097  1
  Sc  Sc71  1  0.52844311  0.24444819  0.90624908  1
  Sc  Sc72  1  0.55211012  0.53455198  0.56083892  1
  Sc  Sc73  1  0.74609608  0.45784928  0.52462813  1
  Sc  Sc74  1  0.19062220  0.19535399  0.65055006  1
  Sc  Sc75  1  0.13246648  0.90246063  0.25162916  1
  Sc  Sc76  1  0.26768884  0.37429308  0.63021269  1
  Sc  Sc77  1  0.73972464  0.08323127  0.12253315  1
  Sc  Sc78  1  0.35151927  0.82320052  0.85709783  1
  Sc  Sc79  1  0.44854317  0.43299911  0.76208474  1
  Sc  Sc80  1  0.73178012  0.14983326  0.85506563  1
  Sc  Sc81  1  0.17566959  0.93273738  0.86704946  1
  Sc  Sc82  1  0.06627584  0.59428909  0.81242377  1
  Sc  Sc83  1  -0.00934904  0.72727398  0.53640632  1
  Sc  Sc84  1  0.29041330  0.30010822  0.85610416  1
  Sc  Sc85  1  0.62616391  0.72459743  0.60446525  1
  Sc  Sc86  1  0.69604369  0.53262909  0.75256617  1
  Sc  Sc87  1  0.64388534  0.89642043  0.05548230  1
  Sc  Sc88  1  0.11118492  0.26172191  1.01775216  1
  Sc  Sc89  1  0.96599379  0.23254716  0.22803925  1
  Sc  Sc90  1  0.62613650  0.65049396  0.96633999  1
  Sc  Sc91  1  0.06142752  0.04944648  0.40476409  1
  Sc  Sc92  1  0.27202463  0.08861170  0.47331210  1
  Sc  Sc93  1  0.91107170  0.17230416  0.00134332  1
  Sc  Sc94  1  0.10380751  0.25743205  0.40570607  1
  Sc  Sc95  1  0.51165972  0.11237784  0.12286171  1
  Sc  Sc96  1  0.97811174  0.15678347  0.57672429  1
  Sc  Sc97  1  0.66971570  0.26719320  0.46737198  1
  Sc  Sc98  1  0.38855760  0.43548799  0.98850973  1
  Sc  Sc99  1  0.96265156  0.23526492  0.79073183  1
  Nb  Nb100  1  0.79674282  0.52524045  0.96863310  1
  Nb  Nb101  1  0.13129534  0.85667624  0.46571703  1
  Nb  Nb102  1  0.46098752  0.00971255  0.57537995  1
  Nb  Nb103  1  0.47937356  0.16270167  0.46873465  1
  Nb  Nb104  1  0.21509613  0.67402447  0.48184103  1
  Nb  Nb105  1  0.41677760  0.62607637  0.91906179  1
  Nb  Nb106  1  0.47024258  0.84110922  0.68241086  1
  Nb  Nb107  1  0.64088091  0.13469907  0.30190427  1
  Nb  Nb108  1  0.60685654  0.15376300  0.65481015  1
  Nb  Nb109  1  0.69703889  0.74342049  0.79013355  1
  Nb  Nb110  1  0.34403390  0.15086043  0.26962124  1
  Nb  Nb111  1  0.51600171  0.54463950  0.10865650  1
  Nb  Nb112  1  0.86845158  0.95107519  1.01524069  1
  Nb  Nb113  1  -0.00916953  0.60657236  1.00701314  1
  Nb  Nb114  1  0.31799127  0.61359227  0.09802444  1
  Nb  Nb115  1  -0.00876452  0.81073514  0.12193613  1
  Nb  Nb116  1  0.34255039  0.54762165  0.60120231  1
  Nb  Nb117  1  0.55233682  0.82317014  0.87262780  1
  Nb  Nb118  1  0.12079434  0.67196610  0.12782223  1
  Nb  Nb119  1  0.11396286  0.37465223  0.78233385  1
  Nb  Nb120  1  0.77435301  0.84532854  0.50895069  1
  Nb  Nb121  1  0.79715654  0.35619868  0.85754185  1
  Nb  Nb122  1  0.69933726  0.47355172  0.12908074  1
  Nb  Nb123  1  0.55142228  0.33469553  0.11806334  1
  Nb  Nb124  1  0.49416658  0.02926179  0.33844432  1
