# generated using pymatgen
data_Zr2Sc2Nb
_symmetry_space_group_name_H-M   'P 1'
_cell_length_a   14.32024702
_cell_length_b   14.02676429
_cell_length_c   14.29760070
_cell_angle_alpha   89.41522226
_cell_angle_beta   92.22333292
_cell_angle_gamma   89.01074939
_symmetry_Int_Tables_number   1
_chemical_formula_structural   Zr2Sc2Nb
_chemical_formula_sum   'Zr50 Sc50 Nb25'
_cell_volume   2869.15257699
_cell_formula_units_Z   25
loop_
 _symmetry_equiv_pos_site_id
 _symmetry_equiv_pos_as_xyz
  1  'x, y, z'
loop_
 _atom_site_type_symbol
 _atom_site_label
 _atom_site_symmetry_multiplicity
 _atom_site_fract_x
 _atom_site_fract_y
 _atom_site_fract_z
 _atom_site_occupancy
  Zr  Zr0  1  0.28411583  0.86756229  0.74513464  1
  Zr  Zr1  1  0.14728668  0.27971558  0.47294051  1
  Zr  Zr2  1  0.39209525  0.06202367  0.08980182  1
  Zr  Zr3  1  0.08003845  0.78501430  0.69836791  1
  Zr  Zr4  1  0.07858706  0.38672943  0.28941553  1
  Zr  Zr5  1  0.43955136  0.48861981  0.46291948  1
  Zr  Zr6  1  0.80373909  0.28941539  0.95234756  1
  Zr  Zr7  1  0.39679799  0.09429608  0.85510588  1
  Zr  Zr8  1  0.58402980  0.40559183  0.84550932  1
  Zr  Zr9  1  0.88318547  0.86549872  0.06662450  1
  Zr  Zr10  1  0.90581865  0.88162849  0.84909188  1
  Zr  Zr11  1  0.87886265  0.30537747  0.14974139  1
  Zr  Zr12  1  0.39790886  0.04911206  0.64364366  1
  Zr  Zr13  1  0.83568843  0.48579057  0.47120043  1
  Zr  Zr14  1  0.64883052  0.19253701  0.88644804  1
  Zr  Zr15  1  0.49640888  0.83764938  0.41019345  1
  Zr  Zr16  1  0.22129706  0.46611878  0.96522522  1
  Zr  Zr17  1  0.49223241  0.23199289  0.19529178  1
  Zr  Zr18  1  0.27081844  0.43988794  0.16586960  1
  Zr  Zr19  1  0.10371815  0.78550951  0.92164415  1
  Zr  Zr20  1  0.98131945  0.16195657  0.93561926  1
  Zr  Zr21  1  0.06898222  0.17393499  0.28746457  1
  Zr  Zr22  1  0.19553854  0.57142474  0.30509501  1
  Zr  Zr23  1  0.04179936  0.88493795  0.46417013  1
  Zr  Zr24  1  0.36804354  0.29828920  0.56580581  1
  Zr  Zr25  1  0.54654604  0.65081572  0.34090263  1
  Zr  Zr26  1  0.36415829  0.71814016  0.22994341  1
  Zr  Zr27  1  0.91154014  0.50350850  0.65970387  1
  Zr  Zr28  1  0.95019792  0.65217086  0.97119354  1
  Zr  Zr29  1  0.81115700  0.09199178  0.54013158  1
  Zr  Zr30  1  0.03177758  0.52416493  0.14171192  1
  Zr  Zr31  1  0.82444267  0.68087668  0.16805172  1
  Zr  Zr32  1  0.03621382  0.94867902  0.22047606  1
  Zr  Zr33  1  0.95104998  0.95243612  0.64281760  1
  Zr  Zr34  1  0.82479660  0.88930032  0.45636532  1
  Zr  Zr35  1  0.34355743  0.68071041  0.42431020  1
  Zr  Zr36  1  0.56071674  0.98645420  0.23933507  1
  Zr  Zr37  1  0.80273063  0.49377637  0.05951911  1
  Zr  Zr38  1  0.43038020  0.59626613  0.08972916  1
  Zr  Zr39  1  0.69481646  0.51707730  0.63002281  1
  Zr  Zr40  1  0.60292340  0.70516890  0.15152517  1
  Zr  Zr41  1  0.24288622  0.48854413  0.52184024  1
  Zr  Zr42  1  0.84578911  0.09862912  0.76399647  1
  Zr  Zr43  1  0.74917387  0.91467122  0.65964457  1
  Zr  Zr44  1  0.48096322  0.45044752  0.24782980  1
  Zr  Zr45  1  0.03700273  0.74342553  0.14360030  1
  Zr  Zr46  1  0.51331352  0.65625893  0.56748218  1
  Zr  Zr47  1  0.24151965  0.19983294  0.69870703  1
  Zr  Zr48  1  0.64033226  0.48487886  0.41559748  1
  Zr  Zr49  1  0.67572762  0.88085363  0.08152385  1
  Sc  Sc50  1  0.92352878  0.69343220  0.52396480  1
  Sc  Sc51  1  0.64137476  0.34741797  0.07147648  1
  Sc  Sc52  1  0.17102730  0.07798399  0.12011553  1
  Sc  Sc53  1  0.86540403  0.70165165  0.73997638  1
  Sc  Sc54  1  0.63021185  0.65077281  0.77730904  1
  Sc  Sc55  1  0.45151116  0.86143496  0.08711575  1
  Sc  Sc56  1  0.21908582  0.86241137  0.11486553  1
  Sc  Sc57  1  0.78804993  0.03797928  0.96038814  1
  Sc  Sc58  1  0.97835459  0.41404893  0.97342337  1
  Sc  Sc59  1  0.72236659  0.29767881  0.48616885  1
  Sc  Sc60  1  0.44700117  0.50271116  0.68817689  1
  Sc  Sc61  1  0.91481939  0.28621888  0.58269714  1
  Sc  Sc62  1  0.29910530  0.25443667  0.05907283  1
  Sc  Sc63  1  0.25002233  0.46427558  0.74150160  1
  Sc  Sc64  1  0.59853092  0.03903119  0.76036169  1
  Sc  Sc65  1  0.18668393  0.13720967  0.90454072  1
  Sc  Sc66  1  0.69568471  0.73380038  0.52866649  1
  Sc  Sc67  1  0.52713486  0.86567706  0.63982894  1
  Sc  Sc68  1  0.67890282  0.86571787  0.85628520  1
  Sc  Sc69  1  0.13351455  0.69074957  0.48207865  1
  Sc  Sc70  1  0.70007585  0.12327248  0.34833905  1
  Sc  Sc71  1  0.03845126  0.48187417  0.47155555  1
  Sc  Sc72  1  0.34941685  0.31911258  0.86261524  1
  Sc  Sc73  1  0.33502798  0.75106667  0.94988766  1
  Sc  Sc74  1  0.86152169  0.47144335  0.27132802  1
  Sc  Sc75  1  0.49186805  0.24173289  0.73488949  1
  Sc  Sc76  1  0.51766375  0.28063886  0.40123508  1
  Sc  Sc77  1  1.03034149  0.11670926  0.51101771  1
  Sc  Sc78  1  0.30298552  0.35522453  0.35784125  1
  Sc  Sc79  1  0.29250683  0.67684988  0.62755942  1
  Sc  Sc80  1  0.16878831  0.79647134  0.31200680  1
  Sc  Sc81  1  0.45685610  0.06532226  0.42036168  1
  Sc  Sc82  1  0.26208037  0.94904591  0.93702316  1
  Sc  Sc83  1  0.30338641  0.89089872  0.50117088  1
  Sc  Sc84  1  0.16822405  0.00249871  0.61993737  1
  Sc  Sc85  1  0.09647140  0.28997198  0.09305959  1
  Sc  Sc86  1  0.09385099  0.36678600  0.65769554  1
  Sc  Sc87  1  0.91132409  0.09848284  0.13378895  1
  Sc  Sc88  1  0.89272836  0.25985516  0.36570208  1
  Sc  Sc89  1  0.92893601  0.32317081  0.79002094  1
  Sc  Sc90  1  0.72730507  0.29359086  0.70899269  1
  Sc  Sc91  1  0.75015689  0.69550627  0.96407546  1
  Sc  Sc92  1  0.79091541  0.50044673  0.84438526  1
  Sc  Sc93  1  0.20639733  0.64109408  0.07637470  1
  Sc  Sc94  1  0.33873944  0.94178279  0.28074020  1
  Sc  Sc95  1  0.68108501  0.13919985  0.12308153  1
  Sc  Sc96  1  0.40922353  0.54833402  0.88614223  1
  Sc  Sc97  1  0.05128933  0.53804790  0.82860870  1
  Sc  Sc98  1  0.29426718  0.16354875  0.27813664  1
  Sc  Sc99  1  0.59830022  0.14373885  0.57236492  1
  Nb  Nb100  1  0.04051075  0.96757349  0.00019422  1
  Nb  Nb101  1  0.91137355  0.81129102  0.30093043  1
  Nb  Nb102  1  0.92250376  0.03761735  0.35551029  1
  Nb  Nb103  1  0.22256654  0.65670727  0.81800067  1
  Nb  Nb104  1  0.44587882  0.40318037  0.04023301  1
  Nb  Nb105  1  1.04296324  0.15673878  0.72574863  1
  Nb  Nb106  1  0.08020264  0.97798075  0.80874802  1
  Nb  Nb107  1  0.56554160  0.37407713  0.59181491  1
  Nb  Nb108  1  0.12774161  0.31961460  0.86032450  1
  Nb  Nb109  1  0.78667101  0.96229241  0.23667417  1
  Nb  Nb110  1  0.64222592  0.95855652  0.46757799  1
  Nb  Nb111  1  0.77224890  0.65248686  0.35369588  1
  Nb  Nb112  1  0.54089265  0.73522811  0.94804419  1
  Nb  Nb113  1  -0.01056810  0.63096987  0.32553900  1
  Nb  Nb114  1  0.56241616  0.01711275  0.98204443  1
  Nb  Nb115  1  0.66257809  0.52114102  0.20230001  1
  Nb  Nb116  1  0.16203277  0.01663975  0.37581356  1
  Nb  Nb117  1  0.46260701  0.89955331  0.85241075  1
  Nb  Nb118  1  0.60517161  0.54517323  -0.00871668  1
  Nb  Nb119  1  0.09652213  0.58964327  0.64698685  1
  Nb  Nb120  1  0.68308823  0.82102077  0.30955823  1
  Nb  Nb121  1  0.43399166  0.71892189  0.76853973  1
  Nb  Nb122  1  0.27251688  0.12907021  0.48825596  1
  Nb  Nb123  1  0.69074513  0.33128719  0.27309823  1
  Nb  Nb124  1  0.49467070  0.21606965  -0.01191141  1
