# generated using pymatgen
data_Zr2Sc2Nb
_symmetry_space_group_name_H-M   'P 1'
_cell_length_a   13.96388351
_cell_length_b   13.81418813
_cell_length_c   14.82103788
_cell_angle_alpha   89.18912966
_cell_angle_beta   89.03150033
_cell_angle_gamma   92.60650823
_symmetry_Int_Tables_number   1
_chemical_formula_structural   Zr2Sc2Nb
_chemical_formula_sum   'Zr50 Sc50 Nb25'
_cell_volume   2855.28945960
_cell_formula_units_Z   25
loop_
 _symmetry_equiv_pos_site_id
 _symmetry_equiv_pos_as_xyz
  1  'x, y, z'
loop_
 _atom_site_type_symbol
 _atom_site_label
 _atom_site_symmetry_multiplicity
 _atom_site_fract_x
 _atom_site_fract_y
 _atom_site_fract_z
 _atom_site_occupancy
  Zr  Zr0  1  0.52996433  0.24308264  0.41324442  1
  Zr  Zr1  1  0.96249560  0.56350319  0.72441348  1
  Zr  Zr2  1  0.24650715  0.06740764  0.56767869  1
  Zr  Zr3  1  0.94460096  0.54150066  0.95310478  1
  Zr  Zr4  1  0.96451544  0.43912159  0.13688498  1
  Zr  Zr5  1  0.26302474  0.95892524  0.37194461  1
  Zr  Zr6  1  0.27637669  0.67561900  0.15857109  1
  Zr  Zr7  1  0.06542662  0.68705282  0.07898123  1
  Zr  Zr8  1  0.47124256  0.11678934  0.26039546  1
  Zr  Zr9  1  0.78134151  0.27970572  0.16815116  1
  Zr  Zr10  1  0.46446831  0.66096882  0.02552422  1
  Zr  Zr11  1  0.52336984  0.45291692  0.96855465  1
  Zr  Zr12  1  0.92177786  0.37085784  0.79968153  1
  Zr  Zr13  1  0.62824052  0.27651702  1.00844397  1
  Zr  Zr14  1  0.80284629  0.82093119  0.26992576  1
  Zr  Zr15  1  0.06595759  0.06039351  0.20110935  1
  Zr  Zr16  1  0.34235118  0.53207321  0.87619451  1
  Zr  Zr17  1  0.45679036  0.72816816  0.63279430  1
  Zr  Zr18  1  0.45297973  0.07796336  0.04967421  1
  Zr  Zr19  1  0.44512411  1.00083661  0.85788187  1
  Zr  Zr20  1  0.84604486  0.73138265  0.00076616  1
  Zr  Zr21  1  0.88231380  0.06798597  0.52917718  1
  Zr  Zr22  1  0.13610613  0.26525115  0.29558989  1
  Zr  Zr23  1  0.24813046  0.32797996  0.66893049  1
  Zr  Zr24  1  0.39803949  0.97122625  0.66492119  1
  Zr  Zr25  1  0.17884221  0.86597179  0.17056948  1
  Zr  Zr26  1  0.97635117  0.94968602  0.74009006  1
  Zr  Zr27  1  0.87826083  0.63526597  0.18689574  1
  Zr  Zr28  1  0.84314620  0.04985766  0.16647783  1
  Zr  Zr29  1  0.25411996  0.87388319  0.80296210  1
  Zr  Zr30  1  0.27227047  0.09579293  0.19077902  1
  Zr  Zr31  1  0.53039963  0.51271260  0.18571687  1
  Zr  Zr32  1  0.86491081  0.94703552  0.91197200  1
  Zr  Zr33  1  0.25978932  0.70373965  0.95691006  1
  Zr  Zr34  1  0.55134187  0.52203649  0.60916477  1
  Zr  Zr35  1  0.66427684  0.87591553  0.83809608  1
  Zr  Zr36  1  0.07838414  0.68018819  0.86225295  1
  Zr  Zr37  1  0.45216361  0.78108127  0.83939027  1
  Zr  Zr38  1  0.14951131  0.46212703  0.43544229  1
  Zr  Zr39  1  0.72827703  0.24251473  0.81664022  1
  Zr  Zr40  1  0.04647031  0.36801193  0.63447901  1
  Zr  Zr41  1  0.06912151  0.76970212  0.68316981  1
  Zr  Zr42  1  0.15097944  0.50232835  0.00934358  1
  Zr  Zr43  1  0.09311681  0.09252782  0.40763968  1
  Zr  Zr44  1  0.72835201  0.53462013  0.47604382  1
  Zr  Zr45  1  0.84207541  0.25990103  0.62474656  1
  Zr  Zr46  1  0.82941685  0.35551815  -0.01967719  1
  Zr  Zr47  1  0.68280343  0.74759134  0.48063886  1
  Zr  Zr48  1  0.16182434  1.04195974  0.77086853  1
  Zr  Zr49  1  0.89629696  0.00331132  0.34617563  1
  Sc  Sc50  1  0.29652056  0.32712685  0.89995554  1
  Sc  Sc51  1  0.26536608  0.68162220  0.73774655  1
  Sc  Sc52  1  0.26475234  0.10971587  0.94974188  1
  Sc  Sc53  1  0.08648299  0.63400378  0.28529666  1
  Sc  Sc54  1  0.67135185  0.12301950  0.54051717  1
  Sc  Sc55  1  0.82268509  0.14155637  0.98929077  1
  Sc  Sc56  1  0.95609675  0.87808149  0.11829933  1
  Sc  Sc57  1  0.77389049  0.32140295  0.43339448  1
  Sc  Sc58  1  0.53563926  0.87599820  0.02646057  1
  Sc  Sc59  1  0.71710311  0.51630231  0.07017077  1
  Sc  Sc60  1  0.55965589  0.44575486  0.37263965  1
  Sc  Sc61  1  0.47536709  0.71298436  0.24885324  1
  Sc  Sc62  1  0.87333290  0.67482239  0.58547145  1
  Sc  Sc63  1  0.05621204  0.15165653  0.62589803  1
  Sc  Sc64  1  0.91932602  0.21718397  0.30678979  1
  Sc  Sc65  1  0.55407496  0.14208004  0.72123122  1
  Sc  Sc66  1  0.41661427  0.27808632  0.08912451  1
  Sc  Sc67  1  0.46106896  0.83317117  0.43342247  1
  Sc  Sc68  1  0.69887596  0.12955172  0.32602488  1
  Sc  Sc69  1  0.66087034  0.71985662  0.12862763  1
  Sc  Sc70  1  0.05164229  0.84976250  0.32704751  1
  Sc  Sc71  1  0.77115140  0.46270984  0.66443952  1
  Sc  Sc72  1  0.49633435  0.62555464  0.43881270  1
  Sc  Sc73  1  0.07387017  0.69384531  0.48133771  1
  Sc  Sc74  1  0.47719855  0.03657950  0.46642292  1
  Sc  Sc75  1  0.14296106  0.46756520  0.80731105  1
  Sc  Sc76  1  0.93581173  0.15508608  0.80561799  1
  Sc  Sc77  1  0.39195734  0.90531736  0.21118677  1
  Sc  Sc78  1  0.31287295  0.89915448  0.01250752  1
  Sc  Sc79  1  0.29635758  0.62595343  0.50269211  1
  Sc  Sc80  1  0.16739120  0.45861633  0.21774634  1
  Sc  Sc81  1  0.86257827  0.74775157  0.80243852  1
  Sc  Sc82  1  0.75398421  0.53763194  0.85942207  1
  Sc  Sc83  1  0.60870301  0.32088431  0.59684928  1
  Sc  Sc84  1  0.59615616  0.91083182  0.62167347  1
  Sc  Sc85  1  0.36820404  0.34255826  0.28313888  1
  Sc  Sc86  1  0.75888026  0.04927579  0.73131270  1
  Sc  Sc87  1  0.37651967  0.40467079  0.49529415  1
  Sc  Sc88  1  0.18767795  0.27302354  0.08507576  1
  Sc  Sc89  1  0.05914673  0.92705426  0.53951052  1
  Sc  Sc90  1  0.61368912  0.91287716  0.25674399  1
  Sc  Sc91  1  0.25966654  0.82920715  0.56325968  1
  Sc  Sc92  1  0.52602302  0.58384406  0.79977620  1
  Sc  Sc93  1  0.67635321  0.69393772  0.69678958  1
  Sc  Sc94  1  0.80843505  0.87607297  0.62916111  1
  Sc  Sc95  1  0.64152271  0.09387888  0.12510144  1
  Sc  Sc96  1  0.75876952  0.46263322  0.27084206  1
  Sc  Sc97  1  0.34148671  0.47924546  0.09436989  1
  Sc  Sc98  1  0.04442202  0.09394044  0.97784088  1
  Sc  Sc99  1  0.08634977  0.87975856  0.94184429  1
  Nb  Nb100  1  0.88551904  0.83278917  0.45352102  1
  Nb  Nb101  1  0.26926803  0.75177499  0.34190984  1
  Nb  Nb102  1  0.48283656  0.22492729  0.88870743  1
  Nb  Nb103  1  0.64855006  0.70187224  0.93119575  1
  Nb  Nb104  1  0.12672943  0.24061978  0.81243543  1
  Nb  Nb105  1  0.99297882  0.28387609  0.46891978  1
  Nb  Nb106  1  0.35114374  0.51932398  0.67140871  1
  Nb  Nb107  1  0.63706367  0.06332923  0.92063842  1
  Nb  Nb108  1  0.61074860  0.38824136  0.80051050  1
  Nb  Nb109  1  0.73673252  0.90878376  0.05243678  1
  Nb  Nb110  1  -0.02109209  0.23304313  0.11941321  1
  Nb  Nb111  1  0.94212794  0.48839808  0.51420138  1
  Nb  Nb112  1  0.67475266  0.64662976  0.30943129  1
  Nb  Nb113  1  0.88222232  0.64055700  0.37926269  1
  Nb  Nb114  1  0.44073337  0.35450998  0.73231986  1
  Nb  Nb115  1  0.03530419  0.32440360  0.95522085  1
  Nb  Nb116  1  0.96402045  0.43894139  0.33214311  1
  Nb  Nb117  1  0.33538549  0.15946879  0.75699021  1
  Nb  Nb118  1  0.40657800  0.20353094  0.57900775  1
  Nb  Nb119  1  0.58585303  0.30399147  0.21516482  1
  Nb  Nb120  1  0.70843291  0.94347783  0.43987680  1
  Nb  Nb121  1  0.31803559  0.16679316  0.39190512  1
  Nb  Nb122  1  0.19718924  0.26541099  0.49315962  1
  Nb  Nb123  1  0.33574960  0.55250273  0.31400371  1
  Nb  Nb124  1  0.13919454  0.55816229  0.62236575  1
