# generated using pymatgen
data_V85Zn86O256
_symmetry_space_group_name_H-M   'P 1'
_cell_length_a   16.94100987
_cell_length_b   16.92731588
_cell_length_c   16.93802668
_cell_angle_alpha   89.96690486
_cell_angle_beta   90.00957398
_cell_angle_gamma   89.97519702
_symmetry_Int_Tables_number   1
_chemical_formula_structural   V85Zn86O256
_chemical_formula_sum   'V85 Zn86 O256'
_cell_volume   4857.24586865
_cell_formula_units_Z   1
loop_
 _symmetry_equiv_pos_site_id
 _symmetry_equiv_pos_as_xyz
  1  'x, y, z'
loop_
 _atom_site_type_symbol
 _atom_site_label
 _atom_site_symmetry_multiplicity
 _atom_site_fract_x
 _atom_site_fract_y
 _atom_site_fract_z
 _atom_site_occupancy
  V  V0  1  0.74839672  0.74915151  0.49810536  1
  V  V1  1  0.37618199  0.75634556  0.62080719  1
  V  V2  1  0.25400126  0.75574447  0.49612460  1
  V  V3  1  -0.01061383  0.25437514  0.24681299  1
  V  V4  1  0.00457943  -0.00470447  0.00143312  1
  V  V5  1  0.62584533  0.62037709  0.50323115  1
  V  V6  1  0.12445050  0.87675682  0.74954594  1
  V  V7  1  0.37757601  0.25331405  0.61528387  1
  V  V8  1  0.25216499  0.37785484  0.62076112  1
  V  V9  1  0.50182305  0.61925915  0.12580896  1
  V  V10  1  0.00089499  0.25151703  0.74846384  1
  V  V11  1  0.61970703  0.38156139  0.75261254  1
  V  V12  1  0.87095080  0.49595620  0.37861343  1
  V  V13  1  0.24985986  0.11814452  0.36695812  1
  V  V14  1  0.36593634  0.49721496  0.38536599  1
  V  V15  1  0.24927846  0.00122609  0.74974482  1
  V  V16  1  -0.00840029  0.75320436  0.74502267  1
  V  V17  1  0.74157881  0.62808235  0.37280630  1
  V  V18  1  -0.00652478  0.63010094  0.62170142  1
  V  V19  1  0.36078333  0.25097266  0.12133833  1
  V  V20  1  0.74919591  0.50026034  0.75730064  1
  V  V21  1  0.37676595  0.74601784  0.12775336  1
  V  V22  1  0.49664889  0.25424323  0.75431624  1
  V  V23  1  -0.00207392  0.00001506  0.49871241  1
  V  V24  1  0.12535176  0.75217157  0.87459150  1
  V  V25  1  0.35926238  0.37150608  -0.00244812  1
  V  V26  1  0.50172365  0.74891397  0.75190510  1
  V  V27  1  0.25103247  0.74943164  0.00044173  1
  V  V28  1  0.49885877  0.12490548  0.62363880  1
  V  V29  1  0.37371552  -0.00741480  0.37242644  1
  V  V30  1  0.74855398  0.38273041  0.61909031  1
  V  V31  1  0.12672407  0.13141864  0.00047640  1
  V  V32  1  0.87725639  0.74580162  0.12093608  1
  V  V33  1  0.74617772  0.11680855  0.37063598  1
  V  V34  1  0.24992640  0.50016570  0.74909022  1
  V  V35  1  0.87219338  0.12570960  0.75358199  1
  V  V36  1  0.25158468  0.62371561  0.87686356  1
  V  V37  1  0.81777905  0.93198682  0.06115025  1
  V  V38  1  0.37509951  0.00131967  0.87498094  1
  V  V39  1  0.24755190  0.25539048  0.49800924  1
  V  V40  1  0.50537565  0.61970991  0.62578489  1
  V  V41  1  0.50798806  0.74614541  0.25415268  1
  V  V42  1  0.62281417  0.25833160  0.37754159  1
  V  V43  1  0.75028104  0.00282373  0.75336089  1
  V  V44  1  0.63318373  0.24055656  0.87041582  1
  V  V45  1  0.00156493  0.74288255  0.24498389  1
  V  V46  1  0.38357358  0.12039139  0.24480476  1
  V  V47  1  0.75212278  0.86897695  0.62708367  1
  V  V48  1  0.25296663  0.87722824  0.13126582  1
  V  V49  1  0.25017315  0.12844246  0.87896437  1
  V  V50  1  0.12969923  0.74251539  0.37248006  1
  V  V51  1  -0.00618486  0.38924561  0.87282340  1
  V  V52  1  0.50147116  0.48751995  -0.00615089  1
  V  V53  1  0.74257133  0.48643230  0.25000005  1
  V  V54  1  0.12472547  0.12860307  0.49181354  1
  V  V55  1  0.50371707  0.86831283  0.37794451  1
  V  V56  1  0.37553039  0.62606529  0.74987321  1
  V  V57  1  -0.00278531  0.50937457  0.01412297  1
  V  V58  1  0.13083123  0.00102346  0.13175959  1
  V  V59  1  0.62329539  0.48225611  0.13084822  1
  V  V60  1  0.87323586  0.25373152  0.61848466  1
  V  V61  1  0.62886368  0.74517518  0.88008589  1
  V  V62  1  0.87576359  0.86831085  0.50486940  1
  V  V63  1  0.50048369  0.87311485  0.87838568  1
  V  V64  1  0.12705874  0.25410359  0.87610709  1
  V  V65  1  -0.00003930  0.87175365  0.37548335  1
  V  V66  1  0.49338173  -0.00739813  0.50138009  1
  V  V67  1  0.50336061  0.00944379  0.00915998  1
  V  V68  1  0.63432260  0.88012138  0.24821076  1
  V  V69  1  0.62452254  -0.00229233  0.62529974  1
  V  V70  1  0.14348409  0.49455867  0.14153873  1
  V  V71  1  0.50603778  0.25760617  0.24006132  1
  V  V72  1  0.87321175  0.62323730  0.24712371  1
  V  V73  1  0.12911706  0.87350660  0.24996484  1
  V  V74  1  -0.00875801  0.87661615  0.87674934  1
  V  V75  1  0.17138850  0.30889611  0.31902761  1
  V  V76  1  0.12765733  0.62620559  0.49951045  1
  V  V77  1  -0.00622726  0.37020908  0.37400261  1
  V  V78  1  0.87395550  0.62166013  0.75328777  1
  V  V79  1  -0.00422864  0.13194246  0.12556353  1
  V  V80  1  0.75233349  0.74339912  0.00896130  1
  V  V81  1  0.36669438  0.61503493  0.25693472  1
  V  V82  1  -0.00365803  0.49485563  0.50027531  1
  V  V83  1  0.12702671  0.00185850  0.62292188  1
  V  V84  1  0.37576882  0.87418089  0.00162125  1
  Zn  Zn85  1  0.87456845  0.37365851  0.00251515  1
  Zn  Zn86  1  0.63092866  0.12970616  0.00650310  1
  Zn  Zn87  1  0.75878454  0.61637136  0.88575341  1
  Zn  Zn88  1  0.86655871  0.00622959  0.88362926  1
  Zn  Zn89  1  0.37960499  0.48941330  0.87133772  1
  Zn  Zn90  1  0.12614111  0.37653254  0.74855496  1
  Zn  Zn91  1  0.62661088  0.12436054  0.50010087  1
  Zn  Zn92  1  0.86402207  -0.00559578  0.37321003  1
  Zn  Zn93  1  0.12376811  0.62418293  0.00961523  1
  Zn  Zn94  1  0.76323657  0.24750867  -0.01219240  1
  Zn  Zn95  1  -0.00057094  0.12822516  0.62174568  1
  Zn  Zn96  1  0.37185397  0.12805327  0.74826261  1
  Zn  Zn97  1  0.49957427  0.49255077  0.50287839  1
  Zn  Zn98  1  0.87131421  0.11775355  0.25150549  1
  Zn  Zn99  1  0.12318808  0.50014737  0.62437494  1
  Zn  Zn100  1  0.62767635  0.87308172  0.75118066  1
  Zn  Zn101  1  0.63724870  0.00025455  0.13006620  1
  Zn  Zn102  1  0.62915846  0.61710000  0.00352431  1
  Zn  Zn103  1  0.75966904  0.34737573  0.12391786  1
  Zn  Zn104  1  0.49764150  0.37666522  0.38416024  1
  Zn  Zn105  1  0.75138828  0.24938562  0.49902153  1
  Zn  Zn106  1  0.25574521  0.87974304  0.62042406  1
  Zn  Zn107  1  0.18815444  0.18396340  0.18734469  1
  Zn  Zn108  1  0.18641916  0.18718008  0.68562407  1
  Zn  Zn109  1  0.18729967  0.67998464  0.18387448  1
  Zn  Zn110  1  0.18541715  0.68920713  0.68472808  1
  Zn  Zn111  1  0.67739349  0.18178651  0.18957456  1
  Zn  Zn112  1  0.68691844  0.18857901  0.68669164  1
  Zn  Zn113  1  0.68609817  0.68424291  0.18644981  1
  Zn  Zn114  1  0.68843838  0.68812534  0.68822431  1
  Zn  Zn115  1  0.33346365  0.31383589  0.31044103  1
  Zn  Zn116  1  0.31314296  0.31279391  0.81131930  1
  Zn  Zn117  1  0.31686002  0.80686669  0.31235371  1
  Zn  Zn118  1  0.31316311  0.81343648  0.81021015  1
  Zn  Zn119  1  0.81107760  0.30796327  0.31540641  1
  Zn  Zn120  1  0.81399607  0.31643377  0.80697154  1
  Zn  Zn121  1  0.81407231  0.81018424  0.31473200  1
  Zn  Zn122  1  0.81179559  0.81035565  0.81526084  1
  Zn  Zn123  1  0.18982015  0.44637546  0.43855836  1
  Zn  Zn124  1  0.18186833  0.44089371  0.93943648  1
  Zn  Zn125  1  0.18746481  0.93578512  0.43559084  1
  Zn  Zn126  1  0.18662068  0.93800122  0.93924627  1
  Zn  Zn127  1  0.68405028  0.43822231  0.43941240  1
  Zn  Zn128  1  0.68592889  0.42746601  0.93697279  1
  Zn  Zn129  1  0.68037881  0.93472446  0.43823337  1
  Zn  Zn130  1  0.68345075  0.93772771  0.93440615  1
  Zn  Zn131  1  0.31498335  0.06394224  0.06293090  1
  Zn  Zn132  1  0.31328183  0.06597532  0.55738044  1
  Zn  Zn133  1  0.31295289  0.55756573  0.06432010  1
  Zn  Zn134  1  0.31216182  0.57013023  0.56287801  1
  Zn  Zn135  1  0.79431702  0.12659832  0.08082342  1
  Zn  Zn136  1  0.81159972  0.06417945  0.56213165  1
  Zn  Zn137  1  0.82186595  0.53631702  0.07254339  1
  Zn  Zn138  1  0.81327983  0.56222276  0.56576751  1
  Zn  Zn139  1  0.43063819  0.43424198  0.18632712  1
  Zn  Zn140  1  0.43441436  0.43644712  0.68253230  1
  Zn  Zn141  1  0.44035936  0.93419399  0.19188795  1
  Zn  Zn142  1  0.43725755  0.93663493  0.69150855  1
  Zn  Zn143  1  0.93648806  0.43562137  0.18852899  1
  Zn  Zn144  1  0.93389580  0.43897826  0.68747364  1
  Zn  Zn145  1  0.94404392  0.93941241  0.19328364  1
  Zn  Zn146  1  0.93580599  0.94019111  0.68506478  1
  Zn  Zn147  1  0.05697337  0.06151882  0.31113299  1
  Zn  Zn148  1  0.05920028  0.06537862  0.81254921  1
  Zn  Zn149  1  0.06216916  0.55967179  0.31080750  1
  Zn  Zn150  1  0.06747253  0.56803237  0.80920894  1
  Zn  Zn151  1  0.56232117  0.06344477  0.31298662  1
  Zn  Zn152  1  0.55946526  0.06151534  0.80863645  1
  Zn  Zn153  1  0.55937128  0.55743785  0.31568768  1
  Zn  Zn154  1  0.56591999  0.56160997  0.81428221  1
  Zn  Zn155  1  0.43940828  0.18592296  0.43571421  1
  Zn  Zn156  1  0.43721995  0.19100012  0.93781179  1
  Zn  Zn157  1  0.43811005  0.68351505  0.43723837  1
  Zn  Zn158  1  0.43863144  0.68218434  0.94085467  1
  Zn  Zn159  1  0.93397953  0.18751930  0.43470790  1
  Zn  Zn160  1  0.93787960  0.19057514  0.93618624  1
  Zn  Zn161  1  0.93393511  0.68635207  0.43530002  1
  Zn  Zn162  1  0.93817477  0.68548437  0.93710206  1
  Zn  Zn163  1  0.06194925  0.31956679  0.06156255  1
  Zn  Zn164  1  0.06486368  0.31469716  0.56111773  1
  Zn  Zn165  1  0.06313647  0.81019392  0.06266198  1
  Zn  Zn166  1  0.06579120  0.81332999  0.56375132  1
  Zn  Zn167  1  0.56310315  0.30930434  0.05966704  1
  Zn  Zn168  1  0.56711977  0.31563490  0.56272932  1
  Zn  Zn169  1  0.56662844  0.81340674  0.06766882  1
  Zn  Zn170  1  0.56588347  0.80857438  0.56086435  1
  O  O171  1  0.12199373  0.11849352  0.11823249  1
  O  O172  1  0.12484052  0.11838160  0.61181572  1
  O  O173  1  0.12930618  0.60691032  0.12351451  1
  O  O174  1  0.11215689  0.62498343  0.61729516  1
  O  O175  1  0.62473959  0.11114774  0.12026248  1
  O  O176  1  0.61551011  0.11746792  0.62471221  1
  O  O177  1  0.61072365  0.61861988  0.12470611  1
  O  O178  1  0.61622052  0.63147016  0.61844694  1
  O  O179  1  0.37525012  0.39213068  0.37743077  1
  O  O180  1  0.37340445  0.37058414  0.89109871  1
  O  O181  1  0.38424534  0.88569410  0.36692663  1
  O  O182  1  0.38137857  0.87867626  0.88130033  1
  O  O183  1  0.87967549  0.38443323  0.37441652  1
  O  O184  1  0.89252339  0.37314153  0.86989094  1
  O  O185  1  0.88165455  0.87308790  0.38713289  1
  O  O186  1  0.88892342  0.87832176  0.87092961  1
  O  O187  1  0.26052700  0.00667673  0.38079291  1
  O  O188  1  0.25433628  0.00673187  0.87046828  1
  O  O189  1  0.26536461  0.50526416  0.37861387  1
  O  O190  1  0.25199917  0.50761582  0.86728480  1
  O  O191  1  0.74531577  0.01232927  0.38308032  1
  O  O192  1  0.75172319  -0.01041859  0.85836560  1
  O  O193  1  0.75418149  0.50432258  0.36966120  1
  O  O194  1  0.74218347  0.50110661  0.86245375  1
  O  O195  1  0.24430049  0.49611826  0.12898402  1
  O  O196  1  0.25157407  0.49431578  0.62932199  1
  O  O197  1  0.24247426  0.99076721  0.11878970  1
  O  O198  1  0.24630122  1.00151071  0.62948502  1
  O  O199  1  0.73164942  0.51347614  0.13962501  1
  O  O200  1  0.75319282  0.48784537  0.63278617  1
  O  O201  1  0.76248442  0.99840235  0.11265618  1
  O  O202  1  0.74578862  0.98930556  0.63111523  1
  O  O203  1  -0.00385773  0.36806026  0.25926307  1
  O  O204  1  0.00357216  0.37078880  0.75605176  1
  O  O205  1  0.00992029  0.86093280  0.25437664  1
  O  O206  1  0.00372964  0.87109584  0.75435174  1
  O  O207  1  0.49078714  0.35904775  0.25556612  1
  O  O208  1  0.50836509  0.36743401  0.73771978  1
  O  O209  1  0.50589819  0.86444344  0.25772196  1
  O  O210  1  0.50057000  0.86877441  0.76435201  1
  O  O211  1  0.48800401  0.13609413  0.25646668  1
  O  O212  1  0.49545409  0.13077230  0.73692156  1
  O  O213  1  0.49521996  0.62954623  0.24454766  1
  O  O214  1  0.49689999  0.63023004  0.74558459  1
  O  O215  1  1.00597690  0.13642792  0.24139598  1
  O  O216  1  0.99643197  0.13533797  0.74373484  1
  O  O217  1  0.98938946  0.63628738  0.25872791  1
  O  O218  1  0.99512741  0.63263537  0.74234460  1
  O  O219  1  0.37986699  0.25844872  0.01156041  1
  O  O220  1  0.36515327  0.24334182  0.50795868  1
  O  O221  1  0.37163224  0.75426844  0.00750711  1
  O  O222  1  0.36521652  0.74140019  0.50764862  1
  O  O223  1  0.87999390  0.25666331  0.00057044  1
  O  O224  1  0.87643633  0.24833648  0.51507155  1
  O  O225  1  0.87238547  0.74487125  0.01344617  1
  O  O226  1  0.86442622  0.75618896  0.49932810  1
  O  O227  1  0.13279318  0.23953224  0.50243260  1
  O  O228  1  0.11733565  0.23955105  0.99174561  1
  O  O229  1  0.12895739  0.74544670  0.49128171  1
  O  O230  1  0.13267605  0.74696219  0.99382041  1
  O  O231  1  0.62577909  0.24469517  0.48939138  1
  O  O232  1  0.61429938  0.25054531  0.97605325  1
  O  O233  1  0.64029990  0.74071627  0.50207951  1
  O  O234  1  0.63428635  0.74788300  0.99794511  1
  O  O235  1  0.49681424  0.25189768  0.13712913  1
  O  O236  1  0.49324668  0.24237790  0.62782593  1
  O  O237  1  0.49481185  0.74040777  0.12988183  1
  O  O238  1  0.49459901  0.74410463  0.63076983  1
  O  O239  1  1.00865731  0.24336436  0.13351110  1
  O  O240  1  0.99470263  0.25486216  0.63418011  1
  O  O241  1  0.99213160  0.75235622  0.13283036  1
  O  O242  1  1.00481055  0.74342566  0.63310800  1
  O  O243  1  -0.00393215  0.26311214  0.37102586  1
  O  O244  1  0.01080009  0.25710026  0.86388000  1
  O  O245  1  0.00664003  0.75423642  0.36911062  1
  O  O246  1  0.00507753  0.75863972  0.86880517  1
  O  O247  1  0.50711004  0.25051917  0.36774695  1
  O  O248  1  0.50011325  0.24609702  0.85679743  1
  O  O249  1  0.49445992  0.75690983  0.36721317  1
  O  O250  1  0.50641149  0.75408454  0.87506765  1
  O  O251  1  0.24533314  0.13542498  0.48740348  1
  O  O252  1  0.24197249  0.12036255  0.98754359  1
  O  O253  1  0.23330286  0.63646129  0.50773341  1
  O  O254  1  0.25298066  0.62922327  0.99111141  1
  O  O255  1  0.74643564  0.12835817  0.49229667  1
  O  O256  1  0.74372883  0.13239899  0.98307985  1
  O  O257  1  0.74694584  0.63061422  0.49675775  1
  O  O258  1  0.75060557  0.63053882  1.00229221  1
  O  O259  1  0.26070692  0.37726019  -0.00281722  1
  O  O260  1  0.24330501  0.36354619  0.50402637  1
  O  O261  1  0.25587960  0.87067226  0.00900466  1
  O  O262  1  0.24508695  0.86078220  0.50260694  1
  O  O263  1  0.75305795  0.36472584  0.00018914  1
  O  O264  1  0.74521375  0.37429130  0.51573027  1
  O  O265  1  0.75597570  0.87262062  0.00264710  1
  O  O266  1  0.75501686  0.86840013  0.50381603  1
  O  O267  1  0.12619558  0.50036522  0.24180267  1
  O  O268  1  0.13919766  0.50226543  0.74505680  1
  O  O269  1  0.12144957  0.99355839  0.23847610  1
  O  O270  1  0.12893101  0.99866504  0.74319957  1
  O  O271  1  0.63052469  0.49934069  0.24481557  1
  O  O272  1  0.62974425  0.49135332  0.74942893  1
  O  O273  1  0.61917408  0.98446797  0.25143157  1
  O  O274  1  0.63149790  0.99598223  0.74376527  1
  O  O275  1  0.38179316  0.00838954  0.25809057  1
  O  O276  1  0.36713911  0.00257359  0.75708338  1
  O  O277  1  0.37760741  0.50980847  0.25730714  1
  O  O278  1  0.36618425  0.50503683  0.75190374  1
  O  O279  1  0.89400376  0.00519066  0.26514679  1
  O  O280  1  0.86797019  0.00850941  0.74823824  1
  O  O281  1  0.86770963  0.50844214  0.26103923  1
  O  O282  1  0.86472071  0.51011471  0.74706364  1
  O  O283  1  0.11694591  0.37608187  0.37683936  1
  O  O284  1  0.11808058  0.36793767  0.87192098  1
  O  O285  1  0.12138983  0.86395601  0.36856625  1
  O  O286  1  0.11761431  0.87193309  0.86846231  1
  O  O287  1  0.62589429  0.36165354  0.37565338  1
  O  O288  1  0.62240605  0.36454153  0.85756512  1
  O  O289  1  0.61108018  0.87541995  0.36643944  1
  O  O290  1  0.61674198  0.86208435  0.87548362  1
  O  O291  1  0.37235725  0.13583163  0.13175345  1
  O  O292  1  0.38027385  0.13354413  0.62578069  1
  O  O293  1  0.38497767  0.62356630  0.13454014  1
  O  O294  1  0.38138042  0.63693851  0.63236216  1
  O  O295  1  0.89438913  0.11564530  0.13077099  1
  O  O296  1  0.87810376  0.13369681  0.63367646  1
  O  O297  1  0.87004935  0.63050814  0.14013909  1
  O  O298  1  0.88676010  0.62463333  0.63294231  1
  O  O299  1  0.26200669  0.24746389  0.12581064  1
  O  O300  1  0.25607924  0.25487014  0.61657247  1
  O  O301  1  0.25600898  0.75552082  0.11908307  1
  O  O302  1  0.25855838  0.75238611  0.61835577  1
  O  O303  1  0.75274149  0.23327014  0.12232229  1
  O  O304  1  0.75777135  0.25914456  0.62559497  1
  O  O305  1  0.75674619  0.74835281  0.11629689  1
  O  O306  1  0.74827659  0.76270456  0.61954335  1
  O  O307  1  0.24409013  0.24902671  0.37664444  1
  O  O308  1  0.23636492  0.24265688  0.86711664  1
  O  O309  1  0.24167284  0.75190940  0.38158631  1
  O  O310  1  0.24739661  0.74512446  0.87996035  1
  O  O311  1  0.73871459  0.24243589  0.37706416  1
  O  O312  1  0.73501744  0.25249477  0.86243958  1
  O  O313  1  0.75506883  0.73893103  0.38457571  1
  O  O314  1  0.74438333  0.75036244  0.88915492  1
  O  O315  1  0.00836843  0.11502443  0.00482935  1
  O  O316  1  0.00745255  0.11799426  0.49735511  1
  O  O317  1  0.00624810  0.61313925  -0.00832578  1
  O  O318  1  0.00470813  0.62003015  0.50477306  1
  O  O319  1  0.50127302  0.11090181  -0.00726546  1
  O  O320  1  0.49939248  0.11673318  0.51098268  1
  O  O321  1  0.49765668  0.61058783  0.01075943  1
  O  O322  1  0.51097149  0.62983681  0.50937540  1
  O  O323  1  0.50281208  0.37879923  0.50046319  1
  O  O324  1  0.49250420  0.38533273  1.00468794  1
  O  O325  1  0.50315088  0.87968582  0.49225026  1
  O  O326  1  0.49540770  0.87739150  0.99180836  1
  O  O327  1  1.00418118  0.38818407  0.49405041  1
  O  O328  1  1.00053333  0.38911723  0.98606730  1
  O  O329  1  0.99326233  0.87881765  0.49845518  1
  O  O330  1  1.01069708  0.88678576  0.99159323  1
  O  O331  1  0.48833340  0.49868175  0.37990214  1
  O  O332  1  0.49731907  0.50584233  0.89027392  1
  O  O333  1  0.49364804  0.99331847  0.38369705  1
  O  O334  1  0.49475921  0.99086975  0.87954428  1
  O  O335  1  0.99134150  0.49189976  0.37973190  1
  O  O336  1  1.00722809  0.48950380  0.86752571  1
  O  O337  1  1.00808766  0.98965407  0.38933027  1
  O  O338  1  1.00000448  0.99411047  0.88412475  1
  O  O339  1  0.01295294  0.00324507  0.11707343  1
  O  O340  1  0.00679103  0.00171732  0.61282044  1
  O  O341  1  -0.00036617  0.50470837  0.11517462  1
  O  O342  1  -0.00059868  0.50645393  0.61598103  1
  O  O343  1  0.49381742  -0.00572898  0.10868092  1
  O  O344  1  0.50078065  0.00396742  0.62085841  1
  O  O345  1  0.50514230  0.50119427  0.12108323  1
  O  O346  1  0.49157334  0.51668078  0.62343293  1
  O  O347  1  0.23549348  0.35879482  0.26359774  1
  O  O348  1  0.25012523  0.38418414  0.74200385  1
  O  O349  1  0.24689617  0.86733153  0.23801339  1
  O  O350  1  0.24364060  0.88500931  0.74919504  1
  O  O351  1  0.75436411  0.38431648  0.24776142  1
  O  O352  1  0.74299350  0.38424210  0.74410966  1
  O  O353  1  0.73265405  0.86836030  0.26020506  1
  O  O354  1  0.75181796  0.87827068  0.74117282  1
  O  O355  1  0.25997202  0.13027328  0.26222039  1
  O  O356  1  0.24780103  0.11807983  0.76003676  1
  O  O357  1  0.26986187  0.63351396  0.24893123  1
  O  O358  1  0.25507749  0.62049771  0.75369365  1
  O  O359  1  0.75022918  0.12526533  0.26707662  1
  O  O360  1  0.75880364  0.11471633  0.74228860  1
  O  O361  1  0.75427623  0.62191085  0.25895005  1
  O  O362  1  0.75764482  0.61790168  0.74791949  1
  O  O363  1  0.36934883  0.11579604  0.36801385  1
  O  O364  1  0.36535084  0.12309109  0.87320465  1
  O  O365  1  0.37997729  0.61719106  0.36238156  1
  O  O366  1  0.36493834  0.62493213  0.86832214  1
  O  O367  1  0.85802839  0.12442481  0.37740490  1
  O  O368  1  0.88610603  0.12163003  0.85805053  1
  O  O369  1  0.86496190  0.61917986  0.36650512  1
  O  O370  1  0.87329414  0.63370650  0.85809269  1
  O  O371  1  0.12002032  0.39620486  0.11991933  1
  O  O372  1  0.13838892  0.37759822  0.62669985  1
  O  O373  1  0.13355398  0.88100287  0.12908410  1
  O  O374  1  0.12807652  0.88515893  0.63153376  1
  O  O375  1  0.63041005  0.38034003  0.12389008  1
  O  O376  1  0.64146170  0.36590794  0.63869603  1
  O  O377  1  0.62324102  0.88131011  0.14125882  1
  O  O378  1  0.63296653  0.87965488  0.62705788  1
  O  O379  1  0.11748241  0.24830930  0.25605137  1
  O  O380  1  0.11694831  0.25076472  0.75480227  1
  O  O381  1  0.12005857  0.74884668  0.25465449  1
  O  O382  1  0.11611661  0.75630792  0.75458058  1
  O  O383  1  0.61034950  0.24616558  0.25909180  1
  O  O384  1  0.61588956  0.25505986  0.75425183  1
  O  O385  1  0.61316291  0.75636630  0.24399409  1
  O  O386  1  0.62018665  0.75085075  0.76123144  1
  O  O387  1  0.38371783  0.24300297  0.23801720  1
  O  O388  1  0.38008460  0.25090018  0.73638419  1
  O  O389  1  0.38719716  0.74051494  0.24514487  1
  O  O390  1  0.38195736  0.74507268  0.74470147  1
  O  O391  1  0.88669315  0.24364741  0.25295947  1
  O  O392  1  0.88255217  0.24482609  0.74276133  1
  O  O393  1  0.88119764  0.74603486  0.24115384  1
  O  O394  1  0.88702631  0.74755325  0.74972538  1
  O  O395  1  0.37738744  0.51464234  0.48798804  1
  O  O396  1  0.38233106  0.48529193  1.00079313  1
  O  O397  1  0.38572839  1.00224095  0.49168438  1
  O  O398  1  0.38403916  0.99474545  0.99380896  1
  O  O399  1  0.88217684  0.50862552  0.48780600  1
  O  O400  1  0.89463485  0.50482060  0.98948639  1
  O  O401  1  0.88377721  0.99246865  0.49738765  1
  O  O402  1  0.88315063  0.99008220  1.00198490  1
  O  O403  1  0.12057457  0.00947269  0.00659259  1
  O  O404  1  0.12077170  0.00481957  0.50536856  1
  O  O405  1  0.11166135  0.50452417  0.00081610  1
  O  O406  1  0.11609915  0.51083893  0.50076220  1
  O  O407  1  0.60950296  -0.00508741  -0.00066107  1
  O  O408  1  0.61065613  0.00016202  0.50745991  1
  O  O409  1  0.61452811  0.49614773  0.00738075  1
  O  O410  1  0.62530025  0.51592795  0.49965273  1
  O  O411  1  0.37453128  0.36062480  0.11569446  1
  O  O412  1  0.36164570  0.36717198  0.62355779  1
  O  O413  1  0.36920859  0.86923495  0.12265151  1
  O  O414  1  0.37591828  0.86089652  0.62991314  1
  O  O415  1  0.85648389  0.41253519  0.11439575  1
  O  O416  1  0.85944162  0.36738396  0.63373612  1
  O  O417  1  0.87442369  0.87136120  0.12439032  1
  O  O418  1  0.86813080  0.87895715  0.61249877  1
  O  O419  1  0.13366835  0.11579016  0.38404453  1
  O  O420  1  0.12894885  0.13158504  0.88216157  1
  O  O421  1  0.11768188  0.63539398  0.38310396  1
  O  O422  1  0.13950906  0.63391310  0.87234361  1
  O  O423  1  0.63209056  0.13191806  0.37680362  1
  O  O424  1  0.61964233  0.13920949  0.86714373  1
  O  O425  1  0.63626489  0.62251242  0.38115500  1
  O  O426  1  0.62717559  0.63616307  0.88082489  1
