# generated using pymatgen
data_V85Zn86O256
_symmetry_space_group_name_H-M   'P 1'
_cell_length_a   17.00216791
_cell_length_b   16.97931958
_cell_length_c   16.97947260
_cell_angle_alpha   90.16463287
_cell_angle_beta   89.99677058
_cell_angle_gamma   90.04413676
_symmetry_Int_Tables_number   1
_chemical_formula_structural   V85Zn86O256
_chemical_formula_sum   'V85 Zn86 O256'
_cell_volume   4901.70146808
_cell_formula_units_Z   1
loop_
 _symmetry_equiv_pos_site_id
 _symmetry_equiv_pos_as_xyz
  1  'x, y, z'
loop_
 _atom_site_type_symbol
 _atom_site_label
 _atom_site_symmetry_multiplicity
 _atom_site_fract_x
 _atom_site_fract_y
 _atom_site_fract_z
 _atom_site_occupancy
  V  V0  1  0.62390661  0.50091400  0.62566677  1
  V  V1  1  0.12242025  0.37756351  0.76179111  1
  V  V2  1  0.87447966  0.37289531  0.49863463  1
  V  V3  1  0.62933235  0.50607634  0.12958828  1
  V  V4  1  0.37466663  0.25100100  0.63111247  1
  V  V5  1  0.50127218  0.25436995  0.24812736  1
  V  V6  1  0.49784695  0.37210867  0.87071373  1
  V  V7  1  0.49609019  0.50020910  0.49772660  1
  V  V8  1  0.12708830  0.62721028  -0.00072184  1
  V  V9  1  0.12524267  0.37589161  0.25251644  1
  V  V10  1  0.88033286  0.87797742  0.49744948  1
  V  V11  1  0.00019869  0.63209432  0.12818688  1
  V  V12  1  0.74943086  0.61421672  0.37324136  1
  V  V13  1  0.24795548  0.37751670  0.63130646  1
  V  V14  1  0.87721592  0.24986343  0.62326550  1
  V  V15  1  0.50195609  0.74471406  0.24331283  1
  V  V16  1  0.62575222  0.74783367  0.37469038  1
  V  V17  1  -0.00097448  0.50040491  -0.00515739  1
  V  V18  1  0.74869612  0.49921086  0.75112523  1
  V  V19  1  0.63698847  0.37730682  0.25177859  1
  V  V20  1  0.11027592  0.23060787  0.88280736  1
  V  V21  1  0.00153206  0.50070727  0.49805795  1
  V  V22  1  0.62117427  0.24487765  0.88371704  1
  V  V23  1  0.87615956  0.37593241  -0.00450624  1
  V  V24  1  -0.00024159  0.62810566  0.62517516  1
  V  V25  1  0.74993347  0.74905683  0.50203476  1
  V  V26  1  0.13615824  0.76227754  0.37553023  1
  V  V27  1  0.69891062  0.06043446  0.30813658  1
  V  V28  1  0.86604453  0.75261467  0.12586256  1
  V  V29  1  0.12650209  0.50641095  0.13035154  1
  V  V30  1  0.37381419  0.12251017  0.74355243  1
  V  V31  1  0.36803500  0.87285061  0.49944311  1
  V  V32  1  0.88119848  0.00005566  0.37114437  1
  V  V33  1  0.25564761  0.13433573  0.87300064  1
  V  V34  1  0.62038087  0.37474398  0.74911644  1
  V  V35  1  0.50094591  0.50490839  0.00366450  1
  V  V36  1  0.54558944  0.19369981  0.69216046  1
  V  V37  1  0.87415377  0.75317175  0.62604111  1
  V  V38  1  0.63789225  0.87368277  0.24836628  1
  V  V39  1  0.49853178  0.62577390  0.62647160  1
  V  V40  1  0.50034641  0.75845207  0.74844274  1
  V  V41  1  0.49751021  0.37972537  0.37307347  1
  V  V42  1  0.24854634  0.23827326  0.50002544  1
  V  V43  1  -0.00358787  0.25863818  0.75200808  1
  V  V44  1  0.37734062  0.24992206  0.12068668  1
  V  V45  1  0.36806630  0.62206579  0.74832834  1
  V  V46  1  0.75014542  0.37605236  0.62254726  1
  V  V47  1  0.36979431  0.37834815  0.49537244  1
  V  V48  1  0.50893142  0.01619727  0.50427152  1
  V  V49  1  0.11722555  0.74822076  0.87198385  1
  V  V50  1  0.37301842  0.37519667  -0.00021551  1
  V  V51  1  0.49900770  0.00418334  0.00805847  1
  V  V52  1  0.74213402  -0.00483730  0.75404308  1
  V  V53  1  0.50124499  0.87245482  0.37947940  1
  V  V54  1  0.00537446  0.11845442  0.62020982  1
  V  V55  1  0.36301482  0.74905168  0.62111674  1
  V  V56  1  0.36880187  0.62156916  0.25616301  1
  V  V57  1  0.74582108  0.62434644  0.87980656  1
  V  V58  1  0.25036233  0.38015132  0.12298640  1
  V  V59  1  0.38012482  0.87112974  0.00131676  1
  V  V60  1  0.19788439  0.07244892  0.31401303  1
  V  V61  1  0.04469220  0.92223761  0.93061898  1
  V  V62  1  0.24823406  0.75279412  -0.00126110  1
  V  V63  1  0.87246555  0.61507413  0.25075639  1
  V  V64  1  0.63718992  0.00142924  0.11751614  1
  V  V65  1  0.74776544  0.24742865  0.00160162  1
  V  V66  1  0.12265987  0.89288422  0.74286341  1
  V  V67  1  0.62384364  0.75653837  0.87315717  1
  V  V68  1  0.73995024  0.87527392  0.62955274  1
  V  V69  1  -0.00428993  0.75481193  0.26571368  1
  V  V70  1  0.86245317  0.87945215  -0.00160120  1
  V  V71  1  0.13026951  0.24579121  0.37924900  1
  V  V72  1  0.36710257  0.49750503  0.87032417  1
  V  V73  1  0.19265234  0.20052581  0.05473016  1
  V  V74  1  0.12731303  0.50075069  0.63074880  1
  V  V75  1  0.87555443  0.12199698  0.75517876  1
  V  V76  1  0.87425058  0.62685217  0.75297347  1
  V  V77  1  0.88654114  0.12109558  0.24964151  1
  V  V78  1  0.38148274  0.73693289  0.11862238  1
  V  V79  1  0.00125727  0.37134604  0.37295402  1
  V  V80  1  0.74576284  0.23491530  0.49389002  1
  V  V81  1  0.37464779  0.00801382  0.37264849  1
  V  V82  1  0.37203943  -0.00250514  0.87240658  1
  V  V83  1  0.62455520  0.62347142  0.50015116  1
  V  V84  1  0.88125105  0.24488034  0.12604107  1
  Zn  Zn85  1  0.16099316  0.03018600  0.59355390  1
  Zn  Zn86  1  0.24681514  0.62007696  0.86938772  1
  Zn  Zn87  1  0.01096394  0.23872976  0.24386940  1
  Zn  Zn88  1  0.87309861  0.49406928  0.36965921  1
  Zn  Zn89  1  -0.00170463  0.75793044  0.75444385  1
  Zn  Zn90  1  0.61886392  0.62986388  0.00514378  1
  Zn  Zn91  1  0.25206033  0.62086149  0.39001146  1
  Zn  Zn92  1  0.74301402  0.75016237  0.00617118  1
  Zn  Zn93  1  0.50401074  0.87845802  0.87060611  1
  Zn  Zn94  1  0.50340464  0.12566930  0.12224135  1
  Zn  Zn95  1  0.62629458  0.23914231  0.37429251  1
  Zn  Zn96  1  0.75469519  0.37893864  0.12866043  1
  Zn  Zn97  1  0.37132866  0.12983095  0.25248169  1
  Zn  Zn98  1  0.87272561  -0.00458752  0.87801380  1
  Zn  Zn99  1  0.87661859  0.49795329  0.87438541  1
  Zn  Zn100  1  0.25303613  0.88724801  0.63440517  1
  Zn  Zn101  1  0.74521882  0.12183550  0.87969520  1
  Zn  Zn102  1  0.62001101  0.00603023  0.62849503  1
  Zn  Zn103  1  0.00893958  0.00045678  0.48841319  1
  Zn  Zn104  1  0.13197812  0.63948643  0.50267587  1
  Zn  Zn105  1  0.25734646  0.49825115  0.26097179  1
  Zn  Zn106  1  0.22795183  0.90733560  0.16428594  1
  Zn  Zn107  1  0.11317521  0.03282445  0.12701094  1
  Zn  Zn108  1  0.18697254  0.19043296  0.69469870  1
  Zn  Zn109  1  0.16734152  0.72935170  0.16756372  1
  Zn  Zn110  1  0.18666835  0.68933544  0.68862694  1
  Zn  Zn111  1  0.68566953  0.19143499  0.17952816  1
  Zn  Zn112  1  0.70676242  0.18760626  0.68759850  1
  Zn  Zn113  1  0.68776347  0.68269972  0.19178620  1
  Zn  Zn114  1  0.68616348  0.68876549  0.69069591  1
  Zn  Zn115  1  0.31053307  0.31185071  0.31103223  1
  Zn  Zn116  1  0.30695435  0.30895104  0.81188883  1
  Zn  Zn117  1  0.31537108  0.81573863  0.30611370  1
  Zn  Zn118  1  0.30605869  0.81303145  0.81375634  1
  Zn  Zn119  1  0.81452369  0.30418392  0.31364823  1
  Zn  Zn120  1  0.81037843  0.31300079  0.81535231  1
  Zn  Zn121  1  0.81522809  0.80722172  0.31707170  1
  Zn  Zn122  1  0.81061848  0.81198221  0.81537397  1
  Zn  Zn123  1  0.18849018  0.44079098  0.44090687  1
  Zn  Zn124  1  0.18575071  0.43588021  0.94099872  1
  Zn  Zn125  1  0.18561050  0.93139074  0.43460541  1
  Zn  Zn126  1  0.21343919  0.96234731  0.98028237  1
  Zn  Zn127  1  0.68521117  0.43368840  0.43779909  1
  Zn  Zn128  1  0.68701518  0.43461558  0.94036839  1
  Zn  Zn129  1  0.68569405  0.93417093  0.44548768  1
  Zn  Zn130  1  0.68722687  0.93597746  0.93864228  1
  Zn  Zn131  1  0.31597223  0.06238790  0.07040254  1
  Zn  Zn132  1  0.32847928  0.06190621  0.56231810  1
  Zn  Zn133  1  0.31234659  0.56296268  0.06393889  1
  Zn  Zn134  1  0.30792499  0.56069885  0.56042141  1
  Zn  Zn135  1  0.81300637  0.06642446  0.06202726  1
  Zn  Zn136  1  0.81718101  0.05783794  0.56677234  1
  Zn  Zn137  1  0.81073743  0.56309365  0.06368591  1
  Zn  Zn138  1  0.81446100  0.56135245  0.56142932  1
  Zn  Zn139  1  0.44136270  0.44033657  0.18599705  1
  Zn  Zn140  1  0.43670630  0.43718599  0.68742480  1
  Zn  Zn141  1  0.41904672  0.92601706  0.19599136  1
  Zn  Zn142  1  0.43521178  0.93922765  0.68440801  1
  Zn  Zn143  1  0.94041804  0.43691496  0.18272161  1
  Zn  Zn144  1  0.93686150  0.44074033  0.68626286  1
  Zn  Zn145  1  0.91605722  0.94736278  0.17996873  1
  Zn  Zn146  1  0.93563892  0.93691025  0.69108840  1
  Zn  Zn147  1  0.05477363  -0.05851363  0.28487679  1
  Zn  Zn148  1  0.05488032  0.07229627  0.82383596  1
  Zn  Zn149  1  0.06953815  0.56863172  0.31763408  1
  Zn  Zn150  1  0.06033907  0.56419147  0.81186950  1
  Zn  Zn151  1  0.53157181  0.05165673  0.29813784  1
  Zn  Zn152  1  0.56271200  0.05693525  0.82008148  1
  Zn  Zn153  1  0.55874648  0.56170159  0.31009671  1
  Zn  Zn154  1  0.55826347  0.56458654  0.81428348  1
  Zn  Zn155  1  0.43714289  0.19359684  0.43772099  1
  Zn  Zn156  1  0.43859112  0.18733582  0.93921799  1
  Zn  Zn157  1  0.43646870  0.68889431  0.43721631  1
  Zn  Zn158  1  0.43933407  0.68403652  0.93084715  1
  Zn  Zn159  1  0.93638540  0.18449342  0.43361542  1
  Zn  Zn160  1  0.93773291  0.19600171  0.93179964  1
  Zn  Zn161  1  0.93461726  0.68381828  0.44092740  1
  Zn  Zn162  1  0.93509727  0.69024352  0.94189390  1
  Zn  Zn163  1  0.05646450  0.32066561  0.06703124  1
  Zn  Zn164  1  0.06413739  0.31105642  0.56315677  1
  Zn  Zn165  1  0.04183451  0.86027079  0.10617970  1
  Zn  Zn166  1  0.06500841  0.81941515  0.56401829  1
  Zn  Zn167  1  0.56281703  0.32149506  0.06298162  1
  Zn  Zn168  1  0.56725226  0.31602058  0.55296428  1
  Zn  Zn169  1  0.56315725  0.81855579  0.06316455  1
  Zn  Zn170  1  0.55895626  0.81142872  0.56278065  1
  O  O171  1  0.13000509  0.14688929  0.10921711  1
  O  O172  1  0.11004960  0.12753218  0.63371710  1
  O  O173  1  0.11739877  0.62994328  0.11923558  1
  O  O174  1  0.11597216  0.61912581  0.62619228  1
  O  O175  1  0.62148415  0.10672627  0.13176174  1
  O  O176  1  0.61099688  0.13627047  0.64013172  1
  O  O177  1  0.62593629  0.61081697  0.12523962  1
  O  O178  1  0.61945361  0.61996109  0.62040247  1
  O  O179  1  0.38292401  0.36912496  0.38493670  1
  O  O180  1  0.37973112  0.37835444  0.87623578  1
  O  O181  1  0.38514954  0.88049298  0.38268372  1
  O  O182  1  0.37694580  0.88238256  0.88006214  1
  O  O183  1  0.88639536  0.37418738  0.37741228  1
  O  O184  1  0.86882099  0.37921029  0.89003611  1
  O  O185  1  0.86148127  0.88461101  0.38738343  1
  O  O186  1  0.87347177  0.87059645  0.89318952  1
  O  O187  1  0.25913176  0.00705361  0.37281703  1
  O  O188  1  0.26803398  0.01380110  0.89019591  1
  O  O189  1  0.24438964  0.50626100  0.37273614  1
  O  O190  1  0.26385178  0.49778992  0.87954048  1
  O  O191  1  0.75026663  0.00493664  0.37696348  1
  O  O192  1  0.75109852  0.00201665  0.86963959  1
  O  O193  1  0.75246823  0.51064717  0.38391445  1
  O  O194  1  0.74822750  0.50790204  0.86900959  1
  O  O195  1  0.24340183  0.49531111  0.13110919  1
  O  O196  1  0.23802186  0.49041368  0.62421123  1
  O  O197  1  0.22414436  0.99911757  0.09342712  1
  O  O198  1  0.26142611  1.00182956  0.62809407  1
  O  O199  1  0.73411128  0.49724575  0.12053647  1
  O  O200  1  0.74506598  0.49544701  0.63045355  1
  O  O201  1  0.73587565  0.99998280  0.11845243  1
  O  O202  1  0.74494163  0.99249977  0.63266042  1
  O  O203  1  0.00694495  0.37525701  0.25833266  1
  O  O204  1  0.01096379  0.36916463  0.73539074  1
  O  O205  1  -0.01798583  0.85513601  0.25120542  1
  O  O206  1  0.01409492  0.87191847  0.74272016  1
  O  O207  1  0.50569666  0.37029140  0.25603551  1
  O  O208  1  0.50738737  0.37930649  0.75882523  1
  O  O209  1  0.50522584  0.86364687  0.26345169  1
  O  O210  1  0.49512250  0.86201074  0.74951132  1
  O  O211  1  0.50043326  0.14766134  0.24525153  1
  O  O212  1  0.49363280  0.13102058  0.75580983  1
  O  O213  1  0.49325999  0.63940507  0.25691845  1
  O  O214  1  0.48925026  0.63127643  0.74437301  1
  O  O215  1  0.98597839  0.12444286  0.24889975  1
  O  O216  1  0.99169955  0.13626591  0.74440863  1
  O  O217  1  0.99190163  0.63049239  0.24552766  1
  O  O218  1  0.98629673  0.62477275  0.74375364  1
  O  O219  1  0.38231382  0.25907361  0.01292268  1
  O  O220  1  0.37165437  0.26090300  0.51123624  1
  O  O221  1  0.37423699  0.75041212  -0.00014140  1
  O  O222  1  0.38374962  0.75986851  0.51073422  1
  O  O223  1  0.87234717  0.25683101  0.00470988  1
  O  O224  1  0.86652526  0.25431882  0.50263561  1
  O  O225  1  0.86983995  0.75549767  0.01022336  1
  O  O226  1  0.86846511  0.75591849  0.50639879  1
  O  O227  1  0.13452596  0.25454533  0.49070967  1
  O  O228  1  0.13278885  0.26487670  0.99800794  1
  O  O229  1  0.11736502  0.76025712  0.47924260  1
  O  O230  1  0.13520804  0.74019686  0.99106391  1
  O  O231  1  0.64028339  0.25061235  0.49570420  1
  O  O232  1  0.63322647  0.25879959  0.99391223  1
  O  O233  1  0.62889937  0.74150905  0.49538260  1
  O  O234  1  0.62414929  0.74751390  0.99311428  1
  O  O235  1  0.49377450  0.25490648  0.13032332  1
  O  O236  1  0.49587496  0.25614261  0.62558230  1
  O  O237  1  0.49711023  0.75119333  0.13293171  1
  O  O238  1  0.49423070  0.74263289  0.63199508  1
  O  O239  1  0.98625067  0.25471541  0.12742425  1
  O  O240  1  0.99490175  0.24280370  0.63095062  1
  O  O241  1  0.98880264  0.74114002  0.13695255  1
  O  O242  1  0.99609866  0.73859574  0.62413747  1
  O  O243  1  0.00942602  0.25647997  0.37527013  1
  O  O244  1  -0.00439392  0.27123649  0.85542101  1
  O  O245  1  -0.00569640  0.74794997  0.36736134  1
  O  O246  1  0.01302188  0.74099681  0.87565354  1
  O  O247  1  0.50486848  0.26135579  0.36874307  1
  O  O248  1  0.50530275  0.26382200  0.88294959  1
  O  O249  1  0.50857721  0.75517422  0.37031516  1
  O  O250  1  0.50658030  0.75034056  0.86514646  1
  O  O251  1  0.25998239  0.13965120  0.50665222  1
  O  O252  1  0.25008529  0.13729553  0.99502304  1
  O  O253  1  0.24575784  0.63070161  0.50442101  1
  O  O254  1  0.23828419  0.62586550  0.99756379  1
  O  O255  1  0.75348203  0.13751269  0.50978782  1
  O  O256  1  0.75568196  0.14206070  0.99647768  1
  O  O257  1  0.74508060  0.62969272  0.49644394  1
  O  O258  1  0.74734440  0.62614518  0.98878750  1
  O  O259  1  0.25669929  0.38358264  0.01500252  1
  O  O260  1  0.25611260  0.36987052  0.51212916  1
  O  O261  1  0.26549859  0.86129783  -0.00775402  1
  O  O262  1  0.26660335  0.87835238  0.49910248  1
  O  O263  1  0.75778723  0.36555674  0.00242696  1
  O  O264  1  0.75690244  0.37115053  0.50536330  1
  O  O265  1  0.75921510  0.86894188  0.00108791  1
  O  O266  1  0.75619605  0.86763669  0.50992429  1
  O  O267  1  0.12289413  0.49254263  0.24573499  1
  O  O268  1  0.11652276  0.49333150  0.73944052  1
  O  O269  1  0.14239836  1.01139307  0.25240902  1
  O  O270  1  0.11786708  0.99067166  0.75584858  1
  O  O271  1  0.61826269  0.49333673  0.23748921  1
  O  O272  1  0.62923599  0.49669102  0.74493669  1
  O  O273  1  0.63173436  0.99606098  0.25023170  1
  O  O274  1  0.63644607  1.00508120  0.74826767  1
  O  O275  1  0.41343884  0.01659872  0.26986195  1
  O  O276  1  0.38437787  0.01049544  0.76034650  1
  O  O277  1  0.38051750  0.51804646  0.24440235  1
  O  O278  1  0.38055129  0.50814037  0.75889052  1
  O  O279  1  0.86382801  0.00873546  0.25757477  1
  O  O280  1  0.86498980  0.00735529  0.75267116  1
  O  O281  1  0.88018498  0.51100302  0.24942108  1
  O  O282  1  0.86758263  0.50752896  0.75233606  1
  O  O283  1  0.11565607  0.37100078  0.37323981  1
  O  O284  1  0.12920288  0.37167714  0.86397633  1
  O  O285  1  0.12345289  0.86661092  0.35824064  1
  O  O286  1  0.11336618  0.86748774  0.87238558  1
  O  O287  1  0.61687372  0.37448072  0.36659839  1
  O  O288  1  0.61796717  0.36638335  0.86819501  1
  O  O289  1  0.61999080  0.86858474  0.37084965  1
  O  O290  1  0.62493172  0.86078154  0.87564313  1
  O  O291  1  0.37889728  0.13630878  0.12902806  1
  O  O292  1  0.38488312  0.13668377  0.63324719  1
  O  O293  1  0.38075656  0.63223297  0.12917488  1
  O  O294  1  0.38035672  0.63035533  0.63027778  1
  O  O295  1  0.87225182  0.13284183  0.13310259  1
  O  O296  1  0.88050892  0.13145639  0.63715068  1
  O  O297  1  0.88125922  0.62930143  0.13155296  1
  O  O298  1  0.87984343  0.63069438  0.63212272  1
  O  O299  1  0.25590219  0.25822305  0.11754621  1
  O  O300  1  0.25656091  0.25652010  0.62115438  1
  O  O301  1  0.26642117  0.73901437  0.10536111  1
  O  O302  1  0.26196119  0.75524766  0.63028880  1
  O  O303  1  0.76000365  0.25459796  0.11771404  1
  O  O304  1  0.75721186  0.25794827  0.61479899  1
  O  O305  1  0.76247071  0.74085269  0.12689212  1
  O  O306  1  0.75418878  0.75512543  0.62254764  1
  O  O307  1  0.24181014  0.26009194  0.38715507  1
  O  O308  1  0.23707550  0.24335831  0.87701247  1
  O  O309  1  0.23738476  0.75407563  0.36385832  1
  O  O310  1  0.24157465  0.74307117  0.88308281  1
  O  O311  1  0.74822466  0.24859295  0.38969152  1
  O  O312  1  0.73849662  0.25068880  0.88191336  1
  O  O313  1  0.74381524  0.73803959  0.38315627  1
  O  O314  1  0.74021983  0.73972611  0.87353671  1
  O  O315  1  0.04402480  0.15640399  -0.07314538  1
  O  O316  1  -0.00747247  0.12495821  0.51746393  1
  O  O317  1  0.00881591  0.62394264  0.00924440  1
  O  O318  1  0.00205196  0.61701732  0.50851126  1
  O  O319  1  0.49506574  0.10930053  0.00172417  1
  O  O320  1  0.50065368  0.11450682  0.49731768  1
  O  O321  1  0.50160180  0.60851231  -0.00870294  1
  O  O322  1  0.50385298  0.61947684  0.50459444  1
  O  O323  1  0.49249255  0.37893381  0.49178737  1
  O  O324  1  0.49321180  0.38544757  0.99154754  1
  O  O325  1  0.49670265  0.87484969  0.48918569  1
  O  O326  1  0.49548697  0.88386892  0.99289657  1
  O  O327  1  0.99468158  0.37938199  0.49384463  1
  O  O328  1  0.99089797  0.38975513  1.00527478  1
  O  O329  1  0.98254401  0.87884686  0.50986447  1
  O  O330  1  0.99009003  0.86779999  0.99938100  1
  O  O331  1  0.50278479  0.48781294  0.38080366  1
  O  O332  1  0.49293541  0.48882537  0.88015737  1
  O  O333  1  0.49965038  0.98978844  0.39037087  1
  O  O334  1  0.48974054  0.99831387  0.88453355  1
  O  O335  1  1.00161662  0.49286699  0.38423689  1
  O  O336  1  0.99690679  0.50959650  0.89100829  1
  O  O337  1  0.98450036  0.99156813  0.36875874  1
  O  O338  1  0.99110157  0.98899839  0.87323349  1
  O  O339  1  0.02507098  -0.03227625  0.15478123  1
  O  O340  1  -0.00789686  0.01759860  0.62700792  1
  O  O341  1  0.00605782  0.51517441  0.11858687  1
  O  O342  1  0.00279942  0.51166611  0.61986317  1
  O  O343  1  0.50221411  -0.00133058  0.11896822  1
  O  O344  1  0.50149400  -0.00352650  0.60906563  1
  O  O345  1  0.51395335  0.49233088  0.11389539  1
  O  O346  1  0.50469694  0.50632503  0.61931230  1
  O  O347  1  0.24391728  0.37782794  0.23996551  1
  O  O348  1  0.23902484  0.36853460  0.73847742  1
  O  O349  1  0.30892965  0.90176190  0.23690161  1
  O  O350  1  0.22796162  0.87186043  0.75465556  1
  O  O351  1  0.73975161  0.37223792  0.25420706  1
  O  O352  1  0.74192690  0.37856965  0.74352606  1
  O  O353  1  0.73644461  0.86523028  0.25500488  1
  O  O354  1  0.75596995  0.88396932  0.74284376  1
  O  O355  1  0.25420111  0.12542705  0.25286219  1
  O  O356  1  0.26958885  0.13367538  0.75387446  1
  O  O357  1  0.26833083  0.62564101  0.24614940  1
  O  O358  1  0.26384523  0.62688216  0.74916275  1
  O  O359  1  0.75297181  0.12554441  0.25178500  1
  O  O360  1  0.75964413  0.11642437  0.75490077  1
  O  O361  1  0.75876491  0.62639225  0.26238538  1
  O  O362  1  0.75869819  0.62074445  0.75615225  1
  O  O363  1  0.38037582  0.11621111  0.37579158  1
  O  O364  1  0.37079537  0.12390012  0.86794664  1
  O  O365  1  0.37157305  0.63508600  0.36015005  1
  O  O366  1  0.37349507  0.61431665  0.86546518  1
  O  O367  1  0.87519197  0.11395755  0.36617733  1
  O  O368  1  0.87381444  0.12499735  0.86410898  1
  O  O369  1  0.86697113  0.62030957  0.36878059  1
  O  O370  1  0.86579216  0.62521875  0.86826380  1
  O  O371  1  0.13103876  0.38223300  0.13473877  1
  O  O372  1  0.13122809  0.38086459  0.63219133  1
  O  O373  1  0.14578667  0.83796530  0.13774885  1
  O  O374  1  0.13110249  0.87851670  0.63623974  1
  O  O375  1  0.62966639  0.38415618  0.13539697  1
  O  O376  1  0.62934550  0.38128567  0.62932800  1
  O  O377  1  0.61831038  0.89103218  0.13811492  1
  O  O378  1  0.63771606  0.87263985  0.62174558  1
  O  O379  1  0.12407437  0.26849480  0.26249565  1
  O  O380  1  0.11390131  0.25609597  0.76057748  1
  O  O381  1  0.10260376  0.74109126  0.26484462  1
  O  O382  1  0.12066862  0.75033387  0.76020882  1
  O  O383  1  0.61921850  0.26090403  0.25012176  1
  O  O384  1  0.61674377  0.25098110  0.74923241  1
  O  O385  1  0.61903906  0.75497878  0.25320605  1
  O  O386  1  0.61172928  0.74239691  0.75837738  1
  O  O387  1  0.38218302  0.25485269  0.23838397  1
  O  O388  1  0.37679594  0.24797310  0.73775111  1
  O  O389  1  0.38330406  0.74109537  0.23735076  1
  O  O390  1  0.38084134  0.74302197  0.74427843  1
  O  O391  1  0.87636101  0.24050080  0.24208422  1
  O  O392  1  0.87747419  0.24624949  0.74426006  1
  O  O393  1  0.87988356  0.73743052  0.24738185  1
  O  O394  1  0.87706365  0.74312302  0.74535872  1
  O  O395  1  0.38143277  0.48517913  0.50937279  1
  O  O396  1  0.38205680  0.49491217  0.99416356  1
  O  O397  1  0.38946131  0.99259166  0.49045634  1
  O  O398  1  0.38184421  0.98927103  0.99887584  1
  O  O399  1  0.88742952  0.49296594  0.49975995  1
  O  O400  1  0.88199954  0.49486374  1.00176937  1
  O  O401  1  0.87590583  0.99406434  0.49095877  1
  O  O402  1  0.87105612  0.98468778  1.00186581  1
  O  O403  1  0.10088130  -0.01647219  -0.01250934  1
  O  O404  1  0.11999074  -0.00439478  0.49714304  1
  O  O405  1  0.11835123  0.50756640  0.00773340  1
  O  O406  1  0.11149573  0.49547977  0.51484006  1
  O  O407  1  0.61735914  -0.00651186  0.01162142  1
  O  O408  1  0.61319732  0.00045833  0.50577376  1
  O  O409  1  0.61804809  0.49905858  0.00996904  1
  O  O410  1  0.61772350  0.50439113  0.50660963  1
  O  O411  1  0.36693974  0.37141480  0.12318020  1
  O  O412  1  0.36676583  0.37002076  0.62225402  1
  O  O413  1  0.38642894  0.85705277  0.10605758  1
  O  O414  1  0.37543113  0.86581143  0.61773507  1
  O  O415  1  0.87286375  0.36979135  0.11585608  1
  O  O416  1  0.87017088  0.36943608  0.61960533  1
  O  O417  1  0.87713351  0.86455780  0.11150431  1
  O  O418  1  0.86468816  0.86987599  0.62046829  1
  O  O419  1  0.13445850  0.13769886  0.36503176  1
  O  O420  1  0.15333338  0.12699819  0.84602386  1
  O  O421  1  0.12719221  0.64325082  0.38099502  1
  O  O422  1  0.12726984  0.62860075  0.88130787  1
  O  O423  1  0.62924184  0.11583747  0.35594480  1
  O  O424  1  0.62263848  0.14163289  0.87157246  1
  O  O425  1  0.63128480  0.62670018  0.37905813  1
  O  O426  1  0.63177911  0.63192992  0.87627805  1
