# generated using pymatgen
data_V85Zn86O256
_symmetry_space_group_name_H-M   'P 1'
_cell_length_a   16.95317232
_cell_length_b   16.94131234
_cell_length_c   16.96589039
_cell_angle_alpha   90.00916764
_cell_angle_beta   89.91449076
_cell_angle_gamma   90.05200002
_symmetry_Int_Tables_number   1
_chemical_formula_structural   V85Zn86O256
_chemical_formula_sum   'V85 Zn86 O256'
_cell_volume   4872.74870664
_cell_formula_units_Z   1
loop_
 _symmetry_equiv_pos_site_id
 _symmetry_equiv_pos_as_xyz
  1  'x, y, z'
loop_
 _atom_site_type_symbol
 _atom_site_label
 _atom_site_symmetry_multiplicity
 _atom_site_fract_x
 _atom_site_fract_y
 _atom_site_fract_z
 _atom_site_occupancy
  V  V0  1  0.37188917  0.25431930  0.62937952  1
  V  V1  1  0.63175041  0.62097144  -0.00067519  1
  V  V2  1  0.61689617  -0.00362583  0.11925804  1
  V  V3  1  0.12234876  0.50094315  0.61647907  1
  V  V4  1  0.61742083  0.61623555  0.50305246  1
  V  V5  1  0.88279992  0.87346607  -0.00026024  1
  V  V6  1  0.49084435  0.87072295  0.37936301  1
  V  V7  1  0.49058573  -0.00760696  0.50531805  1
  V  V8  1  0.75799419  0.74320991  -0.00680347  1
  V  V9  1  0.12252378  0.12791488  0.50406389  1
  V  V10  1  0.74812221  0.00065415  0.25100366  1
  V  V11  1  0.74726654  0.12667071  0.87258201  1
  V  V12  1  0.25280067  0.12771599  0.36787228  1
  V  V13  1  0.37672966  0.88134566  0.00283535  1
  V  V14  1  0.12962622  0.00346976  0.62825321  1
  V  V15  1  0.12587371  0.00285323  0.12111855  1
  V  V16  1  0.49801746  0.62158432  0.12578455  1
  V  V17  1  0.25038508  0.87282510  0.12645005  1
  V  V18  1  0.48587942  0.62359219  0.63242708  1
  V  V19  1  0.37499984  0.00405854  0.36931664  1
  V  V20  1  0.74853140  0.24891778  0.50171303  1
  V  V21  1  0.12647374  0.87614329  0.25168351  1
  V  V22  1  0.87868610  0.74487560  0.12193436  1
  V  V23  1  0.87256781  0.62966307  0.73859234  1
  V  V24  1  0.24220180  0.49745637  0.24307559  1
  V  V25  1  -0.04108174  0.06064207  0.05715524  1
  V  V26  1  0.24587076  0.74095673  -0.00290174  1
  V  V27  1  -0.00579417  0.24551082  0.23227470  1
  V  V28  1  0.12478375  0.74637525  0.38735903  1
  V  V29  1  0.26696202  0.75132348  0.50299363  1
  V  V30  1  0.62305443  0.37300112  0.24793688  1
  V  V31  1  0.13282227  0.87724613  0.74793581  1
  V  V32  1  0.24925489  0.61599941  0.38167933  1
  V  V33  1  -0.00296131  0.75328088  0.74086871  1
  V  V34  1  0.01002094  0.60605732  0.12373198  1
  V  V35  1  0.37634744  0.38645095  0.50170265  1
  V  V36  1  0.87826327  0.12619905  0.74718982  1
  V  V37  1  -0.00094128  0.00485495  0.50569036  1
  V  V38  1  0.75173568  0.36644224  0.12349560  1
  V  V39  1  0.00244702  0.38019410  0.87504476  1
  V  V40  1  0.62495987  0.75018177  0.37649331  1
  V  V41  1  0.87583251  0.50781323  0.87701863  1
  V  V42  1  0.86872602  0.87395754  0.51372754  1
  V  V43  1  0.88040571  0.24520771  0.62382326  1
  V  V44  1  0.74980606  0.87023805  0.12370369  1
  V  V45  1  0.62136117  0.24861464  0.37734577  1
  V  V46  1  0.00642713  0.87989619  0.87646396  1
  V  V47  1  0.48815143  0.24477617  0.25349943  1
  V  V48  1  0.87477008  0.00219091  0.37459343  1
  V  V49  1  0.87650684  0.37635376  0.50162198  1
  V  V50  1  0.00571535  0.24892511  0.74596865  1
  V  V51  1  0.50331778  0.87855279  0.88396391  1
  V  V52  1  0.11834856  0.25240225  0.37546013  1
  V  V53  1  0.00206989  0.74839201  0.25028000  1
  V  V54  1  0.74870794  0.62732140  0.37543087  1
  V  V55  1  0.24916490  0.50880255  0.74285844  1
  V  V56  1  0.49637275  0.49727607  -0.00395710  1
  V  V57  1  0.37460092  0.00114958  0.86205710  1
  V  V58  1  0.49112594  0.12175281  0.12893436  1
  V  V59  1  0.87469521  0.49861821  0.37543755  1
  V  V60  1  0.36919541  0.51364185  0.86752755  1
  V  V61  1  0.24502284  0.36754762  0.11326411  1
  V  V62  1  0.61555303  0.12272885  -0.00228564  1
  V  V63  1  0.62348023  -0.00611183  0.62550958  1
  V  V64  1  0.49581691  0.38664303  0.38009932  1
  V  V65  1  0.62538835  0.37389054  0.75027531  1
  V  V66  1  -0.00040603  0.87588366  0.37695297  1
  V  V67  1  0.87883321  0.37104212  0.00078826  1
  V  V68  1  0.87288899  0.62343254  0.24844519  1
  V  V69  1  0.25476630  0.12357113  0.85714126  1
  V  V70  1  0.49089165  0.11966473  0.63094164  1
  V  V71  1  0.74971036  0.75320557  0.51519685  1
  V  V72  1  0.74972843  0.50426423  0.75195662  1
  V  V73  1  0.62310259  0.12206770  0.50111075  1
  V  V74  1  0.37429635  0.61778277  0.25534107  1
  V  V75  1  0.87967505  0.00244051  0.87565596  1
  V  V76  1  0.13839670  0.12491278  0.00006424  1
  V  V77  1  0.62273449  0.87202300  0.25104077  1
  V  V78  1  0.25198869  0.25459306  0.50315040  1
  V  V79  1  0.62849402  0.87088781  0.74867145  1
  V  V80  1  0.13330008  0.25202040  0.88246921  1
  V  V81  1  0.26010033  0.87555428  0.61897807  1
  V  V82  1  0.75156396  -0.00331972  0.74313298  1
  V  V83  1  0.62512108  0.74415133  0.87499608  1
  V  V84  1  0.49696679  0.24784284  0.75134013  1
  Zn  Zn85  1  0.62459409  0.49468765  0.12236782  1
  Zn  Zn86  1  0.49620894  0.37606880  0.87221142  1
  Zn  Zn87  1  0.87798875  0.12604150  0.23336608  1
  Zn  Zn88  1  0.48487205  0.73973411  0.75311039  1
  Zn  Zn89  1  0.00389358  0.63365882  0.61547793  1
  Zn  Zn90  1  0.00285683  0.50939450  0.49732144  1
  Zn  Zn91  1  -0.00106700  0.37438434  0.37329904  1
  Zn  Zn92  1  0.25378478  0.00578077  0.24685326  1
  Zn  Zn93  1  0.74805284  0.49702980  0.24720004  1
  Zn  Zn94  1  0.37330776  0.74607982  0.12566566  1
  Zn  Zn95  1  0.37200037  0.36781842  -0.00552647  1
  Zn  Zn96  1  0.12879046  0.60767703  -0.00652677  1
  Zn  Zn97  1  0.13515766  0.37334545  0.74436554  1
  Zn  Zn98  1  0.74910479  0.12622191  0.37089533  1
  Zn  Zn99  1  0.11965821  0.37737011  0.24894522  1
  Zn  Zn100  1  0.62040691  0.49650969  0.62379769  1
  Zn  Zn101  1  0.36967801  0.24649357  0.12160838  1
  Zn  Zn102  1  0.74941437  0.37493094  0.62662504  1
  Zn  Zn103  1  0.13017860  0.74097832  0.86721802  1
  Zn  Zn104  1  0.49663998  0.74661235  0.25054759  1
  Zn  Zn105  1  0.74990730  0.24741094  0.00340789  1
  Zn  Zn106  1  0.62266203  0.24995379  0.87554457  1
  Zn  Zn107  1  0.17938138  0.19104594  0.18733595  1
  Zn  Zn108  1  0.18914642  0.18829342  0.68678369  1
  Zn  Zn109  1  0.18739984  0.68753243  0.19059133  1
  Zn  Zn110  1  0.18839118  0.68541128  0.68383218  1
  Zn  Zn111  1  0.68146033  0.18675563  0.18727058  1
  Zn  Zn112  1  0.68552626  0.18659353  0.68549300  1
  Zn  Zn113  1  0.68623250  0.68564599  0.18509626  1
  Zn  Zn114  1  0.68569954  0.68360204  0.68892926  1
  Zn  Zn115  1  0.31203574  0.31517975  0.31540412  1
  Zn  Zn116  1  0.31303967  0.32086991  0.81205814  1
  Zn  Zn117  1  0.31287947  0.80713404  0.31254948  1
  Zn  Zn118  1  0.31065147  0.80729886  0.81640345  1
  Zn  Zn119  1  0.81262082  0.30835664  0.31107853  1
  Zn  Zn120  1  0.81360894  0.31419822  0.81257605  1
  Zn  Zn121  1  0.81269527  0.81299208  0.31627681  1
  Zn  Zn122  1  0.81479543  0.81172588  0.81353438  1
  Zn  Zn123  1  0.18964821  0.43517445  0.43754675  1
  Zn  Zn124  1  0.19328585  0.43786025  0.92851756  1
  Zn  Zn125  1  0.18920981  0.93769243  0.43910335  1
  Zn  Zn126  1  0.19140038  0.93916911  0.93857324  1
  Zn  Zn127  1  0.69067248  0.43535643  0.43440758  1
  Zn  Zn128  1  0.68954054  0.43533363  0.93344243  1
  Zn  Zn129  1  0.68504271  0.93516903  0.43856133  1
  Zn  Zn130  1  0.69233738  0.93590407  0.93657550  1
  Zn  Zn131  1  0.31164075  0.06073950  0.05824192  1
  Zn  Zn132  1  0.31131850  0.06406436  0.55996871  1
  Zn  Zn133  1  0.31239135  0.55772310  0.06277000  1
  Zn  Zn134  1  0.30678961  0.56550097  0.56443471  1
  Zn  Zn135  1  0.79328558  0.05863612  0.05928802  1
  Zn  Zn136  1  0.81147094  0.06312218  0.56344427  1
  Zn  Zn137  1  0.81280124  0.55299704  0.06356554  1
  Zn  Zn138  1  0.80747606  0.56180682  0.56368424  1
  Zn  Zn139  1  0.43152797  0.43702852  0.18816409  1
  Zn  Zn140  1  0.43730922  0.44131009  0.68673396  1
  Zn  Zn141  1  0.43660020  0.93434773  0.19159748  1
  Zn  Zn142  1  0.42113661  0.89683842  0.70667055  1
  Zn  Zn143  1  0.93200944  0.42922097  0.19191187  1
  Zn  Zn144  1  0.94050767  0.43680621  0.68778224  1
  Zn  Zn145  1  0.93480340  0.93206176  0.19227556  1
  Zn  Zn146  1  0.94280992  0.93978022  0.68780687  1
  Zn  Zn147  1  0.06313401  0.06669473  0.31086784  1
  Zn  Zn148  1  0.06512975  0.06478116  0.81201609  1
  Zn  Zn149  1  0.06208279  0.56478030  0.31591331  1
  Zn  Zn150  1  0.06436066  0.56503519  0.80620981  1
  Zn  Zn151  1  0.56090392  0.06025587  0.31316148  1
  Zn  Zn152  1  0.55816098  0.05736794  0.81201814  1
  Zn  Zn153  1  0.56336798  0.56031399  0.31249379  1
  Zn  Zn154  1  0.56129027  0.56202862  0.81239530  1
  Zn  Zn155  1  0.43615520  0.18731624  0.44107726  1
  Zn  Zn156  1  0.43411512  0.18467363  0.93866308  1
  Zn  Zn157  1  0.43714742  0.68151860  0.43782390  1
  Zn  Zn158  1  0.43827881  0.69005178  0.94200781  1
  Zn  Zn159  1  0.93629649  0.18429593  0.43694514  1
  Zn  Zn160  1  0.93970944  0.19688045  0.93236497  1
  Zn  Zn161  1  0.93443050  0.68977926  0.44127105  1
  Zn  Zn162  1  0.96901438  0.67427570  0.92291177  1
  Zn  Zn163  1  0.06640505  0.42943465  0.06045853  1
  Zn  Zn164  1  0.06213414  0.31980801  0.56422667  1
  Zn  Zn165  1  0.06392279  0.81060726  0.06319402  1
  Zn  Zn166  1  0.06258125  0.81892759  0.56295329  1
  Zn  Zn167  1  0.55683719  0.30654133  0.06190328  1
  Zn  Zn168  1  0.55873094  0.31268716  0.56565654  1
  Zn  Zn169  1  0.56241380  0.80614871  0.06233277  1
  Zn  Zn170  1  0.56040911  0.80705808  0.56527472  1
  O  O171  1  0.12996042  0.11674037  0.11395123  1
  O  O172  1  0.13068762  0.11980277  0.61163567  1
  O  O173  1  0.11042909  0.62619494  0.12768567  1
  O  O174  1  0.12155247  0.60816256  0.62943081  1
  O  O175  1  0.61887970  0.11451547  0.11763269  1
  O  O176  1  0.61635601  0.11619636  0.61833078  1
  O  O177  1  0.61805068  0.62010585  0.11677963  1
  O  O178  1  0.62630188  0.62068360  0.61054878  1
  O  O179  1  0.38928821  0.36870499  0.38402812  1
  O  O180  1  0.37939782  0.38928122  0.87787687  1
  O  O181  1  0.38622487  0.87962167  0.37181302  1
  O  O182  1  0.38269337  0.88307836  0.88415735  1
  O  O183  1  0.87220659  0.38328283  0.38182822  1
  O  O184  1  0.88345043  0.38058705  0.87830219  1
  O  O185  1  0.87941163  0.88694511  0.37963162  1
  O  O186  1  0.88061690  0.88445817  0.88189537  1
  O  O187  1  0.25828808  0.00798413  0.37670068  1
  O  O188  1  0.26586075  0.00396733  0.87693452  1
  O  O189  1  0.24573022  0.51207734  0.36897276  1
  O  O190  1  0.26339906  0.50639557  0.86771287  1
  O  O191  1  0.75476039  -0.00146649  0.36599917  1
  O  O192  1  0.75696407  0.00920882  0.86731887  1
  O  O193  1  0.75967902  0.50751286  0.37208007  1
  O  O194  1  0.76194343  0.49347204  0.86159091  1
  O  O195  1  0.25172003  0.49075118  0.13827769  1
  O  O196  1  0.24046271  0.50364531  0.63463545  1
  O  O197  1  0.24399110  0.99210479  0.12712981  1
  O  O198  1  0.23590885  0.99341222  0.61064521  1
  O  O199  1  0.74401792  0.48453261  0.12780310  1
  O  O200  1  0.74652713  0.49569994  0.63802243  1
  O  O201  1  0.73896251  0.98963521  0.13354781  1
  O  O202  1  0.74436657  1.00352797  0.63763851  1
  O  O203  1  -0.00073283  0.36086484  0.25436410  1
  O  O204  1  0.00042904  0.36224525  0.75603809  1
  O  O205  1  0.00495805  0.86867217  0.25804460  1
  O  O206  1  0.01018063  0.87305757  0.75361227  1
  O  O207  1  0.50312957  0.36834172  0.26057700  1
  O  O208  1  0.50735896  0.36596310  0.74853899  1
  O  O209  1  0.50551837  0.86956250  0.25965834  1
  O  O210  1  0.51975698  0.87792964  0.76768337  1
  O  O211  1  0.50711974  0.13278055  0.24208035  1
  O  O212  1  0.50608828  0.13021966  0.73846994  1
  O  O213  1  0.49304865  0.62143617  0.24436574  1
  O  O214  1  0.50147798  0.62587923  0.73844220  1
  O  O215  1  0.99671025  0.13795920  0.25288459  1
  O  O216  1  0.99271809  0.13926129  0.75697154  1
  O  O217  1  0.99256704  0.62749259  0.24130843  1
  O  O218  1  0.99101942  0.63731766  0.74261192  1
  O  O219  1  0.39266122  0.25696076  0.01011343  1
  O  O220  1  0.36852290  0.25469158  0.50841152  1
  O  O221  1  0.36269680  0.75819188  0.00240028  1
  O  O222  1  0.36513381  0.75316732  0.49609491  1
  O  O223  1  0.86913205  0.26529779  -0.00887357  1
  O  O224  1  0.87055554  0.25407838  0.50545073  1
  O  O225  1  0.87054957  0.75021499  0.00345654  1
  O  O226  1  0.86109144  0.76313388  0.49172004  1
  O  O227  1  0.13090879  0.24624106  0.49739262  1
  O  O228  1  0.12409806  0.23799992  0.98307319  1
  O  O229  1  0.12348648  0.75483184  0.48849427  1
  O  O230  1  0.13998124  0.75127684  1.00047116  1
  O  O231  1  0.62658674  0.24109248  0.49817597  1
  O  O232  1  0.62531531  0.23795017  0.99512881  1
  O  O233  1  0.63201427  0.74200437  0.49333269  1
  O  O234  1  0.63415970  0.73986765  0.99580007  1
  O  O235  1  0.50215357  0.23775907  0.13798751  1
  O  O236  1  0.49367815  0.23988900  0.63308607  1
  O  O237  1  0.49877392  0.73364322  0.12629453  1
  O  O238  1  0.51024995  0.72955517  0.62998213  1
  O  O239  1  1.00071061  0.24891299  0.13735334  1
  O  O240  1  0.99207176  0.25352694  0.63177004  1
  O  O241  1  0.99359147  0.74696173  0.13376039  1
  O  O242  1  1.00090935  0.75683659  0.63662338  1
  O  O243  1  0.01180770  0.24941164  0.38026846  1
  O  O244  1  0.00986820  0.26008376  0.86579368  1
  O  O245  1  0.00598144  0.75494782  0.36900027  1
  O  O246  1  -0.00248609  0.76992982  0.86041365  1
  O  O247  1  0.50540812  0.25139671  0.37009492  1
  O  O248  1  0.49921167  0.24532164  0.85923584  1
  O  O249  1  0.50651115  0.75557653  0.37658951  1
  O  O250  1  0.50887261  0.75677479  0.87487528  1
  O  O251  1  0.24360990  0.13609684  0.49095127  1
  O  O252  1  0.24154022  0.12148682  0.98937218  1
  O  O253  1  0.25220565  0.63862251  0.49267767  1
  O  O254  1  0.24665454  0.63786205  1.00887818  1
  O  O255  1  0.73623556  0.12745028  0.50027329  1
  O  O256  1  0.73786350  0.12705432  0.98961385  1
  O  O257  1  0.74350883  0.63365446  0.49379863  1
  O  O258  1  0.74164772  0.62979965  1.00687926  1
  O  O259  1  0.25004696  0.37270293  0.01122976  1
  O  O260  1  0.25999498  0.36089717  0.49199147  1
  O  O261  1  0.25538915  0.86844200  0.01129973  1
  O  O262  1  0.24372747  0.85983497  0.50410601  1
  O  O263  1  0.75382674  0.37063920  0.00613682  1
  O  O264  1  0.75890826  0.36741539  0.50130350  1
  O  O265  1  0.75986171  0.86639880  0.00558772  1
  O  O266  1  0.75629702  0.86667142  0.49660817  1
  O  O267  1  0.13861638  0.50007851  0.25490153  1
  O  O268  1  0.13367338  0.49811333  0.74392547  1
  O  O269  1  0.12635881  0.99516792  0.23945918  1
  O  O270  1  0.11860394  0.99500809  0.73600308  1
  O  O271  1  0.62515190  0.48415225  0.25089603  1
  O  O272  1  0.63291703  0.49233960  0.75221519  1
  O  O273  1  0.63195918  0.99245936  0.24516791  1
  O  O274  1  0.63357814  0.99282199  0.74636127  1
  O  O275  1  0.37372558  -0.00145125  0.26461829  1
  O  O276  1  0.38097474  -0.00775581  0.76405670  1
  O  O277  1  0.36288426  0.51029059  0.24983354  1
  O  O278  1  0.36622482  0.50148308  0.75844612  1
  O  O279  1  0.86687460  0.00156913  0.25688624  1
  O  O280  1  0.86925902  0.00531480  0.75263322  1
  O  O281  1  0.87131100  0.50605015  0.25779824  1
  O  O282  1  0.86887297  0.50641346  0.75395346  1
  O  O283  1  0.12196022  0.36582929  0.37338246  1
  O  O284  1  0.11976927  0.36625659  0.87061389  1
  O  O285  1  0.11971231  0.87111586  0.36979433  1
  O  O286  1  0.12110412  0.87914973  0.86597533  1
  O  O287  1  0.61480621  0.36883789  0.37163563  1
  O  O288  1  0.62018142  0.37073016  0.86296224  1
  O  O289  1  0.61536226  0.86913226  0.37045765  1
  O  O290  1  0.62066173  0.86531503  0.87752471  1
  O  O291  1  0.38796157  0.11956928  0.12208932  1
  O  O292  1  0.38575648  0.13251088  0.61748689  1
  O  O293  1  0.38253269  0.62303545  0.13143775  1
  O  O294  1  0.38760446  0.62568703  0.61919308  1
  O  O295  1  0.88299429  0.10818089  0.11416123  1
  O  O296  1  0.87239527  0.13692696  0.62949174  1
  O  O297  1  0.87982425  0.62279115  0.13600025  1
  O  O298  1  0.87508474  0.62200132  0.63639348  1
  O  O299  1  0.25183008  0.26441116  0.13535710  1
  O  O300  1  0.26055705  0.24555760  0.61660562  1
  O  O301  1  0.24980560  0.75723871  0.11795747  1
  O  O302  1  0.24527011  0.75681092  0.60927122  1
  O  O303  1  0.74439329  0.26068949  0.12506270  1
  O  O304  1  0.75761989  0.25042076  0.61775073  1
  O  O305  1  0.75676123  0.75205151  0.11545118  1
  O  O306  1  0.74533043  0.74913447  0.61398476  1
  O  O307  1  0.24059560  0.24459863  0.37989301  1
  O  O308  1  0.24415272  0.23988075  0.86484906  1
  O  O309  1  0.24345541  0.74542518  0.38567187  1
  O  O310  1  0.24586246  0.75374212  0.89105567  1
  O  O311  1  0.74092547  0.24680403  0.38298788  1
  O  O312  1  0.74711563  0.23490242  0.86978031  1
  O  O313  1  0.74074244  0.74476432  0.37781742  1
  O  O314  1  0.74403017  0.75385613  0.88875837  1
  O  O315  1  0.00989740  0.12311690  -0.00899380  1
  O  O316  1  0.00915560  0.11610761  0.49625329  1
  O  O317  1  -0.00569443  0.62528322  0.02558910  1
  O  O318  1  -0.00613533  0.62288105  0.50312488  1
  O  O319  1  0.51105733  0.12182157  0.00897215  1
  O  O320  1  0.50859452  0.11750805  0.50713716  1
  O  O321  1  0.50755797  0.61629929  0.00701500  1
  O  O322  1  0.51360852  0.62735396  0.50550567  1
  O  O323  1  0.49444481  0.36980238  0.48743323  1
  O  O324  1  0.50626565  0.39045580  0.99961823  1
  O  O325  1  0.50692018  0.88270719  0.49297870  1
  O  O326  1  0.49301764  0.86669042  0.99222262  1
  O  O327  1  0.98546053  0.37870166  0.49614212  1
  O  O328  1  0.99124716  0.37571720  0.98876803  1
  O  O329  1  0.99131137  0.88323596  0.49368691  1
  O  O330  1  0.99567016  0.86925043  0.98968403  1
  O  O331  1  0.50094942  0.48510124  0.37498714  1
  O  O332  1  0.49134839  0.50026693  0.88080804  1
  O  O333  1  0.49416037  0.99224054  0.38208425  1
  O  O334  1  0.48943811  0.99141560  0.87831696  1
  O  O335  1  0.98634827  0.49911781  0.37476928  1
  O  O336  1  0.99133245  0.48526541  0.86088959  1
  O  O337  1  0.99305830  0.99715668  0.38246845  1
  O  O338  1  0.99448381  0.98934617  0.86782895  1
  O  O339  1  0.00762958  -0.00527174  0.12462475  1
  O  O340  1  0.00998265  -0.00230653  0.61157483  1
  O  O341  1  0.00175662  0.50208023  0.13165501  1
  O  O342  1  0.01131133  0.50112777  0.62337460  1
  O  O343  1  0.51110263  0.00355160  0.13451657  1
  O  O344  1  0.50284814  0.00481144  0.61790912  1
  O  O345  1  0.50080567  0.50722758  0.11855906  1
  O  O346  1  0.50419673  0.51582061  0.62722710  1
  O  O347  1  0.24989116  0.38995168  0.25403348  1
  O  O348  1  0.24842801  0.39761847  0.75731368  1
  O  O349  1  0.24691913  0.87457908  0.23976886  1
  O  O350  1  0.23706613  0.87133027  0.73893790  1
  O  O351  1  0.74049522  0.37197733  0.24428938  1
  O  O352  1  0.74158877  0.37937358  0.74878487  1
  O  O353  1  0.74579862  0.88207998  0.24462200  1
  O  O354  1  0.73953160  0.88391081  0.76031232  1
  O  O355  1  0.24157257  0.12527229  0.26446329  1
  O  O356  1  0.24825783  0.11908968  0.75788894  1
  O  O357  1  0.25460274  0.61496253  0.25449483  1
  O  O358  1  0.24416525  0.61123382  0.75321807  1
  O  O359  1  0.75155709  0.11222617  0.24709604  1
  O  O360  1  0.75456054  0.11702740  0.75482860  1
  O  O361  1  0.75669834  0.62343089  0.25458677  1
  O  O362  1  0.75771243  0.61696657  0.75033262  1
  O  O363  1  0.36549365  0.11796826  0.38001500  1
  O  O364  1  0.37064022  0.10912301  0.87820037  1
  O  O365  1  0.36350299  0.62859341  0.36769428  1
  O  O366  1  0.38232616  0.61241765  0.87830585  1
  O  O367  1  0.86917651  0.11038928  0.37759442  1
  O  O368  1  0.86778209  0.12101655  0.86938621  1
  O  O369  1  0.87011344  0.62065300  0.36360744  1
  O  O370  1  0.88649474  0.61109795  0.86750456  1
  O  O371  1  0.14099898  0.37451764  0.13243769  1
  O  O372  1  0.12297035  0.39087739  0.62890873  1
  O  O373  1  0.13230946  0.88133561  0.12949788  1
  O  O374  1  0.13110347  0.88523020  0.62958362  1
  O  O375  1  0.62679606  0.37261731  0.13396464  1
  O  O376  1  0.62517995  0.37625851  0.63564385  1
  O  O377  1  0.62775515  0.87796400  0.12903824  1
  O  O378  1  0.61930718  0.88074626  0.63702661  1
  O  O379  1  0.11229345  0.25063171  0.26008102  1
  O  O380  1  0.11904918  0.25056856  0.75428430  1
  O  O381  1  0.12096356  0.75770528  0.25813504  1
  O  O382  1  0.11829282  0.75906261  0.74990269  1
  O  O383  1  0.61733333  0.25818895  0.25807810  1
  O  O384  1  0.61677646  0.25587004  0.74902262  1
  O  O385  1  0.62335213  0.75404185  0.25748261  1
  O  O386  1  0.62960980  0.75528713  0.76154428  1
  O  O387  1  0.38598463  0.25154296  0.24997280  1
  O  O388  1  0.38170733  0.25632001  0.73834659  1
  O  O389  1  0.37520696  0.73481875  0.24668292  1
  O  O390  1  0.38632450  0.79156361  0.73997253  1
  O  O391  1  0.88719167  0.24309742  0.25471774  1
  O  O392  1  0.88087327  0.24625246  0.74153573  1
  O  O393  1  0.87913881  0.74141855  0.24533495  1
  O  O394  1  0.88085021  0.74110184  0.75441660  1
  O  O395  1  0.36472111  0.48521273  0.50491240  1
  O  O396  1  0.38115237  0.49833863  0.99041444  1
  O  O397  1  0.38726571  1.00600578  0.48947701  1
  O  O398  1  0.37286129  0.98435637  0.99642736  1
  O  O399  1  0.87049829  0.49176637  0.49291975  1
  O  O400  1  0.86828765  0.48853453  0.98567333  1
  O  O401  1  0.87978284  0.99649008  0.49473279  1
  O  O402  1  0.88311578  0.99891495  0.99901662  1
  O  O403  1  0.12659050  0.00568768  0.01197721  1
  O  O404  1  0.11688086  0.00817532  0.50278715  1
  O  O405  1  0.13027199  0.49660532  -0.00127393  1
  O  O406  1  0.12581949  0.49546178  0.51187937  1
  O  O407  1  0.63365812  0.00426430  0.01147502  1
  O  O408  1  0.61720573  0.00494093  0.50474118  1
  O  O409  1  0.62011821  0.50891350  -0.00430366  1
  O  O410  1  0.63274208  0.51381618  0.49798934  1
  O  O411  1  0.35871507  0.37483855  0.12531218  1
  O  O412  1  0.38607263  0.36393322  0.61438373  1
  O  O413  1  0.36848171  0.87214710  0.12103990  1
  O  O414  1  0.35755691  0.89482570  0.61181126  1
  O  O415  1  0.86504953  0.37932698  0.11343036  1
  O  O416  1  0.87352901  0.36507322  0.61780507  1
  O  O417  1  0.87068940  0.86687385  0.11903248  1
  O  O418  1  0.87610791  0.88335170  0.61243092  1
  O  O419  1  0.13163354  0.13009769  0.38657742  1
  O  O420  1  0.13701381  0.12689071  0.87827653  1
  O  O421  1  0.13565059  0.63626777  0.36879637  1
  O  O422  1  0.08264272  0.63828566  0.89069699  1
  O  O423  1  0.62497554  0.12813599  0.38461099  1
  O  O424  1  0.63021632  0.12014339  0.88113556  1
  O  O425  1  0.62676731  0.62948454  0.38378378  1
  O  O426  1  0.62058396  0.63645322  0.88407010  1
