# generated using pymatgen
data_V85Zn86O256
_symmetry_space_group_name_H-M   'P 1'
_cell_length_a   16.96244823
_cell_length_b   16.94707191
_cell_length_c   16.95674358
_cell_angle_alpha   90.07554667
_cell_angle_beta   89.95660584
_cell_angle_gamma   89.99165865
_symmetry_Int_Tables_number   1
_chemical_formula_structural   V85Zn86O256
_chemical_formula_sum   'V85 Zn86 O256'
_cell_volume   4874.44476522
_cell_formula_units_Z   1
loop_
 _symmetry_equiv_pos_site_id
 _symmetry_equiv_pos_as_xyz
  1  'x, y, z'
loop_
 _atom_site_type_symbol
 _atom_site_label
 _atom_site_symmetry_multiplicity
 _atom_site_fract_x
 _atom_site_fract_y
 _atom_site_fract_z
 _atom_site_occupancy
  V  V0  1  -0.00103355  0.87266926  0.37881646  1
  V  V1  1  0.24469938  0.39053051  0.62606174  1
  V  V2  1  0.61400920  -0.00664977  0.62675717  1
  V  V3  1  0.24783289  0.87133771  0.62092786  1
  V  V4  1  0.62115633  0.50117782  0.12176331  1
  V  V5  1  -0.00170932  0.23829763  0.25021975  1
  V  V6  1  0.50091931  0.87220602  0.87216901  1
  V  V7  1  0.87235152  0.61934462  0.25144703  1
  V  V8  1  -0.00358192  -0.00181063  0.50307225  1
  V  V9  1  0.13480950  0.12742438  0.00411260  1
  V  V10  1  0.00013432  0.49964421  0.50216819  1
  V  V11  1  0.62327580  0.13637829  0.51113272  1
  V  V12  1  0.37370346  0.75041078  0.12551061  1
  V  V13  1  0.85141498  0.78759842  0.14561015  1
  V  V14  1  0.37932199  0.12582694  0.74237853  1
  V  V15  1  -0.01053730  0.89112246  0.88443406  1
  V  V16  1  0.50443781  0.50028187  0.49533983  1
  V  V17  1  0.49699674  0.62305645  0.12420821  1
  V  V18  1  0.12493418  0.00629874  0.12319623  1
  V  V19  1  0.75396047  0.37340783  0.61772053  1
  V  V20  1  0.50632945  0.12789730  0.13038517  1
  V  V21  1  0.12684773  0.38793440  0.74739045  1
  V  V22  1  0.24820636  0.87519526  0.12395233  1
  V  V23  1  0.12680455  0.36947481  0.24421864  1
  V  V24  1  0.62719306  0.50137372  0.62177401  1
  V  V25  1  0.87364101  0.37278408  -0.00237769  1
  V  V26  1  0.37189560  0.87457603  -0.00013995  1
  V  V27  1  0.24991629  0.61164135  0.87029212  1
  V  V28  1  0.24862956  0.00102663  0.74964359  1
  V  V29  1  0.12298597  0.75011074  0.87754334  1
  V  V30  1  -0.00144451  0.49880414  0.00436232  1
  V  V31  1  0.13090121  0.73914437  0.38234080  1
  V  V32  1  0.37719197  0.37181070  0.50081793  1
  V  V33  1  0.62260529  0.62408421  -0.00117191  1
  V  V34  1  0.75628882  -0.00713042  0.74173969  1
  V  V35  1  0.61101859  0.36670464  0.24781557  1
  V  V36  1  0.75531163  0.76165219  0.00283417  1
  V  V37  1  0.24911860  0.74873581  -0.00147765  1
  V  V38  1  -0.00696027  0.74360057  0.75509133  1
  V  V39  1  0.24760369  0.12960531  0.37702242  1
  V  V40  1  0.75464531  0.62611102  0.87603057  1
  V  V41  1  0.39332400  0.38295272  0.00100555  1
  V  V42  1  0.38142253  0.13082676  0.25470466  1
  V  V43  1  0.37534884  0.25484981  0.12876447  1
  V  V44  1  0.36311713  0.50468002  0.37774740  1
  V  V45  1  0.36659543  0.62690741  0.25567485  1
  V  V46  1  0.00129179  0.62141233  0.62509108  1
  V  V47  1  0.87452624  0.50205423  0.87307043  1
  V  V48  1  0.50050321  0.24872880  0.74516018  1
  V  V49  1  0.75163752  0.74212859  0.49919690  1
  V  V50  1  0.12100589  0.12930759  0.49433663  1
  V  V51  1  -0.00001377  0.36608807  0.37961455  1
  V  V52  1  0.12482213  0.62361188  0.00290646  1
  V  V53  1  0.86666559  0.87411768  0.50651705  1
  V  V54  1  0.74660034  0.49812399  0.25766211  1
  V  V55  1  0.25427330  0.26651022  0.00111460  1
  V  V56  1  0.24430934  0.25229989  0.50136653  1
  V  V57  1  0.49931038  -0.00058125  0.00627287  1
  V  V58  1  0.62879216  0.75780807  0.37391303  1
  V  V59  1  0.12532050  0.25139027  0.87387098  1
  V  V60  1  0.86345059  0.00310608  0.36567528  1
  V  V61  1  0.37408058  0.00114357  0.87602797  1
  V  V62  1  -0.00249981  0.25252938  0.75157531  1
  V  V63  1  0.75167189  0.11897526  0.87020856  1
  V  V64  1  0.62307467  0.12073221  -0.00016287  1
  V  V65  1  0.37578788  -0.00095804  0.37700192  1
  V  V66  1  0.12394858  0.87413706  0.25253984  1
  V  V67  1  0.50441127  0.75747182  0.25169311  1
  V  V68  1  -0.00080319  0.12516038  0.62637357  1
  V  V69  1  0.62936969  0.62011598  0.48915448  1
  V  V70  1  0.39315250  0.49474872  0.87028442  1
  V  V71  1  -0.00394726  0.62824746  0.12584958  1
  V  V72  1  0.25317859  0.12877438  0.87327389  1
  V  V73  1  0.25083314  0.00400356  0.25215917  1
  V  V74  1  0.61978925  0.37783800  0.75384266  1
  V  V75  1  0.37808240  0.74847568  0.62675365  1
  V  V76  1  0.87562785  0.49215976  0.37775384  1
  V  V77  1  0.12152619  0.87492621  0.75128286  1
  V  V78  1  0.75278729  0.50325341  0.74974048  1
  V  V79  1  0.87203459  0.25389602  0.61320154  1
  V  V80  1  -0.03053965  0.10939613  0.09139893  1
  V  V81  1  0.74732515  0.37485900  0.12221958  1
  V  V82  1  0.87034043  0.74557689  0.62964005  1
  V  V83  1  0.87385523  0.24867841  0.12776287  1
  V  V84  1  0.62000984  0.25202499  0.87456311  1
  Zn  Zn85  1  0.12372092  0.00019560  0.62487749  1
  Zn  Zn86  1  0.00117115  0.74539552  0.25193098  1
  Zn  Zn87  1  0.49563414  0.00323184  0.50596505  1
  Zn  Zn88  1  0.71330320  0.91024821  0.15493169  1
  Zn  Zn89  1  0.37645649  0.87320941  0.49926197  1
  Zn  Zn90  1  0.13526935  0.49293702  0.12246757  1
  Zn  Zn91  1  0.24815384  0.49723388  0.24638931  1
  Zn  Zn92  1  0.25114916  0.73348127  0.49831264  1
  Zn  Zn93  1  0.37473293  0.24987718  0.62528371  1
  Zn  Zn94  1  0.87632818  0.12233213  0.75040308  1
  Zn  Zn95  1  0.00072415  0.37388049  0.87572613  1
  Zn  Zn96  1  0.50282538  0.87853529  0.37779262  1
  Zn  Zn97  1  0.49561222  0.36809638  0.36845423  1
  Zn  Zn98  1  0.61818533  0.24106748  0.36843840  1
  Zn  Zn99  1  0.50420204  0.74615525  0.75012659  1
  Zn  Zn100  1  0.62710872  0.75050414  0.87242759  1
  Zn  Zn101  1  0.50412713  0.62712186  0.62700026  1
  Zn  Zn102  1  0.74849660  0.24901728  -0.00353316  1
  Zn  Zn103  1  0.37657561  0.61925411  0.74856560  1
  Zn  Zn104  1  0.16050822  0.57383273  0.54820302  1
  Zn  Zn105  1  0.63052432  0.86916127  0.74735808  1
  Zn  Zn106  1  0.74933889  0.13546165  0.38531525  1
  Zn  Zn107  1  0.19135184  0.19450893  0.18904236  1
  Zn  Zn108  1  0.18591099  0.19312045  0.68459886  1
  Zn  Zn109  1  0.18401386  0.68560342  0.18748027  1
  Zn  Zn110  1  0.18763483  0.68943505  0.69205803  1
  Zn  Zn111  1  0.70007009  0.08043137  0.20494060  1
  Zn  Zn112  1  0.68697128  0.18563430  0.68434177  1
  Zn  Zn113  1  0.68730877  0.68562417  0.19032389  1
  Zn  Zn114  1  0.68680157  0.68621184  0.68587948  1
  Zn  Zn115  1  0.31199581  0.31110287  0.31780994  1
  Zn  Zn116  1  0.31314928  0.31897821  0.81184588  1
  Zn  Zn117  1  0.31131025  0.81337765  0.31186360  1
  Zn  Zn118  1  0.31125367  0.81013257  0.81071979  1
  Zn  Zn119  1  0.77603680  0.26282383  0.27504285  1
  Zn  Zn120  1  0.80879385  0.31128846  0.80875187  1
  Zn  Zn121  1  0.81269762  0.81088564  0.31848082  1
  Zn  Zn122  1  0.81610615  0.81531416  0.81719559  1
  Zn  Zn123  1  0.18314868  0.43021294  0.43080953  1
  Zn  Zn124  1  0.18529675  0.43691987  0.93672191  1
  Zn  Zn125  1  0.18551648  0.93975578  0.43933835  1
  Zn  Zn126  1  0.18202156  0.93934089  0.93698949  1
  Zn  Zn127  1  0.72289056  0.37770662  0.40937963  1
  Zn  Zn128  1  0.68411235  0.43829271  0.93733021  1
  Zn  Zn129  1  0.68734511  0.93760928  0.44523611  1
  Zn  Zn130  1  0.68518095  0.93897110  0.93614962  1
  Zn  Zn131  1  0.31455169  0.06595493  0.06642191  1
  Zn  Zn132  1  0.30857747  0.06143102  0.56343048  1
  Zn  Zn133  1  0.31123100  0.55783522  0.06207062  1
  Zn  Zn134  1  0.32386285  0.56486362  0.56133037  1
  Zn  Zn135  1  0.80889706  0.06164121  0.05573565  1
  Zn  Zn136  1  0.80908264  0.06453086  0.56332931  1
  Zn  Zn137  1  0.81010397  0.56369201  0.06406909  1
  Zn  Zn138  1  0.81568475  0.56265731  0.56082550  1
  Zn  Zn139  1  0.43016279  0.44360756  0.18334383  1
  Zn  Zn140  1  0.43984768  0.43728744  0.68512626  1
  Zn  Zn141  1  0.54806925  0.94135351  0.19052514  1
  Zn  Zn142  1  0.43387146  0.93373989  0.68892140  1
  Zn  Zn143  1  0.93881988  0.43260653  0.18998206  1
  Zn  Zn144  1  0.93754815  0.43630141  0.68831596  1
  Zn  Zn145  1  0.93983906  0.94176580  0.19113051  1
  Zn  Zn146  1  0.93625787  0.93303714  0.68962815  1
  Zn  Zn147  1  0.05921984  0.05841916  0.31624700  1
  Zn  Zn148  1  0.06477079  0.06500093  0.81279439  1
  Zn  Zn149  1  0.06132667  0.55594481  0.31071464  1
  Zn  Zn150  1  0.05847444  0.56532711  0.81522781  1
  Zn  Zn151  1  0.56386042  0.06651394  0.32214807  1
  Zn  Zn152  1  0.56262754  0.06020580  0.81081316  1
  Zn  Zn153  1  0.55751571  0.56265435  0.31179172  1
  Zn  Zn154  1  0.56499303  0.56654197  0.81029167  1
  Zn  Zn155  1  0.44603450  0.18785213  0.44161489  1
  Zn  Zn156  1  0.43902005  0.19094315  0.93468458  1
  Zn  Zn157  1  0.43876557  0.68858307  0.44002603  1
  Zn  Zn158  1  0.43676871  0.68415758  0.93616181  1
  Zn  Zn159  1  0.93420595  0.18665502  0.43691972  1
  Zn  Zn160  1  0.93491473  0.17831759  0.93730661  1
  Zn  Zn161  1  0.93951179  0.68145135  0.43716019  1
  Zn  Zn162  1  0.93279164  0.69351155  0.94376854  1
  Zn  Zn163  1  0.05881978  0.30551071  0.06485774  1
  Zn  Zn164  1  0.06165057  0.31443413  0.56343226  1
  Zn  Zn165  1  0.05507237  0.81435149  0.06442915  1
  Zn  Zn166  1  0.05970665  0.80748396  0.56395148  1
  Zn  Zn167  1  0.56207017  0.30702281  0.06487785  1
  Zn  Zn168  1  0.56073684  0.31754227  0.56719162  1
  Zn  Zn169  1  0.56329823  0.80663116  0.05636162  1
  Zn  Zn170  1  0.56123299  0.81633751  0.55935190  1
  O  O171  1  0.13602241  0.11788355  0.11870756  1
  O  O172  1  0.11243019  0.12641715  0.61768201  1
  O  O173  1  0.11509766  0.62048809  0.11927429  1
  O  O174  1  0.10896529  0.62719097  0.63457848  1
  O  O175  1  0.61005112  0.13139669  0.11466306  1
  O  O176  1  0.62802168  0.11117560  0.61968973  1
  O  O177  1  0.61853684  0.61950312  0.11909756  1
  O  O178  1  0.62603916  0.61661044  0.61323524  1
  O  O179  1  0.37468018  0.38253844  0.38651839  1
  O  O180  1  0.37452961  0.38722391  0.88515142  1
  O  O181  1  0.36938370  0.88758923  0.37693180  1
  O  O182  1  0.37767510  0.88045116  0.88092199  1
  O  O183  1  0.89066723  0.38768001  0.36890208  1
  O  O184  1  0.87346289  0.37984587  0.88494249  1
  O  O185  1  0.88241263  0.88028836  0.38474300  1
  O  O186  1  0.89028195  0.87435206  0.88045759  1
  O  O187  1  0.25344249  0.00893563  0.37212922  1
  O  O188  1  0.25437667  0.00693901  0.86965483  1
  O  O189  1  0.26035015  0.49413479  0.37089599  1
  O  O190  1  0.25522333  0.50984581  0.88014822  1
  O  O191  1  0.76262216  -0.00789104  0.37740782  1
  O  O192  1  0.74226562  0.01314018  0.86527070  1
  O  O193  1  0.75919777  0.48333535  0.36302549  1
  O  O194  1  0.75599008  0.50591798  0.87119078  1
  O  O195  1  0.24867507  0.50087391  0.13200597  1
  O  O196  1  0.24645318  0.49145044  0.61681471  1
  O  O197  1  0.24326531  0.99629467  0.13215085  1
  O  O198  1  0.24586041  0.99164294  0.63345306  1
  O  O199  1  0.74310598  0.49088525  0.13044791  1
  O  O200  1  0.74969338  0.49751776  0.63490443  1
  O  O201  1  0.74621412  1.01149803  0.12730658  1
  O  O202  1  0.74308345  1.00091418  0.63928024  1
  O  O203  1  0.00664090  0.36664151  0.25792164  1
  O  O204  1  0.00705554  0.36786669  0.75283351  1
  O  O205  1  0.00841961  0.87369507  0.26057573  1
  O  O206  1  0.00571012  0.86576810  0.75858323  1
  O  O207  1  0.50831098  0.38360747  0.24334153  1
  O  O208  1  0.51342011  0.37034535  0.74821080  1
  O  O209  1  0.49295939  0.85986261  0.25545995  1
  O  O210  1  0.49830263  0.87543002  0.76464994  1
  O  O211  1  0.48781553  0.12323427  0.24383610  1
  O  O212  1  0.48992824  0.13347829  0.75640401  1
  O  O213  1  0.49050903  0.63346617  0.24236027  1
  O  O214  1  0.49619316  0.62764443  0.74642338  1
  O  O215  1  1.00161474  0.13808815  0.25867312  1
  O  O216  1  1.00002560  0.13240654  0.74260023  1
  O  O217  1  0.99386405  0.62107850  0.24045540  1
  O  O218  1  0.99873413  0.63719283  0.74822341  1
  O  O219  1  0.37247900  0.26273376  0.00133361  1
  O  O220  1  0.36888255  0.25795102  0.50377103  1
  O  O221  1  0.36769888  0.75312409  0.00442148  1
  O  O222  1  0.37071196  0.75172111  0.51143003  1
  O  O223  1  0.87429043  0.25758983  0.00733085  1
  O  O224  1  0.87813340  0.24981625  0.51414068  1
  O  O225  1  0.85885577  0.74669597  0.01602141  1
  O  O226  1  0.86926450  0.75153562  0.50349350  1
  O  O227  1  0.13092951  0.24142590  0.50396026  1
  O  O228  1  0.13894176  0.25165584  0.99588696  1
  O  O229  1  0.12515990  0.75175164  0.48617257  1
  O  O230  1  0.12887139  0.74301427  0.99632806  1
  O  O231  1  0.62257669  0.23790607  0.51478641  1
  O  O232  1  0.62396056  0.24009573  0.99173406  1
  O  O233  1  0.63298362  0.74210197  0.49529217  1
  O  O234  1  0.63691517  0.73986786  0.99523995  1
  O  O235  1  0.48543042  0.24039463  0.11980534  1
  O  O236  1  0.49472075  0.25548715  0.64078817  1
  O  O237  1  0.49458700  0.74024213  0.13155100  1
  O  O238  1  0.49109502  0.75187574  0.62628519  1
  O  O239  1  0.99033383  0.23223035  0.12766733  1
  O  O240  1  0.99348570  0.24504167  0.63226868  1
  O  O241  1  1.00019258  0.73502153  0.12716372  1
  O  O242  1  0.99341254  0.74270959  0.63481332  1
  O  O243  1  -0.01059071  0.26015131  0.36752909  1
  O  O244  1  0.00483244  0.24884751  0.86784711  1
  O  O245  1  0.00630171  0.76004768  0.37536754  1
  O  O246  1  0.00427461  0.75127082  0.87092285  1
  O  O247  1  0.50551365  0.25563038  0.37632527  1
  O  O248  1  0.51276424  0.24776764  0.86498780  1
  O  O249  1  0.50895909  0.75045618  0.36834199  1
  O  O250  1  0.49980406  0.75916800  0.87614945  1
  O  O251  1  0.23977787  0.13195187  0.49905813  1
  O  O252  1  0.24842668  0.13547619  0.99401438  1
  O  O253  1  0.24791453  0.62005286  0.50080730  1
  O  O254  1  0.24614061  0.63021361  0.99093626  1
  O  O255  1  0.73278747  0.12037529  0.50113200  1
  O  O256  1  0.73873717  0.12741102  0.98587249  1
  O  O257  1  0.74279982  0.62998865  0.49980283  1
  O  O258  1  0.74104696  0.62855141  0.99458850  1
  O  O259  1  0.25892495  0.36852504  -0.00410645  1
  O  O260  1  0.25336851  0.36908312  0.50420441  1
  O  O261  1  0.25042429  0.86914560  0.00328337  1
  O  O262  1  0.24580255  0.87565696  0.51519671  1
  O  O263  1  0.75615049  0.37373538  0.00374456  1
  O  O264  1  0.74747648  0.38562006  0.51950890  1
  O  O265  1  0.74485724  0.86209720  -0.00126688  1
  O  O266  1  0.76233596  0.86450743  0.50026379  1
  O  O267  1  0.12488783  0.48416556  0.24810697  1
  O  O268  1  0.11843616  0.48682457  0.75801085  1
  O  O269  1  0.12948078  0.99238483  0.24615680  1
  O  O270  1  0.13055608  0.99211164  0.74802910  1
  O  O271  1  0.63045615  0.50163060  0.23771435  1
  O  O272  1  0.63224201  0.49418560  0.74557243  1
  O  O273  1  0.62016096  1.00764874  0.24614319  1
  O  O274  1  0.63283402  0.99879464  0.74047275  1
  O  O275  1  0.36277459  0.01538433  0.26136874  1
  O  O276  1  0.36898785  0.00768249  0.75616174  1
  O  O277  1  0.37410479  0.50880456  0.26020721  1
  O  O278  1  0.37901499  0.49599907  0.76585850  1
  O  O279  1  0.87807164  -0.00204348  0.26751154  1
  O  O280  1  0.86070399  0.00251503  0.74388545  1
  O  O281  1  0.86696978  0.50057806  0.25407375  1
  O  O282  1  0.86916437  0.49433288  0.76576350  1
  O  O283  1  0.10699264  0.37326907  0.36375843  1
  O  O284  1  0.12379806  0.36709728  0.86799314  1
  O  O285  1  0.11730471  0.87217889  0.36949360  1
  O  O286  1  0.12253021  0.87094861  0.86320518  1
  O  O287  1  0.61853864  0.38584114  0.35227007  1
  O  O288  1  0.63156542  0.36593352  0.86618911  1
  O  O289  1  0.62571425  0.86180342  0.38031058  1
  O  O290  1  0.61345896  0.87332411  0.87429882  1
  O  O291  1  0.38183166  0.13287842  0.13400031  1
  O  O292  1  0.36759574  0.12675158  0.63944459  1
  O  O293  1  0.38213221  0.63037358  0.12852028  1
  O  O294  1  0.38043875  0.63378268  0.63018281  1
  O  O295  1  0.87152928  0.13930583  0.13475187  1
  O  O296  1  0.88495354  0.13245352  0.62679575  1
  O  O297  1  0.88237384  0.61767837  0.13639829  1
  O  O298  1  0.88548578  0.63714902  0.62278665  1
  O  O299  1  0.26515598  0.24637474  0.11300839  1
  O  O300  1  0.25250761  0.25756037  0.61411728  1
  O  O301  1  0.25118855  0.75368040  0.11724312  1
  O  O302  1  0.25476402  0.75623249  0.62443822  1
  O  O303  1  0.75771849  0.26674711  0.12058216  1
  O  O304  1  0.76176858  0.25972994  0.63679693  1
  O  O305  1  0.75079253  0.74315135  0.11205559  1
  O  O306  1  0.75915913  0.74307201  0.61351336  1
  O  O307  1  0.25275367  0.24337394  0.39180064  1
  O  O308  1  0.24734926  0.24729294  0.88167673  1
  O  O309  1  0.23411710  0.75586782  0.37711947  1
  O  O310  1  0.24401764  0.74350770  0.88241189  1
  O  O311  1  0.73270548  0.26766748  0.38108718  1
  O  O312  1  0.73722434  0.23928190  0.87084649  1
  O  O313  1  0.74427010  0.74998253  0.38734147  1
  O  O314  1  0.75413102  0.74263869  0.88656227  1
  O  O315  1  0.02968146  0.14834174  0.00295308  1
  O  O316  1  0.00472908  0.12130178  0.50632964  1
  O  O317  1  0.00191585  0.61802057  0.00597300  1
  O  O318  1  0.00071368  0.61465125  0.51063677  1
  O  O319  1  0.50281041  0.11881569  0.00398288  1
  O  O320  1  0.51452539  0.11893036  0.50536137  1
  O  O321  1  0.51402433  0.63268900  0.00792680  1
  O  O322  1  0.50834655  0.61632197  0.50211106  1
  O  O323  1  0.49143868  0.38218754  0.50073146  1
  O  O324  1  0.49143025  0.37372935  0.99915006  1
  O  O325  1  0.49451620  0.88362282  0.49568938  1
  O  O326  1  0.49260327  0.88196264  0.99206397  1
  O  O327  1  1.00056483  0.37652942  0.48617127  1
  O  O328  1  0.99184411  0.38084200  0.99931772  1
  O  O329  1  0.99253387  0.87689442  0.49543384  1
  O  O330  1  1.01552275  0.87828456  0.98115862  1
  O  O331  1  0.49158446  0.49679475  0.38477855  1
  O  O332  1  0.49102803  0.50371810  0.87749970  1
  O  O333  1  0.48461525  0.99990013  0.37527029  1
  O  O334  1  0.49256398  0.99494108  0.88454476  1
  O  O335  1  0.99456378  0.49102282  0.38102386  1
  O  O336  1  0.99039438  0.50027523  0.88683860  1
  O  O337  1  0.99255101  0.98813517  0.38361303  1
  O  O338  1  1.00099442  0.99022583  0.86825840  1
  O  O339  1  0.01061584  0.01879308  0.13519162  1
  O  O340  1  -0.00066560  0.00840888  0.62245597  1
  O  O341  1  -0.00242939  0.50540899  0.11351182  1
  O  O342  1  -0.00998515  0.50822031  0.61662935  1
  O  O343  1  0.49162494  0.01050219  0.11144452  1
  O  O344  1  0.51083807  -0.00128366  0.63188321  1
  O  O345  1  0.50605937  0.51486619  0.12765140  1
  O  O346  1  0.50734176  0.49871878  0.61227925  1
  O  O347  1  0.22950154  0.36717468  0.25901647  1
  O  O348  1  0.24004235  0.37021024  0.73833225  1
  O  O349  1  0.24159523  0.88191541  0.24382348  1
  O  O350  1  0.24078260  0.87838556  0.74271323  1
  O  O351  1  0.73608685  0.38044597  0.23687680  1
  O  O352  1  0.74186322  0.38704240  0.74682110  1
  O  O353  1  0.78854279  0.84970321  0.21515437  1
  O  O354  1  0.74865121  0.89074855  0.76118584  1
  O  O355  1  0.25426361  0.12457984  0.25880058  1
  O  O356  1  0.25373087  0.12291111  0.75526103  1
  O  O357  1  0.26399971  0.62881849  0.24770074  1
  O  O358  1  0.25330383  0.62968251  0.76757297  1
  O  O359  1  0.74743382  0.15223331  0.27208809  1
  O  O360  1  0.74820067  0.11503580  0.75747720  1
  O  O361  1  0.75836235  0.60969681  0.24513043  1
  O  O362  1  0.74587811  0.61162515  0.76014491  1
  O  O363  1  0.36908239  0.12271022  0.37061789  1
  O  O364  1  0.36923030  0.12152774  0.86782939  1
  O  O365  1  0.38093576  0.61717727  0.36705171  1
  O  O366  1  0.36728195  0.60978938  0.87793070  1
  O  O367  1  0.87114937  0.10571033  0.38814536  1
  O  O368  1  0.85459993  0.13260080  0.86821228  1
  O  O369  1  0.88436472  0.61120249  0.35947922  1
  O  O370  1  0.86291034  0.61688171  0.88417931  1
  O  O371  1  0.11402470  0.37474418  0.13909980  1
  O  O372  1  0.13204572  0.37179159  0.63502345  1
  O  O373  1  0.12557895  0.88446324  0.13264649  1
  O  O374  1  0.12724943  0.87201123  0.63708459  1
  O  O375  1  0.62779346  0.38270119  0.12645163  1
  O  O376  1  0.63298287  0.38235917  0.63498242  1
  O  O377  1  0.61382038  0.87150072  0.12954268  1
  O  O378  1  0.62472821  0.88839711  0.62849626  1
  O  O379  1  0.11218395  0.25834832  0.24324484  1
  O  O380  1  0.11405277  0.25440143  0.75503509  1
  O  O381  1  0.12372526  0.76179895  0.25654404  1
  O  O382  1  0.11648402  0.75705462  0.75875295  1
  O  O383  1  0.61909478  0.26877127  0.24283339  1
  O  O384  1  0.61941596  0.25623741  0.75388080  1
  O  O385  1  0.61731041  0.74034219  0.26226297  1
  O  O386  1  0.62486823  0.75235438  0.75411950  1
  O  O387  1  0.36671208  0.24349565  0.24107128  1
  O  O388  1  0.38260964  0.24418392  0.75303939  1
  O  O389  1  0.38054452  0.74488688  0.24525252  1
  O  O390  1  0.37571310  0.74957270  0.73783750  1
  O  O391  1  0.88500716  0.26849890  0.23265264  1
  O  O392  1  0.88785509  0.24990694  0.74668438  1
  O  O393  1  0.87993582  0.73692810  0.24539699  1
  O  O394  1  0.88110791  0.75491761  0.74258628  1
  O  O395  1  0.38389405  0.49282041  0.49339167  1
  O  O396  1  0.37680852  0.48819709  0.99227539  1
  O  O397  1  0.37207079  1.00172278  0.49037700  1
  O  O398  1  0.37881806  0.99608550  0.99536023  1
  O  O399  1  0.88446126  0.50487078  0.48778903  1
  O  O400  1  0.87794644  0.49301020  0.99260652  1
  O  O401  1  0.87872862  0.98871433  0.50242052  1
  O  O402  1  0.91043739  1.07094396  1.00960313  1
  O  O403  1  0.13266756  0.01242421  0.01262302  1
  O  O404  1  0.11504485  0.00786263  0.50442932  1
  O  O405  1  0.11426740  0.50396753  0.00056794  1
  O  O406  1  0.10733725  0.48994296  0.49522019  1
  O  O407  1  0.61374606  0.01269514  -0.00679327  1
  O  O408  1  0.62408767  0.00100447  0.51726657  1
  O  O409  1  0.63022654  0.50753115  0.01331984  1
  O  O410  1  0.61782226  0.50637005  0.50242332  1
  O  O411  1  0.37969483  0.36962825  0.11089836  1
  O  O412  1  0.36602649  0.37726590  0.61417053  1
  O  O413  1  0.36294846  0.86541130  0.11503676  1
  O  O414  1  0.36351520  0.86845172  0.62502190  1
  O  O415  1  0.86835916  0.37527973  0.11284454  1
  O  O416  1  0.86652089  0.36591288  0.63204540  1
  O  O417  1  0.90694255  0.86571671  0.11296416  1
  O  O418  1  0.88331674  0.85899257  0.61626940  1
  O  O419  1  0.12852367  0.11984986  0.38796314  1
  O  O420  1  0.13503759  0.13141914  0.88128607  1
  O  O421  1  0.11745379  0.64189460  0.36559475  1
  O  O422  1  0.13391875  0.62738813  0.88189153  1
  O  O423  1  0.62588271  0.12527880  0.39683606  1
  O  O424  1  0.62981675  0.13079285  0.87950907  1
  O  O425  1  0.62024502  0.63106490  0.38560201  1
  O  O426  1  0.63677170  0.62332297  0.88360606  1
