# generated using pymatgen
data_V85Zn86O256
_symmetry_space_group_name_H-M   'P 1'
_cell_length_a   16.92114002
_cell_length_b   16.92400297
_cell_length_c   16.91520262
_cell_angle_alpha   89.93090398
_cell_angle_beta   89.93182223
_cell_angle_gamma   90.01877466
_symmetry_Int_Tables_number   1
_chemical_formula_structural   V85Zn86O256
_chemical_formula_sum   'V85 Zn86 O256'
_cell_volume   4844.05727480
_cell_formula_units_Z   1
loop_
 _symmetry_equiv_pos_site_id
 _symmetry_equiv_pos_as_xyz
  1  'x, y, z'
loop_
 _atom_site_type_symbol
 _atom_site_label
 _atom_site_symmetry_multiplicity
 _atom_site_fract_x
 _atom_site_fract_y
 _atom_site_fract_z
 _atom_site_occupancy
  V  V0  1  0.12916661  0.24878130  0.88036245  1
  V  V1  1  0.62805015  0.25258652  0.86534295  1
  V  V2  1  0.12267815  0.74662651  0.38001646  1
  V  V3  1  0.50024814  -0.00403298  0.49935054  1
  V  V4  1  0.49909181  0.37509208  0.38118444  1
  V  V5  1  0.74805214  0.87912551  0.13403643  1
  V  V6  1  0.75472652  0.24850444  0.49921358  1
  V  V7  1  0.37558770  0.25037087  0.62192017  1
  V  V8  1  0.24927029  -0.00073683  0.25140369  1
  V  V9  1  0.74517714  0.37365984  0.62685187  1
  V  V10  1  0.50031139  0.62731855  0.12652427  1
  V  V11  1  0.76736473  0.50637410  0.24922885  1
  V  V12  1  0.50224385  0.75805222  0.24960056  1
  V  V13  1  0.24797613  0.74400911  0.50128795  1
  V  V14  1  0.50745724  0.37968621  0.87179708  1
  V  V15  1  0.62727416  0.38927525  0.24862289  1
  V  V16  1  0.25546556  0.37511143  0.62470873  1
  V  V17  1  0.25012122  0.87496176  0.62604661  1
  V  V18  1  0.12378607  0.25284410  0.37414223  1
  V  V19  1  0.00208792  0.50430548  0.49149025  1
  V  V20  1  0.25047490  0.86998176  0.12780212  1
  V  V21  1  0.75440687  0.37949169  0.12115899  1
  V  V22  1  0.37853876  0.12687369  0.24531927  1
  V  V23  1  -0.00645887  -0.01787553  0.49847802  1
  V  V24  1  0.75525614  0.74859160  0.50019180  1
  V  V25  1  0.12089896  0.87246364  0.25647449  1
  V  V26  1  -0.00055800  0.00979107  0.00840002  1
  V  V27  1  0.25688383  0.12349434  0.87479637  1
  V  V28  1  0.87644005  0.38121500  0.49600372  1
  V  V29  1  -0.00690427  0.74835600  0.25664940  1
  V  V30  1  0.87481014  -0.01575671  0.37123998  1
  V  V31  1  0.00286735  0.62389204  0.62178321  1
  V  V32  1  0.50330138  0.24892869  0.24321510  1
  V  V33  1  -0.00505935  0.62632404  0.12698348  1
  V  V34  1  0.27651375  0.47957412  0.22384506  1
  V  V35  1  0.74503683  0.62998742  0.87236519  1
  V  V36  1  0.62323948  0.12925340  0.00346408  1
  V  V37  1  0.34082473  0.45134385  0.90833567  1
  V  V38  1  0.37451872  0.63332166  0.24897311  1
  V  V39  1  0.62606349  -0.00507439  0.62865400  1
  V  V40  1  0.38033388  0.87041455  0.49838153  1
  V  V41  1  0.62565190  0.12262108  0.50013862  1
  V  V42  1  -0.00180091  0.74745520  0.75143929  1
  V  V43  1  0.25877936  0.50345870  0.75070336  1
  V  V44  1  0.37523562  0.87543578  0.00371827  1
  V  V45  1  -0.00513767  0.37318638  0.88180580  1
  V  V46  1  0.74333310  0.49536935  0.75009082  1
  V  V47  1  -0.00140851  0.87670031  0.87996596  1
  V  V48  1  0.88006837  0.12239138  0.74225415  1
  V  V49  1  -0.00152455  0.24136191  0.24300118  1
  V  V50  1  0.12543608  0.87775187  0.74981616  1
  V  V51  1  0.50239409  0.25594283  0.74344316  1
  V  V52  1  0.75766470  0.61732523  0.38165370  1
  V  V53  1  0.62620911  0.00349198  0.13117517  1
  V  V54  1  0.00200905  0.24915052  0.74351450  1
  V  V55  1  0.75465133  0.11869553  0.36718291  1
  V  V56  1  0.25231762  0.74980204  0.00344572  1
  V  V57  1  0.50553257  0.49753894  -0.00010586  1
  V  V58  1  0.12283071  0.50216109  0.12620908  1
  V  V59  1  0.75036376  0.12223185  0.87151523  1
  V  V60  1  0.75801388  0.87268137  0.62349349  1
  V  V61  1  0.62605024  0.62645236  0.00455658  1
  V  V62  1  0.50458368  0.62361638  0.62093231  1
  V  V63  1  0.12058787  0.00492859  0.62520594  1
  V  V64  1  0.11193060  0.12582280  0.50116268  1
  V  V65  1  0.61903045  0.74727471  0.38413115  1
  V  V66  1  0.50318950  0.74019907  0.76039441  1
  V  V67  1  0.49287253  0.12088223  0.62973667  1
  V  V68  1  0.12502411  0.74813638  0.87655988  1
  V  V69  1  0.37370671  0.74253069  0.63395413  1
  V  V70  1  0.50776562  0.87377819  0.87650785  1
  V  V71  1  0.37333737  0.49154136  0.38240408  1
  V  V72  1  0.38096788  -0.00493563  0.37475183  1
  V  V73  1  0.74456941  0.75407089  -0.00280277  1
  V  V74  1  0.26149941  0.62894226  0.87153511  1
  V  V75  1  0.12436505  0.37698915  0.24592876  1
  V  V76  1  0.62682220  0.24935435  0.37297286  1
  V  V77  1  0.75885607  0.25601920  -0.00264773  1
  V  V78  1  0.49718009  0.00537266  0.00362998  1
  V  V79  1  0.86990674  0.74567702  0.12851543  1
  V  V80  1  0.87286789  0.49716455  0.87966311  1
  V  V81  1  0.24983049  0.12510264  0.37573313  1
  V  V82  1  0.25244597  0.25308598  0.49698077  1
  V  V83  1  0.24765954  0.62050530  0.37623102  1
  V  V84  1  0.12653939  0.50250942  0.62090790  1
  Zn  Zn85  1  -0.00769877  0.49847045  0.00338724  1
  Zn  Zn86  1  0.50172170  0.49986049  0.50183574  1
  Zn  Zn87  1  0.75250559  -0.00527543  0.75165564  1
  Zn  Zn88  1  0.28821635  0.29085287  0.02344746  1
  Zn  Zn89  1  -0.00434037  0.37922044  0.37273683  1
  Zn  Zn90  1  0.88324572  0.24666220  0.62043636  1
  Zn  Zn91  1  0.44181757  0.18353102  0.08264490  1
  Zn  Zn92  1  0.12208126  0.62574658  -0.00070733  1
  Zn  Zn93  1  0.25998838  0.00744101  0.74450381  1
  Zn  Zn94  1  0.87413268  0.62293435  0.74885341  1
  Zn  Zn95  1  0.87891433  0.75151268  0.62047823  1
  Zn  Zn96  1  0.62648394  0.49958321  0.62222225  1
  Zn  Zn97  1  0.62357771  0.88043497  0.25851876  1
  Zn  Zn98  1  0.87394815  0.87687880  0.00194589  1
  Zn  Zn99  1  0.87595781  -0.00008741  0.87512363  1
  Zn  Zn100  1  0.87641118  0.11405842  0.24173582  1
  Zn  Zn101  1  0.62858423  0.86786921  0.75526512  1
  Zn  Zn102  1  0.12837195  0.13191937  0.00866307  1
  Zn  Zn103  1  0.37802458  0.00087642  0.86528039  1
  Zn  Zn104  1  0.12313310  0.37646734  0.74959998  1
  Zn  Zn105  1  0.87964867  0.24755869  0.11821154  1
  Zn  Zn106  1  0.11806024  0.00295648  0.13103801  1
  Zn  Zn107  1  0.18776307  0.18666593  0.17952890  1
  Zn  Zn108  1  0.18558045  0.18658329  0.68994621  1
  Zn  Zn109  1  0.18655367  0.68416201  0.19038874  1
  Zn  Zn110  1  0.18486098  0.68479305  0.68980329  1
  Zn  Zn111  1  0.69104242  0.19087166  0.18469106  1
  Zn  Zn112  1  0.68840372  0.18461425  0.68475511  1
  Zn  Zn113  1  0.68480306  0.68534571  0.19083237  1
  Zn  Zn114  1  0.68525410  0.68769418  0.68841422  1
  Zn  Zn115  1  0.31210520  0.31029805  0.20394963  1
  Zn  Zn116  1  0.31047364  0.30256362  0.80371224  1
  Zn  Zn117  1  0.31206772  0.81124680  0.31506532  1
  Zn  Zn118  1  0.31636979  0.81800213  0.81392239  1
  Zn  Zn119  1  0.81404286  0.31525832  0.31295936  1
  Zn  Zn120  1  0.81651642  0.31221061  0.80896191  1
  Zn  Zn121  1  0.80773034  0.80755166  0.31349491  1
  Zn  Zn122  1  0.81417824  0.81214582  0.81125236  1
  Zn  Zn123  1  0.18838106  0.43525000  0.43581780  1
  Zn  Zn124  1  0.17075151  0.43906371  0.93871190  1
  Zn  Zn125  1  0.18870161  0.93517825  0.43868078  1
  Zn  Zn126  1  0.18506876  0.94213847  0.93742824  1
  Zn  Zn127  1  0.68400711  0.44070486  0.44034038  1
  Zn  Zn128  1  0.68560529  0.43948796  0.93709651  1
  Zn  Zn129  1  0.68980425  0.93192151  0.43882774  1
  Zn  Zn130  1  0.68668915  0.94017023  0.94303706  1
  Zn  Zn131  1  0.30284475  0.05866028  0.06044783  1
  Zn  Zn132  1  0.30998653  0.06325761  0.56133444  1
  Zn  Zn133  1  0.31698405  0.56822244  0.06090376  1
  Zn  Zn134  1  0.31584810  0.56444030  0.56141614  1
  Zn  Zn135  1  0.81454637  0.06440356  0.06263047  1
  Zn  Zn136  1  0.81371014  0.05974134  0.56029266  1
  Zn  Zn137  1  0.81083010  0.56356642  0.06331425  1
  Zn  Zn138  1  0.81602915  0.56267019  0.56285495  1
  Zn  Zn139  1  0.45061224  0.44682222  0.19227028  1
  Zn  Zn140  1  0.43255249  0.43829752  0.69459152  1
  Zn  Zn141  1  0.43736063  0.93889433  0.18348550  1
  Zn  Zn142  1  0.43855145  0.92969821  0.68951598  1
  Zn  Zn143  1  0.93757285  0.43200408  0.18692253  1
  Zn  Zn144  1  0.93256169  0.43563480  0.68851068  1
  Zn  Zn145  1  0.93598275  0.92959215  0.18924374  1
  Zn  Zn146  1  0.93930590  0.93882290  0.68753920  1
  Zn  Zn147  1  0.05963886  0.06035272  0.31678508  1
  Zn  Zn148  1  0.06437983  0.06481653  0.81594342  1
  Zn  Zn149  1  0.06373473  0.56553821  0.30758651  1
  Zn  Zn150  1  0.06625899  0.56104103  0.81126013  1
  Zn  Zn151  1  0.56108269  0.06481197  0.31354605  1
  Zn  Zn152  1  0.56048754  0.06311510  0.81163288  1
  Zn  Zn153  1  0.56371230  0.56775980  0.31857174  1
  Zn  Zn154  1  0.56488384  0.56419898  0.81286833  1
  Zn  Zn155  1  0.43769089  0.18722569  0.43544044  1
  Zn  Zn156  1  0.43340437  0.19348417  0.92217541  1
  Zn  Zn157  1  0.43533873  0.68645395  0.43757573  1
  Zn  Zn158  1  0.43606692  0.68928081  0.94219361  1
  Zn  Zn159  1  0.93564291  0.18582709  0.43088366  1
  Zn  Zn160  1  0.93745752  0.18612322  0.93063673  1
  Zn  Zn161  1  0.93503367  0.68404737  0.43795693  1
  Zn  Zn162  1  0.93140504  0.68612931  0.93996067  1
  Zn  Zn163  1  0.06532402  0.31497938  0.06315448  1
  Zn  Zn164  1  0.06520380  0.31783361  0.56205317  1
  Zn  Zn165  1  0.06291529  0.81417265  0.06584291  1
  Zn  Zn166  1  0.06440315  0.81076297  0.56340651  1
  Zn  Zn167  1  0.57251984  0.32044990  0.05989171  1
  Zn  Zn168  1  0.56636732  0.31419045  0.55905995  1
  Zn  Zn169  1  0.56359007  0.81276499  0.06571569  1
  Zn  Zn170  1  0.56453376  0.80899791  0.56487621  1
  O  O171  1  0.12905145  0.11504036  0.12106627  1
  O  O172  1  0.13042194  0.11284198  0.61614075  1
  O  O173  1  0.11415365  0.62039772  0.12500182  1
  O  O174  1  0.11420795  0.61705167  0.62739228  1
  O  O175  1  0.63282423  0.12067676  0.11117299  1
  O  O176  1  0.61832847  0.11608440  0.61850550  1
  O  O177  1  0.61995966  0.62722278  0.11274372  1
  O  O178  1  0.60762580  0.62404937  0.62929270  1
  O  O179  1  0.38238297  0.39132455  0.36677275  1
  O  O180  1  0.39095089  0.36611033  0.86761338  1
  O  O181  1  0.37020583  0.88239436  0.38586232  1
  O  O182  1  0.38538436  0.87659119  0.88830925  1
  O  O183  1  0.87716496  0.37235727  0.39035663  1
  O  O184  1  0.88222060  0.38355062  0.87129950  1
  O  O185  1  0.86759024  0.88551235  0.37577424  1
  O  O186  1  0.88835639  0.87492171  0.87604175  1
  O  O187  1  0.25993816  0.00361926  0.37168926  1
  O  O188  1  0.24998007  0.00997180  0.87131626  1
  O  O189  1  0.26117558  0.50218080  0.37030236  1
  O  O190  1  0.24734659  0.50853779  0.87136932  1
  O  O191  1  0.76465273  0.00558593  0.38563601  1
  O  O192  1  0.75017884  0.00900519  0.87398721  1
  O  O193  1  0.74550390  0.51044355  0.36660722  1
  O  O194  1  0.75405026  0.50504956  0.86879804  1
  O  O195  1  0.23766886  0.51519980  0.12858868  1
  O  O196  1  0.24936575  0.49561295  0.63034784  1
  O  O197  1  0.24792735  0.98491488  0.13379930  1
  O  O198  1  0.24013569  0.99322259  0.62293579  1
  O  O199  1  0.75496806  0.49633063  0.13954980  1
  O  O200  1  0.75229230  0.49233013  0.63234039  1
  O  O201  1  0.73894885  0.99039018  0.11590501  1
  O  O202  1  0.74237692  0.99128717  0.62411838  1
  O  O203  1  0.00963160  0.36815640  0.25413001  1
  O  O204  1  -0.00042661  0.36715913  0.75796274  1
  O  O205  1  0.00954969  0.86088402  0.24864727  1
  O  O206  1  0.00585872  0.86800257  0.75666281  1
  O  O207  1  0.50934529  0.37069358  0.25829395  1
  O  O208  1  0.50233400  0.36401877  0.75237869  1
  O  O209  1  0.49887132  0.86154131  0.24432733  1
  O  O210  1  0.50465378  0.86313787  0.76005329  1
  O  O211  1  0.49276457  0.13615429  0.25374874  1
  O  O212  1  0.50717746  0.13756855  0.73773640  1
  O  O213  1  0.49599952  0.63173243  0.24417844  1
  O  O214  1  0.49804448  0.63539940  0.74683709  1
  O  O215  1  1.00115219  0.13853250  0.25396020  1
  O  O216  1  0.99132750  0.13429458  0.75669441  1
  O  O217  1  1.00228910  0.63565471  0.23842456  1
  O  O218  1  1.00116657  0.63252522  0.74489523  1
  O  O219  1  0.39083413  0.24988872  0.00747638  1
  O  O220  1  0.36536014  0.24392954  0.50870022  1
  O  O221  1  0.36082706  0.75866491  -0.00098393  1
  O  O222  1  0.36967677  0.75528197  0.50677063  1
  O  O223  1  0.86184369  0.24851067  -0.00596628  1
  O  O224  1  0.86994327  0.25342937  0.50105534  1
  O  O225  1  0.86149654  0.75138359  0.00893921  1
  O  O226  1  0.86107276  0.74627807  0.50145730  1
  O  O227  1  0.12803135  0.24325626  0.49510744  1
  O  O228  1  0.12307051  0.25324580  0.98644331  1
  O  O229  1  0.13029855  0.75351332  0.48741308  1
  O  O230  1  0.13588057  0.75262979  0.99515566  1
  O  O231  1  0.63384435  0.24367577  0.49270263  1
  O  O232  1  0.63034202  0.24456277  0.98740668  1
  O  O233  1  0.63116392  0.74886117  0.48990077  1
  O  O234  1  0.63658059  0.74463316  1.00334371  1
  O  O235  1  0.51281614  0.25585757  0.13847389  1
  O  O236  1  0.49567034  0.24536050  0.62504365  1
  O  O237  1  0.50526237  0.73804147  0.13394109  1
  O  O238  1  0.49403985  0.74046455  0.63485832  1
  O  O239  1  1.00026145  0.25528002  0.13917495  1
  O  O240  1  1.00425905  0.25492597  0.63857102  1
  O  O241  1  0.99081847  0.74570385  0.13148391  1
  O  O242  1  1.00229036  0.74260505  0.63243393  1
  O  O243  1  0.01175709  0.25077285  0.36906828  1
  O  O244  1  0.00519557  0.25650685  0.86702207  1
  O  O245  1  0.00878927  0.73923353  0.36810090  1
  O  O246  1  0.00403777  0.75392243  0.87081025  1
  O  O247  1  0.50498154  0.25655852  0.36615755  1
  O  O248  1  0.50961235  0.25485187  0.86106434  1
  O  O249  1  0.51198473  0.74209952  0.36951203  1
  O  O250  1  0.49520985  0.75491952  0.86654613  1
  O  O251  1  0.24097809  0.13389047  0.49544783  1
  O  O252  1  0.24654370  0.12117547  0.98381749  1
  O  O253  1  0.25402097  0.63170598  0.49053330  1
  O  O254  1  0.24766980  0.63536259  0.99387722  1
  O  O255  1  0.74674035  0.13151242  0.49361573  1
  O  O256  1  0.74263735  0.13341221  0.98705839  1
  O  O257  1  0.75075788  0.62682396  0.48923994  1
  O  O258  1  0.74244252  0.63117033  0.99545430  1
  O  O259  1  0.27085509  0.39305164  -0.03005218  1
  O  O260  1  0.24534463  0.36050699  0.50633795  1
  O  O261  1  0.25447590  0.87176096  0.00635289  1
  O  O262  1  0.25864942  0.86673128  0.50689330  1
  O  O263  1  0.74223616  0.36924761  0.00822056  1
  O  O264  1  0.75714083  0.36762919  0.50288772  1
  O  O265  1  0.75015935  0.86784342  0.00823958  1
  O  O266  1  0.74529249  0.86147342  0.51129579  1
  O  O267  1  0.12875123  0.49412796  0.24021381  1
  O  O268  1  0.13565014  0.49818179  0.73825017  1
  O  O269  1  0.12962602  0.98957229  0.25612192  1
  O  O270  1  0.12097717  0.99495296  0.73932986  1
  O  O271  1  0.62770220  0.49134197  0.25553316  1
  O  O272  1  0.63885973  0.50303226  0.74621231  1
  O  O273  1  0.61600301  1.00063469  0.23582398  1
  O  O274  1  0.62499304  0.99874804  0.73753606  1
  O  O275  1  0.37250507  0.00243492  0.25867787  1
  O  O276  1  0.37350221  -0.00586428  0.75092376  1
  O  O277  1  0.37814000  0.51676842  0.26537322  1
  O  O278  1  0.35928934  0.48860583  0.77174653  1
  O  O279  1  0.88329330  -0.00268889  0.26624358  1
  O  O280  1  0.87468999  0.00752436  0.75371527  1
  O  O281  1  0.86551735  0.49713277  0.25425529  1
  O  O282  1  0.86469986  0.50239593  0.76006352  1
  O  O283  1  0.12074947  0.36715956  0.36975973  1
  O  O284  1  0.11388887  0.36831133  0.86947271  1
  O  O285  1  0.13391834  0.86324512  0.36465551  1
  O  O286  1  0.11557047  0.86921073  0.87059920  1
  O  O287  1  0.61930133  0.36885893  0.36798574  1
  O  O288  1  0.61704513  0.36632429  0.87430095  1
  O  O289  1  0.63166901  0.85600685  0.37315265  1
  O  O290  1  0.61177969  0.87823323  0.87873736  1
  O  O291  1  0.37236348  0.11214936  0.13992050  1
  O  O292  1  0.38643064  0.13071148  0.61836926  1
  O  O293  1  0.38484381  0.62385871  0.13663576  1
  O  O294  1  0.38032965  0.63680248  0.62696890  1
  O  O295  1  0.86149997  0.13571644  0.13248542  1
  O  O296  1  0.86818147  0.12646803  0.63800113  1
  O  O297  1  0.87807727  0.63726443  0.12390607  1
  O  O298  1  0.88916953  0.62652663  0.62911858  1
  O  O299  1  0.24739501  0.26409930  0.12455112  1
  O  O300  1  0.25600593  0.25468678  0.62106216  1
  O  O301  1  0.24426749  0.76050698  0.11951023  1
  O  O302  1  0.25521460  0.75210492  0.62263644  1
  O  O303  1  0.74727419  0.26067590  0.11207403  1
  O  O304  1  0.75127954  0.25333486  0.61244161  1
  O  O305  1  0.75358891  0.75436449  0.12118549  1
  O  O306  1  0.74980012  0.75355903  0.61835994  1
  O  O307  1  0.23681058  0.24399899  0.38364089  1
  O  O308  1  0.24375191  0.24084361  0.87457490  1
  O  O309  1  0.24421527  0.73986898  0.37983039  1
  O  O310  1  0.24479987  0.74757509  0.88042771  1
  O  O311  1  0.74824247  0.24346653  0.38366958  1
  O  O312  1  0.74388253  0.24640667  0.87664504  1
  O  O313  1  0.74260751  0.73941736  0.38155546  1
  O  O314  1  0.75499033  0.74240788  0.88365585  1
  O  O315  1  -0.00011317  0.11220697  -0.00481787  1
  O  O316  1  0.00989273  0.12103065  0.49687409  1
  O  O317  1  -0.00046256  0.62633010  0.01348761  1
  O  O318  1  -0.00175325  0.61713766  0.50878532  1
  O  O319  1  0.50618071  0.12101302  -0.00175203  1
  O  O320  1  0.50572822  0.11804812  0.50699989  1
  O  O321  1  0.50668557  0.62394139  0.00539186  1
  O  O322  1  0.49441076  0.62669401  0.51805019  1
  O  O323  1  0.49845167  0.36969693  0.48445206  1
  O  O324  1  0.50762877  0.38701718  0.99015983  1
  O  O325  1  0.48785996  0.87791324  0.50778827  1
  O  O326  1  0.49335189  0.87897783  0.99700053  1
  O  O327  1  0.99399426  0.38450304  0.50000433  1
  O  O328  1  1.00023531  0.37666598  0.98655970  1
  O  O329  1  1.00177754  0.88344718  0.49825295  1
  O  O330  1  0.99765785  0.87853491  0.99307680  1
  O  O331  1  0.49115916  0.49504518  0.37549988  1
  O  O332  1  0.50309227  0.49048424  0.87834265  1
  O  O333  1  0.48879645  1.00240630  0.38162711  1
  O  O334  1  0.50051741  0.99406826  0.88616584  1
  O  O335  1  1.00967352  0.50244033  0.38783055  1
  O  O336  1  0.99224117  0.49302800  0.87376838  1
  O  O337  1  0.98834369  1.00017928  0.38781425  1
  O  O338  1  1.00068296  0.99126200  0.88477099  1
  O  O339  1  -0.00323580  -0.00807444  0.11172695  1
  O  O340  1  0.00700556  -0.00426379  0.61034860  1
  O  O341  1  0.00177112  0.50865157  0.12697542  1
  O  O342  1  0.00884810  0.50467519  0.62149710  1
  O  O343  1  0.50767877  -0.00292927  0.11097533  1
  O  O344  1  0.50560878  0.00490116  0.62073065  1
  O  O345  1  0.49987713  0.51386259  0.11377160  1
  O  O346  1  0.49166593  0.51533557  0.63207805  1
  O  O347  1  0.23356130  0.38293727  0.26071547  1
  O  O348  1  0.24691135  0.38009404  0.74137535  1
  O  O349  1  0.24628261  0.87668557  0.24425055  1
  O  O350  1  0.24105745  0.87477610  0.74371068  1
  O  O351  1  0.74583256  0.38708150  0.24887030  1
  O  O352  1  0.75642467  0.38197255  0.73970415  1
  O  O353  1  0.74544783  0.87083171  0.23774419  1
  O  O354  1  0.74550275  0.87423131  0.74315719  1
  O  O355  1  0.25763796  0.11925693  0.25770260  1
  O  O356  1  0.23924861  0.12282033  0.76759429  1
  O  O357  1  0.26047587  0.61696313  0.25419404  1
  O  O358  1  0.24710057  0.61624386  0.75823432  1
  O  O359  1  0.74705203  0.12860267  0.26512305  1
  O  O360  1  0.75471176  0.12359621  0.75920574  1
  O  O361  1  0.74694500  0.61097571  0.25672749  1
  O  O362  1  0.75048137  0.62015091  0.75741087  1
  O  O363  1  0.37037310  0.11674546  0.36761828  1
  O  O364  1  0.36182680  0.12297634  0.87026697  1
  O  O365  1  0.36557588  0.61905221  0.37132566  1
  O  O366  1  0.36131668  0.63162550  0.87611151  1
  O  O367  1  0.86805258  0.11472614  0.36997785  1
  O  O368  1  0.86489213  0.12433634  0.86419062  1
  O  O369  1  0.85634946  0.62845832  0.37186814  1
  O  O370  1  0.86244352  0.61862756  0.87317793  1
  O  O371  1  0.12049435  0.38808847  0.13332761  1
  O  O372  1  0.13843371  0.38223934  0.62695758  1
  O  O373  1  0.13177083  0.87567448  0.13954395  1
  O  O374  1  0.12999021  0.88367757  0.62855601  1
  O  O375  1  0.63941612  0.37509781  0.13767876  1
  O  O376  1  0.64087380  0.37214184  0.62355318  1
  O  O377  1  0.63092814  0.88537280  0.12654554  1
  O  O378  1  0.63209246  0.88059460  0.62794298  1
  O  O379  1  0.11717993  0.25640966  0.25638494  1
  O  O380  1  0.11786463  0.25110462  0.76034279  1
  O  O381  1  0.11939477  0.75348171  0.26038506  1
  O  O382  1  0.11541272  0.75613403  0.75535120  1
  O  O383  1  0.62204785  0.25702899  0.25692388  1
  O  O384  1  0.62144878  0.24602940  0.75812601  1
  O  O385  1  0.61702345  0.75178709  0.25935959  1
  O  O386  1  0.60752299  0.74935450  0.75025002  1
  O  O387  1  0.38782578  0.23933786  0.25066460  1
  O  O388  1  0.38530295  0.24954079  0.73176787  1
  O  O389  1  0.38446740  0.74025808  0.26010484  1
  O  O390  1  0.38764800  0.75720756  0.74318934  1
  O  O391  1  0.89331783  0.25191915  0.25622696  1
  O  O392  1  0.88477542  0.24210255  0.74659586  1
  O  O393  1  0.88329147  0.75387259  0.24424201  1
  O  O394  1  0.88915219  0.74743882  0.74839815  1
  O  O395  1  0.38000166  0.50218087  0.48673869  1
  O  O396  1  0.38655031  0.50731658  0.98746043  1
  O  O397  1  0.37832646  0.99158160  0.49461722  1
  O  O398  1  0.38214621  0.99401365  0.99752045  1
  O  O399  1  0.88815719  0.49270963  0.50476461  1
  O  O400  1  0.87311009  0.50473669  0.98533261  1
  O  O401  1  0.88833966  1.00109075  0.49428558  1
  O  O402  1  0.88552232  0.99749515  0.99599359  1
  O  O403  1  0.10813638  -0.00362313  0.00337030  1
  O  O404  1  0.11484207  0.00439758  0.50220945  1
  O  O405  1  0.11621207  0.50459344  0.01324759  1
  O  O406  1  0.12082876  0.49442380  0.51309283  1
  O  O407  1  0.61713207  0.01094955  0.00651700  1
  O  O408  1  0.61981221  0.00083975  0.50886675  1
  O  O409  1  0.61437095  0.51093156  -0.00369008  1
  O  O410  1  0.61448285  0.49283691  0.50884387  1
  O  O411  1  0.34551631  0.41379254  0.16459897  1
  O  O412  1  0.36391349  0.36932114  0.62539063  1
  O  O413  1  0.36728327  0.87729049  0.11282658  1
  O  O414  1  0.37003832  0.86265498  0.61801596  1
  O  O415  1  0.86050685  0.36774296  0.12986089  1
  O  O416  1  0.86582506  0.37052751  0.61399124  1
  O  O417  1  0.86584878  0.86382802  0.12376932  1
  O  O418  1  0.86244350  0.87278439  0.63001337  1
  O  O419  1  0.12964266  0.13031167  0.38253776  1
  O  O420  1  0.13062367  0.13412423  0.88179751  1
  O  O421  1  0.14001798  0.63035791  0.36740199  1
  O  O422  1  0.13180494  0.63365336  0.87758330  1
  O  O423  1  0.63197661  0.12744930  0.38216358  1
  O  O424  1  0.63014293  0.13161759  0.88134895  1
  O  O425  1  0.63664479  0.63922581  0.37136734  1
  O  O426  1  0.63727838  0.62271148  0.88552677  1
