# generated using pymatgen
data_V85Zn86O256
_symmetry_space_group_name_H-M   'P 1'
_cell_length_a   16.94387686
_cell_length_b   16.95294519
_cell_length_c   16.94693210
_cell_angle_alpha   90.02624482
_cell_angle_beta   90.02270961
_cell_angle_gamma   90.05622206
_symmetry_Int_Tables_number   1
_chemical_formula_structural   V85Zn86O256
_chemical_formula_sum   'V85 Zn86 O256'
_cell_volume   4867.97955041
_cell_formula_units_Z   1
loop_
 _symmetry_equiv_pos_site_id
 _symmetry_equiv_pos_as_xyz
  1  'x, y, z'
loop_
 _atom_site_type_symbol
 _atom_site_label
 _atom_site_symmetry_multiplicity
 _atom_site_fract_x
 _atom_site_fract_y
 _atom_site_fract_z
 _atom_site_occupancy
  V  V0  1  0.49561699  0.75373397  0.24298801  1
  V  V1  1  0.74745472  0.35819001  0.63312058  1
  V  V2  1  0.12604480  0.62442417  -0.00181555  1
  V  V3  1  0.25227719  0.62504482  0.87368612  1
  V  V4  1  0.69064820  0.55699440  0.69313349  1
  V  V5  1  0.86653162  0.25024704  0.12293964  1
  V  V6  1  0.62007539  0.75166743  0.38268283  1
  V  V7  1  0.51021202  0.49802140  0.00269558  1
  V  V8  1  0.74390039  -0.00240088  0.74986650  1
  V  V9  1  0.50201894  0.13045364  0.12371914  1
  V  V10  1  0.25297301  0.24941792  0.50215752  1
  V  V11  1  0.24810118  0.12064532  0.37504425  1
  V  V12  1  0.37426980  0.00981737  0.87325112  1
  V  V13  1  0.87541138  0.12794790  0.25245473  1
  V  V14  1  0.76061816  0.24757782  0.50264452  1
  V  V15  1  0.74821305  -0.00029944  0.25140688  1
  V  V16  1  -0.00685818  0.13594336  0.63259815  1
  V  V17  1  0.38083558  0.23450162  0.63000240  1
  V  V18  1  0.74444358  0.50141496  0.23999615  1
  V  V19  1  0.00381703  -0.00046988  0.00496878  1
  V  V20  1  0.12456091  0.37218185  0.76035211  1
  V  V21  1  0.00024086  0.87198736  0.87513102  1
  V  V22  1  0.37675546  0.62757192  0.24277386  1
  V  V23  1  0.62616289  0.25564213  0.37897127  1
  V  V24  1  0.37006342  -0.00413871  0.37944999  1
  V  V25  1  0.76903144  0.87682724  0.62340192  1
  V  V26  1  0.50659084  0.62145494  0.12512522  1
  V  V27  1  -0.00085200  0.75071280  0.73713254  1
  V  V28  1  0.74495612  0.12320845  0.88871041  1
  V  V29  1  0.62933810  0.75423606  0.88004759  1
  V  V30  1  0.12676523  0.74821230  0.87394729  1
  V  V31  1  0.25948646  0.87496422  0.62420278  1
  V  V32  1  0.49269135  0.87554789  0.38642480  1
  V  V33  1  0.87092174  0.37111028  0.00104547  1
  V  V34  1  0.50471560  0.23695132  0.74493589  1
  V  V35  1  0.37832564  0.49967822  0.37588539  1
  V  V36  1  -0.00077790  0.62483856  0.12128258  1
  V  V37  1  0.00324035  0.12465252  0.12499947  1
  V  V38  1  0.74692835  0.12404750  0.37791766  1
  V  V39  1  0.74779964  0.87298786  0.12266745  1
  V  V40  1  0.87230352  0.62427927  0.24957511  1
  V  V41  1  0.12114597  0.12516038  0.50404938  1
  V  V42  1  0.87448831  0.00073159  0.87222135  1
  V  V43  1  0.25244078  0.36592985  0.12491616  1
  V  V44  1  0.13705585  0.23511301  0.87914321  1
  V  V45  1  0.12690294  0.49647798  0.12442835  1
  V  V46  1  0.50223457  0.87338984  0.87112110  1
  V  V47  1  0.87657463  0.62612545  0.74147579  1
  V  V48  1  0.24494753  0.37220576  0.62855627  1
  V  V49  1  -0.00071478  0.75469032  0.25003722  1
  V  V50  1  0.74511945  0.62268239  0.37675658  1
  V  V51  1  0.25548501  0.01394978  0.75372053  1
  V  V52  1  0.62470158  0.00581588  0.12488962  1
  V  V53  1  0.12266701  0.88225335  0.24194193  1
  V  V54  1  0.50092759  0.74694566  0.74582980  1
  V  V55  1  0.76731410  0.75735218  0.49792992  1
  V  V56  1  0.25550272  0.75906843  0.49467910  1
  V  V57  1  0.86981793  0.86877098  -0.00228198  1
  V  V58  1  0.87481788  0.50197441  0.86836566  1
  V  V59  1  0.50642144  0.00037315  -0.00098054  1
  V  V60  1  0.37499011  0.12754422  0.24981443  1
  V  V61  1  0.13079904  0.87373684  0.75079096  1
  V  V62  1  0.87965100  -0.01167073  0.37945390  1
  V  V63  1  0.00793045  0.60848179  0.61965158  1
  V  V64  1  0.26041430  0.74815410  0.00464049  1
  V  V65  1  0.75065739  0.62721330  0.88423784  1
  V  V66  1  0.24663335  0.49813793  0.75054104  1
  V  V67  1  0.37616621  0.49722998  0.87772020  1
  V  V68  1  0.62368710  0.24620129  0.88926082  1
  V  V69  1  0.37537583  0.36469971  0.00268793  1
  V  V70  1  0.49539757  0.25244924  0.25278676  1
  V  V71  1  0.00003304  0.49276627  -0.00460897  1
  V  V72  1  0.11821896  0.25283395  0.37650725  1
  V  V73  1  0.25400470  0.87782931  0.12249936  1
  V  V74  1  0.86806986  0.74785107  0.11961410  1
  V  V75  1  0.61883478  -0.00748196  0.62200918  1
  V  V76  1  0.62428626  0.38000388  0.24699702  1
  V  V77  1  0.50777195  0.50796441  0.51608728  1
  V  V78  1  -0.04584164  0.31575481  0.81765368  1
  V  V79  1  0.12354884  -0.00061563  0.62838331  1
  V  V80  1  0.12153447  0.75189398  0.37452019  1
  V  V81  1  0.37815318  0.73797871  0.61964618  1
  V  V82  1  0.37878321  0.37664215  0.50577561  1
  V  V83  1  0.25315869  0.62743412  0.37271111  1
  V  V84  1  0.62100535  0.87716351  0.25178038  1
  Zn  Zn85  1  0.00454689  0.39528197  0.38458325  1
  Zn  Zn86  1  0.12478934  0.37682237  0.25237042  1
  Zn  Zn87  1  0.24360712  0.00488126  0.24097372  1
  Zn  Zn88  1  0.48821688  0.00537363  0.50957258  1
  Zn  Zn89  1  0.50194389  0.37297850  0.87203348  1
  Zn  Zn90  1  0.88100657  0.38254149  0.50313202  1
  Zn  Zn91  1  0.88608482  0.50161654  0.38019415  1
  Zn  Zn92  1  0.62184521  0.62963286  0.51595314  1
  Zn  Zn93  1  0.61640330  0.13011065  0.51561092  1
  Zn  Zn94  1  0.25399217  0.49842055  0.24630244  1
  Zn  Zn95  1  0.62144837  0.37934087  0.74730007  1
  Zn  Zn96  1  0.25244334  0.23345695  0.00153936  1
  Zn  Zn97  1  0.38002840  0.87065972  0.00383542  1
  Zn  Zn98  1  0.50415230  0.37872111  0.37927536  1
  Zn  Zn99  1  -0.01411998  -0.01298436  0.50774485  1
  Zn  Zn100  1  0.16780447  0.06440379  0.05857401  1
  Zn  Zn101  1  0.74316300  0.37509485  0.11757027  1
  Zn  Zn102  1  0.87419825  0.13625227  0.75033659  1
  Zn  Zn103  1  0.37793744  0.61875958  0.74175370  1
  Zn  Zn104  1  0.11154291  0.60735043  0.48719154  1
  Zn  Zn105  1  0.63045311  0.62697774  0.00552820  1
  Zn  Zn106  1  -0.00281884  0.26068261  0.25084121  1
  Zn  Zn107  1  0.18612821  0.19300440  0.19183859  1
  Zn  Zn108  1  0.18308352  0.19260254  0.69136617  1
  Zn  Zn109  1  0.18773705  0.68923379  0.18460115  1
  Zn  Zn110  1  0.18924398  0.68574653  0.68457611  1
  Zn  Zn111  1  0.68598265  0.19036070  0.19035448  1
  Zn  Zn112  1  0.68493959  0.17937803  0.69483068  1
  Zn  Zn113  1  0.68375062  0.69065611  0.19033721  1
  Zn  Zn114  1  0.69022577  0.72192331  0.69154759  1
  Zn  Zn115  1  0.30948185  0.31338514  0.31512134  1
  Zn  Zn116  1  0.31705488  0.30658980  0.81358120  1
  Zn  Zn117  1  0.31099944  0.81522657  0.30604364  1
  Zn  Zn118  1  0.31882385  0.81402643  0.81163593  1
  Zn  Zn119  1  0.81549981  0.31889428  0.31594568  1
  Zn  Zn120  1  0.79061301  0.31315454  0.81873813  1
  Zn  Zn121  1  0.80952147  0.81051197  0.31003312  1
  Zn  Zn122  1  0.81334835  0.81029725  0.80893737  1
  Zn  Zn123  1  0.18737858  0.43932964  0.43990384  1
  Zn  Zn124  1  0.18924475  0.43110536  0.93788447  1
  Zn  Zn125  1  0.14874702  0.92193753  0.45059763  1
  Zn  Zn126  1  0.19213225  0.93431603  0.93417701  1
  Zn  Zn127  1  0.71223791  0.45253188  0.45643462  1
  Zn  Zn128  1  0.68932611  0.43775351  0.93013126  1
  Zn  Zn129  1  0.68708371  0.93652400  0.44071668  1
  Zn  Zn130  1  0.68600025  0.93687559  0.93843665  1
  Zn  Zn131  1  0.32855716  0.06081134  0.06222487  1
  Zn  Zn132  1  0.30744611  0.05986055  0.56098776  1
  Zn  Zn133  1  0.31619937  0.55884040  0.06189228  1
  Zn  Zn134  1  0.28376722  0.55231088  0.55133969  1
  Zn  Zn135  1  0.81802251  0.05810368  0.06433560  1
  Zn  Zn136  1  0.81073540  0.06431776  0.56256495  1
  Zn  Zn137  1  0.81380264  0.55827522  0.06075541  1
  Zn  Zn138  1  0.81881325  0.57020938  0.55833213  1
  Zn  Zn139  1  0.43781444  0.43781330  0.18586768  1
  Zn  Zn140  1  0.43737130  0.42977802  0.69145497  1
  Zn  Zn141  1  0.43348921  0.94054010  0.19091711  1
  Zn  Zn142  1  0.43656548  0.93275269  0.69298365  1
  Zn  Zn143  1  0.93697787  0.43614734  0.19304285  1
  Zn  Zn144  1  0.92936645  0.43984615  0.67866075  1
  Zn  Zn145  1  0.93530007  0.93780947  0.18883609  1
  Zn  Zn146  1  0.94021874  0.94044559  0.69132820  1
  Zn  Zn147  1  0.05919567  0.06439081  0.31316302  1
  Zn  Zn148  1  0.06096711  0.06267083  0.81177397  1
  Zn  Zn149  1  0.06248683  0.56433247  0.30598056  1
  Zn  Zn150  1  0.06172000  0.55968427  0.80913438  1
  Zn  Zn151  1  0.55890511  0.06402207  0.32082347  1
  Zn  Zn152  1  0.56580213  0.06219351  0.81079713  1
  Zn  Zn153  1  0.56236342  0.56225447  0.31584549  1
  Zn  Zn154  1  0.55646264  0.57022901  0.82018411  1
  Zn  Zn155  1  0.43962375  0.18689126  0.44005121  1
  Zn  Zn156  1  0.44305762  0.18634974  0.93767982  1
  Zn  Zn157  1  0.43560626  0.68656501  0.43988342  1
  Zn  Zn158  1  0.43970341  0.68433267  0.93575095  1
  Zn  Zn159  1  0.93856797  0.18097871  0.44150199  1
  Zn  Zn160  1  0.93461579  0.18133524  0.94370517  1
  Zn  Zn161  1  0.93984463  0.68107330  0.43327056  1
  Zn  Zn162  1  0.93879917  0.68597126  0.93382315  1
  Zn  Zn163  1  0.06021783  0.30896570  0.05918141  1
  Zn  Zn164  1  0.06000504  0.31713891  0.56400570  1
  Zn  Zn165  1  0.06320455  0.81196927  0.06245239  1
  Zn  Zn166  1  0.06671188  0.80930654  0.55867571  1
  Zn  Zn167  1  0.55916367  0.31388015  0.06615965  1
  Zn  Zn168  1  0.56588299  0.31610544  0.56528859  1
  Zn  Zn169  1  0.56320358  0.81274767  0.06099994  1
  Zn  Zn170  1  0.56437228  0.81901409  0.56744513  1
  O  O171  1  0.10830365  0.12607354  0.13626849  1
  O  O172  1  0.11782143  0.11971933  0.62317010  1
  O  O173  1  0.12111597  0.61802887  0.11611629  1
  O  O174  1  0.10885387  0.62866103  0.62661627  1
  O  O175  1  0.61825064  0.11324228  0.13408342  1
  O  O176  1  0.63447327  0.09975425  0.62869630  1
  O  O177  1  0.61201471  0.63044977  0.12390302  1
  O  O178  1  0.63998493  0.62612152  0.63633616  1
  O  O179  1  0.37394320  0.38255735  0.38759606  1
  O  O180  1  0.37647545  0.38110803  0.88395724  1
  O  O181  1  0.38026958  0.88420859  0.36740306  1
  O  O182  1  0.38832071  0.88102709  0.87913835  1
  O  O183  1  0.88095233  0.38067864  0.38094053  1
  O  O184  1  0.88109140  0.37723253  0.87476802  1
  O  O185  1  0.86971780  0.89018597  0.36642809  1
  O  O186  1  0.87836724  0.87793415  0.88132338  1
  O  O187  1  0.25131269  0.01349551  0.37197343  1
  O  O188  1  0.26622238  -0.00596164  0.86929071  1
  O  O189  1  0.26352317  0.51007259  0.36907759  1
  O  O190  1  0.25652962  0.50238677  0.86935439  1
  O  O191  1  0.75352465  0.00688018  0.37078519  1
  O  O192  1  0.75440670  0.00048748  0.86824321  1
  O  O193  1  0.73448876  0.51872870  0.36112629  1
  O  O194  1  0.76465719  0.50896967  0.87520839  1
  O  O195  1  0.24187250  0.49265964  0.12277138  1
  O  O196  1  0.26361523  0.48540434  0.64508916  1
  O  O197  1  0.24517607  0.99252625  0.12197987  1
  O  O198  1  0.24519158  0.99330074  0.63365070  1
  O  O199  1  0.74846115  0.50120462  0.13593216  1
  O  O200  1  0.74617604  0.50151552  0.63098067  1
  O  O201  1  0.74295234  0.99580696  0.13092335  1
  O  O202  1  0.74885745  0.99068234  0.63028932  1
  O  O203  1  0.00646167  0.37705700  0.25970142  1
  O  O204  1  0.00426262  0.37567510  0.74824332  1
  O  O205  1  0.00588046  0.86256378  0.24074566  1
  O  O206  1  0.00657757  0.86805948  0.75543799  1
  O  O207  1  0.50488370  0.36853888  0.25251093  1
  O  O208  1  0.50503057  0.36382863  0.75391867  1
  O  O209  1  0.50233523  0.86877895  0.25502866  1
  O  O210  1  0.49597415  0.86175736  0.76096114  1
  O  O211  1  0.49380277  0.13285180  0.24915327  1
  O  O212  1  0.50272787  0.13730150  0.75051355  1
  O  O213  1  0.49608975  0.63179880  0.24448735  1
  O  O214  1  0.49361652  0.64052267  0.75550264  1
  O  O215  1  0.98593201  0.12526224  0.24544456  1
  O  O216  1  0.99433281  0.11996031  0.73755460  1
  O  O217  1  0.99405935  0.63591120  0.23853963  1
  O  O218  1  0.99529051  0.63098725  0.73994733  1
  O  O219  1  0.37636797  0.26128015  -0.00458343  1
  O  O220  1  0.37330035  0.25891896  0.50551442  1
  O  O221  1  0.36378957  0.74922611  -0.00426981  1
  O  O222  1  0.36975825  0.75524356  0.50658424  1
  O  O223  1  0.87957027  0.25975157  0.00784555  1
  O  O224  1  0.86216733  0.24574580  0.49781078  1
  O  O225  1  0.87992251  0.75678788  0.00685261  1
  O  O226  1  0.86507782  0.75279920  0.48821843  1
  O  O227  1  0.13171281  0.23888968  0.49914685  1
  O  O228  1  0.12777785  0.25616622  0.98288519  1
  O  O229  1  0.13563957  0.74022862  0.48750890  1
  O  O230  1  0.13089579  0.74313705  0.99257749  1
  O  O231  1  0.62868072  0.24833379  0.49011921  1
  O  O232  1  0.61519536  0.24961549  0.98805188  1
  O  O233  1  0.62507222  0.75065397  0.49187002  1
  O  O234  1  0.62059123  0.74663726  0.98637401  1
  O  O235  1  0.50601485  0.23807744  0.13668363  1
  O  O236  1  0.49673725  0.25122286  0.63576718  1
  O  O237  1  0.50370021  0.74583836  0.13749095  1
  O  O238  1  0.49124240  0.75697701  0.63222442  1
  O  O239  1  0.98891775  0.24200993  0.12659567  1
  O  O240  1  1.00495611  0.23374087  0.62598072  1
  O  O241  1  0.98905593  0.74477030  0.12772873  1
  O  O242  1  1.00408140  0.75184429  0.63535918  1
  O  O243  1  0.01394741  0.24106939  0.37836409  1
  O  O244  1  0.00522283  0.25223831  0.87862457  1
  O  O245  1  0.00926119  0.74190898  0.36237487  1
  O  O246  1  0.00695688  0.75400892  0.86623932  1
  O  O247  1  0.50880109  0.25498035  0.36946233  1
  O  O248  1  0.50976380  0.24831191  0.86634185  1
  O  O249  1  0.50373781  0.75679031  0.36960121  1
  O  O250  1  0.50402210  0.75651509  0.87090965  1
  O  O251  1  0.24513132  0.13258245  0.49283058  1
  O  O252  1  0.25071648  0.12124549  1.01119949  1
  O  O253  1  0.26550554  0.64327067  0.47887821  1
  O  O254  1  0.24635219  0.63026062  0.99601019  1
  O  O255  1  0.74267087  0.13072502  0.49341958  1
  O  O256  1  0.75376697  0.11223919  0.98769814  1
  O  O257  1  0.74417255  0.64282130  0.49389583  1
  O  O258  1  0.75186380  0.62313842  0.98803256  1
  O  O259  1  0.25995221  0.37299960  0.00766579  1
  O  O260  1  0.25808195  0.36768706  0.51093739  1
  O  O261  1  0.25122576  0.86501267  0.00556100  1
  O  O262  1  0.24020888  0.86539843  0.50732454  1
  O  O263  1  0.76593267  0.38384627  -0.00063750  1
  O  O264  1  0.74443378  0.35830910  0.51344361  1
  O  O265  1  0.76230949  0.87998945  0.00582508  1
  O  O266  1  0.75017821  0.86490330  0.50625123  1
  O  O267  1  0.12979325  0.50325344  0.23336285  1
  O  O268  1  0.13545482  0.48874324  0.75629531  1
  O  O269  1  0.12158259  0.98569492  0.25623735  1
  O  O270  1  0.13333473  0.99469337  0.74636128  1
  O  O271  1  0.62762142  0.49074994  0.25170784  1
  O  O272  1  0.62567465  0.50395703  0.75268019  1
  O  O273  1  0.62790039  0.99560151  0.24580675  1
  O  O274  1  0.63817859  0.99669184  0.74486686  1
  O  O275  1  0.36943917  0.01046451  0.26074561  1
  O  O276  1  0.37065229  -0.00362972  0.76363405  1
  O  O277  1  0.37727085  0.50757589  0.25845161  1
  O  O278  1  0.37115720  0.49804389  0.76354761  1
  O  O279  1  0.86704460  0.00749781  0.25676905  1
  O  O280  1  0.86758977  -0.00376055  0.76331985  1
  O  O281  1  0.86303154  0.50902737  0.25114711  1
  O  O282  1  0.88195732  0.51329465  0.75686269  1
  O  O283  1  0.12894872  0.36609261  0.37748262  1
  O  O284  1  0.12417823  0.36846459  0.86540218  1
  O  O285  1  0.13489512  0.85691132  0.35590650  1
  O  O286  1  0.12081758  0.86834245  0.86862029  1
  O  O287  1  0.62665567  0.36609827  0.36574742  1
  O  O288  1  0.62736505  0.35948124  0.87189335  1
  O  O289  1  0.61597397  0.87054113  0.37145847  1
  O  O290  1  0.61313448  0.86973925  0.88030661  1
  O  O291  1  0.38798774  0.11946861  0.14249432  1
  O  O292  1  0.37254613  0.13610821  0.61707114  1
  O  O293  1  0.38397515  0.62038045  0.13676333  1
  O  O294  1  0.36230246  0.63698896  0.62135421  1
  O  O295  1  0.87992827  0.13039252  0.13274190  1
  O  O296  1  0.88817443  0.11976509  0.62818094  1
  O  O297  1  0.87757757  0.63179075  0.12716785  1
  O  O298  1  0.88790523  0.62324521  0.63163211  1
  O  O299  1  0.24526526  0.26235095  0.12202885  1
  O  O300  1  0.25909850  0.25449042  0.62380029  1
  O  O301  1  0.24649671  0.75790885  0.11321534  1
  O  O302  1  0.25470379  0.75623147  0.61538165  1
  O  O303  1  0.76222423  0.25009970  0.12768977  1
  O  O304  1  0.74601497  0.25159016  0.62155190  1
  O  O305  1  0.76067161  0.75447913  0.12919822  1
  O  O306  1  0.75683038  0.76529494  0.61239579  1
  O  O307  1  0.24090470  0.24008429  0.38057691  1
  O  O308  1  0.24123980  0.24688145  0.87768459  1
  O  O309  1  0.24710673  0.74750191  0.37678616  1
  O  O310  1  0.24640141  0.74493697  0.87985073  1
  O  O311  1  0.74436511  0.24386449  0.38200611  1
  O  O312  1  0.73449066  0.23784638  0.87851972  1
  O  O313  1  0.74081658  0.74783321  0.38216789  1
  O  O314  1  0.74205259  0.74138560  0.86795666  1
  O  O315  1  -0.00403785  0.11264800  0.01148986  1
  O  O316  1  0.00707054  0.11598882  0.51232258  1
  O  O317  1  0.00443780  0.61532119  0.00299843  1
  O  O318  1  -0.00039239  0.62857547  0.51491304  1
  O  O319  1  0.49509821  0.11630103  0.01454143  1
  O  O320  1  0.50862921  0.11457312  0.48588399  1
  O  O321  1  0.49970021  0.61687453  0.00892874  1
  O  O322  1  0.50149279  0.61296138  0.50098921  1
  O  O323  1  0.49363926  0.38531868  0.50074645  1
  O  O324  1  0.49287292  0.38217849  1.00048365  1
  O  O325  1  0.50087720  0.87984587  0.48833928  1
  O  O326  1  0.49906307  0.88308319  0.99549914  1
  O  O327  1  0.99577761  0.37633212  0.49984254  1
  O  O328  1  0.99019021  0.38709519  1.00317939  1
  O  O329  1  1.04229003  0.89206111  0.49015770  1
  O  O330  1  0.98957749  0.87768501  0.99579454  1
  O  O331  1  0.48909742  0.49963116  0.38322523  1
  O  O332  1  0.49201302  0.49794143  0.88374149  1
  O  O333  1  0.48809838  0.98905342  0.37108726  1
  O  O334  1  0.49787500  0.99433971  0.87973356  1
  O  O335  1  1.00111187  0.51367954  0.38135265  1
  O  O336  1  0.98777917  0.50737399  0.88326302  1
  O  O337  1  0.98119059  1.00624739  0.37493762  1
  O  O338  1  0.99171747  0.99255482  0.87914182  1
  O  O339  1  -0.00955536  0.00807435  0.11585922  1
  O  O340  1  0.01375448  0.00354537  0.62652509  1
  O  O341  1  0.00610072  0.50524760  0.11707110  1
  O  O342  1  0.00389860  0.50962237  0.62595469  1
  O  O343  1  0.50645519  0.00554443  0.12043433  1
  O  O344  1  0.51398687  -0.01355040  0.62696095  1
  O  O345  1  0.49684060  0.50937106  0.11568868  1
  O  O346  1  0.49268078  0.49879737  0.61388922  1
  O  O347  1  0.24841520  0.37766673  0.24069618  1
  O  O348  1  0.24415898  0.37731163  0.74885474  1
  O  O349  1  0.24139821  0.87767810  0.23800449  1
  O  O350  1  0.24689374  0.87952826  0.74332457  1
  O  O351  1  0.74236797  0.38600296  0.24906769  1
  O  O352  1  0.74312119  0.37428153  0.73829959  1
  O  O353  1  0.74143282  0.87966669  0.24309836  1
  O  O354  1  0.75826694  0.87861990  0.73296442  1
  O  O355  1  0.25701365  0.12652061  0.25571817  1
  O  O356  1  0.24713942  0.11233311  0.74510165  1
  O  O357  1  0.25977105  0.62784675  0.25557882  1
  O  O358  1  0.25131509  0.61480682  0.75505235  1
  O  O359  1  0.75874038  0.12117693  0.25596522  1
  O  O360  1  0.75675783  0.11381007  0.76041150  1
  O  O361  1  0.75125776  0.62270289  0.25564974  1
  O  O362  1  0.75426773  0.62462453  0.74935294  1
  O  O363  1  0.36672772  0.12176439  0.36678282  1
  O  O364  1  0.38224462  0.10820135  0.87785006  1
  O  O365  1  0.37371994  0.61962802  0.36356719  1
  O  O366  1  0.36743992  0.61449300  0.87494830  1
  O  O367  1  0.86379054  0.12099906  0.36887388  1
  O  O368  1  0.86919640  0.11505866  0.87371271  1
  O  O369  1  0.86163228  0.62662767  0.36643078  1
  O  O370  1  0.86861147  0.62012011  0.86627388  1
  O  O371  1  0.13151441  0.38209786  0.12251957  1
  O  O372  1  0.13954669  0.36219950  0.63871066  1
  O  O373  1  0.13429356  0.86908485  0.13303193  1
  O  O374  1  0.13638205  0.88262295  0.63302363  1
  O  O375  1  0.62804293  0.36588614  0.14082330  1
  O  O376  1  0.64165197  0.37641410  0.62730849  1
  O  O377  1  0.62832009  0.88483550  0.12959792  1
  O  O378  1  0.64173589  0.88596215  0.62403663  1
  O  O379  1  0.12030201  0.25317893  0.26308378  1
  O  O380  1  0.12478541  0.25676960  0.76691268  1
  O  O381  1  0.11581501  0.75403249  0.25095568  1
  O  O382  1  0.12035180  0.75376689  0.75482180  1
  O  O383  1  0.61648560  0.25452247  0.26060924  1
  O  O384  1  0.61512070  0.24887484  0.75608519  1
  O  O385  1  0.61670653  0.75763906  0.26179940  1
  O  O386  1  0.61356339  0.75196386  0.76564720  1
  O  O387  1  0.38758112  0.24487170  0.25946035  1
  O  O388  1  0.39024897  0.25214236  0.74247367  1
  O  O389  1  0.38557224  0.74127374  0.25469478  1
  O  O390  1  0.38044588  0.74651177  0.73891178  1
  O  O391  1  0.87561682  0.24308343  0.24479978  1
  O  O392  1  0.88470314  0.25831939  0.76845974  1
  O  O393  1  0.88058307  0.74584951  0.24222661  1
  O  O394  1  0.88637366  0.73701920  0.75504062  1
  O  O395  1  0.37878291  0.49371239  0.49516029  1
  O  O396  1  0.38179404  0.49287830  0.99072487  1
  O  O397  1  0.37065131  1.00213387  0.48487406  1
  O  O398  1  0.38925998  0.99396947  0.98925230  1
  O  O399  1  0.82783221  0.49121651  0.48225312  1
  O  O400  1  0.88321879  0.49451789  0.99176064  1
  O  O401  1  0.87117582  1.00185967  0.48440474  1
  O  O402  1  0.88309261  0.99018958  0.98997642  1
  O  O403  1  0.10871779  -0.01059798  -0.00549377  1
  O  O404  1  0.14066143  0.01796954  0.51493752  1
  O  O405  1  0.11877940  0.50209295  0.00499140  1
  O  O406  1  0.17562087  0.51978592  0.51352438  1
  O  O407  1  0.61479012  -0.00272750  0.00915453  1
  O  O408  1  0.62479850  -0.00111553  0.51444240  1
  O  O409  1  0.61346376  0.50138465  -0.00694852  1
  O  O410  1  0.61191189  0.50547744  0.50026397  1
  O  O411  1  0.36540902  0.38114546  0.11534020  1
  O  O412  1  0.36737358  0.36646716  0.61826320  1
  O  O413  1  0.36080619  0.87982821  0.12407864  1
  O  O414  1  0.36243532  0.86897587  0.62750400  1
  O  O415  1  0.87269461  0.36794134  0.11763610  1
  O  O416  1  0.85247226  0.38008229  0.62182701  1
  O  O417  1  0.86930937  0.86752382  0.11769177  1
  O  O418  1  0.86847904  0.88572688  0.61864862  1
  O  O419  1  0.12980908  0.12794845  0.38393623  1
  O  O420  1  0.12151160  0.13647162  0.87416203  1
  O  O421  1  0.13755473  0.63496250  0.36907851  1
  O  O422  1  0.13149773  0.62777609  0.87905914  1
  O  O423  1  0.63883725  0.13295234  0.36848456  1
  O  O424  1  0.63095892  0.13423116  0.87502727  1
  O  O425  1  0.62864359  0.63806587  0.37591335  1
  O  O426  1  0.63539530  0.63277049  0.87837941  1
