# generated using pymatgen
data_V85Zn86O256
_symmetry_space_group_name_H-M   'P 1'
_cell_length_a   16.95190169
_cell_length_b   16.96502413
_cell_length_c   16.95961645
_cell_angle_alpha   90.06418053
_cell_angle_beta   89.98928875
_cell_angle_gamma   89.99510038
_symmetry_Int_Tables_number   1
_chemical_formula_structural   V85Zn86O256
_chemical_formula_sum   'V85 Zn86 O256'
_cell_volume   4877.40311540
_cell_formula_units_Z   1
loop_
 _symmetry_equiv_pos_site_id
 _symmetry_equiv_pos_as_xyz
  1  'x, y, z'
loop_
 _atom_site_type_symbol
 _atom_site_label
 _atom_site_symmetry_multiplicity
 _atom_site_fract_x
 _atom_site_fract_y
 _atom_site_fract_z
 _atom_site_occupancy
  V  V0  1  0.37043318  0.63029987  0.25359767  1
  V  V1  1  0.49657960  0.49944963  0.49840922  1
  V  V2  1  0.49353781  0.36636851  0.37094760  1
  V  V3  1  0.00153493  0.11346401  0.12890611  1
  V  V4  1  0.12722118  0.25085925  0.37463001  1
  V  V5  1  0.87085655  0.11554104  0.25279010  1
  V  V6  1  0.12726153  0.00071977  0.63550428  1
  V  V7  1  0.68196773  0.93400092  0.68207294  1
  V  V8  1  0.87394610  0.61727699  0.75327664  1
  V  V9  1  0.24906005  0.11874302  0.87461073  1
  V  V10  1  0.12290099  0.37841909  0.24714141  1
  V  V11  1  0.87914847  0.86984335  0.50621382  1
  V  V12  1  -0.00056407  -0.00410056  0.00184243  1
  V  V13  1  0.50649299  0.50678765  0.00115570  1
  V  V14  1  0.62582638  0.49859199  0.62638048  1
  V  V15  1  0.00291465  0.49757272  -0.00892796  1
  V  V16  1  0.37927637  0.50080814  0.86979898  1
  V  V17  1  0.49735677  0.12359265  0.62396744  1
  V  V18  1  -0.00422535  0.37080664  0.86903503  1
  V  V19  1  0.86256374  -0.00022006  0.87125408  1
  V  V20  1  0.12549227  0.12398939  0.50013731  1
  V  V21  1  0.85606130  0.65287206  0.22343947  1
  V  V22  1  0.37421652  0.75430170  0.12865175  1
  V  V23  1  -0.00033825  -0.00378129  0.50146422  1
  V  V24  1  0.36387545  0.25487271  0.62723450  1
  V  V25  1  0.37488236  -0.00218062  0.87200019  1
  V  V26  1  0.50900677  0.00204560  0.00552624  1
  V  V27  1  0.36429534  0.37608912  0.50329238  1
  V  V28  1  0.87505913  0.50367318  0.37461763  1
  V  V29  1  0.62863453  0.13465175  0.50477174  1
  V  V30  1  0.87521850  0.25028350  0.12418702  1
  V  V31  1  0.74877468  0.74916043  0.49834302  1
  V  V32  1  -0.00136705  0.37720596  0.37272739  1
  V  V33  1  0.37509110  0.75250021  0.62501624  1
  V  V34  1  0.12663656  0.88823095  0.24704953  1
  V  V35  1  0.74742312  0.36722279  0.62186922  1
  V  V36  1  0.37057378  0.12591338  0.24534940  1
  V  V37  1  0.12540114  0.11965710  0.00729204  1
  V  V38  1  0.24795643  0.50546736  0.25065263  1
  V  V39  1  0.63341501  0.24224548  0.87612611  1
  V  V40  1  0.00060812  0.87228197  0.37152033  1
  V  V41  1  0.63162890  0.75114564  0.89302351  1
  V  V42  1  0.51223848  0.13056091  0.13194225  1
  V  V43  1  0.37414471  0.87788577  0.49301962  1
  V  V44  1  0.63000962  0.25275968  0.37698612  1
  V  V45  1  0.13999203  0.50116869  0.63186471  1
  V  V46  1  0.74966033  0.37550769  0.12310969  1
  V  V47  1  0.25397818  0.62635863  0.87424343  1
  V  V48  1  0.24979864  0.74301689  0.49675588  1
  V  V49  1  0.51286256  0.75577004  0.74730773  1
  V  V50  1  0.51310639  0.75865943  0.26178132  1
  V  V51  1  0.74986552  0.49406559  0.25403936  1
  V  V52  1  -0.00115774  0.25197431  0.24843834  1
  V  V53  1  0.36798514  0.50341670  0.37381084  1
  V  V54  1  0.12764944  0.62407921  -0.00073527  1
  V  V55  1  0.87167324  0.36720357  0.49987464  1
  V  V56  1  0.36869993  0.11945866  0.74980841  1
  V  V57  1  0.50078278  0.62570051  0.62417068  1
  V  V58  1  0.12701534  0.75056081  0.87380898  1
  V  V59  1  0.74935442  0.12016242  0.37819152  1
  V  V60  1  0.25245334  0.24792033  0.00136363  1
  V  V61  1  0.87422049  0.74309806  0.62675958  1
  V  V62  1  0.37289250  0.62609255  0.74914290  1
  V  V63  1  0.25107831  0.37575269  0.12227952  1
  V  V64  1  0.00135875  0.74583873  0.74324467  1
  V  V65  1  0.49870082  0.00523294  0.49740877  1
  V  V66  1  0.12786378  0.73969431  0.36949500  1
  V  V67  1  0.12246306  0.24781682  0.87333417  1
  V  V68  1  0.37766244  0.87681535  0.00071674  1
  V  V69  1  0.87287604  0.38383430  -0.00411039  1
  V  V70  1  -0.00102854  0.50702342  0.50959790  1
  V  V71  1  0.50720367  0.63031791  0.12492947  1
  V  V72  1  0.25187989  0.87952543  0.63121092  1
  V  V73  1  0.68438963  0.93724305  0.18769968  1
  V  V74  1  0.13024313  0.49868698  0.11799739  1
  V  V75  1  0.24924745  0.89167643  0.12999236  1
  V  V76  1  -0.00183758  0.87409956  0.87373602  1
  V  V77  1  0.37761722  0.37540392  -0.00044694  1
  V  V78  1  0.61774848  0.37029768  0.24683909  1
  V  V79  1  0.49796973  0.25211460  0.75347344  1
  V  V80  1  0.62431809  0.62676444  0.49302275  1
  V  V81  1  -0.00711749  0.12592266  0.62664218  1
  V  V82  1  0.86847336  0.85818404  0.01164538  1
  V  V83  1  0.74657572  0.61874847  0.88473960  1
  V  V84  1  0.24826396  0.11417267  0.37123091  1
  Zn  Zn85  1  0.14614026  0.36900275  0.73375155  1
  Zn  Zn86  1  0.74603233  0.62285287  0.37753721  1
  Zn  Zn87  1  0.37417350  -0.00226983  0.36677529  1
  Zn  Zn88  1  0.75383221  0.49919745  0.75128056  1
  Zn  Zn89  1  0.87029418  -0.00400526  0.38006535  1
  Zn  Zn90  1  -0.00480108  0.62700044  0.12077284  1
  Zn  Zn91  1  0.63689201  0.11562133  -0.00143349  1
  Zn  Zn92  1  0.38196621  0.25409199  0.13108281  1
  Zn  Zn93  1  0.12194349  0.62596845  0.50126312  1
  Zn  Zn94  1  0.87058101  0.24712372  0.62644390  1
  Zn  Zn95  1  -0.00309390  0.24764981  0.74738340  1
  Zn  Zn96  1  -0.00034104  0.75220171  0.23903714  1
  Zn  Zn97  1  0.52749017  0.88629330  0.37236643  1
  Zn  Zn98  1  0.25093647  0.75354653  0.00219444  1
  Zn  Zn99  1  0.62666989  0.37524730  0.75195742  1
  Zn  Zn100  1  0.24417498  0.25331926  0.50493702  1
  Zn  Zn101  1  0.62551864  0.50352069  0.12339934  1
  Zn  Zn102  1  0.75712846  0.24154429  -0.00828406  1
  Zn  Zn103  1  0.50990102  0.88008699  0.87066015  1
  Zn  Zn104  1  0.50438338  0.37488212  0.87688877  1
  Zn  Zn105  1  0.13094181  0.87632970  0.75355007  1
  Zn  Zn106  1  0.85681677  0.13002845  0.76495817  1
  Zn  Zn107  1  0.18953266  0.18727423  0.18760219  1
  Zn  Zn108  1  0.18504145  0.18347560  0.69001880  1
  Zn  Zn109  1  0.18630169  0.69196773  0.18426424  1
  Zn  Zn110  1  0.18680483  0.68355417  0.68416755  1
  Zn  Zn111  1  0.69152311  0.18869530  0.19109154  1
  Zn  Zn112  1  0.68427255  0.18582103  0.69292365  1
  Zn  Zn113  1  0.68889145  0.68997549  0.18956939  1
  Zn  Zn114  1  0.69284954  0.68650313  0.68351117  1
  Zn  Zn115  1  0.30972026  0.30987012  0.30940079  1
  Zn  Zn116  1  0.31240860  0.31071268  0.81456702  1
  Zn  Zn117  1  0.30755139  0.81376552  0.31202156  1
  Zn  Zn118  1  0.31727935  0.81149887  0.81226912  1
  Zn  Zn119  1  0.81028485  0.31028460  0.31380106  1
  Zn  Zn120  1  0.81265866  0.31460272  0.80622884  1
  Zn  Zn121  1  0.69459103  0.82021524  0.33388825  1
  Zn  Zn122  1  0.80665662  0.81517893  0.81107024  1
  Zn  Zn123  1  0.18395020  0.44120399  0.43765405  1
  Zn  Zn124  1  0.20122590  0.42614778  0.90518845  1
  Zn  Zn125  1  0.18454157  0.93232830  0.44149970  1
  Zn  Zn126  1  0.18887176  0.93725727  0.94005847  1
  Zn  Zn127  1  0.68520069  0.43605110  0.44018160  1
  Zn  Zn128  1  0.68627106  0.43416911  0.93487506  1
  Zn  Zn129  1  0.69325895  0.94702462  0.47991485  1
  Zn  Zn130  1  0.69136463  0.92707028  0.94213047  1
  Zn  Zn131  1  0.31956238  0.06371555  0.06181468  1
  Zn  Zn132  1  0.31036524  0.06340899  0.55999651  1
  Zn  Zn133  1  0.31757058  0.56578328  0.06061292  1
  Zn  Zn134  1  0.31075746  0.56376099  0.56366122  1
  Zn  Zn135  1  0.81233900  0.05650342  0.06086717  1
  Zn  Zn136  1  0.78769074  0.07357207  0.59989528  1
  Zn  Zn137  1  0.80200821  0.58315274  0.07546949  1
  Zn  Zn138  1  0.81293148  0.56190384  0.56556965  1
  Zn  Zn139  1  0.43750366  0.44120106  0.18638417  1
  Zn  Zn140  1  0.43643046  0.43721999  0.68661771  1
  Zn  Zn141  1  0.44272959  0.94307741  0.18931053  1
  Zn  Zn142  1  0.44277059  0.93724942  0.68541312  1
  Zn  Zn143  1  0.93192964  0.45613565  0.17675773  1
  Zn  Zn144  1  0.93817337  0.43517336  0.68619758  1
  Zn  Zn145  1  0.84663522  0.92042388  0.19868698  1
  Zn  Zn146  1  0.93615002  0.93452550  0.69002246  1
  Zn  Zn147  1  0.05851964  0.06163041  0.31406743  1
  Zn  Zn148  1  0.05614347  0.06285654  0.81286215  1
  Zn  Zn149  1  0.05172557  0.56842059  0.30648900  1
  Zn  Zn150  1  0.06289709  0.56156311  0.81025542  1
  Zn  Zn151  1  0.56278344  0.06426973  0.31170462  1
  Zn  Zn152  1  0.56381931  0.06041080  0.80905726  1
  Zn  Zn153  1  0.55647949  0.55903249  0.31010226  1
  Zn  Zn154  1  0.56478824  0.56818935  0.81228091  1
  Zn  Zn155  1  0.43187808  0.19031062  0.43539874  1
  Zn  Zn156  1  0.44246856  0.18485567  0.93973630  1
  Zn  Zn157  1  0.43613393  0.68848966  0.43612576  1
  Zn  Zn158  1  0.44444278  0.69193007  0.93731785  1
  Zn  Zn159  1  0.93948112  0.18611644  0.43915313  1
  Zn  Zn160  1  0.93532445  0.18478767  0.93957271  1
  Zn  Zn161  1  0.93532330  0.68780566  0.42825710  1
  Zn  Zn162  1  0.93752784  0.68427358  0.93102713  1
  Zn  Zn163  1  0.06119350  0.31015568  0.05890548  1
  Zn  Zn164  1  0.06028166  0.31673878  0.56185465  1
  Zn  Zn165  1  0.06024233  0.81266875  0.06465292  1
  Zn  Zn166  1  0.06645493  0.81028608  0.56462869  1
  Zn  Zn167  1  0.56362795  0.31005077  0.05938439  1
  Zn  Zn168  1  0.55375329  0.31269726  0.56332197  1
  Zn  Zn169  1  0.56074514  0.81485759  0.06547668  1
  Zn  Zn170  1  0.56419161  0.81602049  0.55253235  1
  O  O171  1  0.11601442  0.13083469  0.11735133  1
  O  O172  1  0.11834393  0.11777256  0.61945444  1
  O  O173  1  0.13185051  0.61765746  0.10994263  1
  O  O174  1  0.12782083  0.60944911  0.61918473  1
  O  O175  1  0.61496796  0.12939704  0.12809185  1
  O  O176  1  0.60583605  0.14311252  0.61526317  1
  O  O177  1  0.61110820  0.62624647  0.13241689  1
  O  O178  1  0.61892252  0.61652169  0.61699695  1
  O  O179  1  0.37828169  0.37987610  0.37762332  1
  O  O180  1  0.38267782  0.38584619  0.88257540  1
  O  O181  1  0.36904932  0.87760051  0.38721153  1
  O  O182  1  0.37761416  0.88068920  0.88408114  1
  O  O183  1  0.87876951  0.37968481  0.38287024  1
  O  O184  1  0.88323334  0.36730358  0.88388405  1
  O  O185  1  0.89508951  0.87617815  0.38713291  1
  O  O186  1  0.88293298  0.88021708  0.88224277  1
  O  O187  1  0.24822072  0.01203616  0.38202064  1
  O  O188  1  0.26501896  0.00412031  0.88184418  1
  O  O189  1  0.26041431  0.49705656  0.36821027  1
  O  O190  1  0.26687947  0.51972382  0.88478023  1
  O  O191  1  0.75298826  0.01827429  0.39442117  1
  O  O192  1  0.76427803  -0.00587326  0.88036902  1
  O  O193  1  0.75598227  0.49644408  0.37095329  1
  O  O194  1  0.73822404  0.51383687  0.86884334  1
  O  O195  1  0.24787286  0.49542527  0.12806907  1
  O  O196  1  0.23963125  0.49744705  0.62283851  1
  O  O197  1  0.25384568  0.99028237  0.12033460  1
  O  O198  1  0.24022194  0.99193431  0.61835889  1
  O  O199  1  0.74402325  0.49324422  0.13562566  1
  O  O200  1  0.73928861  0.49331141  0.62578606  1
  O  O201  1  0.76155693  0.98950779  0.14006910  1
  O  O202  1  0.72992049  0.97690855  0.59644480  1
  O  O203  1  0.00531856  0.37312666  0.25283663  1
  O  O204  1  0.00071052  0.37391774  0.76290726  1
  O  O205  1  0.01571643  0.87057316  0.26016573  1
  O  O206  1  0.00403863  0.86568858  0.75906506  1
  O  O207  1  0.50559175  0.38109772  0.25778205  1
  O  O208  1  0.49858339  0.36081459  0.74899064  1
  O  O209  1  0.49741055  0.86261186  0.25606380  1
  O  O210  1  0.49169948  0.85877394  0.75347894  1
  O  O211  1  0.49293159  0.12417714  0.23736015  1
  O  O212  1  0.48898182  0.13435989  0.74329227  1
  O  O213  1  0.49222088  0.63733791  0.24649681  1
  O  O214  1  0.49129172  0.63468382  0.74461226  1
  O  O215  1  0.99487510  0.13112211  0.24487739  1
  O  O216  1  0.99504234  0.12412897  0.73748989  1
  O  O217  1  0.98080830  0.63190835  0.24606843  1
  O  O218  1  0.98825039  0.63699622  0.76707962  1
  O  O219  1  0.37077927  0.25918560  -0.00110912  1
  O  O220  1  0.37064476  0.25879375  0.50926521  1
  O  O221  1  0.37923073  0.76066474  0.00942980  1
  O  O222  1  0.37062447  0.75809128  0.50455574  1
  O  O223  1  0.87686616  0.25816836  0.00967713  1
  O  O224  1  0.88165539  0.26455129  0.50117681  1
  O  O225  1  0.88227799  0.76033277  -0.00525016  1
  O  O226  1  0.87500090  0.74981942  0.50729124  1
  O  O227  1  0.12394407  0.24572496  0.49076004  1
  O  O228  1  0.12985560  0.23644843  0.99588171  1
  O  O229  1  0.13336341  0.74721965  0.49315067  1
  O  O230  1  0.12796869  0.74075462  0.99058380  1
  O  O231  1  0.61124146  0.24653443  0.48695878  1
  O  O232  1  0.62622601  0.24898874  0.98403900  1
  O  O233  1  0.63497058  0.73681306  0.50968255  1
  O  O234  1  0.61861897  0.74672034  0.99127884  1
  O  O235  1  0.49846600  0.23463236  0.11901260  1
  O  O236  1  0.48385062  0.24422217  0.63217503  1
  O  O237  1  0.49218037  0.74909471  0.13763617  1
  O  O238  1  0.49456666  0.74610321  0.63129925  1
  O  O239  1  0.99047912  0.24403617  0.12873066  1
  O  O240  1  1.00213971  0.23933828  0.62488143  1
  O  O241  1  1.00994496  0.73786208  0.12621085  1
  O  O242  1  1.00020887  0.74802955  0.63835521  1
  O  O243  1  0.01006915  0.25479004  0.36948071  1
  O  O244  1  0.00573315  0.25204672  0.87375141  1
  O  O245  1  0.01152461  0.75775542  0.37536378  1
  O  O246  1  0.00712982  0.75964525  0.86943402  1
  O  O247  1  0.50264264  0.26265023  0.37504995  1
  O  O248  1  0.50476724  0.25066616  0.86690166  1
  O  O249  1  0.49781862  0.75367464  0.36285297  1
  O  O250  1  0.51443596  0.74840145  0.86413510  1
  O  O251  1  0.24281705  0.13056571  0.49100622  1
  O  O252  1  0.24344119  0.12681610  0.99712323  1
  O  O253  1  0.25202242  0.63991971  0.50120076  1
  O  O254  1  0.24643246  0.63120100  0.99350714  1
  O  O255  1  0.73198298  0.13039557  0.50329864  1
  O  O256  1  0.74802995  0.13047893  1.01148551  1
  O  O257  1  0.74079247  0.62699191  0.50057451  1
  O  O258  1  0.74912435  0.61853318  0.98400550  1
  O  O259  1  0.26267580  0.37167931  -0.00074174  1
  O  O260  1  0.26097155  0.37322547  0.49163146  1
  O  O261  1  0.26136917  0.87412963  0.00827203  1
  O  O262  1  0.25601211  0.86721800  0.51006772  1
  O  O263  1  0.75770483  0.37159387  0.00438963  1
  O  O264  1  0.76080404  0.38220511  0.50766720  1
  O  O265  1  0.76864274  0.87282497  0.00535174  1
  O  O266  1  0.77376042  0.86227469  0.49529567  1
  O  O267  1  0.12791324  0.49915007  0.24100998  1
  O  O268  1  0.12131454  0.49980394  0.73415850  1
  O  O269  1  0.12240744  0.98684742  0.25331908  1
  O  O270  1  0.12262725  0.99952147  0.73899826  1
  O  O271  1  0.63078011  0.48792054  0.25188399  1
  O  O272  1  0.61694625  0.49830783  0.73471677  1
  O  O273  1  0.62498392  0.99300206  0.24724405  1
  O  O274  1  0.62428265  0.99830296  0.73786344  1
  O  O275  1  0.37851603  0.01764442  0.25139867  1
  O  O276  1  0.38189930  0.00827414  0.75846461  1
  O  O277  1  0.37042261  0.50961758  0.25594160  1
  O  O278  1  0.38430629  0.50935442  0.76173793  1
  O  O279  1  0.88239969  0.01189247  0.26069048  1
  O  O280  1  0.88108478  -0.00343739  0.76899962  1
  O  O281  1  0.86009592  0.47962600  0.26471545  1
  O  O282  1  0.87809501  0.51400184  0.74557121  1
  O  O283  1  0.11988578  0.36915845  0.36866434  1
  O  O284  1  0.11039102  0.35404336  0.89170271  1
  O  O285  1  0.12144201  0.86859352  0.36730838  1
  O  O286  1  0.12111315  0.86850518  0.87373193  1
  O  O287  1  0.61504552  0.36999898  0.37128314  1
  O  O288  1  0.62091896  0.36228688  0.87084310  1
  O  O289  1  0.63352889  0.87589131  0.40941855  1
  O  O290  1  0.62521809  0.85715145  0.87811670  1
  O  O291  1  0.38070575  0.12967262  0.13346102  1
  O  O292  1  0.37534958  0.13239661  0.63253847  1
  O  O293  1  0.38350324  0.63565330  0.13299232  1
  O  O294  1  0.38015261  0.62957991  0.63180966  1
  O  O295  1  0.88193970  0.13153729  0.13504629  1
  O  O296  1  0.89094635  0.12695752  0.60465333  1
  O  O297  1  0.89069315  0.57677577  0.14473588  1
  O  O298  1  0.87504600  0.63474389  0.63432317  1
  O  O299  1  0.25258601  0.25807971  0.11721566  1
  O  O300  1  0.25901296  0.24859045  0.62727635  1
  O  O301  1  0.26468251  0.75812832  0.12509383  1
  O  O302  1  0.25635369  0.75625092  0.61816196  1
  O  O303  1  0.76441580  0.25801815  0.13024871  1
  O  O304  1  0.74624701  0.26495031  0.62411184  1
  O  O305  1  0.79170174  0.68787871  0.14225320  1
  O  O306  1  0.76277459  0.74537471  0.61305799  1
  O  O307  1  0.23615994  0.24397623  0.37351211  1
  O  O308  1  0.24256092  0.23771642  0.88425482  1
  O  O309  1  0.24002367  0.75624216  0.38484708  1
  O  O310  1  0.24766011  0.74162266  0.87652761  1
  O  O311  1  0.73758987  0.24356492  0.37679006  1
  O  O312  1  0.73671548  0.25042171  0.87013133  1
  O  O313  1  0.75380124  0.73988242  0.39269560  1
  O  O314  1  0.73654550  0.74250756  0.87185900  1
  O  O315  1  0.00660502  0.11852319  0.00775385  1
  O  O316  1  0.00921139  0.11478923  0.50140303  1
  O  O317  1  0.00923487  0.61379365  -0.00608425  1
  O  O318  1  -0.00177615  0.60906677  0.49161138  1
  O  O319  1  0.50422499  0.11762824  0.01185266  1
  O  O320  1  0.49701051  0.12367472  0.50585483  1
  O  O321  1  0.49225762  0.61860197  0.01213309  1
  O  O322  1  0.50374095  0.62129281  0.50517531  1
  O  O323  1  0.48593298  0.38058578  0.49114950  1
  O  O324  1  0.48905007  0.38219660  1.00272709  1
  O  O325  1  0.48939205  0.88683351  0.49926609  1
  O  O326  1  0.49034847  0.88260145  1.00121944  1
  O  O327  1  0.99285764  0.38643250  0.49168454  1
  O  O328  1  0.99316457  0.37821997  0.99190172  1
  O  O329  1  1.00213476  0.87841483  0.49514713  1
  O  O330  1  1.00142388  0.88217734  0.99178842  1
  O  O331  1  0.48650646  0.49093399  0.37875083  1
  O  O332  1  0.49492912  0.50357890  0.88267726  1
  O  O333  1  0.49484186  1.00070033  0.38204186  1
  O  O334  1  0.49070298  0.99940474  0.88089749  1
  O  O335  1  0.99253905  0.49397349  0.37890155  1
  O  O336  1  1.00938388  0.48716273  0.88412713  1
  O  O337  1  1.00241085  0.99149556  0.38615901  1
  O  O338  1  0.99935347  0.98771875  0.88233560  1
  O  O339  1  -0.00242285  0.01276495  0.11634174  1
  O  O340  1  0.00756173  0.00477773  0.62054358  1
  O  O341  1  0.01759347  0.49441425  0.10666095  1
  O  O342  1  0.00048337  0.49880147  0.61060090  1
  O  O343  1  0.49624966  0.01506447  0.11634727  1
  O  O344  1  0.48854021  0.01687404  0.61676337  1
  O  O345  1  0.49987641  0.51289468  0.11994523  1
  O  O346  1  0.50275323  0.50510569  0.61648929  1
  O  O347  1  0.24276122  0.38345198  0.24370196  1
  O  O348  1  0.23569150  0.38762622  0.79822873  1
  O  O349  1  0.23869807  0.87618860  0.24380036  1
  O  O350  1  0.25283399  0.86944664  0.73549329  1
  O  O351  1  0.73996433  0.37895529  0.24648032  1
  O  O352  1  0.74695895  0.38184283  0.73871539  1
  O  O353  1  0.74718031  0.87648353  0.24831078  1
  O  O354  1  0.74865566  0.88121808  0.73861502  1
  O  O355  1  0.25850687  0.12583742  0.25621911  1
  O  O356  1  0.26144593  0.12629304  0.75719326  1
  O  O357  1  0.26304437  0.62169007  0.24254854  1
  O  O358  1  0.26508745  0.63131716  0.75697284  1
  O  O359  1  0.76006673  0.12969095  0.26359172  1
  O  O360  1  0.76272279  0.11054185  0.70623667  1
  O  O361  1  0.75441457  0.60974850  0.26038810  1
  O  O362  1  0.75821413  0.62208496  0.75498338  1
  O  O363  1  0.36415389  0.12638349  0.36569103  1
  O  O364  1  0.37188412  0.11752169  0.86879128  1
  O  O365  1  0.37944888  0.61586513  0.36566167  1
  O  O366  1  0.37332766  0.62422228  0.86859589  1
  O  O367  1  0.86742301  0.12771274  0.37068540  1
  O  O368  1  0.87948857  0.10625075  0.87762787  1
  O  O369  1  0.87230524  0.60911877  0.36908459  1
  O  O370  1  0.85696898  0.63147022  0.86658027  1
  O  O371  1  0.13221275  0.37890934  0.12599782  1
  O  O372  1  0.12110259  0.39177910  0.62337951  1
  O  O373  1  0.13447542  0.87240067  0.13861690  1
  O  O374  1  0.13386430  0.88289142  0.62793846  1
  O  O375  1  0.62933449  0.37339837  0.13252522  1
  O  O376  1  0.62839344  0.38128288  0.62254339  1
  O  O377  1  0.63293180  0.87585593  0.12667782  1
  O  O378  1  0.61757172  0.87139871  0.63512010  1
  O  O379  1  0.11896231  0.25675874  0.25478130  1
  O  O380  1  0.12244950  0.25229047  0.75950242  1
  O  O381  1  0.12836006  0.75704568  0.25888125  1
  O  O382  1  0.11920261  0.74774368  0.75669637  1
  O  O383  1  0.62694484  0.26296559  0.26026704  1
  O  O384  1  0.61490899  0.24985053  0.75873759  1
  O  O385  1  0.61789532  0.75076835  0.25750371  1
  O  O386  1  0.61317488  0.74260664  0.74708866  1
  O  O387  1  0.37262435  0.23482181  0.24916513  1
  O  O388  1  0.37814356  0.24415032  0.74701742  1
  O  O389  1  0.38019073  0.74614384  0.24671884  1
  O  O390  1  0.38458669  0.74270142  0.74451739  1
  O  O391  1  0.88174211  0.24421597  0.24525890  1
  O  O392  1  0.87764439  0.24414703  0.74453721  1
  O  O393  1  0.87731954  0.74317075  0.25875394  1
  O  O394  1  0.88082999  0.74545778  0.74359464  1
  O  O395  1  0.37576927  0.49583201  0.49271638  1
  O  O396  1  0.38472871  0.49494151  0.99325814  1
  O  O397  1  0.38113161  0.99534092  0.49645623  1
  O  O398  1  0.38562045  0.99459997  0.99303241  1
  O  O399  1  0.88372363  0.49480109  0.49437239  1
  O  O400  1  0.88672561  0.48691591  1.00152775  1
  O  O401  1  0.89175674  0.98715066  0.50415806  1
  O  O402  1  0.88817912  0.99224293  0.99234530  1
  O  O403  1  0.11505874  0.01093702  -0.00533963  1
  O  O404  1  0.11646605  0.00225648  0.50960422  1
  O  O405  1  0.12494396  0.50682425  -0.00167491  1
  O  O406  1  0.11346785  0.50245075  0.50468710  1
  O  O407  1  0.61253544  -0.00253173  -0.00924368  1
  O  O408  1  0.60455352  0.02117642  0.49949388  1
  O  O409  1  0.60957943  0.49240783  0.00277529  1
  O  O410  1  0.61620306  0.50340809  0.50904974  1
  O  O411  1  0.37000816  0.37497051  0.11800097  1
  O  O412  1  0.37623360  0.36839032  0.61588106  1
  O  O413  1  0.37147512  0.87220428  0.12213807  1
  O  O414  1  0.37008568  0.87286053  0.61506546  1
  O  O415  1  0.87119399  0.36981409  0.11744170  1
  O  O416  1  0.86645320  0.37534385  0.61663958  1
  O  O417  1  0.89156997  0.87109695  0.10998946  1
  O  O418  1  0.89027528  0.85828445  0.61630805  1
  O  O419  1  0.12940984  0.13185363  0.37757719  1
  O  O420  1  0.12623648  0.13103641  0.88162016  1
  O  O421  1  0.12102830  0.63644089  0.37441411  1
  O  O422  1  0.13578397  0.62730036  0.88083928  1
  O  O423  1  0.62955920  0.13497481  0.37930453  1
  O  O424  1  0.61842213  0.13849558  0.87518933  1
  O  O425  1  0.62101642  0.61384486  0.38979588  1
  O  O426  1  0.63640982  0.63757215  0.86918500  1
