# generated using pymatgen
data_V85Zn86O256
_symmetry_space_group_name_H-M   'P 1'
_cell_length_a   16.95987155
_cell_length_b   16.94807221
_cell_length_c   16.95742190
_cell_angle_alpha   90.03430622
_cell_angle_beta   90.00812062
_cell_angle_gamma   89.88687198
_symmetry_Int_Tables_number   1
_chemical_formula_structural   V85Zn86O256
_chemical_formula_sum   'V85 Zn86 O256'
_cell_volume   4874.18221983
_cell_formula_units_Z   1
loop_
 _symmetry_equiv_pos_site_id
 _symmetry_equiv_pos_as_xyz
  1  'x, y, z'
loop_
 _atom_site_type_symbol
 _atom_site_label
 _atom_site_symmetry_multiplicity
 _atom_site_fract_x
 _atom_site_fract_y
 _atom_site_fract_z
 _atom_site_occupancy
  V  V0  1  0.50308985  0.62423298  0.12120317  1
  V  V1  1  0.87351600  0.25146644  0.62513450  1
  V  V2  1  0.19474521  0.82734983  0.68503540  1
  V  V3  1  0.50427324  0.49063742  -0.00446040  1
  V  V4  1  0.12484804  0.87747382  0.24757831  1
  V  V5  1  0.88163612  0.37608205  0.49712685  1
  V  V6  1  0.24816241  0.24949469  0.50533379  1
  V  V7  1  0.37565951  0.74848059  0.12521861  1
  V  V8  1  0.87763094  0.63353428  0.24325313  1
  V  V9  1  0.37523197  0.13141426  0.24626116  1
  V  V10  1  0.24899436  0.74851533  -0.00330164  1
  V  V11  1  0.24503744  0.87794111  0.12307104  1
  V  V12  1  0.50278089  0.86498035  0.37276908  1
  V  V13  1  0.38285424  0.76031436  0.62770304  1
  V  V14  1  0.88170457  0.50097603  0.37237524  1
  V  V15  1  0.50123383  0.13236698  0.12770018  1
  V  V16  1  0.75016913  0.25139952  0.48829008  1
  V  V17  1  0.37535922  0.24669081  0.62179117  1
  V  V18  1  0.73997501  0.25212736  0.00157119  1
  V  V19  1  0.37534028  0.87610086  0.00271043  1
  V  V20  1  0.74699620  0.63033813  0.37242227  1
  V  V21  1  -0.00130422  0.12665046  0.62425712  1
  V  V22  1  0.23829239  0.12399602  0.87431435  1
  V  V23  1  0.87361421  0.49706972  0.87645932  1
  V  V24  1  0.12935029  0.38120611  0.73622594  1
  V  V25  1  0.25323832  0.00899198  0.74334755  1
  V  V26  1  0.62709306  0.49474503  0.12787705  1
  V  V27  1  0.12265249  0.62501194  0.50123656  1
  V  V28  1  0.88184058  0.74940899  0.63060632  1
  V  V29  1  0.74250221  0.37739536  0.62869629  1
  V  V30  1  0.55133800  0.44679181  0.44345355  1
  V  V31  1  0.38080311  0.62305453  0.74965813  1
  V  V32  1  0.50086855  0.12685577  0.62089911  1
  V  V33  1  0.74649647  0.13147325  0.87806339  1
  V  V34  1  0.87208146  0.87873593  0.49411277  1
  V  V35  1  0.62626040  0.87933635  0.75360178  1
  V  V36  1  0.40243127  0.14483761  0.77307718  1
  V  V37  1  0.00232835  0.13337227  0.12759207  1
  V  V38  1  0.12187325  0.26126852  0.87836718  1
  V  V39  1  0.24711018  0.00311913  0.24404059  1
  V  V40  1  0.25062910  0.25119570  0.00639072  1
  V  V41  1  0.00133909  0.49323141  -0.00376364  1
  V  V42  1  0.50658644  0.61703610  0.62290855  1
  V  V43  1  0.37482452  -0.00021104  0.37111597  1
  V  V44  1  -0.00363057  0.87514033  0.37130927  1
  V  V45  1  0.75010256  0.87676397  0.62683459  1
  V  V46  1  0.37124027  -0.00071311  0.87685948  1
  V  V47  1  -0.00493282  0.00249895  0.49370454  1
  V  V48  1  0.87722395  -0.00032786  0.87842089  1
  V  V49  1  0.50265558  0.87707754  0.87818913  1
  V  V50  1  0.38153451  0.48952865  0.87184391  1
  V  V51  1  0.87264833  0.11442363  0.24552886  1
  V  V52  1  0.00056248  0.25617395  0.75583844  1
  V  V53  1  0.37620053  0.36978655  0.00336482  1
  V  V54  1  0.88234261  0.62694710  0.75728679  1
  V  V55  1  0.87866145  0.86776866  0.00131820  1
  V  V56  1  0.74217287  0.50705053  0.75219926  1
  V  V57  1  0.62470651  0.00117479  0.62502162  1
  V  V58  1  0.36708797  0.87760025  0.50018632  1
  V  V59  1  0.75638637  0.87103398  0.12725084  1
  V  V60  1  0.62613914  0.12925720  0.49027879  1
  V  V61  1  0.62165434  0.35977113  0.76734379  1
  V  V62  1  0.74639507  0.75110846  0.49858863  1
  V  V63  1  0.37050254  0.62046078  0.24894614  1
  V  V64  1  0.75484786  0.36969148  0.13017278  1
  V  V65  1  0.12361899  0.12670969  0.49498152  1
  V  V66  1  0.87897974  0.36573316  0.00116661  1
  V  V67  1  0.63014258  0.87022148  0.25182571  1
  V  V68  1  0.50066381  -0.00145657  0.49406196  1
  V  V69  1  0.50556864  0.25787405  0.26476502  1
  V  V70  1  0.32429019  0.42416326  0.55435535  1
  V  V71  1  -0.00711382  0.26416094  0.25733165  1
  V  V72  1  0.24781944  0.62527605  0.36947907  1
  V  V73  1  0.37400418  0.49145128  0.37382518  1
  V  V74  1  0.12855189  -0.00019102  0.62390453  1
  V  V75  1  0.87384072  0.12792685  0.75203563  1
  V  V76  1  0.13637083  0.49335391  0.13110985  1
  V  V77  1  0.75513236  0.10913980  0.36973090  1
  V  V78  1  0.00604514  -0.00236949  0.00809113  1
  V  V79  1  0.25398692  0.61689536  0.87403378  1
  V  V80  1  0.12503136  0.62084236  0.00040057  1
  V  V81  1  0.00247549  0.50123674  0.50675822  1
  V  V82  1  0.63140658  0.00146286  0.13069087  1
  V  V83  1  0.63450631  0.74559254  0.88009823  1
  V  V84  1  0.62125006  0.63036613  0.50066431  1
  Zn  Zn85  1  0.50496979  0.74968777  0.75114751  1
  Zn  Zn86  1  0.25596811  0.48963134  0.73522393  1
  Zn  Zn87  1  0.12161177  0.74690484  0.86334506  1
  Zn  Zn88  1  0.00405163  0.62486292  0.63026443  1
  Zn  Zn89  1  -0.00343439  0.62968891  0.11842618  1
  Zn  Zn90  1  0.31745685  0.30776533  0.16940509  1
  Zn  Zn91  1  0.63483552  0.61966738  -0.00444473  1
  Zn  Zn92  1  0.62517301  0.37469689  0.26507517  1
  Zn  Zn93  1  0.12484599  0.12432251  0.00462244  1
  Zn  Zn94  1  0.11878930  0.26456799  0.37740944  1
  Zn  Zn95  1  0.12358302  0.74954743  0.37183365  1
  Zn  Zn96  1  0.14835934  0.37675898  0.25027376  1
  Zn  Zn97  1  0.24677457  0.12663333  0.37249189  1
  Zn  Zn98  1  0.75169405  0.49918858  0.25005437  1
  Zn  Zn99  1  0.24460983  0.75703543  0.49762414  1
  Zn  Zn100  1  0.62448687  0.12528587  0.00183406  1
  Zn  Zn101  1  0.00750125  0.85736588  0.84260474  1
  Zn  Zn102  1  0.50361997  0.74802873  0.24969217  1
  Zn  Zn103  1  0.76415373  0.73975447  0.00250668  1
  Zn  Zn104  1  -0.00415020  0.75718196  0.23754898  1
  Zn  Zn105  1  0.50120249  0.00266354  0.00521550  1
  Zn  Zn106  1  0.74798142  0.00444499  0.75454302  1
  Zn  Zn107  1  0.17745658  0.18743374  0.19137974  1
  Zn  Zn108  1  0.18738516  0.18780061  0.68831439  1
  Zn  Zn109  1  0.18400256  0.68878381  0.18471287  1
  Zn  Zn110  1  0.19313555  0.66317067  0.68331112  1
  Zn  Zn111  1  0.68588413  0.19218943  0.19254870  1
  Zn  Zn112  1  0.68872041  0.18879080  0.68446370  1
  Zn  Zn113  1  0.68877011  0.68925823  0.18398216  1
  Zn  Zn114  1  0.69005487  0.68947803  0.68752371  1
  Zn  Zn115  1  0.31158815  0.31343381  0.33038449  1
  Zn  Zn116  1  0.30842366  0.31200892  0.81515146  1
  Zn  Zn117  1  0.31336444  0.80940473  0.31056142  1
  Zn  Zn118  1  0.31752722  0.80835023  0.81861527  1
  Zn  Zn119  1  0.81838335  0.31115831  0.31006277  1
  Zn  Zn120  1  0.80957523  0.31546176  0.81673011  1
  Zn  Zn121  1  0.81040798  0.81492654  0.31281264  1
  Zn  Zn122  1  0.81512121  0.81546062  0.81481420  1
  Zn  Zn123  1  0.18154639  0.44370804  0.42718904  1
  Zn  Zn124  1  0.19073801  0.43437907  0.93879777  1
  Zn  Zn125  1  0.18498615  0.94157262  0.43116918  1
  Zn  Zn126  1  0.18097344  0.93481799  0.93013535  1
  Zn  Zn127  1  0.71036629  0.44367023  0.44049743  1
  Zn  Zn128  1  0.69138954  0.43723935  0.93682072  1
  Zn  Zn129  1  0.68482388  0.93721791  0.43510570  1
  Zn  Zn130  1  0.69133825  0.94030524  0.94510547  1
  Zn  Zn131  1  0.31263240  0.06599026  0.06334387  1
  Zn  Zn132  1  0.31322549  0.06593247  0.56286327  1
  Zn  Zn133  1  0.31550150  0.55781778  0.06042995  1
  Zn  Zn134  1  0.31704116  0.58579630  0.55630031  1
  Zn  Zn135  1  0.81315723  0.06038010  0.06492558  1
  Zn  Zn136  1  0.81073231  0.06308803  0.56210135  1
  Zn  Zn137  1  0.81051338  0.55909609  0.06077169  1
  Zn  Zn138  1  0.81237369  0.56344893  0.56727875  1
  Zn  Zn139  1  0.43955963  0.43993311  0.18997564  1
  Zn  Zn140  1  0.45068109  0.43605982  0.69049933  1
  Zn  Zn141  1  0.43996740  0.94055127  0.18741895  1
  Zn  Zn142  1  0.43943549  0.94409916  0.68962770  1
  Zn  Zn143  1  0.93775183  0.44659594  0.17995514  1
  Zn  Zn144  1  0.93537412  0.43636991  0.68898764  1
  Zn  Zn145  1  0.93568463  0.94033390  0.18407349  1
  Zn  Zn146  1  0.93318939  0.94220872  0.68356868  1
  Zn  Zn147  1  0.06042273  0.06152762  0.31063638  1
  Zn  Zn148  1  0.04992757  0.03577220  0.80065698  1
  Zn  Zn149  1  0.06025206  0.55962341  0.31315953  1
  Zn  Zn150  1  0.06186301  0.55704635  0.81595686  1
  Zn  Zn151  1  0.56451906  0.06103720  0.30954668  1
  Zn  Zn152  1  0.55794235  0.07313264  0.81961546  1
  Zn  Zn153  1  0.56594842  0.56923972  0.30691100  1
  Zn  Zn154  1  0.56371139  0.56077311  0.81071665  1
  Zn  Zn155  1  0.43292958  0.18798122  0.43627142  1
  Zn  Zn156  1  0.43599318  0.18526905  0.94206971  1
  Zn  Zn157  1  0.43402113  0.68802828  0.43801554  1
  Zn  Zn158  1  0.44189475  0.68604610  0.93722610  1
  Zn  Zn159  1  0.93374301  0.18798821  0.43130885  1
  Zn  Zn160  1  0.93645585  0.18714021  0.93857233  1
  Zn  Zn161  1  0.93605157  0.69050426  0.43524742  1
  Zn  Zn162  1  0.94452875  0.68614029  0.92834381  1
  Zn  Zn163  1  0.06272380  0.31236215  0.06820650  1
  Zn  Zn164  1  0.06001152  0.31289211  0.56282846  1
  Zn  Zn165  1  0.06385274  0.81012412  0.05897760  1
  Zn  Zn166  1  0.05624523  0.80888621  0.55594219  1
  Zn  Zn167  1  0.56108576  0.31264662  0.06724459  1
  Zn  Zn168  1  0.56580802  0.30743260  0.56806645  1
  Zn  Zn169  1  0.56585687  0.81419560  0.06369599  1
  Zn  Zn170  1  0.56159664  0.81305025  0.56191487  1
  O  O171  1  0.10627717  0.12318865  0.12577422  1
  O  O172  1  0.11850766  0.12240534  0.61320898  1
  O  O173  1  0.12986615  0.61628013  0.11022510  1
  O  O174  1  0.12098549  0.62449735  0.60923308  1
  O  O175  1  0.62078662  0.11812752  0.12961480  1
  O  O176  1  0.62007981  0.12013377  0.61553616  1
  O  O177  1  0.61812938  0.61387913  0.12523231  1
  O  O178  1  0.61930429  0.63111853  0.61541548  1
  O  O179  1  0.37711917  0.39202494  0.38262305  1
  O  O180  1  0.37358002  0.38362447  0.88122347  1
  O  O181  1  0.38160816  0.87970700  0.38010834  1
  O  O182  1  0.38289922  0.87941703  0.88112908  1
  O  O183  1  0.86581834  0.38732667  0.38605114  1
  O  O184  1  0.87072008  0.38691746  0.88551553  1
  O  O185  1  0.88042533  0.87452058  0.38451385  1
  O  O186  1  0.88270955  0.88527129  0.87992488  1
  O  O187  1  0.25599624  0.00232119  0.36100635  1
  O  O188  1  0.25025347  0.00531546  0.86672708  1
  O  O189  1  0.26116827  0.51643172  0.38135154  1
  O  O190  1  0.26187335  0.50754358  0.87905608  1
  O  O191  1  0.75295353  0.01113085  0.37784998  1
  O  O192  1  0.76352474  0.00684379  0.87970518  1
  O  O193  1  0.76370656  0.51377135  0.37165425  1
  O  O194  1  0.75758042  0.49741723  0.86134787  1
  O  O195  1  0.23493212  0.50030459  0.11678865  1
  O  O196  1  0.27265443  0.48953673  0.61439442  1
  O  O197  1  0.25524343  0.99314358  0.13562101  1
  O  O198  1  0.24742541  1.00279065  0.63224861  1
  O  O199  1  0.74223463  0.48876187  0.12737977  1
  O  O200  1  0.75785806  0.49007356  0.64040217  1
  O  O201  1  0.74132020  0.98869978  0.12189790  1
  O  O202  1  0.74165008  0.99524486  0.62653057  1
  O  O203  1  -0.01297286  0.36297338  0.24348186  1
  O  O204  1  0.00968592  0.36327393  0.74614540  1
  O  O205  1  0.00609244  0.87970017  0.25461840  1
  O  O206  1  0.01130774  0.93187661  0.75982269  1
  O  O207  1  0.50062933  0.36151056  0.24845611  1
  O  O208  1  0.52325077  0.37617946  0.74911700  1
  O  O209  1  0.50517076  0.87263863  0.25720965  1
  O  O210  1  0.50888923  0.87663097  0.75907819  1
  O  O211  1  0.49353898  0.13385997  0.24841331  1
  O  O212  1  0.49623464  0.09721028  0.72278097  1
  O  O213  1  0.49467530  0.62745970  0.23639498  1
  O  O214  1  0.49794208  0.62812139  0.74183782  1
  O  O215  1  0.99130605  0.12653445  0.24276125  1
  O  O216  1  0.99325082  0.13195782  0.74338910  1
  O  O217  1  0.98473700  0.62791358  0.25360076  1
  O  O218  1  0.98634335  0.61275855  0.74685575  1
  O  O219  1  0.36707614  0.25798926  -0.00578195  1
  O  O220  1  0.36550205  0.24464148  0.51167863  1
  O  O221  1  0.36591022  0.75294407  0.00320948  1
  O  O222  1  0.37095164  0.75914703  0.51018228  1
  O  O223  1  0.86906703  0.26250601  -0.00295264  1
  O  O224  1  0.87040697  0.25758195  0.50272465  1
  O  O225  1  0.88170186  0.76426466  -0.01013811  1
  O  O226  1  0.87010349  0.76100649  0.50806565  1
  O  O227  1  0.12872300  0.24391908  0.50009566  1
  O  O228  1  0.12996521  0.24921596  0.99383045  1
  O  O229  1  0.12495628  0.74272806  0.49390530  1
  O  O230  1  0.13980753  0.73858037  1.00081220  1
  O  O231  1  0.63479515  0.23658974  0.50380786  1
  O  O232  1  0.63621130  0.24882327  1.00385265  1
  O  O233  1  0.63599639  0.74534075  0.50293355  1
  O  O234  1  0.62291843  0.75056278  0.98551494  1
  O  O235  1  0.50520374  0.23756607  0.13658139  1
  O  O236  1  0.49171296  0.23720129  0.62026448  1
  O  O237  1  0.49395039  0.74041773  0.12065173  1
  O  O238  1  0.49473657  0.74628226  0.62890132  1
  O  O239  1  0.99843879  0.23833612  0.13450899  1
  O  O240  1  0.99324624  0.24447140  0.63232612  1
  O  O241  1  1.00762287  0.74182058  0.12607969  1
  O  O242  1  0.98562315  0.75104487  0.62587406  1
  O  O243  1  -0.00009232  0.24965354  0.36183533  1
  O  O244  1  0.00907878  0.24268810  0.86592651  1
  O  O245  1  -0.00012937  0.76562252  0.37097321  1
  O  O246  1  0.00631904  0.74586320  0.85828193  1
  O  O247  1  0.49654999  0.24862872  0.36370308  1
  O  O248  1  0.48377136  0.17460148  0.83978036  1
  O  O249  1  0.49534846  0.76194834  0.37346137  1
  O  O250  1  0.50695761  0.76317085  0.87385746  1
  O  O251  1  0.23956415  0.13097199  0.49925939  1
  O  O252  1  0.24543063  0.12963365  0.99282941  1
  O  O253  1  0.23933409  0.63385271  0.49146932  1
  O  O254  1  0.24920753  0.62933182  0.99187719  1
  O  O255  1  0.74671966  0.12996206  0.48840703  1
  O  O256  1  0.75325255  0.13587696  0.99745257  1
  O  O257  1  0.74173901  0.63165226  0.49703366  1
  O  O258  1  0.74708828  0.62864479  1.00366324  1
  O  O259  1  0.26074028  0.36316708  -0.00351458  1
  O  O260  1  0.25232107  0.37179894  0.50174996  1
  O  O261  1  0.25420015  0.86824507  0.00492039  1
  O  O262  1  0.26321851  0.87781407  0.49263888  1
  O  O263  1  0.75618994  0.36835098  0.00722964  1
  O  O264  1  0.75936049  0.36789765  0.50909720  1
  O  O265  1  0.76257920  0.87175113  0.00699732  1
  O  O266  1  0.75463784  0.87044414  0.50306614  1
  O  O267  1  0.12169410  0.50502832  0.23332182  1
  O  O268  1  0.12795908  0.48514508  0.75177406  1
  O  O269  1  0.13389133  0.98957614  0.25276311  1
  O  O270  1  0.14485553  1.01508420  0.73739068  1
  O  O271  1  0.62762224  0.49551779  0.24233245  1
  O  O272  1  0.63961577  0.49412897  0.75485173  1
  O  O273  1  0.62086702  0.98830902  0.23882082  1
  O  O274  1  0.62604049  0.99135492  0.74830143  1
  O  O275  1  0.36805962  0.00627996  0.25412983  1
  O  O276  1  0.36895236  0.01002230  0.75821296  1
  O  O277  1  0.38185555  0.51244981  0.25876963  1
  O  O278  1  0.37745647  0.50015578  0.75701002  1
  O  O279  1  0.87855672  0.01536705  0.25239903  1
  O  O280  1  0.86879937  0.01257428  0.75964136  1
  O  O281  1  0.87474087  0.51035086  0.25793350  1
  O  O282  1  0.86802434  0.50238366  0.75864086  1
  O  O283  1  0.12508733  0.37729661  0.36205668  1
  O  O284  1  0.12776564  0.36368097  0.86829014  1
  O  O285  1  0.11603617  0.87472980  0.36587771  1
  O  O286  1  0.11887038  0.86017652  0.88099982  1
  O  O287  1  0.61807714  0.39201639  0.38608505  1
  O  O288  1  0.63084678  0.37056728  0.86685038  1
  O  O289  1  0.61529678  0.88049605  0.36554781  1
  O  O290  1  0.62014157  0.87296978  0.87186682  1
  O  O291  1  0.38383463  0.12034891  0.13861993  1
  O  O292  1  0.38361626  0.13334241  0.62926867  1
  O  O293  1  0.38156819  0.62532674  0.13016075  1
  O  O294  1  0.38339895  0.64130845  0.62959756  1
  O  O295  1  0.88098038  0.12289470  0.13880454  1
  O  O296  1  0.87773451  0.13145194  0.63066944  1
  O  O297  1  0.87405620  0.61766021  0.14135491  1
  O  O298  1  0.87582287  0.63497022  0.63279173  1
  O  O299  1  0.24602842  0.23832886  0.11119582  1
  O  O300  1  0.25750523  0.24525373  0.61477289  1
  O  O301  1  0.25629631  0.75631727  0.11631379  1
  O  O302  1  0.25511191  0.76032815  0.62831540  1
  O  O303  1  0.74622331  0.26207677  0.12042117  1
  O  O304  1  0.75727642  0.25432175  0.61418896  1
  O  O305  1  0.74396182  0.76600304  0.11920307  1
  O  O306  1  0.75826368  0.75678219  0.61577495  1
  O  O307  1  0.24693880  0.24451049  0.39313176  1
  O  O308  1  0.24103340  0.24264385  0.88375852  1
  O  O309  1  0.24981141  0.73916102  0.37571631  1
  O  O310  1  0.25187218  0.73468753  0.88011265  1
  O  O311  1  0.75408589  0.24540135  0.38625866  1
  O  O312  1  0.75560998  0.24232078  0.88756152  1
  O  O313  1  0.75705581  0.74457444  0.39004978  1
  O  O314  1  0.73646416  0.75797064  0.87890313  1
  O  O315  1  -0.00355639  0.12283422  0.01548549  1
  O  O316  1  0.00222900  0.11996710  0.50105114  1
  O  O317  1  0.01181441  0.61618173  -0.00375740  1
  O  O318  1  0.00551330  0.62057808  0.49994041  1
  O  O319  1  0.50296724  0.12477365  0.01317123  1
  O  O320  1  0.50776344  0.12043844  0.50131832  1
  O  O321  1  0.50177224  0.61439089  0.00956759  1
  O  O322  1  0.51401113  0.63587580  0.50438368  1
  O  O323  1  0.50543994  0.38400930  0.50565809  1
  O  O324  1  0.49606649  0.38291778  1.00010143  1
  O  O325  1  0.49263885  0.87903035  0.49079450  1
  O  O326  1  0.49302497  0.87708613  0.99488002  1
  O  O327  1  0.98813372  0.38165228  0.50384830  1
  O  O328  1  0.99094618  0.38002404  1.00745973  1
  O  O329  1  0.99148105  0.88250586  0.49243056  1
  O  O330  1  0.99591325  0.89012554  1.00688464  1
  O  O331  1  0.49384000  0.50729226  0.37937992  1
  O  O332  1  0.49320518  0.50556403  0.88405166  1
  O  O333  1  0.49371730  0.99278875  0.37701918  1
  O  O334  1  0.49432980  0.99011190  0.87918181  1
  O  O335  1  0.98677975  0.50657408  0.38671607  1
  O  O336  1  0.99295269  0.49848920  0.88827360  1
  O  O337  1  1.00363064  0.99154286  0.38625817  1
  O  O338  1  0.98467506  1.01915475  0.89685560  1
  O  O339  1  -0.00528621  0.01237230  0.11330300  1
  O  O340  1  0.00633436  0.00792113  0.60964742  1
  O  O341  1  0.00913979  0.50873415  0.11165987  1
  O  O342  1  -0.01040376  0.50256545  0.61022845  1
  O  O343  1  0.50784215  0.01257112  0.12751537  1
  O  O344  1  0.50603254  0.00100350  0.60962334  1
  O  O345  1  0.50813645  0.50471175  0.11770757  1
  O  O346  1  0.49332179  0.51813662  0.62311393  1
  O  O347  1  0.26247634  0.36713058  0.24633462  1
  O  O348  1  0.23558650  0.37431038  0.75066049  1
  O  O349  1  0.24582706  0.88143711  0.24272833  1
  O  O350  1  0.25500312  0.88296798  0.74810127  1
  O  O351  1  0.74733146  0.37474657  0.24466592  1
  O  O352  1  0.74429156  0.38239107  0.74525488  1
  O  O353  1  0.74280745  0.87349950  0.24305859  1
  O  O354  1  0.74291414  0.87960983  0.74564583  1
  O  O355  1  0.25498014  0.11981385  0.24827467  1
  O  O356  1  0.25886717  0.12266845  0.75759865  1
  O  O357  1  0.25934480  0.63008994  0.25476458  1
  O  O358  1  0.26074504  0.61017806  0.75551106  1
  O  O359  1  0.76015082  0.13038236  0.26015780  1
  O  O360  1  0.75652523  0.12806404  0.75865888  1
  O  O361  1  0.75800239  0.62712217  0.25705665  1
  O  O362  1  0.75735217  0.61126651  0.74390867  1
  O  O363  1  0.37241090  0.11825380  0.36296604  1
  O  O364  1  0.35593550  0.11664819  0.87660056  1
  O  O365  1  0.36986432  0.62080769  0.36776029  1
  O  O366  1  0.37269393  0.61678071  0.86884262  1
  O  O367  1  0.86237573  0.12472949  0.36640534  1
  O  O368  1  0.86559234  0.12177110  0.87166725  1
  O  O369  1  0.86604280  0.62195778  0.36939043  1
  O  O370  1  0.87580095  0.61114220  0.86835741  1
  O  O371  1  0.12275578  0.38881348  0.13010433  1
  O  O372  1  0.12462654  0.37169873  0.63777667  1
  O  O373  1  0.13901461  0.87422365  0.12845977  1
  O  O374  1  0.12849331  0.87695427  0.62235025  1
  O  O375  1  0.63122612  0.38485288  0.12684685  1
  O  O376  1  0.64031343  0.37076121  0.62904841  1
  O  O377  1  0.63031251  0.88231279  0.13181120  1
  O  O378  1  0.62888599  0.88024260  0.63348349  1
  O  O379  1  0.10652682  0.25262775  0.25181759  1
  O  O380  1  0.11893810  0.25666030  0.75618552  1
  O  O381  1  0.12612184  0.76564042  0.25101538  1
  O  O382  1  0.14482187  0.75678398  0.73843605  1
  O  O383  1  0.61107961  0.25435187  0.25565470  1
  O  O384  1  0.63242948  0.26043728  0.75113087  1
  O  O385  1  0.62141639  0.76425004  0.24445955  1
  O  O386  1  0.62746401  0.76257580  0.76032613  1
  O  O387  1  0.38268353  0.24411783  0.25150063  1
  O  O388  1  0.37004552  0.24274416  0.74206476  1
  O  O389  1  0.37892821  0.73914042  0.24201185  1
  O  O390  1  0.37838052  0.74526636  0.74277535  1
  O  O391  1  0.88744094  0.23709033  0.25428614  1
  O  O392  1  0.88258958  0.24827657  0.74842295  1
  O  O393  1  0.87478739  0.73697488  0.25425484  1
  O  O394  1  0.86387481  0.73844253  0.74349022  1
  O  O395  1  0.37276104  0.49700131  0.49789942  1
  O  O396  1  0.38427890  0.49224699  0.99181032  1
  O  O397  1  0.37960861  0.99536396  0.49331537  1
  O  O398  1  0.37472147  0.99357244  0.99423341  1
  O  O399  1  0.87670440  0.49426974  0.49430983  1
  O  O400  1  0.88221403  0.49238111  0.99455274  1
  O  O401  1  0.88196931  0.98918988  0.50625691  1
  O  O402  1  0.88167514  0.99143791  0.99639732  1
  O  O403  1  0.10870075  0.00461814  -0.00427147  1
  O  O404  1  0.11913733  0.00684373  0.50399898  1
  O  O405  1  0.12009409  0.50213578  0.00282656  1
  O  O406  1  0.11347566  0.51021161  0.49442270  1
  O  O407  1  0.62218997  0.00142468  0.01530242  1
  O  O408  1  0.62144071  0.01055911  0.50282988  1
  O  O409  1  0.61903606  0.49882374  0.00553364  1
  O  O410  1  0.62035600  0.50761553  0.49371099  1
  O  O411  1  0.38286460  0.37946039  0.10879718  1
  O  O412  1  0.38188347  0.36782741  0.62118271  1
  O  O413  1  0.36637900  0.87035024  0.12206752  1
  O  O414  1  0.38357687  0.86884828  0.61686787  1
  O  O415  1  0.86421941  0.38333331  0.11482734  1
  O  O416  1  0.86682395  0.36874620  0.61931623  1
  O  O417  1  0.86726422  0.87893122  0.11669713  1
  O  O418  1  0.86861704  0.87094807  0.62008585  1
  O  O419  1  0.12337584  0.12562309  0.38666705  1
  O  O420  1  0.13271890  0.13212462  0.87394757  1
  O  O421  1  0.13154440  0.62601608  0.37887541  1
  O  O422  1  0.13660160  0.62187905  0.88255164  1
  O  O423  1  0.63918119  0.12020825  0.37929125  1
  O  O424  1  0.64345016  0.11496934  0.88195803  1
  O  O425  1  0.63906068  0.62386953  0.38047361  1
  O  O426  1  0.61882675  0.64332058  0.87317430  1
