# generated using pymatgen
data_V85Zn86O256
_symmetry_space_group_name_H-M   'P 1'
_cell_length_a   16.93284053
_cell_length_b   16.92872007
_cell_length_c   16.93188179
_cell_angle_alpha   90.04768638
_cell_angle_beta   89.98533158
_cell_angle_gamma   89.95850214
_symmetry_Int_Tables_number   1
_chemical_formula_structural   V85Zn86O256
_chemical_formula_sum   'V85 Zn86 O256'
_cell_volume   4853.54310720
_cell_formula_units_Z   1
loop_
 _symmetry_equiv_pos_site_id
 _symmetry_equiv_pos_as_xyz
  1  'x, y, z'
loop_
 _atom_site_type_symbol
 _atom_site_label
 _atom_site_symmetry_multiplicity
 _atom_site_fract_x
 _atom_site_fract_y
 _atom_site_fract_z
 _atom_site_occupancy
  V  V0  1  0.75624414  0.12076245  0.88213627  1
  V  V1  1  0.50528469  0.01411493  0.00446960  1
  V  V2  1  0.62401147  0.87305786  0.24089621  1
  V  V3  1  0.50076227  0.36391194  0.37874306  1
  V  V4  1  0.12435885  0.37625287  0.24514298  1
  V  V5  1  0.12442699  0.50234280  0.63335157  1
  V  V6  1  0.62036718  0.01133893  0.12808329  1
  V  V7  1  0.25313130  0.00187600  0.74917144  1
  V  V8  1  0.37879625  0.37344316  0.00022098  1
  V  V9  1  0.86860703  -0.00250340  0.37752386  1
  V  V10  1  0.36866452  0.25097050  0.62122281  1
  V  V11  1  0.87344770  0.37385573  -0.00109634  1
  V  V12  1  0.25144992  0.49962642  0.24885513  1
  V  V13  1  0.62129752  0.50315185  0.12105285  1
  V  V14  1  0.62297160  0.74856130  0.37200345  1
  V  V15  1  0.87480041  0.12430271  0.25033785  1
  V  V16  1  0.75311441  0.24767191  0.50083029  1
  V  V17  1  0.37613231  0.50065438  0.37326482  1
  V  V18  1  0.87602062  0.62341318  0.23888792  1
  V  V19  1  0.50071034  0.24129418  0.24562668  1
  V  V20  1  0.12246719  0.00680538  0.62440434  1
  V  V21  1  0.00083151  0.36913974  0.87834180  1
  V  V22  1  -0.00966990  -0.00041085  -0.00566668  1
  V  V23  1  0.62799752  0.87631679  0.75183866  1
  V  V24  1  0.74902214  0.62228265  0.37790749  1
  V  V25  1  0.76139566  0.76276963  0.01300826  1
  V  V26  1  0.62441966  0.12891928  0.49601406  1
  V  V27  1  0.50761093  0.25419708  0.74864099  1
  V  V28  1  0.80478129  -0.05965347  0.19388073  1
  V  V29  1  0.87686267  0.13223836  0.73757667  1
  V  V30  1  -0.00520136  0.74176697  0.23836672  1
  V  V31  1  0.87642752  0.62278723  0.74788247  1
  V  V32  1  0.63477737  0.62203919  -0.00169549  1
  V  V33  1  0.62739479  -0.00074111  0.62546029  1
  V  V34  1  0.74730599  0.49782571  0.25225963  1
  V  V35  1  0.25120295  0.13163496  0.37399988  1
  V  V36  1  0.38021159  0.50159290  0.87406927  1
  V  V37  1  0.75976672  -0.00016249  0.75232959  1
  V  V38  1  0.00211024  0.24881120  0.25240956  1
  V  V39  1  0.25616039  0.76384486  0.00201435  1
  V  V40  1  0.12232777  0.75256163  0.37227811  1
  V  V41  1  0.12600651  0.87886589  0.74660931  1
  V  V42  1  0.49772241  0.49554438  0.50036114  1
  V  V43  1  0.62495703  0.24384951  0.88208125  1
  V  V44  1  -0.00003110  0.00452330  0.50236222  1
  V  V45  1  0.49752841  -0.00694773  0.50050458  1
  V  V46  1  0.50292560  0.87673978  0.87833065  1
  V  V47  1  0.49991754  0.62504815  0.62320670  1
  V  V48  1  0.00146578  0.74620043  0.74044923  1
  V  V49  1  0.00118217  0.87345137  0.37273093  1
  V  V50  1  0.12290989  0.62690507  0.50598573  1
  V  V51  1  0.25732166  0.75497648  0.50013103  1
  V  V52  1  0.12787031  0.75569792  0.87174500  1
  V  V53  1  -0.00109626  0.50504715  0.50732915  1
  V  V54  1  0.74683225  0.12544159  0.37103330  1
  V  V55  1  0.12758033  0.13240612  0.50042864  1
  V  V56  1  0.44345195  0.55877927  0.05901605  1
  V  V57  1  0.48832700  0.73779911  0.23491894  1
  V  V58  1  0.12698322  0.37462030  0.75981136  1
  V  V59  1  0.63504638  0.74685227  0.87713682  1
  V  V60  1  0.50102265  0.12475393  0.62617076  1
  V  V61  1  0.74829283  0.36848416  0.63313158  1
  V  V62  1  0.49609731  0.87080499  0.37403983  1
  V  V63  1  0.00253016  0.24859384  0.73847359  1
  V  V64  1  0.74896420  0.75033428  0.50407570  1
  V  V65  1  0.37660536  0.00147332  0.87656209  1
  V  V66  1  0.37734703  0.87800097  0.01414993  1
  V  V67  1  0.37631683  0.62819974  0.74715372  1
  V  V68  1  0.50787736  0.37998102  0.87324720  1
  V  V69  1  0.87386095  0.49857682  0.37882589  1
  V  V70  1  0.00770430  0.12098600  0.12588359  1
  V  V71  1  0.87667751  0.36917778  0.50853048  1
  V  V72  1  -0.00041592  0.37432266  0.37645033  1
  V  V73  1  0.24079279  -0.01246014  0.24667907  1
  V  V74  1  0.25313624  0.62932810  0.87701045  1
  V  V75  1  0.74811706  0.50184351  0.75531264  1
  V  V76  1  0.62384400  0.36988761  0.25583365  1
  V  V77  1  0.62331344  0.49226571  0.62965012  1
  V  V78  1  0.25243890  0.62563796  0.36692449  1
  V  V79  1  0.37276772  -0.00233694  0.37648784  1
  V  V80  1  -0.01463950  0.87947368  0.87220244  1
  V  V81  1  0.74870901  0.37174344  0.12529766  1
  V  V82  1  0.37394115  0.24182164  0.12293617  1
  V  V83  1  0.12409148  0.12923794  -0.00388687  1
  V  V84  1  0.24780008  0.13437018  0.87526546  1
  Zn  Zn85  1  0.24472051  0.37227265  0.62092970  1
  Zn  Zn86  1  0.87124879  0.50242485  0.87720739  1
  Zn  Zn87  1  0.24375432  0.25619019  -0.00190970  1
  Zn  Zn88  1  0.37798898  0.12718650  0.75167005  1
  Zn  Zn89  1  0.10976949  0.52945672  0.13573757  1
  Zn  Zn90  1  0.87457301  0.24771384  0.12515812  1
  Zn  Zn91  1  0.50332981  0.75252020  0.74778877  1
  Zn  Zn92  1  0.75292322  0.87340519  0.62512572  1
  Zn  Zn93  1  0.11484091  0.63161294  0.00699672  1
  Zn  Zn94  1  0.88159763  0.74674597  0.62076739  1
  Zn  Zn95  1  0.24885295  0.37883049  0.12036972  1
  Zn  Zn96  1  0.37569267  0.12027160  0.24525656  1
  Zn  Zn97  1  0.35906289  0.36779152  0.49525330  1
  Zn  Zn98  1  0.13415761  0.25657012  0.38107464  1
  Zn  Zn99  1  0.25941012  0.88398461  0.61466002  1
  Zn  Zn100  1  0.00118179  0.50500368  0.00728795  1
  Zn  Zn101  1  0.13821642  -0.02766468  0.11398742  1
  Zn  Zn102  1  0.87511446  0.87321743  0.50391079  1
  Zn  Zn103  1  0.38185161  0.75892014  0.61938929  1
  Zn  Zn104  1  0.24892488  0.50004206  0.75139193  1
  Zn  Zn105  1  0.74539887  0.24546666  0.00350514  1
  Zn  Zn106  1  0.62425503  0.62209005  0.50011096  1
  Zn  Zn107  1  0.19083021  0.18704801  0.18877392  1
  Zn  Zn108  1  0.18408904  0.18624274  0.69090915  1
  Zn  Zn109  1  0.15849951  0.75834527  0.16399023  1
  Zn  Zn110  1  0.18897637  0.68756024  0.68615613  1
  Zn  Zn111  1  0.68735608  0.18894067  0.19075651  1
  Zn  Zn112  1  0.68681730  0.18722868  0.68955523  1
  Zn  Zn113  1  0.68599005  0.68692795  0.18556977  1
  Zn  Zn114  1  0.68556610  0.68307338  0.68884678  1
  Zn  Zn115  1  0.31535830  0.31325942  0.30967798  1
  Zn  Zn116  1  0.31699125  0.31407709  0.80833542  1
  Zn  Zn117  1  0.31529362  0.81073537  0.31176940  1
  Zn  Zn118  1  0.31725762  0.81710879  0.80875141  1
  Zn  Zn119  1  0.81311650  0.30867402  0.31661450  1
  Zn  Zn120  1  0.81366592  0.30775314  0.81406768  1
  Zn  Zn121  1  0.81600166  0.80561722  0.31838830  1
  Zn  Zn122  1  0.81094855  0.80621729  0.81109527  1
  Zn  Zn123  1  0.18697296  0.43701886  0.43955856  1
  Zn  Zn124  1  0.18754696  0.44842902  0.94369236  1
  Zn  Zn125  1  0.18557253  0.93853875  0.43348512  1
  Zn  Zn126  1  0.18450625  0.94330635  0.93383341  1
  Zn  Zn127  1  0.68486166  0.43405850  0.44211729  1
  Zn  Zn128  1  0.68460048  0.43450045  0.93895319  1
  Zn  Zn129  1  0.68441495  0.93587474  0.43525690  1
  Zn  Zn130  1  0.69060113  0.93954778  0.94261981  1
  Zn  Zn131  1  0.31052190  0.06106237  0.06264180  1
  Zn  Zn132  1  0.31339504  0.06638453  0.56052659  1
  Zn  Zn133  1  0.26240275  0.61999875  0.10889249  1
  Zn  Zn134  1  0.31000367  0.56202327  0.55908579  1
  Zn  Zn135  1  0.81701750  0.06377764  0.06161094  1
  Zn  Zn136  1  0.81208364  0.06096005  0.56316317  1
  Zn  Zn137  1  0.80944675  0.55888170  0.05983522  1
  Zn  Zn138  1  0.81228959  0.56282726  0.56914178  1
  Zn  Zn139  1  0.43383886  0.42868113  0.19215642  1
  Zn  Zn140  1  0.43514263  0.43565254  0.68961956  1
  Zn  Zn141  1  0.44124670  0.93890562  0.19207528  1
  Zn  Zn142  1  0.43710450  0.93569381  0.68810931  1
  Zn  Zn143  1  0.93774348  0.44016041  0.18434838  1
  Zn  Zn144  1  0.93866948  0.43671898  0.68894618  1
  Zn  Zn145  1  0.99215319  0.90811451  0.16688963  1
  Zn  Zn146  1  0.93583238  0.93632414  0.68489716  1
  Zn  Zn147  1  0.06558368  0.06065707  0.31459497  1
  Zn  Zn148  1  0.06104961  0.06594900  0.81261805  1
  Zn  Zn149  1  0.06275436  0.56346007  0.31732818  1
  Zn  Zn150  1  0.04703888  0.57474349  0.84249610  1
  Zn  Zn151  1  0.56446849  0.05876110  0.31168791  1
  Zn  Zn152  1  0.56718400  0.06395498  0.81376334  1
  Zn  Zn153  1  0.56036148  0.55970701  0.31070347  1
  Zn  Zn154  1  0.56438379  0.56382099  0.81146706  1
  Zn  Zn155  1  0.43658136  0.18350470  0.43753722  1
  Zn  Zn156  1  0.43551559  0.19014799  0.93570895  1
  Zn  Zn157  1  0.43789122  0.68386653  0.43346903  1
  Zn  Zn158  1  0.43999415  0.69437713  0.93411794  1
  Zn  Zn159  1  0.93802433  0.18642061  0.43889244  1
  Zn  Zn160  1  0.93552483  0.19076400  0.93468497  1
  Zn  Zn161  1  0.93532490  0.68524884  0.43709006  1
  Zn  Zn162  1  0.93002504  0.68770781  0.92920946  1
  Zn  Zn163  1  0.06137451  0.31214736  0.06464987  1
  Zn  Zn164  1  0.06538647  0.31621745  0.56667491  1
  Zn  Zn165  1  0.04899704  0.80431977  0.04780572  1
  Zn  Zn166  1  0.06823804  0.81944280  0.55982673  1
  Zn  Zn167  1  0.55985562  0.31209331  0.06211524  1
  Zn  Zn168  1  0.56369947  0.31030408  0.56197575  1
  Zn  Zn169  1  0.56556530  0.81250421  0.06175781  1
  Zn  Zn170  1  0.56651743  0.81157068  0.56208283  1
  O  O171  1  0.11507743  0.12598490  0.12096505  1
  O  O172  1  0.12922974  0.11519424  0.61701976  1
  O  O173  1  0.14865213  0.64087866  0.12073189  1
  O  O174  1  0.12690863  0.61989057  0.61407378  1
  O  O175  1  0.62959785  0.11024092  0.13129892  1
  O  O176  1  0.62059289  0.11854669  0.61777393  1
  O  O177  1  0.62693678  0.60999114  0.11930132  1
  O  O178  1  0.61269256  0.61608037  0.62393750  1
  O  O179  1  0.38375240  0.37927951  0.37790144  1
  O  O180  1  0.38275515  0.38167400  0.87988994  1
  O  O181  1  0.38845956  0.88051069  0.37350124  1
  O  O182  1  0.38728801  0.88378600  0.87733749  1
  O  O183  1  0.87858135  0.37984681  0.38619924  1
  O  O184  1  0.87832498  0.37316259  0.88452997  1
  O  O185  1  0.87911704  0.88259915  0.38040101  1
  O  O186  1  0.88732604  0.87488092  0.86470736  1
  O  O187  1  0.25626111  0.00466964  0.36788157  1
  O  O188  1  0.25589474  0.00857630  0.86726683  1
  O  O189  1  0.25586580  0.50560605  0.37087562  1
  O  O190  1  0.25964876  0.51404639  0.87437421  1
  O  O191  1  0.76144671  0.00788353  0.38377633  1
  O  O192  1  0.74543126  0.01289903  0.86829889  1
  O  O193  1  0.75159500  0.50357687  0.37232798  1
  O  O194  1  0.74757578  0.48800170  0.85793623  1
  O  O195  1  0.25229895  0.50176744  0.14435988  1
  O  O196  1  0.23596158  0.50251948  0.62767911  1
  O  O197  1  0.24953641  1.00042831  0.14036622  1
  O  O198  1  0.24538484  1.00390323  0.63273466  1
  O  O199  1  0.74015557  0.49124796  0.13244029  1
  O  O200  1  0.74114828  0.48974781  0.62998200  1
  O  O201  1  0.74662901  0.99783431  0.12877138  1
  O  O202  1  0.74440226  0.99858139  0.63371020  1
  O  O203  1  0.00365556  0.36740471  0.25451000  1
  O  O204  1  0.00361647  0.36355161  0.75404472  1
  O  O205  1  -0.01037049  0.85713612  0.26722432  1
  O  O206  1  0.00682463  0.87277440  0.75641645  1
  O  O207  1  0.50653769  0.36621886  0.25868161  1
  O  O208  1  0.49600458  0.36558179  0.75971323  1
  O  O209  1  0.50743449  0.86540485  0.25681441  1
  O  O210  1  0.51140698  0.87766529  0.75972171  1
  O  O211  1  0.49928502  0.13820701  0.25875937  1
  O  O212  1  0.50105306  0.13072226  0.74321256  1
  O  O213  1  0.50482967  0.63915369  0.25266324  1
  O  O214  1  0.49392503  0.62709692  0.74071183  1
  O  O215  1  0.99860204  0.12873149  0.24497866  1
  O  O216  1  0.98827746  0.13621176  0.75571473  1
  O  O217  1  0.98366776  0.62690106  0.26001012  1
  O  O218  1  0.99076936  0.63423958  0.75566759  1
  O  O219  1  0.37260360  0.25732261  0.00573977  1
  O  O220  1  0.38371297  0.24930679  0.51714701  1
  O  O221  1  0.36462817  0.76478930  -0.01274111  1
  O  O222  1  0.35989122  0.74434332  0.49682728  1
  O  O223  1  0.87168773  0.26087101  0.00490989  1
  O  O224  1  0.86803077  0.25725741  0.49856510  1
  O  O225  1  0.86011067  0.74523236  -0.00358307  1
  O  O226  1  0.86451896  0.74930263  0.50073573  1
  O  O227  1  0.11603363  0.23658675  0.50024024  1
  O  O228  1  0.12549020  0.23567691  1.00479393  1
  O  O229  1  0.13061426  0.74366856  0.49230259  1
  O  O230  1  0.13672840  0.75403098  0.98732271  1
  O  O231  1  0.63027102  0.23495539  0.50110374  1
  O  O232  1  0.62422596  0.25102887  0.98718502  1
  O  O233  1  0.63088138  0.74510404  0.49032196  1
  O  O234  1  0.63036564  0.74210354  0.99491398  1
  O  O235  1  0.49073291  0.25545762  0.13472328  1
  O  O236  1  0.49672750  0.24509342  0.63196568  1
  O  O237  1  0.50289465  0.75093336  0.13595585  1
  O  O238  1  0.50112959  0.73916641  0.62424187  1
  O  O239  1  0.99842341  0.24274266  0.13788324  1
  O  O240  1  0.99895151  0.25279825  0.63925175  1
  O  O241  1  0.99588868  0.74484959  0.13761795  1
  O  O242  1  1.00565477  0.75786645  0.63722054  1
  O  O243  1  0.00052768  0.25452672  0.36518478  1
  O  O244  1  -0.00467395  0.26198243  0.86420583  1
  O  O245  1  0.00588980  0.75533753  0.37693762  1
  O  O246  1  0.00793637  0.76363094  0.86406547  1
  O  O247  1  0.49426830  0.25922434  0.36924512  1
  O  O248  1  0.50629213  0.25365733  0.86717233  1
  O  O249  1  0.50541994  0.75611521  0.37341159  1
  O  O250  1  0.51107289  0.76421786  0.87448929  1
  O  O251  1  0.23987928  0.11892308  0.48808767  1
  O  O252  1  0.24221959  0.12483711  0.99169337  1
  O  O253  1  0.24168082  0.63335013  0.49148197  1
  O  O254  1  0.25660741  0.64556267  0.98340230  1
  O  O255  1  0.74544432  0.12955581  0.49440395  1
  O  O256  1  0.75569090  0.12591494  0.98647373  1
  O  O257  1  0.74778021  0.62819289  0.49373043  1
  O  O258  1  0.73797808  0.62923507  1.00075232  1
  O  O259  1  0.26371457  0.37657152  -0.00248222  1
  O  O260  1  0.24541070  0.37098918  0.50610259  1
  O  O261  1  0.25903508  0.87139058  -0.00850656  1
  O  O262  1  0.24460910  0.85880366  0.49508313  1
  O  O263  1  0.75394629  0.37175526  0.00943683  1
  O  O264  1  0.75649977  0.36599746  0.50596997  1
  O  O265  1  0.74991022  0.86256976  0.00073373  1
  O  O266  1  0.74866768  0.86386997  0.49929010  1
  O  O267  1  0.13137562  0.49465525  0.25191345  1
  O  O268  1  0.12265986  0.49448828  0.74496639  1
  O  O269  1  0.13752232  0.99795545  0.24860589  1
  O  O270  1  0.13051429  1.00080332  0.74169850  1
  O  O271  1  0.62728770  0.48915209  0.24327548  1
  O  O272  1  0.63175142  0.50350198  0.73747834  1
  O  O273  1  0.62154415  0.99064170  0.23844882  1
  O  O274  1  0.63660263  0.99613798  0.74571860  1
  O  O275  1  0.36992508  0.00062570  0.26103759  1
  O  O276  1  0.36822465  0.00431219  0.75669272  1
  O  O277  1  0.36765886  0.49103713  0.26473108  1
  O  O278  1  0.37247495  0.51224058  0.75339118  1
  O  O279  1  0.86312430  0.00328024  0.25725623  1
  O  O280  1  0.86570544  0.01082276  0.74666032  1
  O  O281  1  0.86690486  0.50579764  0.25926490  1
  O  O282  1  0.86737773  0.50707636  0.74629116  1
  O  O283  1  0.11636220  0.37497824  0.36548536  1
  O  O284  1  0.12002870  0.38031360  0.86611016  1
  O  O285  1  0.11481703  0.86506519  0.37816301  1
  O  O286  1  0.12297899  0.86849525  0.86569230  1
  O  O287  1  0.61542835  0.37924229  0.36664086  1
  O  O288  1  0.61341088  0.36637539  0.87784735  1
  O  O289  1  0.61544729  0.87234482  0.36374091  1
  O  O290  1  0.62101150  0.87139257  0.87184852  1
  O  O291  1  0.37254877  0.13696972  0.12466572  1
  O  O292  1  0.38351220  0.13374268  0.62615314  1
  O  O293  1  0.37817355  0.61185784  0.11094017  1
  O  O294  1  0.38415746  0.62514421  0.62929016  1
  O  O295  1  0.88753551  0.12451631  0.13285906  1
  O  O296  1  0.87215482  0.12514532  0.63858201  1
  O  O297  1  0.86594690  0.61816690  0.14093918  1
  O  O298  1  0.87544523  0.62844028  0.63861590  1
  O  O299  1  0.25904583  0.25504944  0.12319247  1
  O  O300  1  0.26668992  0.24556737  0.63380607  1
  O  O301  1  0.25788950  0.75303321  0.10383967  1
  O  O302  1  0.24945841  0.74943152  0.60750599  1
  O  O303  1  0.75037504  0.25805471  0.12410670  1
  O  O304  1  0.74351474  0.25570373  0.61338608  1
  O  O305  1  0.74684766  0.74907313  0.11239401  1
  O  O306  1  0.74425351  0.74753481  0.61153178  1
  O  O307  1  0.25256734  0.23631113  0.36922468  1
  O  O308  1  0.25699474  0.23752712  0.87397728  1
  O  O309  1  0.24343325  0.74422078  0.38054223  1
  O  O310  1  0.24512538  0.75216735  0.87555774  1
  O  O311  1  0.75260249  0.24013876  0.38941988  1
  O  O312  1  0.74177456  0.24019168  0.87523395  1
  O  O313  1  0.74417875  0.74037022  0.38379426  1
  O  O314  1  0.73838501  0.75276639  0.88304781  1
  O  O315  1  0.00476016  0.12112323  0.00383425  1
  O  O316  1  0.00857760  0.11120183  0.49112067  1
  O  O317  1  0.01021694  0.61472886  -0.04198833  1
  O  O318  1  0.00793729  0.61533430  0.49516369  1
  O  O319  1  0.49964824  0.11283840  -0.00742173  1
  O  O320  1  0.50834987  0.11508550  0.50226871  1
  O  O321  1  0.50303314  0.62324914  0.00364134  1
  O  O322  1  0.50020841  0.61516269  0.50644343  1
  O  O323  1  0.50004852  0.37839614  0.49236573  1
  O  O324  1  0.48810779  0.36912890  0.98874067  1
  O  O325  1  0.50939026  0.88644591  0.49153072  1
  O  O326  1  0.49537970  0.88223241  0.99425599  1
  O  O327  1  0.99346705  0.38017685  0.49793934  1
  O  O328  1  0.99211976  0.37310256  0.99453055  1
  O  O329  1  1.00029498  0.88609600  0.49012391  1
  O  O330  1  1.00006615  0.88238824  0.98094506  1
  O  O331  1  0.49313545  0.49140671  0.37888381  1
  O  O332  1  0.49512587  0.48995417  0.86695890  1
  O  O333  1  0.49344613  0.99281544  0.37995211  1
  O  O334  1  0.50088363  0.99300250  0.88194358  1
  O  O335  1  0.99521837  0.49330013  0.38705495  1
  O  O336  1  0.99089182  0.47810200  0.87015131  1
  O  O337  1  0.99027037  0.99246216  0.37709707  1
  O  O338  1  1.00553502  0.98705734  0.87725377  1
  O  O339  1  0.00788219  0.00704589  0.11310764  1
  O  O340  1  0.00924331  -0.00399031  0.61469603  1
  O  O341  1  -0.00032776  0.50606554  0.12293123  1
  O  O342  1  0.00947387  0.49539191  0.61516898  1
  O  O343  1  0.51123285  0.00170649  0.12066656  1
  O  O344  1  0.50497328  0.00450022  0.61696236  1
  O  O345  1  0.50129538  0.49889526  0.12470270  1
  O  O346  1  0.50489452  0.50249323  0.62198756  1
  O  O347  1  0.24039079  0.38272759  0.25301790  1
  O  O348  1  0.24074045  0.37722031  0.74779520  1
  O  O349  1  0.25061965  0.88787072  0.25694002  1
  O  O350  1  0.24479268  0.89005900  0.75116100  1
  O  O351  1  0.74282321  0.37601339  0.24708724  1
  O  O352  1  0.75828351  0.37728773  0.73674173  1
  O  O353  1  0.74665148  0.87523170  0.25249042  1
  O  O354  1  0.74543045  0.88380156  0.75216277  1
  O  O355  1  0.25186353  0.11389018  0.25908109  1
  O  O356  1  0.25002546  0.11648493  0.75751712  1
  O  O357  1  0.24750642  0.61676998  0.26491072  1
  O  O358  1  0.25966300  0.62806853  0.75880928  1
  O  O359  1  0.75582250  0.13193195  0.26397901  1
  O  O360  1  0.76064842  0.12130538  0.75468261  1
  O  O361  1  0.75616269  0.61978618  0.25816058  1
  O  O362  1  0.75842954  0.61274614  0.74327876  1
  O  O363  1  0.36773396  0.11596332  0.37346014  1
  O  O364  1  0.36737718  0.11836486  0.87393799  1
  O  O365  1  0.36557563  0.61294405  0.37987457  1
  O  O366  1  0.37462184  0.62289894  0.86644905  1
  O  O367  1  0.87059551  0.11588222  0.36981994  1
  O  O368  1  0.86063301  0.13075379  0.86435006  1
  O  O369  1  0.86233118  0.61677192  0.37289551  1
  O  O370  1  0.86886659  0.62007463  0.85520201  1
  O  O371  1  0.12729605  0.37378920  0.13884456  1
  O  O372  1  0.12403286  0.38395395  0.63918140  1
  O  O373  1  0.10210475  0.86349186  0.13188101  1
  O  O374  1  0.13379013  0.88938206  0.62823492  1
  O  O375  1  0.63106624  0.38267663  0.12932173  1
  O  O376  1  0.63450029  0.38062716  0.62137849  1
  O  O377  1  0.62314823  0.88169198  0.13710844  1
  O  O378  1  0.62747466  0.88117043  0.63411266  1
  O  O379  1  0.11856703  0.25697486  0.25435136  1
  O  O380  1  0.11169371  0.25643152  0.74811007  1
  O  O381  1  0.11066538  0.74017969  0.26588051  1
  O  O382  1  0.12103187  0.75718777  0.75197296  1
  O  O383  1  0.61724454  0.26248868  0.24544630  1
  O  O384  1  0.61444035  0.24708495  0.75875060  1
  O  O385  1  0.62076179  0.75624753  0.25473587  1
  O  O386  1  0.62651875  0.75677625  0.75834671  1
  O  O387  1  0.38310868  0.24881570  0.24044898  1
  O  O388  1  0.38822326  0.24754840  0.74051269  1
  O  O389  1  0.38912691  0.75013599  0.25126812  1
  O  O390  1  0.38009678  0.73929598  0.74810672  1
  O  O391  1  0.88406280  0.24268620  0.25064621  1
  O  O392  1  0.88325727  0.23977043  0.74833740  1
  O  O393  1  0.87971490  0.73134455  0.25819815  1
  O  O394  1  0.88224069  0.74033873  0.74745959  1
  O  O395  1  0.37958030  0.49454041  0.49118028  1
  O  O396  1  0.38716055  0.49557825  0.99581590  1
  O  O397  1  0.38470821  1.00461501  0.48835235  1
  O  O398  1  0.38309827  0.99556324  0.99556489  1
  O  O399  1  0.88123541  0.49439521  0.49884301  1
  O  O400  1  0.87229775  0.48657510  0.99727105  1
  O  O401  1  0.88276860  1.00017764  0.49366471  1
  O  O402  1  0.89064293  1.00499286  0.99765817  1
  O  O403  1  0.11914082  0.01028497  0.00243352  1
  O  O404  1  0.11958044  0.00730188  0.50490684  1
  O  O405  1  0.12456496  0.51111284  0.01170413  1
  O  O406  1  0.11679023  0.50787506  0.50700132  1
  O  O407  1  0.61914631  -0.00588242  0.01796715  1
  O  O408  1  0.61928300  0.00780389  0.50462800  1
  O  O409  1  0.62623035  0.50680369  0.00784289  1
  O  O410  1  0.61785838  0.49990183  0.51203494  1
  O  O411  1  0.37292223  0.36728763  0.11557499  1
  O  O412  1  0.37377042  0.36112801  0.62472606  1
  O  O413  1  0.38094799  0.88108250  0.11317414  1
  O  O414  1  0.37119255  0.87140596  0.62732045  1
  O  O415  1  0.86119974  0.37416416  0.12264632  1
  O  O416  1  0.86706870  0.37959960  0.61369197  1
  O  O417  1  0.87325024  0.89050063  0.14325664  1
  O  O418  1  0.87071477  0.86712876  0.62205887  1
  O  O419  1  0.13378091  0.12671558  0.38236117  1
  O  O420  1  0.13442703  0.12056917  0.88330453  1
  O  O421  1  0.13170389  0.63002093  0.38672637  1
  O  O422  1  0.13923560  0.64340565  0.86614876  1
  O  O423  1  0.63600192  0.11591253  0.38287250  1
  O  O424  1  0.64152062  0.13275424  0.86914772  1
  O  O425  1  0.63607565  0.62533325  0.37445361  1
  O  O426  1  0.61693354  0.63515235  0.88517593  1
