# generated using pymatgen
data_V85Zn86O256
_symmetry_space_group_name_H-M   'P 1'
_cell_length_a   16.96856265
_cell_length_b   16.95251476
_cell_length_c   16.95487209
_cell_angle_alpha   90.03364581
_cell_angle_beta   89.99701205
_cell_angle_gamma   89.91793843
_symmetry_Int_Tables_number   1
_chemical_formula_structural   V85Zn86O256
_chemical_formula_sum   'V85 Zn86 O256'
_cell_volume   4877.22941543
_cell_formula_units_Z   1
loop_
 _symmetry_equiv_pos_site_id
 _symmetry_equiv_pos_as_xyz
  1  'x, y, z'
loop_
 _atom_site_type_symbol
 _atom_site_label
 _atom_site_symmetry_multiplicity
 _atom_site_fract_x
 _atom_site_fract_y
 _atom_site_fract_z
 _atom_site_occupancy
  V  V0  1  0.12730485  0.74977771  0.88086217  1
  V  V1  1  0.75352837  0.12696686  0.87007622  1
  V  V2  1  0.25039618  0.87624222  0.62893906  1
  V  V3  1  0.75149279  0.12266470  0.36050109  1
  V  V4  1  -0.00846066  0.63725986  0.11768625  1
  V  V5  1  0.38310285  0.36564309  0.50189626  1
  V  V6  1  0.37433393  0.49904592  0.87700451  1
  V  V7  1  0.62340622  0.24555885  0.87149972  1
  V  V8  1  -0.00387629  0.00126249  -0.00054878  1
  V  V9  1  0.63113242  0.00212720  0.13184597  1
  V  V10  1  0.87432884  0.37867834  0.49048901  1
  V  V11  1  0.37786464  0.87680294  0.50268826  1
  V  V12  1  -0.00377309  0.12491464  0.13625791  1
  V  V13  1  0.49976833  0.24619965  0.73137473  1
  V  V14  1  0.62209027  0.11974002  0.50721020  1
  V  V15  1  0.37967901  0.00424741  0.37832977  1
  V  V16  1  -0.00189067  -0.00137208  0.49581126  1
  V  V17  1  0.00490010  0.25512785  0.26226917  1
  V  V18  1  0.12551139  0.12277114  -0.00635653  1
  V  V19  1  0.25337514  0.24823982  0.50802298  1
  V  V20  1  0.12173341  0.50278690  0.63444275  1
  V  V21  1  0.75259246  0.24861576  0.49662104  1
  V  V22  1  0.37406358  0.75024352  0.62771532  1
  V  V23  1  0.87670750  0.24738403  0.12921882  1
  V  V24  1  0.12400598  0.00296082  0.62686692  1
  V  V25  1  0.36900435  0.37303712  0.00019203  1
  V  V26  1  0.86938204  0.50935776  0.37438411  1
  V  V27  1  0.87710346  0.87370097  0.50133682  1
  V  V28  1  0.50938551  0.49560090  0.00106650  1
  V  V29  1  0.87465707  0.00048738  0.36406630  1
  V  V30  1  0.49974303  0.00066285  -0.00413243  1
  V  V31  1  0.25158414  0.62851212  0.88600012  1
  V  V32  1  -0.00602549  0.48661767  -0.00386165  1
  V  V33  1  0.00613842  0.76138094  0.25574794  1
  V  V34  1  0.87384758  0.62484067  0.74558561  1
  V  V35  1  0.75073666  0.50185773  0.24876732  1
  V  V36  1  0.37526683  0.13045524  0.25338579  1
  V  V37  1  0.87190528  0.86742036  -0.00178832  1
  V  V38  1  0.12332874  0.13281305  0.50015177  1
  V  V39  1  0.63234721  0.75104611  0.37719069  1
  V  V40  1  0.62817871  0.50091032  0.63105219  1
  V  V41  1  0.62949820  0.87954570  0.25092462  1
  V  V42  1  0.49993924  0.62536647  0.62519049  1
  V  V43  1  0.49804617  0.49867788  0.49350187  1
  V  V44  1  0.75321694  0.37947950  0.62910972  1
  V  V45  1  0.87218825  0.49117688  0.87284756  1
  V  V46  1  -0.00336179  0.87297879  0.87180904  1
  V  V47  1  0.49970209  0.12713381  0.12804956  1
  V  V48  1  0.50158668  0.75248469  0.25008955  1
  V  V49  1  0.24716410  -0.00663260  0.25095225  1
  V  V50  1  0.74604466  0.87721266  0.62290778  1
  V  V51  1  0.62723424  0.12540808  -0.00097962  1
  V  V52  1  0.50273682  0.87926736  0.37654805  1
  V  V53  1  0.73804277  0.75170314  -0.00534737  1
  V  V54  1  0.12158858  0.49705875  0.12630153  1
  V  V55  1  0.50483075  0.86597047  0.87931454  1
  V  V56  1  0.04141022  0.46639358  0.45048724  1
  V  V57  1  0.37237325  0.13066480  0.74528234  1
  V  V58  1  0.86970773  0.63816447  0.24796775  1
  V  V59  1  0.36600976  0.74892010  0.12308488  1
  V  V60  1  -0.00291363  0.74690535  0.73779113  1
  V  V61  1  0.87328567  0.00464657  0.86855443  1
  V  V62  1  0.74558282  0.62688947  0.86884910  1
  V  V63  1  0.23936585  0.12846515  0.37531357  1
  V  V64  1  0.75279470  0.87315525  0.12736114  1
  V  V65  1  -0.01029987  0.12616810  0.63163898  1
  V  V66  1  0.24915926  0.00591334  0.76195908  1
  V  V67  1  0.74783565  0.00546828  0.74289020  1
  V  V68  1  0.75912592  0.74635527  0.50283592  1
  V  V69  1  0.62607577  0.87223422  0.75316435  1
  V  V70  1  0.12404131  -0.00395661  0.12890397  1
  V  V71  1  0.62985758  0.62568208  0.49770236  1
  V  V72  1  0.62091569  0.26052380  0.36884734  1
  V  V73  1  0.75985848  0.38099034  0.12376243  1
  V  V74  1  0.12404428  0.25871605  0.87662498  1
  V  V75  1  0.25004697  0.24350451  -0.00222777  1
  V  V76  1  0.50857332  0.62554578  0.12614607  1
  V  V77  1  0.58492348  0.43903899  0.18240724  1
  V  V78  1  0.75803040  0.25624398  -0.00180899  1
  V  V79  1  0.50026820  0.37094268  0.87270356  1
  V  V80  1  0.12353837  0.87471977  0.75136915  1
  V  V81  1  0.37119813  0.62641529  0.25585619  1
  V  V82  1  -0.00808790  0.25374133  0.75810280  1
  V  V83  1  0.36860335  0.87337991  0.00139630  1
  V  V84  1  0.37319056  0.62459061  0.75157965  1
  Zn  Zn85  1  0.24155984  0.36890703  0.13387014  1
  Zn  Zn86  1  0.37676231  0.49239313  0.37215060  1
  Zn  Zn87  1  0.62715719  0.37680133  0.74941440  1
  Zn  Zn88  1  0.12225525  0.63045452  0.49559364  1
  Zn  Zn89  1  -0.00570907  0.61950409  0.61094771  1
  Zn  Zn90  1  0.62640486  0.62319093  -0.00360010  1
  Zn  Zn91  1  0.50633723  0.74765502  0.75614433  1
  Zn  Zn92  1  0.25140531  0.49369728  0.75273320  1
  Zn  Zn93  1  0.11993035  0.37837219  0.27321099  1
  Zn  Zn94  1  0.24724363  0.74897028  0.49729250  1
  Zn  Zn95  1  0.24379070  0.62775986  0.37778050  1
  Zn  Zn96  1  0.12921454  0.76434534  0.37682137  1
  Zn  Zn97  1  0.37009133  0.24817413  0.12650529  1
  Zn  Zn98  1  0.50169361  0.00388816  0.51707454  1
  Zn  Zn99  1  0.25353838  0.37336482  0.63012087  1
  Zn  Zn100  1  0.12636527  0.37372535  0.75189431  1
  Zn  Zn101  1  0.24271257  0.86929595  0.12417984  1
  Zn  Zn102  1  0.50072807  0.26502374  0.25116332  1
  Zn  Zn103  1  0.12514880  0.62729564  0.00158864  1
  Zn  Zn104  1  0.37331377  0.00439916  0.87769296  1
  Zn  Zn105  1  0.24520957  0.49847802  0.25351134  1
  Zn  Zn106  1  0.87652410  0.25210096  0.62467947  1
  Zn  Zn107  1  0.18135880  0.18563050  0.18731489  1
  Zn  Zn108  1  0.18484681  0.18704652  0.69109725  1
  Zn  Zn109  1  0.18251612  0.68390868  0.18827366  1
  Zn  Zn110  1  0.18775682  0.68418295  0.68972808  1
  Zn  Zn111  1  0.68741637  0.19348000  0.18678029  1
  Zn  Zn112  1  0.69370579  0.19332474  0.68615683  1
  Zn  Zn113  1  0.68991892  0.69170805  0.18438672  1
  Zn  Zn114  1  0.69131444  0.69116089  0.68463627  1
  Zn  Zn115  1  0.30655491  0.31338532  0.31936681  1
  Zn  Zn116  1  0.31070549  0.30746881  0.81376403  1
  Zn  Zn117  1  0.31300474  0.81325279  0.31414756  1
  Zn  Zn118  1  0.31371113  0.81327086  0.81522668  1
  Zn  Zn119  1  0.81281941  0.31516780  0.30763692  1
  Zn  Zn120  1  0.81422482  0.31314495  0.81054136  1
  Zn  Zn121  1  0.81385079  0.81629459  0.31465683  1
  Zn  Zn122  1  0.81206528  0.80969819  0.81028961  1
  Zn  Zn123  1  0.20821948  0.44311027  0.44239992  1
  Zn  Zn124  1  0.18570173  0.44002599  0.94087669  1
  Zn  Zn125  1  0.19215138  0.93790040  0.44227917  1
  Zn  Zn126  1  0.18491966  0.93557632  0.94015243  1
  Zn  Zn127  1  0.69154632  0.44114591  0.43764106  1
  Zn  Zn128  1  0.69174193  0.43503858  0.93383741  1
  Zn  Zn129  1  0.69257997  0.94042555  0.43627485  1
  Zn  Zn130  1  0.68604856  0.94068638  0.93550015  1
  Zn  Zn131  1  0.31140125  0.06299804  0.06432758  1
  Zn  Zn132  1  0.31373368  0.06369276  0.56777366  1
  Zn  Zn133  1  0.31329010  0.56108650  0.06710861  1
  Zn  Zn134  1  0.30745729  0.56044608  0.56129417  1
  Zn  Zn135  1  0.81316310  0.06287303  0.06065436  1
  Zn  Zn136  1  0.81067503  0.06263514  0.55877958  1
  Zn  Zn137  1  0.81287498  0.56394751  0.05991661  1
  Zn  Zn138  1  0.81252778  0.56238646  0.56253292  1
  Zn  Zn139  1  0.42005880  0.43894136  0.18269431  1
  Zn  Zn140  1  0.43789478  0.43603351  0.68377481  1
  Zn  Zn141  1  0.43738670  0.94010942  0.18692411  1
  Zn  Zn142  1  0.43560266  0.93777449  0.69451277  1
  Zn  Zn143  1  0.93867327  0.43803909  0.18831092  1
  Zn  Zn144  1  0.93788854  0.43618508  0.68912391  1
  Zn  Zn145  1  0.93213387  0.93721027  0.18186412  1
  Zn  Zn146  1  0.93296627  0.93581329  0.68442758  1
  Zn  Zn147  1  0.06019770  -0.05571356  0.31362766  1
  Zn  Zn148  1  0.05945736  0.06676880  0.81301240  1
  Zn  Zn149  1  0.06283084  0.57631767  0.30491390  1
  Zn  Zn150  1  0.06033176  0.56338190  0.81392732  1
  Zn  Zn151  1  0.56466292  0.06905190  0.31475857  1
  Zn  Zn152  1  0.56560067  0.06301884  0.68821239  1
  Zn  Zn153  1  0.56070954  0.56975708  0.31753562  1
  Zn  Zn154  1  0.56113084  0.56186116  0.81319629  1
  Zn  Zn155  1  0.44105684  0.19078420  0.43792729  1
  Zn  Zn156  1  0.43562238  0.18380172  0.93172279  1
  Zn  Zn157  1  0.44019686  0.69165670  0.43999803  1
  Zn  Zn158  1  0.43765547  0.68705857  0.94212927  1
  Zn  Zn159  1  0.93554493  0.18298551  0.43693801  1
  Zn  Zn160  1  0.93784583  0.18694657  0.94075045  1
  Zn  Zn161  1  0.94560970  0.67930576  0.43473109  1
  Zn  Zn162  1  0.93343626  0.68698651  0.93059658  1
  Zn  Zn163  1  0.06044638  0.31176611  0.06269012  1
  Zn  Zn164  1  0.06421430  0.31447968  0.56883897  1
  Zn  Zn165  1  0.05924860  0.81349126  0.06100065  1
  Zn  Zn166  1  0.06293746  0.81518675  0.55954701  1
  Zn  Zn167  1  0.56139234  0.30581978  0.05652486  1
  Zn  Zn168  1  0.56943266  0.31495417  0.55531542  1
  Zn  Zn169  1  0.56122378  0.81292932  0.06453229  1
  Zn  Zn170  1  0.56235396  0.81635925  0.56571989  1
  O  O171  1  0.11620390  0.11467571  0.11618680  1
  O  O172  1  0.11767783  0.11600707  0.62066349  1
  O  O173  1  0.10997234  0.61781736  0.12213771  1
  O  O174  1  0.12148955  0.61296548  0.62763905  1
  O  O175  1  0.62076319  0.12046483  0.12138778  1
  O  O176  1  0.63051646  0.12874642  0.61165080  1
  O  O177  1  0.61204745  0.63150975  0.12060110  1
  O  O178  1  0.62167725  0.62090044  0.61717981  1
  O  O179  1  0.37300565  0.37490190  0.39414203  1
  O  O180  1  0.37910387  0.37704563  0.88501986  1
  O  O181  1  0.38239020  0.88528799  0.38040976  1
  O  O182  1  0.38334617  0.87828367  0.88452304  1
  O  O183  1  0.86893114  0.38392015  0.38422446  1
  O  O184  1  0.86964814  0.39173868  0.87229933  1
  O  O185  1  0.86525196  0.89216814  0.38657337  1
  O  O186  1  0.87706162  0.88389136  0.87911285  1
  O  O187  1  0.26371790  0.00746246  0.36972302  1
  O  O188  1  0.24673272  -0.00183376  0.86457709  1
  O  O189  1  0.26063443  0.51025509  0.37036401  1
  O  O190  1  0.25724209  0.50853848  0.87594907  1
  O  O191  1  0.75929661  0.01368337  0.37652680  1
  O  O192  1  0.75605142  0.00619580  0.86764761  1
  O  O193  1  0.75447496  0.49885398  0.35837069  1
  O  O194  1  0.76484267  0.50877799  0.88226608  1
  O  O195  1  0.23397701  0.50052912  0.12476787  1
  O  O196  1  0.23730830  0.49950582  0.63170917  1
  O  O197  1  0.24082197  1.00250385  0.13464278  1
  O  O198  1  0.24036264  0.99684641  0.63506260  1
  O  O199  1  0.75263979  0.49214031  0.12994543  1
  O  O200  1  0.74001283  0.49142160  0.61797810  1
  O  O201  1  0.73988453  0.99019334  0.11643281  1
  O  O202  1  0.75669574  0.99247710  0.63198040  1
  O  O203  1  0.00217924  0.36044351  0.24711771  1
  O  O204  1  0.00390743  0.35668102  0.74622653  1
  O  O205  1  -0.00443219  0.86575446  0.24563930  1
  O  O206  1  0.00333867  0.86834382  0.75204477  1
  O  O207  1  0.50954899  0.38237733  0.23164866  1
  O  O208  1  0.49922862  0.36280517  0.75498097  1
  O  O209  1  0.50757652  0.87222557  0.25542112  1
  O  O210  1  0.50841411  0.87411789  0.76359978  1
  O  O211  1  0.49191965  0.12656354  0.24321558  1
  O  O212  1  0.49702578  0.14049736  0.74542215  1
  O  O213  1  0.49608824  0.63184463  0.24230975  1
  O  O214  1  0.49051776  0.62709354  0.74651109  1
  O  O215  1  1.00109213  0.13869903  0.23574426  1
  O  O216  1  1.00340415  0.13666675  0.74092064  1
  O  O217  1  0.98936058  0.63766112  0.23615496  1
  O  O218  1  0.99178731  0.63406346  0.75186372  1
  O  O219  1  0.36665950  0.25373034  -0.00149286  1
  O  O220  1  0.37192315  0.25706295  0.50180122  1
  O  O221  1  0.38118124  0.75957089  0.01185194  1
  O  O222  1  0.37639169  0.75866382  0.51133296  1
  O  O223  1  0.86602570  0.24666798  0.00934985  1
  O  O224  1  0.86923296  0.25881389  0.49812724  1
  O  O225  1  0.86703566  0.76364381  -0.00814671  1
  O  O226  1  0.86945514  0.75902192  0.48756336  1
  O  O227  1  0.12762800  0.23753796  0.50397697  1
  O  O228  1  0.12796629  0.24261628  0.99529264  1
  O  O229  1  0.12731618  0.75005803  0.49843857  1
  O  O230  1  0.11988605  0.74972700  0.98539466  1
  O  O231  1  0.63402112  0.24173237  0.49030141  1
  O  O232  1  0.63383994  0.24359315  0.99148650  1
  O  O233  1  0.63166690  0.74478715  0.49577261  1
  O  O234  1  0.63455858  0.75049194  0.99933342  1
  O  O235  1  0.49933706  0.23695092  0.12675413  1
  O  O236  1  0.50626983  0.25549094  0.63372889  1
  O  O237  1  0.49411533  0.74240306  0.13053578  1
  O  O238  1  0.48968586  0.74469242  0.62769802  1
  O  O239  1  0.99198773  0.24281469  0.12366184  1
  O  O240  1  0.99963789  0.24228924  0.63429690  1
  O  O241  1  0.99958143  0.74145235  0.12959213  1
  O  O242  1  1.00433567  0.74506359  0.63520614  1
  O  O243  1  -0.00639879  0.24454632  0.36024473  1
  O  O244  1  0.00420319  0.24401848  0.86434074  1
  O  O245  1  -0.00141144  0.75068257  0.35718108  1
  O  O246  1  0.00602340  0.75647582  0.86682593  1
  O  O247  1  0.51643098  0.24856923  0.37173122  1
  O  O248  1  0.50999484  0.25439503  0.87304899  1
  O  O249  1  0.51221037  0.75875811  0.37173730  1
  O  O250  1  0.49898101  0.76154497  0.87846965  1
  O  O251  1  0.24440420  0.12753848  0.49733399  1
  O  O252  1  0.23929529  0.13035114  1.00398338  1
  O  O253  1  0.24591191  0.63048190  0.49911876  1
  O  O254  1  0.25115789  0.62340221  0.98960760  1
  O  O255  1  0.74339090  0.13490152  0.49451751  1
  O  O256  1  0.74517145  0.13382980  0.99286725  1
  O  O257  1  0.74236949  0.63479349  0.50405571  1
  O  O258  1  0.74834530  0.63531081  0.99437208  1
  O  O259  1  0.25668293  0.36738130  0.00041272  1
  O  O260  1  0.26135853  0.36397467  0.50496398  1
  O  O261  1  0.26459524  0.88121297  0.00319952  1
  O  O262  1  0.26123721  0.87752958  0.51369036  1
  O  O263  1  0.74670175  0.36327720  0.00637560  1
  O  O264  1  0.75641414  0.36616717  0.50473966  1
  O  O265  1  0.75355912  0.86997033  0.00133489  1
  O  O266  1  0.75541481  0.87078064  0.50592343  1
  O  O267  1  0.11782154  0.49844741  0.23723259  1
  O  O268  1  0.12742533  0.49768764  0.74650461  1
  O  O269  1  0.13391196  1.00278376  0.24115107  1
  O  O270  1  0.12880447  0.99855329  0.74524486  1
  O  O271  1  0.63135723  0.50637093  0.25005047  1
  O  O272  1  0.61760764  0.49727224  0.73496917  1
  O  O273  1  0.62014916  0.99854160  0.23849593  1
  O  O274  1  0.64076850  0.98971577  0.74741154  1
  O  O275  1  0.37078579  0.01268729  0.25601134  1
  O  O276  1  0.36341032  0.00583996  0.75525557  1
  O  O277  1  0.37332452  0.51258927  0.25130815  1
  O  O278  1  0.37795542  0.50773169  0.75870046  1
  O  O279  1  0.87900413  -0.00327538  0.26534167  1
  O  O280  1  0.86304558  -0.00679662  0.75866340  1
  O  O281  1  0.86833608  0.50778572  0.25499846  1
  O  O282  1  0.88413456  0.50716587  0.76583759  1
  O  O283  1  0.10651220  0.40912323  0.39215023  1
  O  O284  1  0.12431196  0.36202891  0.87866090  1
  O  O285  1  0.12754034  0.88081632  0.37442835  1
  O  O286  1  0.11837165  0.86933679  0.86988195  1
  O  O287  1  0.63311156  0.35842350  0.38163963  1
  O  O288  1  0.62244964  0.36392777  0.87098289  1
  O  O289  1  0.62258455  0.87279459  0.37091891  1
  O  O290  1  0.61766641  0.87935720  0.86662554  1
  O  O291  1  0.38287412  0.12591518  0.13447526  1
  O  O292  1  0.37930499  0.11656584  0.64438298  1
  O  O293  1  0.38490983  0.63122708  0.13176765  1
  O  O294  1  0.37816522  0.63079415  0.63400010  1
  O  O295  1  0.88353300  0.13208790  0.12038106  1
  O  O296  1  0.88731507  0.12742225  0.61748879  1
  O  O297  1  0.88618020  0.62310002  0.13053542  1
  O  O298  1  0.87746625  0.61462554  0.64015687  1
  O  O299  1  0.24727348  0.24919385  0.11291343  1
  O  O300  1  0.24435736  0.24621071  0.61215886  1
  O  O301  1  0.26178989  0.75067128  0.13049942  1
  O  O302  1  0.26194023  0.75618431  0.63111886  1
  O  O303  1  0.75731540  0.25557285  0.11831220  1
  O  O304  1  0.75526234  0.25766457  0.61297987  1
  O  O305  1  0.74564686  0.76516009  0.11307194  1
  O  O306  1  0.75100687  0.75885988  0.60978396  1
  O  O307  1  0.25242303  0.23778267  0.39079065  1
  O  O308  1  0.23976444  0.24878298  0.88846112  1
  O  O309  1  0.25021936  0.74838155  0.37712017  1
  O  O310  1  0.24004061  0.74213933  0.86914330  1
  O  O311  1  0.74754623  0.24101145  0.37807570  1
  O  O312  1  0.74762777  0.24816398  0.88034121  1
  O  O313  1  0.73826942  0.75815624  0.38510952  1
  O  O314  1  0.75317663  0.74043447  0.88264645  1
  O  O315  1  0.00597502  0.11765441  0.00735794  1
  O  O316  1  0.00641774  0.11717921  0.50655219  1
  O  O317  1  -0.00335713  0.62697426  0.01039761  1
  O  O318  1  0.00386555  0.60359630  0.49560040  1
  O  O319  1  0.50475433  0.11900919  0.00651877  1
  O  O320  1  0.51842415  0.12465754  0.49524429  1
  O  O321  1  0.49994646  0.61285755  0.00835615  1
  O  O322  1  0.50730626  0.62056294  0.50738029  1
  O  O323  1  0.49174370  0.38219048  0.50350216  1
  O  O324  1  0.49204971  0.37830385  0.99568610  1
  O  O325  1  0.49654136  0.87928829  0.49268577  1
  O  O326  1  0.49356471  0.88129360  0.99869620  1
  O  O327  1  0.99258473  0.38923431  0.50242098  1
  O  O328  1  0.99632937  0.38843357  1.00111251  1
  O  O329  1  0.99148393  0.89042451  0.50795571  1
  O  O330  1  0.98989905  0.88063873  0.99332931  1
  O  O331  1  0.49955946  0.50469716  0.38955794  1
  O  O332  1  0.49436881  0.49221693  0.88282645  1
  O  O333  1  0.48990851  0.99995650  0.37474709  1
  O  O334  1  0.50074088  0.98846167  0.89311646  1
  O  O335  1  0.98716036  0.50470147  0.36883067  1
  O  O336  1  0.99014012  0.50705132  0.88921083  1
  O  O337  1  0.98558508  1.00512605  0.38335815  1
  O  O338  1  0.99162615  0.99377794  0.87629478  1
  O  O339  1  0.00412058  0.00652114  0.12119527  1
  O  O340  1  0.00509610  0.00766392  0.62225193  1
  O  O341  1  0.00128044  0.50864272  0.11361122  1
  O  O342  1  0.01604801  0.50050064  0.63459169  1
  O  O343  1  0.50692075  0.01018658  0.11829610  1
  O  O344  1  0.50641156  -0.00918245  0.62850414  1
  O  O345  1  0.50907399  0.50129120  0.12191419  1
  O  O346  1  0.50783815  0.50666272  0.61507906  1
  O  O347  1  0.23769268  0.37652612  0.25269554  1
  O  O348  1  0.24719466  0.37394236  0.74898594  1
  O  O349  1  0.26178132  0.89161282  0.24473549  1
  O  O350  1  0.24371823  0.88389833  0.74768693  1
  O  O351  1  0.75020381  0.38661631  0.23770720  1
  O  O352  1  0.74801892  0.36746194  0.73307076  1
  O  O353  1  0.74353843  0.87108285  0.23921899  1
  O  O354  1  0.74623166  0.87907823  0.74217487  1
  O  O355  1  0.25543486  0.12136528  0.25832541  1
  O  O356  1  0.26070631  0.12029948  0.74842874  1
  O  O357  1  0.26071188  0.62414389  0.24707814  1
  O  O358  1  0.26360848  0.62386526  0.76007990  1
  O  O359  1  0.74818071  0.12767164  0.26200063  1
  O  O360  1  0.74665672  0.11805414  0.75568251  1
  O  O361  1  0.76025674  0.61800707  0.23667607  1
  O  O362  1  0.75897534  0.63258183  0.75643734  1
  O  O363  1  0.37107096  0.12085989  0.37072280  1
  O  O364  1  0.38399988  0.11832061  0.85533215  1
  O  O365  1  0.38336957  0.63117697  0.35998208  1
  O  O366  1  0.37112933  0.62172576  0.87117193  1
  O  O367  1  0.86085572  0.11445503  0.38036641  1
  O  O368  1  0.87062394  0.11210347  0.88021082  1
  O  O369  1  0.87338371  0.61846628  0.36164442  1
  O  O370  1  0.86551741  0.61844225  0.86591351  1
  O  O371  1  0.12248280  0.38960347  0.11941017  1
  O  O372  1  0.12918440  0.38774466  0.62745138  1
  O  O373  1  0.12585821  0.89052989  0.11487385  1
  O  O374  1  0.12783990  0.88676116  0.63200430  1
  O  O375  1  0.63534199  0.37218814  0.12006048  1
  O  O376  1  0.63435478  0.38433610  0.62142764  1
  O  O377  1  0.62988458  0.88400301  0.13021208  1
  O  O378  1  0.63958694  0.87352826  0.62955512  1
  O  O379  1  0.10953967  0.25291241  0.24909277  1
  O  O380  1  0.11645778  0.24807179  0.76160879  1
  O  O381  1  0.10800874  0.75226027  0.24533895  1
  O  O382  1  0.11778446  0.75519836  0.75783386  1
  O  O383  1  0.62358014  0.24928526  0.26383676  1
  O  O384  1  0.61485148  0.25101689  0.75420039  1
  O  O385  1  0.62192729  0.75531999  0.25898425  1
  O  O386  1  0.62445136  0.76601710  0.74380080  1
  O  O387  1  0.37774388  0.24149500  0.25172293  1
  O  O388  1  0.38701778  0.24093122  0.75297079  1
  O  O389  1  0.38407368  0.74677331  0.24199589  1
  O  O390  1  0.37935783  0.74316723  0.74539374  1
  O  O391  1  0.88378802  0.25385826  0.23669542  1
  O  O392  1  0.88794284  0.25030438  0.74757900  1
  O  O393  1  0.88009113  0.74305595  0.25290305  1
  O  O394  1  0.88599877  0.74058856  0.75388895  1
  O  O395  1  0.38465917  0.49306010  0.50007117  1
  O  O396  1  0.38360604  0.49088351  0.99837527  1
  O  O397  1  0.37842373  0.99729412  0.49353685  1
  O  O398  1  0.38312048  0.99423582  1.00232503  1
  O  O399  1  0.86324994  0.49533644  0.48325663  1
  O  O400  1  0.88646865  0.50581377  0.98938577  1
  O  O401  1  0.88204746  0.99570293  0.49372481  1
  O  O402  1  0.87798811  0.99144556  0.99012097  1
  O  O403  1  0.11701423  0.00634906  0.00340117  1
  O  O404  1  0.11803195  0.00810122  0.51006650  1
  O  O405  1  0.10964837  0.50553015  0.00387758  1
  O  O406  1  0.12418670  0.50084843  0.51123051  1
  O  O407  1  0.61890318  0.00661306  0.00917223  1
  O  O408  1  0.62775026  0.01717546  0.49479737  1
  O  O409  1  0.61255460  0.49775141  -0.00540099  1
  O  O410  1  0.62108552  0.50883430  0.50471262  1
  O  O411  1  0.36701232  0.36864300  0.11213061  1
  O  O412  1  0.37209253  0.37975439  0.60865825  1
  O  O413  1  0.37659296  0.86670554  0.11844348  1
  O  O414  1  0.37084552  0.86678584  0.62589610  1
  O  O415  1  0.86584497  0.36782251  0.12508870  1
  O  O416  1  0.86919392  0.37931669  0.61162958  1
  O  O417  1  0.86333052  0.88195217  0.11143318  1
  O  O418  1  0.86479561  0.87768501  0.60975748  1
  O  O419  1  0.13882157  0.11440824  0.38809439  1
  O  O420  1  0.11808391  0.13226769  0.88916420  1
  O  O421  1  0.12510809  0.63705207  0.37372717  1
  O  O422  1  0.13433113  0.63240409  0.87605345  1
  O  O423  1  0.63826371  0.13191202  0.38185896  1
  O  O424  1  0.63393538  0.13840782  0.88004876  1
  O  O425  1  0.62187024  0.63638972  0.38907287  1
  O  O426  1  0.64030124  0.61692936  0.87477171  1
