# generated using pymatgen
data_V85Zn86O256
_symmetry_space_group_name_H-M   'P 1'
_cell_length_a   16.94392801
_cell_length_b   16.94408002
_cell_length_c   16.93662223
_cell_angle_alpha   89.99060647
_cell_angle_beta   90.08908678
_cell_angle_gamma   89.95581792
_symmetry_Int_Tables_number   1
_chemical_formula_structural   V85Zn86O256
_chemical_formula_sum   'V85 Zn86 O256'
_cell_volume   4862.48452540
_cell_formula_units_Z   1
loop_
 _symmetry_equiv_pos_site_id
 _symmetry_equiv_pos_as_xyz
  1  'x, y, z'
loop_
 _atom_site_type_symbol
 _atom_site_label
 _atom_site_symmetry_multiplicity
 _atom_site_fract_x
 _atom_site_fract_y
 _atom_site_fract_z
 _atom_site_occupancy
  V  V0  1  0.87622366  0.74896832  0.12974608  1
  V  V1  1  0.24866542  0.86779609  0.61812636  1
  V  V2  1  0.63685630  0.37452562  0.74461572  1
  V  V3  1  0.88723968  0.74347734  0.62507571  1
  V  V4  1  0.00071581  0.49703308  0.00312488  1
  V  V5  1  0.50150624  -0.00198020  -0.00000917  1
  V  V6  1  0.11719217  0.62865722  0.50884765  1
  V  V7  1  0.49967945  0.37479821  0.87239441  1
  V  V8  1  0.62255761  0.25323378  0.36858373  1
  V  V9  1  0.00908847  0.37718497  0.38752994  1
  V  V10  1  0.38651457  0.37017382  0.50693573  1
  V  V11  1  0.74781443  0.87172665  0.62585165  1
  V  V12  1  0.74690299  0.37208983  0.13309778  1
  V  V13  1  0.87603627  0.88632365  0.49735174  1
  V  V14  1  0.74845203  0.50020549  0.25135640  1
  V  V15  1  0.36166532  0.61603242  0.25201712  1
  V  V16  1  0.75594134  0.12405971  0.87179299  1
  V  V17  1  0.37642489  0.00148371  0.87385797  1
  V  V18  1  0.62783562  0.00029701  0.12800220  1
  V  V19  1  0.37317888  0.37676718  -0.00276801  1
  V  V20  1  0.62773125  0.24852406  0.87314277  1
  V  V21  1  0.49823535  0.25137455  0.74237254  1
  V  V22  1  0.24937831  0.75114643  -0.00848977  1
  V  V23  1  0.00981174  0.87947019  0.87281728  1
  V  V24  1  0.25007386  0.12626523  0.87451166  1
  V  V25  1  -0.00288805  0.88679009  0.37969324  1
  V  V26  1  0.25112585  0.36265695  0.61652455  1
  V  V27  1  0.24691670  0.88078915  0.12494680  1
  V  V28  1  -0.00075509  0.62254691  0.13165796  1
  V  V29  1  0.75095038  0.26411666  0.50222295  1
  V  V30  1  0.49918692  0.00013215  0.49872567  1
  V  V31  1  0.12028732  -0.00046192  0.61261768  1
  V  V32  1  0.49723347  0.61887504  0.12227326  1
  V  V33  1  0.12905264  0.49732768  0.14043673  1
  V  V34  1  0.24998778  0.25349187  -0.00078169  1
  V  V35  1  0.50229106  0.74825040  0.25002204  1
  V  V36  1  0.25079400  0.49794699  0.74570485  1
  V  V37  1  0.37203782  0.75039187  0.12378891  1
  V  V38  1  0.86840217  0.26430760  0.62499321  1
  V  V39  1  0.61283956  0.50102389  0.61878800  1
  V  V40  1  0.74664113  0.62789523  0.37182470  1
  V  V41  1  0.62725783  0.87048507  0.25463172  1
  V  V42  1  0.75240305  0.24820330  0.00218045  1
  V  V43  1  0.24891475  0.37909654  0.13899489  1
  V  V44  1  -0.01133579  0.11966732  0.62173148  1
  V  V45  1  0.50346894  0.38791594  0.36926660  1
  V  V46  1  0.75939759  0.12216324  0.37802737  1
  V  V47  1  0.37350392  0.12863425  0.74120259  1
  V  V48  1  0.50216008  0.87292249  0.86611774  1
  V  V49  1  0.36955644  0.86888530  0.49586354  1
  V  V50  1  0.12556472  0.62748600  0.00325074  1
  V  V51  1  0.24760312  0.14020125  0.38073479  1
  V  V52  1  0.24862170  -0.00094459  0.74636412  1
  V  V53  1  0.00695094  0.00094976  0.01135701  1
  V  V54  1  0.61439590  0.62539411  0.49935906  1
  V  V55  1  0.87833251  0.24762987  0.13327091  1
  V  V56  1  0.49773729  0.12667445  0.62333941  1
  V  V57  1  0.06428424  0.70240162  0.81733742  1
  V  V58  1  0.50361055  0.74963203  0.73709851  1
  V  V59  1  0.50182219  0.87540055  0.37195220  1
  V  V60  1  0.75034755  0.51246271  0.74485040  1
  V  V61  1  0.75590718  0.00088706  0.74870823  1
  V  V62  1  -0.00385370  0.37080962  0.87632842  1
  V  V63  1  0.01527067  0.25990305  0.25663538  1
  V  V64  1  0.24446911  0.00478228  0.25023550  1
  V  V65  1  0.12266129  0.87631961  0.24768876  1
  V  V66  1  0.87413418  0.49130677  0.39263917  1
  V  V67  1  0.12347425  0.87489726  0.74865524  1
  V  V68  1  0.37731642  0.62501034  0.73966896  1
  V  V69  1  0.37266267  0.00330692  0.37434946  1
  V  V70  1  0.86562138  0.50832441  0.87903407  1
  V  V71  1  0.62392241  0.12791000  0.49938388  1
  V  V72  1  0.49933970  0.12642958  0.12762561  1
  V  V73  1  0.11146977  0.49791770  0.61948295  1
  V  V74  1  0.62404896  -0.00227342  0.63068483  1
  V  V75  1  0.62290078  0.49340044  0.12682505  1
  V  V76  1  0.74712505  0.74811333  0.49621384  1
  V  V77  1  0.12211591  0.24870691  0.87487466  1
  V  V78  1  0.87948718  0.00357834  0.87329607  1
  V  V79  1  0.12425751  0.14188082  0.49907841  1
  V  V80  1  0.75515562  0.87802252  0.12682698  1
  V  V81  1  -0.00759382  0.24154142  0.74949314  1
  V  V82  1  0.12992509  0.74916538  0.38093804  1
  V  V83  1  0.87992545  0.87601072  0.00236247  1
  V  V84  1  0.12770201  0.12304996  0.01066024  1
  Zn  Zn85  1  0.24444543  0.61939775  0.38268335  1
  Zn  Zn86  1  0.50117222  0.25544030  0.24789547  1
  Zn  Zn87  1  0.00579040  0.12393359  0.13536487  1
  Zn  Zn88  1  0.25486534  0.62724038  0.87167147  1
  Zn  Zn89  1  0.74648013  0.74534328  -0.01917983  1
  Zn  Zn90  1  0.37309182  0.73917423  0.61287553  1
  Zn  Zn91  1  0.37642076  0.25069418  0.12674431  1
  Zn  Zn92  1  0.87440564  0.62269429  0.25555073  1
  Zn  Zn93  1  0.37649993  0.87306438  -0.00092973  1
  Zn  Zn94  1  0.88258547  0.63105076  0.75032084  1
  Zn  Zn95  1  0.37298392  0.50073723  0.87087067  1
  Zn  Zn96  1  0.36849342  0.49885329  0.38279914  1
  Zn  Zn97  1  0.00029817  0.74871891  0.25786759  1
  Zn  Zn98  1  0.66447725  0.81998554  0.80489644  1
  Zn  Zn99  1  0.12589158  0.37021216  0.74631674  1
  Zn  Zn100  1  0.64596329  0.62026297  -0.02166459  1
  Zn  Zn101  1  0.50534790  0.49991839  -0.00584090  1
  Zn  Zn102  1  0.76024434  -0.00079921  0.25861398  1
  Zn  Zn103  1  0.62724628  0.12282353  0.00053459  1
  Zn  Zn104  1  0.88653712  0.12281936  0.26239575  1
  Zn  Zn105  1  0.87446778  0.37563314  0.00337504  1
  Zn  Zn106  1  0.37416968  0.12909796  0.25127565  1
  Zn  Zn107  1  0.19170121  0.19416042  0.19023446  1
  Zn  Zn108  1  0.18114844  0.18569393  0.68685771  1
  Zn  Zn109  1  0.18442796  0.69343970  0.18729888  1
  Zn  Zn110  1  0.19350961  0.68063102  0.67789820  1
  Zn  Zn111  1  0.68760175  0.18509183  0.19193374  1
  Zn  Zn112  1  0.68977987  0.18483024  0.68725805  1
  Zn  Zn113  1  0.67193808  0.70073326  0.14933340  1
  Zn  Zn114  1  0.68896907  0.68329797  0.67961698  1
  Zn  Zn115  1  0.32232302  0.31291341  0.31546280  1
  Zn  Zn116  1  0.31202839  0.31235041  0.80834508  1
  Zn  Zn117  1  0.31119877  0.81008844  0.31149141  1
  Zn  Zn118  1  0.31804739  0.81191801  0.80699658  1
  Zn  Zn119  1  0.81421929  0.31092702  0.31468731  1
  Zn  Zn120  1  0.81565339  0.31256133  0.81131805  1
  Zn  Zn121  1  0.81562064  0.81043384  0.31253552  1
  Zn  Zn122  1  0.83032258  0.81587814  0.80992942  1
  Zn  Zn123  1  0.19254014  0.44316534  0.43946413  1
  Zn  Zn124  1  0.18593653  0.43954586  0.93625787  1
  Zn  Zn125  1  0.18603257  0.94084185  0.43385330  1
  Zn  Zn126  1  0.18894992  0.93910921  0.93779224  1
  Zn  Zn127  1  0.68459091  0.44079037  0.43692477  1
  Zn  Zn128  1  0.68815811  0.43542411  0.93947626  1
  Zn  Zn129  1  0.68693477  0.93820833  0.44031187  1
  Zn  Zn130  1  0.69147976  0.93363615  0.94036678  1
  Zn  Zn131  1  0.31466900  0.06158834  0.06258530  1
  Zn  Zn132  1  0.30806259  0.06016459  0.55951089  1
  Zn  Zn133  1  0.31283372  0.56044264  0.06030910  1
  Zn  Zn134  1  0.30533038  0.55510723  0.55693795  1
  Zn  Zn135  1  0.81702799  0.06348698  0.06567944  1
  Zn  Zn136  1  0.80979467  0.06671012  0.56021044  1
  Zn  Zn137  1  0.81013059  0.56336696  0.06312253  1
  Zn  Zn138  1  0.80856477  0.56502596  0.56527522  1
  Zn  Zn139  1  0.43455195  0.43528899  0.18815716  1
  Zn  Zn140  1  0.43489908  0.43515948  0.68442764  1
  Zn  Zn141  1  0.43504048  0.93966148  0.18822378  1
  Zn  Zn142  1  0.43488257  0.93515318  0.68436181  1
  Zn  Zn143  1  0.93484428  0.43513832  0.19344270  1
  Zn  Zn144  1  0.93353334  0.43472001  0.69378676  1
  Zn  Zn145  1  0.93846113  0.94180758  0.19532046  1
  Zn  Zn146  1  0.93713165  0.93422255  0.68573931  1
  Zn  Zn147  1  0.06535742  0.06663240  0.31589748  1
  Zn  Zn148  1  0.06457747  0.06279310  0.81060760  1
  Zn  Zn149  1  0.06097640  0.55893229  0.32224240  1
  Zn  Zn150  1  0.06347499  0.54115361  0.81223454  1
  Zn  Zn151  1  0.56684001  0.06305801  0.31174707  1
  Zn  Zn152  1  0.56548644  0.06237352  0.81122918  1
  Zn  Zn153  1  0.56597706  0.56393531  0.30805248  1
  Zn  Zn154  1  0.56375276  0.56355924  0.80539409  1
  Zn  Zn155  1  0.43480295  0.19408262  0.43794197  1
  Zn  Zn156  1  0.43892656  0.18830304  0.93796450  1
  Zn  Zn157  1  0.43713532  0.68982087  0.43008624  1
  Zn  Zn158  1  0.46963487  0.66774411  0.91383325  1
  Zn  Zn159  1  0.94186782  0.19749325  0.44374373  1
  Zn  Zn160  1  0.93629696  0.18485120  0.94337080  1
  Zn  Zn161  1  0.93782024  0.68825158  0.43871393  1
  Zn  Zn162  1  0.92833248  0.68325832  0.94782872  1
  Zn  Zn163  1  0.06498786  0.31252022  0.06658190  1
  Zn  Zn164  1  0.05740579  0.31569996  0.56458498  1
  Zn  Zn165  1  0.06364945  0.81043399  0.06430236  1
  Zn  Zn166  1  0.06243880  0.81363923  0.55683067  1
  Zn  Zn167  1  0.56413152  0.31158372  0.05979519  1
  Zn  Zn168  1  0.56639434  0.31578873  0.56123190  1
  Zn  Zn169  1  0.56308960  0.81080758  0.05707295  1
  Zn  Zn170  1  0.56394119  0.81191765  0.55917599  1
  O  O171  1  0.12732001  0.13083616  0.11388195  1
  O  O172  1  0.11783720  0.11844145  0.61606301  1
  O  O173  1  0.12070903  0.61912931  0.11946852  1
  O  O174  1  0.12173456  0.61256476  0.61972957  1
  O  O175  1  0.62099684  0.11626220  0.12466050  1
  O  O176  1  0.61956265  0.11795903  0.61909470  1
  O  O177  1  0.61055760  0.60622950  0.13177528  1
  O  O178  1  0.62869395  0.61117730  0.61449799  1
  O  O179  1  0.38996643  0.37694123  0.38410161  1
  O  O180  1  0.38282008  0.37334935  0.87949039  1
  O  O181  1  0.37809247  0.88260663  0.37798997  1
  O  O182  1  0.38248880  0.88670770  0.87376645  1
  O  O183  1  0.87498550  0.38850922  0.37404347  1
  O  O184  1  0.88396079  0.38119829  0.87704411  1
  O  O185  1  0.88874787  0.87091246  0.38135846  1
  O  O186  1  0.89363872  0.88372814  0.88147965  1
  O  O187  1  0.25479653  0.00777336  0.36710197  1
  O  O188  1  0.25981021  0.00504839  0.86950839  1
  O  O189  1  0.25488843  0.50550480  0.37359465  1
  O  O190  1  0.24777019  0.50083054  0.85971911  1
  O  O191  1  0.74318106  0.01835444  0.37899637  1
  O  O192  1  0.75547669  0.00451375  0.86903417  1
  O  O193  1  0.75747505  0.50257717  0.36953081  1
  O  O194  1  0.75764905  0.49184908  0.86379125  1
  O  O195  1  0.24328892  0.48777970  0.12050539  1
  O  O196  1  0.23972330  0.48936531  0.63376699  1
  O  O197  1  0.25457060  0.98819449  0.13131623  1
  O  O198  1  0.24057032  0.99183689  0.62909941  1
  O  O199  1  0.74466931  0.49133709  0.13076881  1
  O  O200  1  0.74421629  0.50135728  0.64080716  1
  O  O201  1  0.74424480  0.99535131  0.12784454  1
  O  O202  1  0.74535033  0.99632335  0.63168052  1
  O  O203  1  -0.00349001  0.36504566  0.26042594  1
  O  O204  1  -0.00086197  0.36160451  0.75936952  1
  O  O205  1  0.00837380  0.87475567  0.25992904  1
  O  O206  1  0.00923761  0.87835546  0.75929796  1
  O  O207  1  0.49713699  0.37523700  0.26521334  1
  O  O208  1  0.50621440  0.36664115  0.75318809  1
  O  O209  1  0.50714949  0.86961149  0.25080251  1
  O  O210  1  0.49548083  0.86607515  0.75299872  1
  O  O211  1  0.50087659  0.12182055  0.23640040  1
  O  O212  1  0.49369298  0.13099664  0.74437863  1
  O  O213  1  0.49152279  0.63156684  0.24221078  1
  O  O214  1  0.49248672  0.64041947  0.74384098  1
  O  O215  1  1.00456847  0.14093948  0.25345369  1
  O  O216  1  1.00441292  0.13522664  0.74096158  1
  O  O217  1  1.00117054  0.62334821  0.23996589  1
  O  O218  1  1.00909265  0.63604931  0.76338782  1
  O  O219  1  0.37032169  0.26044226  0.00065010  1
  O  O220  1  0.37200625  0.26936706  0.49695569  1
  O  O221  1  0.36536118  0.75055054  0.01484999  1
  O  O222  1  0.37833864  0.76436780  0.49632975  1
  O  O223  1  0.86483292  0.25150820  0.00772718  1
  O  O224  1  0.86591876  0.24784578  0.51601612  1
  O  O225  1  0.87505273  0.76110425  0.01097050  1
  O  O226  1  0.86608755  0.75562087  0.50888754  1
  O  O227  1  0.12537378  0.23981695  0.50763335  1
  O  O228  1  0.12881210  0.24261772  0.99394541  1
  O  O229  1  0.12456157  0.73936426  0.49695481  1
  O  O230  1  0.13354649  0.73683818  1.00720299  1
  O  O231  1  0.63152753  0.24514531  0.49431641  1
  O  O232  1  0.63810971  0.24821983  0.99298856  1
  O  O233  1  0.63895257  0.74286232  0.50509165  1
  O  O234  1  0.64074309  0.73413422  1.03522013  1
  O  O235  1  0.50276749  0.24025099  0.12506621  1
  O  O236  1  0.50688782  0.24455166  0.63582972  1
  O  O237  1  0.48962762  0.74285205  0.13155643  1
  O  O238  1  0.49160172  0.76163261  0.63362197  1
  O  O239  1  0.99457014  0.25315997  0.13825695  1
  O  O240  1  0.98786609  0.24541925  0.63181978  1
  O  O241  1  0.99213089  0.74181717  0.12760021  1
  O  O242  1  0.98530211  0.75608544  0.61993075  1
  O  O243  1  -0.00426051  0.26390975  0.36578461  1
  O  O244  1  -0.00143175  0.25192407  0.86961453  1
  O  O245  1  0.01113154  0.75979356  0.37667519  1
  O  O246  1  0.00065142  0.75672295  0.87876400  1
  O  O247  1  0.50885362  0.25844578  0.37465954  1
  O  O248  1  0.50646440  0.25547316  0.86526453  1
  O  O249  1  0.49659304  0.75901161  0.35706270  1
  O  O250  1  0.49170687  0.76530890  0.85463034  1
  O  O251  1  0.23608229  0.12236551  0.49495903  1
  O  O252  1  0.24565344  0.13069975  0.99541701  1
  O  O253  1  0.22917454  0.62134715  0.50148213  1
  O  O254  1  0.24319448  0.63084781  0.99464965  1
  O  O255  1  0.74257545  0.13346280  0.49267391  1
  O  O256  1  0.74957069  0.13121769  0.99410576  1
  O  O257  1  0.74391113  0.63207603  0.49332416  1
  O  O258  1  0.75751110  0.63089267  0.99275634  1
  O  O259  1  0.25703314  0.37000354  -0.00178034  1
  O  O260  1  0.25450356  0.37378792  0.51357799  1
  O  O261  1  0.24980702  0.86956801  0.00785872  1
  O  O262  1  0.25794117  0.88292230  0.50518244  1
  O  O263  1  0.75165124  0.36567345  0.01181435  1
  O  O264  1  0.74413621  0.36315206  0.49793285  1
  O  O265  1  0.75965172  0.87889034  0.01709088  1
  O  O266  1  0.75541678  0.86745354  0.50280391  1
  O  O267  1  0.12176398  0.50468702  0.23878863  1
  O  O268  1  0.13254768  0.49296212  0.73885523  1
  O  O269  1  0.13673205  0.99304715  0.25500613  1
  O  O270  1  0.13185667  0.99515934  0.74144560  1
  O  O271  1  0.63874327  0.49793665  0.24371910  1
  O  O272  1  0.63372132  0.49580501  0.74328994  1
  O  O273  1  0.62912788  0.99225500  0.24017097  1
  O  O274  1  0.63328213  1.00378284  0.73680030  1
  O  O275  1  0.36278079  0.00281316  0.25614833  1
  O  O276  1  0.37000671  0.00741335  0.75539769  1
  O  O277  1  0.37653476  0.51529190  0.24878401  1
  O  O278  1  0.36781582  0.50480115  0.74747732  1
  O  O279  1  0.87220663  0.01209127  0.24742707  1
  O  O280  1  0.86365090  -0.00576280  0.75583498  1
  O  O281  1  0.86091949  0.50226159  0.25172830  1
  O  O282  1  0.86423807  0.50486815  0.75515050  1
  O  O283  1  0.10787245  0.38574632  0.38353205  1
  O  O284  1  0.11137819  0.36849715  0.87485363  1
  O  O285  1  0.11713311  0.87047001  0.37049985  1
  O  O286  1  0.11714341  0.87774152  0.87049150  1
  O  O287  1  0.61060524  0.36955986  0.38286169  1
  O  O288  1  0.61908465  0.36799508  0.86734354  1
  O  O289  1  0.62182213  0.88097751  0.36113750  1
  O  O290  1  0.60643809  0.89357859  0.87231925  1
  O  O291  1  0.38537820  0.12644668  0.12517135  1
  O  O292  1  0.37787115  0.11788368  0.63501615  1
  O  O293  1  0.37415676  0.63030037  0.13577398  1
  O  O294  1  0.36446223  0.62339718  0.63352005  1
  O  O295  1  0.88132753  0.13951683  0.12377901  1
  O  O296  1  0.88629947  0.12839764  0.62091254  1
  O  O297  1  0.88396779  0.63181755  0.12700136  1
  O  O298  1  0.87378206  0.63862476  0.62699373  1
  O  O299  1  0.25062601  0.26352614  0.11704895  1
  O  O300  1  0.24450036  0.26497790  0.63338839  1
  O  O301  1  0.25367432  0.76142341  0.11954226  1
  O  O302  1  0.25145736  0.76456289  0.62531676  1
  O  O303  1  0.75411686  0.25309020  0.12163213  1
  O  O304  1  0.76108386  0.24440301  0.61981190  1
  O  O305  1  0.76818307  0.76144203  0.13398519  1
  O  O306  1  0.75556890  0.75766667  0.61779293  1
  O  O307  1  0.25238402  0.23878674  0.36904548  1
  O  O308  1  0.24438212  0.24526556  0.87935001  1
  O  O309  1  0.23406957  0.74984505  0.37125859  1
  O  O310  1  0.25743336  0.75293828  0.88852993  1
  O  O311  1  0.74318219  0.24486278  0.38361319  1
  O  O312  1  0.75039731  0.24287789  0.88136897  1
  O  O313  1  0.75603400  0.73959482  0.38246785  1
  O  O314  1  0.74525653  0.79034858  0.87732232  1
  O  O315  1  0.01073374  0.11800193  0.00259776  1
  O  O316  1  0.01204906  0.12955473  0.50837172  1
  O  O317  1  0.00632315  0.62078605  0.01279734  1
  O  O318  1  0.01602041  0.62501729  0.49582998  1
  O  O319  1  0.50381604  0.11788983  0.00876291  1
  O  O320  1  0.50230870  0.12098908  0.50560870  1
  O  O321  1  0.48028063  0.61814262  0.01986140  1
  O  O322  1  0.51517060  0.63640593  0.49222361  1
  O  O323  1  0.49250261  0.37367642  0.49397494  1
  O  O324  1  0.49293011  0.37354681  0.98962330  1
  O  O325  1  0.49502183  0.88102024  0.49110354  1
  O  O326  1  0.49752198  0.87932137  0.99105988  1
  O  O327  1  0.99252847  0.36710883  0.48640748  1
  O  O328  1  0.99819307  0.37734483  0.99442395  1
  O  O329  1  0.99226307  0.87586163  0.48860562  1
  O  O330  1  1.00202546  0.88298857  0.99560031  1
  O  O331  1  0.49913693  0.49042426  0.37207925  1
  O  O332  1  0.49848035  0.48237745  0.86996851  1
  O  O333  1  0.49404308  0.99590922  0.37725381  1
  O  O334  1  0.49036528  0.99948849  0.87619568  1
  O  O335  1  0.98309570  0.48917634  0.37139197  1
  O  O336  1  0.99181977  0.48822952  0.88199233  1
  O  O337  1  1.00626875  0.98553971  0.37361448  1
  O  O338  1  0.99890560  0.99612948  0.88184546  1
  O  O339  1  0.00105021  0.00229740  0.11452473  1
  O  O340  1  0.00756854  0.00865860  0.63185337  1
  O  O341  1  0.00546998  0.50364825  0.12175587  1
  O  O342  1  0.01331042  0.49156749  0.63486629  1
  O  O343  1  0.50748450  0.00408369  0.12076284  1
  O  O344  1  0.50746925  0.00394533  0.62117980  1
  O  O345  1  0.50611660  0.50124021  0.12523241  1
  O  O346  1  0.51476163  0.50010623  0.63186052  1
  O  O347  1  0.25706409  0.37234087  0.23676798  1
  O  O348  1  0.24972827  0.38079834  0.74031195  1
  O  O349  1  0.24283870  0.88175493  0.24442345  1
  O  O350  1  0.24450033  0.87992574  0.74210139  1
  O  O351  1  0.75239227  0.37780334  0.23861427  1
  O  O352  1  0.73936726  0.38058028  0.75384687  1
  O  O353  1  0.74524475  0.87673903  0.24434915  1
  O  O354  1  0.74838752  0.88242654  0.73973405  1
  O  O355  1  0.24816524  0.11874627  0.25704238  1
  O  O356  1  0.25637595  0.12127496  0.75287179  1
  O  O357  1  0.26087893  0.63167648  0.24817346  1
  O  O358  1  0.25523312  0.61678618  0.75173386  1
  O  O359  1  0.75013693  0.12731297  0.26987065  1
  O  O360  1  0.74723065  0.11438301  0.75976326  1
  O  O361  1  0.74982761  0.61642008  0.25919663  1
  O  O362  1  0.74934580  0.61477520  0.75327486  1
  O  O363  1  0.36684183  0.11848008  0.37735692  1
  O  O364  1  0.37112934  0.11892745  0.86661268  1
  O  O365  1  0.37221115  0.62697166  0.36099262  1
  O  O366  1  0.37663046  0.62074497  0.85795401  1
  O  O367  1  0.86164022  0.13319512  0.38360514  1
  O  O368  1  0.86427506  0.11919632  0.87968141  1
  O  O369  1  0.86628671  0.61286847  0.37701289  1
  O  O370  1  0.88356357  0.61177186  0.87057706  1
  O  O371  1  0.13991168  0.38360418  0.11972772  1
  O  O372  1  0.13219765  0.38197701  0.62361439  1
  O  O373  1  0.13143654  0.87083739  0.13836644  1
  O  O374  1  0.12884787  0.88121895  0.62668511  1
  O  O375  1  0.63116026  0.38363049  0.12207319  1
  O  O376  1  0.62389082  0.38756766  0.63253301  1
  O  O377  1  0.63476611  0.88199847  0.13299167  1
  O  O378  1  0.63862318  0.88434265  0.61537468  1
  O  O379  1  0.11369605  0.25616749  0.24796766  1
  O  O380  1  0.11374474  0.25009996  0.75749252  1
  O  O381  1  0.12128470  0.76009316  0.25788352  1
  O  O382  1  0.12732748  0.75224959  0.75205930  1
  O  O383  1  0.62380128  0.24863221  0.26481414  1
  O  O384  1  0.62148634  0.25671355  0.75298323  1
  O  O385  1  0.61483019  0.75960698  0.23687736  1
  O  O386  1  0.61077523  0.74772960  0.73706147  1
  O  O387  1  0.38261201  0.24586605  0.24494600  1
  O  O388  1  0.38577773  0.23954790  0.75458593  1
  O  O389  1  0.37969016  0.74425606  0.24038394  1
  O  O390  1  0.38165360  0.74260615  0.74045606  1
  O  O391  1  0.88164793  0.24503583  0.24567504  1
  O  O392  1  0.87853302  0.24832802  0.73791785  1
  O  O393  1  0.88223460  0.74414773  0.24484906  1
  O  O394  1  0.87513632  0.74892576  0.73219456  1
  O  O395  1  0.37091459  0.47986976  0.50089873  1
  O  O396  1  0.37584599  0.48730970  0.99376740  1
  O  O397  1  0.38096642  0.99266934  0.49319946  1
  O  O398  1  0.38148866  0.99792075  0.98994292  1
  O  O399  1  0.86677108  0.49882424  0.49090831  1
  O  O400  1  0.88113875  0.49672913  0.99395078  1
  O  O401  1  0.86753413  0.98527627  0.50460927  1
  O  O402  1  0.88608437  0.99545007  0.99555941  1
  O  O403  1  0.11928787  0.01115753  -0.00482383  1
  O  O404  1  0.12551360  0.00413621  0.51077889  1
  O  O405  1  0.11962629  0.51247331  0.00298113  1
  O  O406  1  0.12195765  0.50613602  0.51475885  1
  O  O407  1  0.62112338  -0.00153408  0.01283951  1
  O  O408  1  0.61879954  0.00634897  0.50955836  1
  O  O409  1  0.62412495  0.50210223  0.00935818  1
  O  O410  1  0.62763767  0.50637973  0.51269041  1
  O  O411  1  0.36460877  0.37583891  0.11557395  1
  O  O412  1  0.36525958  0.37298568  0.61767247  1
  O  O413  1  0.36639456  0.86754400  0.12516435  1
  O  O414  1  0.36390684  0.87927581  0.61227824  1
  O  O415  1  0.86720452  0.36318839  0.12517136  1
  O  O416  1  0.87255372  0.36284621  0.62823961  1
  O  O417  1  0.87326590  0.86996492  0.12465369  1
  O  O418  1  0.86545285  0.86822289  0.61773460  1
  O  O419  1  0.13070828  0.12395851  0.39211184  1
  O  O420  1  0.13258858  0.13037836  0.88131820  1
  O  O421  1  0.12300642  0.63302295  0.38391794  1
  O  O422  1  0.11891606  0.63282169  0.87781113  1
  O  O423  1  0.62915814  0.13405935  0.38232795  1
  O  O424  1  0.63655189  0.12962548  0.87675645  1
  O  O425  1  0.63871918  0.61555967  0.38318581  1
  O  O426  1  0.57789679  0.63153189  0.89114280  1
