# generated using pymatgen
data_V85Zn86O256
_symmetry_space_group_name_H-M   'P 1'
_cell_length_a   16.93676450
_cell_length_b   16.94258861
_cell_length_c   16.92899659
_cell_angle_alpha   89.92826700
_cell_angle_beta   89.96729483
_cell_angle_gamma   89.97371516
_symmetry_Int_Tables_number   1
_chemical_formula_structural   V85Zn86O256
_chemical_formula_sum   'V85 Zn86 O256'
_cell_volume   4857.81504385
_cell_formula_units_Z   1
loop_
 _symmetry_equiv_pos_site_id
 _symmetry_equiv_pos_as_xyz
  1  'x, y, z'
loop_
 _atom_site_type_symbol
 _atom_site_label
 _atom_site_symmetry_multiplicity
 _atom_site_fract_x
 _atom_site_fract_y
 _atom_site_fract_z
 _atom_site_occupancy
  V  V0  1  0.12470664  0.25526768  0.37199640  1
  V  V1  1  0.87405756  0.86774074  0.49985171  1
  V  V2  1  0.62920313  0.37653258  0.23944266  1
  V  V3  1  0.74676014  0.63206386  0.38942066  1
  V  V4  1  0.87515769  0.51414405  0.86957515  1
  V  V5  1  0.49624222  0.25349109  0.74819548  1
  V  V6  1  0.74767222  0.00104026  0.75153318  1
  V  V7  1  0.49988969  0.37586455  0.37475559  1
  V  V8  1  0.74399942  -0.00241939  0.24558785  1
  V  V9  1  0.86994073  0.87380152  -0.00168892  1
  V  V10  1  0.48932331  0.49901859  0.00521171  1
  V  V11  1  0.49595209  0.12842708  0.62407333  1
  V  V12  1  0.87765872  0.37422070  0.49648124  1
  V  V13  1  0.62637267  0.25094948  0.87725156  1
  V  V14  1  0.38238613  -0.00500019  0.37539351  1
  V  V15  1  -0.00122429  0.74184656  0.75037260  1
  V  V16  1  0.12710923  0.73741966  0.88193307  1
  V  V17  1  0.87490204  0.50123303  0.37633308  1
  V  V18  1  0.12446974  -0.00004237  0.62700462  1
  V  V19  1  0.25812709  0.74593359  -0.00054811  1
  V  V20  1  0.12262264  -0.00931199  0.12865460  1
  V  V21  1  0.49830668  0.74038641  0.23643630  1
  V  V22  1  0.74345649  0.74530490  -0.01658901  1
  V  V23  1  0.62819946  0.51302898  0.12292658  1
  V  V24  1  0.00793921  0.49569438  0.49737255  1
  V  V25  1  0.00035452  0.25648200  0.74749303  1
  V  V26  1  0.62709584  0.25206382  0.37534019  1
  V  V27  1  0.50799265  0.11971006  0.12350214  1
  V  V28  1  0.49581750  0.62079777  0.62566387  1
  V  V29  1  0.37197959  0.74097428  0.63586349  1
  V  V30  1  0.00549277  0.75493396  0.24600800  1
  V  V31  1  0.61723200  0.87273281  0.25345057  1
  V  V32  1  0.87543365  0.12531106  0.24985666  1
  V  V33  1  0.74277277  0.87461909  0.12244708  1
  V  V34  1  0.75004186  0.37358704  0.62591464  1
  V  V35  1  -0.00239838  0.00041363  -0.00018530  1
  V  V36  1  0.87357230  0.00004593  0.87408494  1
  V  V37  1  0.25020559  0.87139741  0.62684166  1
  V  V38  1  0.00018251  -0.00162885  0.50053729  1
  V  V39  1  0.12504007  0.87290923  0.75117195  1
  V  V40  1  0.12643857  0.12517623  -0.00013301  1
  V  V41  1  0.87356948  0.74267744  0.62547609  1
  V  V42  1  0.62509467  0.62329123  -0.02122341  1
  V  V43  1  0.50270448  -0.00722721  -0.00201183  1
  V  V44  1  0.37442399  0.50220938  0.36412030  1
  V  V45  1  0.87179304  0.74439239  0.12374349  1
  V  V46  1  0.12859511  0.62302513  0.49967901  1
  V  V47  1  0.00026853  0.87418544  0.87373804  1
  V  V48  1  0.00096495  0.37929664  0.87321716  1
  V  V49  1  0.87356526  -0.00248121  0.37530958  1
  V  V50  1  0.26446605  0.87682596  0.11392676  1
  V  V51  1  0.23272416  0.37098873  0.13624637  1
  V  V52  1  0.12489808  0.25194531  0.87121980  1
  V  V53  1  0.62771902  0.50434161  0.62406215  1
  V  V54  1  0.74849115  0.87038529  0.62229687  1
  V  V55  1  -0.00075463  0.12588230  0.12702424  1
  V  V56  1  0.00286334  0.26323118  0.25327789  1
  V  V57  1  0.22677648  0.38073416  0.63195138  1
  V  V58  1  0.25185335  0.74722252  0.49983838  1
  V  V59  1  0.24986105  0.50627319  0.76144129  1
  V  V60  1  0.51077341  0.74930066  0.75126841  1
  V  V61  1  0.75211861  0.51393401  0.75234299  1
  V  V62  1  0.24644398  -0.01060120  0.25178280  1
  V  V63  1  0.00404644  0.61909864  0.62531279  1
  V  V64  1  0.62328905  -0.00041730  0.62567653  1
  V  V65  1  0.12719103  0.12442032  0.50169294  1
  V  V66  1  0.25126529  0.12378449  0.37362889  1
  V  V67  1  0.00721008  0.87513673  0.37001000  1
  V  V68  1  0.25597423  0.62711238  0.36298727  1
  V  V69  1  0.38271977  0.87258685  0.49980435  1
  V  V70  1  0.25256379  0.00051098  0.75239911  1
  V  V71  1  0.75147728  0.50088685  0.24621756  1
  V  V72  1  0.74987952  0.12361390  0.37594411  1
  V  V73  1  0.49050368  0.37833169  0.87629303  1
  V  V74  1  0.49865043  0.24996177  0.24879546  1
  V  V75  1  0.01135862  0.50696841  0.00662104  1
  V  V76  1  0.87519052  0.12755214  0.74821737  1
  V  V77  1  0.86977009  0.25707341  0.12539755  1
  V  V78  1  0.62512035  0.12469629  0.50038797  1
  V  V79  1  0.37458549  0.12748656  0.74931089  1
  V  V80  1  0.61789889  0.74988545  0.38817642  1
  V  V81  1  0.50513539  0.50235616  0.49783779  1
  V  V82  1  0.37454681  0.25203450  0.12145024  1
  V  V83  1  0.86726230  0.38076593  0.00066462  1
  V  V84  1  0.37322586  0.37091098  0.51296919  1
  Zn  Zn85  1  0.01649873  0.62823674  0.12248645  1
  Zn  Zn86  1  0.87273320  0.62810228  0.24956142  1
  Zn  Zn87  1  0.25009697  0.25015456  -0.00165347  1
  Zn  Zn88  1  0.00040813  0.12697133  0.62463891  1
  Zn  Zn89  1  0.25213588  0.12751643  0.87528784  1
  Zn  Zn90  1  0.36677843  0.37445295  -0.00193079  1
  Zn  Zn91  1  0.63088068  0.12421838  0.00375953  1
  Zn  Zn92  1  0.37838701  0.62513078  0.22095530  1
  Zn  Zn93  1  0.75216479  0.24902972  0.50079808  1
  Zn  Zn94  1  0.28795010  0.61356266  0.87668573  1
  Zn  Zn95  1  0.74984669  0.12983235  0.87757383  1
  Zn  Zn96  1  0.13027808  0.75641323  0.36953794  1
  Zn  Zn97  1  0.37461964  0.12175817  0.24894547  1
  Zn  Zn98  1  0.74883746  0.25256359  0.00264071  1
  Zn  Zn99  1  0.25695567  0.24910858  0.50736123  1
  Zn  Zn100  1  0.62485732  0.37801192  0.75117315  1
  Zn  Zn101  1  0.50125054  -0.00255214  0.49849139  1
  Zn  Zn102  1  0.62766117  0.86968156  0.76110282  1
  Zn  Zn103  1  0.87523738  0.24941968  0.62214133  1
  Zn  Zn104  1  0.37421691  -0.00606941  0.88394630  1
  Zn  Zn105  1  0.15273027  0.51942410  0.17964405  1
  Zn  Zn106  1  0.49865124  0.85859620  0.88745875  1
  Zn  Zn107  1  0.18807095  0.18521355  0.18896296  1
  Zn  Zn108  1  0.18934863  0.19340394  0.68597472  1
  Zn  Zn109  1  0.18860217  0.69751990  0.18375424  1
  Zn  Zn110  1  0.18690625  0.67658339  0.69252788  1
  Zn  Zn111  1  0.68894088  0.18927700  0.18915801  1
  Zn  Zn112  1  0.68506643  0.18991129  0.68899463  1
  Zn  Zn113  1  0.68903896  0.68938490  0.19206690  1
  Zn  Zn114  1  0.68644667  0.68298835  0.67933718  1
  Zn  Zn115  1  0.31360579  0.31220486  0.31505672  1
  Zn  Zn116  1  0.31034519  0.31518807  0.80586822  1
  Zn  Zn117  1  0.31753240  0.81341834  0.30989677  1
  Zn  Zn118  1  0.31837774  0.81279546  0.82011877  1
  Zn  Zn119  1  0.81340559  0.31510609  0.31244829  1
  Zn  Zn120  1  0.81416002  0.31799065  0.81255993  1
  Zn  Zn121  1  0.81146804  0.81070855  0.31195399  1
  Zn  Zn122  1  0.81451345  0.81126212  0.80657551  1
  Zn  Zn123  1  0.16387363  0.45917934  0.37598598  1
  Zn  Zn124  1  0.18918285  0.43158444  0.93953300  1
  Zn  Zn125  1  0.19143131  0.93632471  0.43956367  1
  Zn  Zn126  1  0.18524605  0.93788495  0.93545968  1
  Zn  Zn127  1  0.68887779  0.43791445  0.43606384  1
  Zn  Zn128  1  0.68480799  0.43841454  0.93142914  1
  Zn  Zn129  1  0.68636255  0.93379901  0.43801151  1
  Zn  Zn130  1  0.67654945  0.93750343  0.93730590  1
  Zn  Zn131  1  0.31576194  0.06483312  0.06397063  1
  Zn  Zn132  1  0.31391653  0.06158387  0.56486904  1
  Zn  Zn133  1  0.29487298  0.55980507  0.06549874  1
  Zn  Zn134  1  0.31320266  0.55449461  0.55942109  1
  Zn  Zn135  1  0.80943014  0.06450385  0.06316437  1
  Zn  Zn136  1  0.81249167  0.06007997  0.56378119  1
  Zn  Zn137  1  0.80842038  0.56284773  0.05738980  1
  Zn  Zn138  1  0.81579401  0.56145353  0.56311831  1
  Zn  Zn139  1  0.43809719  0.43649980  0.18425561  1
  Zn  Zn140  1  0.43418053  0.44269600  0.69295396  1
  Zn  Zn141  1  0.43940922  0.93811314  0.18888965  1
  Zn  Zn142  1  0.43573302  0.93487604  0.69151975  1
  Zn  Zn143  1  0.93852398  0.43993325  0.18676153  1
  Zn  Zn144  1  0.93683213  0.43837399  0.68474718  1
  Zn  Zn145  1  0.93140072  0.93539130  0.18603804  1
  Zn  Zn146  1  0.93726025  0.93527461  0.68695126  1
  Zn  Zn147  1  0.06313386  0.06446166  0.31169124  1
  Zn  Zn148  1  0.06161334  0.06553319  0.81216169  1
  Zn  Zn149  1  0.05424966  0.57738884  0.31511359  1
  Zn  Zn150  1  0.07132987  0.55438059  0.80694465  1
  Zn  Zn151  1  0.56332994  0.06284901  0.31098020  1
  Zn  Zn152  1  0.56367437  0.06355494  0.81462907  1
  Zn  Zn153  1  0.56491719  0.56674981  0.31264118  1
  Zn  Zn154  1  0.48243796  0.59501950  0.84289519  1
  Zn  Zn155  1  0.43762976  0.18701744  0.43698852  1
  Zn  Zn156  1  0.43861212  0.18506853  0.93625189  1
  Zn  Zn157  1  0.44001545  0.68610845  0.43922059  1
  Zn  Zn158  1  0.41773426  0.66681472  1.01239737  1
  Zn  Zn159  1  0.93955532  0.18771027  0.43625115  1
  Zn  Zn160  1  0.93590578  0.18975373  0.93706561  1
  Zn  Zn161  1  0.93775169  0.68755299  0.43604852  1
  Zn  Zn162  1  0.93755142  0.68655399  0.93914368  1
  Zn  Zn163  1  0.05567343  0.31324077  0.05865408  1
  Zn  Zn164  1  0.06181176  0.31066471  0.55751435  1
  Zn  Zn165  1  0.06210933  0.81271845  0.06044741  1
  Zn  Zn166  1  0.06337395  0.80956654  0.56182387  1
  Zn  Zn167  1  0.56278102  0.31381484  0.06156129  1
  Zn  Zn168  1  0.56300979  0.31376955  0.56247735  1
  Zn  Zn169  1  0.56766685  0.80915885  0.06122119  1
  Zn  Zn170  1  0.56145092  0.81123960  0.56900161  1
  O  O171  1  0.11935464  0.11772785  0.11671336  1
  O  O172  1  0.12513535  0.11923115  0.61748002  1
  O  O173  1  0.12982802  0.61815387  0.13319258  1
  O  O174  1  0.11890568  0.62818057  0.60926636  1
  O  O175  1  0.61104995  0.13144213  0.12788887  1
  O  O176  1  0.62021615  0.11835206  0.61986480  1
  O  O177  1  0.63026897  0.61404725  0.12608795  1
  O  O178  1  0.61772809  0.61057155  0.62108780  1
  O  O179  1  0.38136688  0.38450785  0.37766870  1
  O  O180  1  0.38690641  0.36684752  0.87779920  1
  O  O181  1  0.36796058  0.88407074  0.38663241  1
  O  O182  1  0.39116414  0.88398079  0.86140363  1
  O  O183  1  0.86692620  0.38586786  0.38768435  1
  O  O184  1  0.88579941  0.38208338  0.88127883  1
  O  O185  1  0.87971584  0.87735990  0.38379636  1
  O  O186  1  0.88044061  0.88046564  0.87784924  1
  O  O187  1  0.25524308  0.00296462  0.36813668  1
  O  O188  1  0.24940991  0.00310515  0.86288774  1
  O  O189  1  0.26413524  0.51355719  0.37812261  1
  O  O190  1  0.24821559  0.49923025  0.86847382  1
  O  O191  1  0.75571520  0.00254162  0.36857628  1
  O  O192  1  0.75378025  -0.00060795  0.86336478  1
  O  O193  1  0.75576884  0.51134737  0.37170360  1
  O  O194  1  0.75766885  0.49560596  0.85880859  1
  O  O195  1  0.24527547  0.47796899  0.12621720  1
  O  O196  1  0.25431139  0.48380341  0.62597999  1
  O  O197  1  0.24400114  0.99287704  0.12967894  1
  O  O198  1  0.24428782  0.99423696  0.63484322  1
  O  O199  1  0.74446446  0.50215843  0.13506042  1
  O  O200  1  0.74690310  0.49554428  0.62873724  1
  O  O201  1  0.75602131  0.98983395  0.13574531  1
  O  O202  1  0.74633665  0.99333563  0.63490965  1
  O  O203  1  -0.00636245  0.36191504  0.25121356  1
  O  O204  1  -0.00638443  0.36522001  0.75634881  1
  O  O205  1  -0.00900208  0.87058783  0.26050839  1
  O  O206  1  0.00572924  0.86597261  0.75357589  1
  O  O207  1  0.50815515  0.36764720  0.25423558  1
  O  O208  1  0.50103780  0.36933184  0.75623099  1
  O  O209  1  0.51331525  0.87024815  0.24667523  1
  O  O210  1  0.50628452  0.85607250  0.73272141  1
  O  O211  1  0.49996587  0.13186642  0.24105626  1
  O  O212  1  0.49391913  0.13107930  0.74414952  1
  O  O213  1  0.50008071  0.63634913  0.24755323  1
  O  O214  1  0.49959073  0.63409759  0.73460598  1
  O  O215  1  0.99202021  0.12775228  0.24419457  1
  O  O216  1  0.99126102  0.13443395  0.74925613  1
  O  O217  1  0.99075038  0.64020135  0.24455051  1
  O  O218  1  1.00878856  0.63014231  0.73810377  1
  O  O219  1  0.37339069  0.24904073  0.00819331  1
  O  O220  1  0.37556424  0.26654787  0.49049502  1
  O  O221  1  0.35515914  0.76471085  -0.00640484  1
  O  O222  1  0.36657262  0.75474406  0.50568055  1
  O  O223  1  0.87673268  0.26022918  0.00829240  1
  O  O224  1  0.87496625  0.25890820  0.49976747  1
  O  O225  1  0.86660873  0.75535127  0.00411981  1
  O  O226  1  0.88158920  0.76133355  0.50793377  1
  O  O227  1  0.12355775  0.23383377  0.49379505  1
  O  O228  1  0.11899934  0.23990250  0.98973108  1
  O  O229  1  0.13840205  0.74493761  0.49893821  1
  O  O230  1  0.12927475  0.75728629  0.98550049  1
  O  O231  1  0.62695739  0.24360988  0.49265069  1
  O  O232  1  0.62847640  0.25049768  0.99211110  1
  O  O233  1  0.62236066  0.75635760  0.48724154  1
  O  O234  1  0.62949089  0.73265496  1.00033010  1
  O  O235  1  0.49574667  0.24371799  0.13172187  1
  O  O236  1  0.50836406  0.23692924  0.63299084  1
  O  O237  1  0.50405030  0.75027323  0.13692127  1
  O  O238  1  0.49052609  0.73825080  0.62404971  1
  O  O239  1  0.99128561  0.24460465  0.13261596  1
  O  O240  1  0.99833419  0.24847720  0.63383836  1
  O  O241  1  0.99115294  0.75214829  0.12848472  1
  O  O242  1  0.99672179  0.74115577  0.63117947  1
  O  O243  1  0.01141617  0.24110934  0.36467569  1
  O  O244  1  0.00269562  0.25817340  0.86816385  1
  O  O245  1  -0.00087473  0.75904266  0.36601630  1
  O  O246  1  0.00659903  0.75309602  0.86916285  1
  O  O247  1  0.50636742  0.25202666  0.36528074  1
  O  O248  1  0.50613782  0.25602370  0.86827682  1
  O  O249  1  0.51492612  0.74431262  0.37098537  1
  O  O250  1  0.49996059  0.74342405  0.85002485  1
  O  O251  1  0.24447534  0.12567634  0.49490642  1
  O  O252  1  0.23819151  0.12636790  0.99916821  1
  O  O253  1  0.24579937  0.63025397  0.49461640  1
  O  O254  1  0.24733110  0.64219587  0.99184807  1
  O  O255  1  0.74524828  0.12443854  0.49390752  1
  O  O256  1  0.74875708  0.13150860  0.99635874  1
  O  O257  1  0.75062835  0.62222162  0.48821698  1
  O  O258  1  0.73616727  0.63114568  0.99507782  1
  O  O259  1  0.24996356  0.36741957  0.01298420  1
  O  O260  1  0.26787560  0.37541109  0.51423009  1
  O  O261  1  0.24636168  0.87579857  0.00974517  1
  O  O262  1  0.25577128  0.86567533  0.50769917  1
  O  O263  1  0.76383787  0.37582324  -0.00672636  1
  O  O264  1  0.75677775  0.37596026  0.50968995  1
  O  O265  1  0.74944798  0.86985951  0.00638970  1
  O  O266  1  0.76014483  0.88111851  0.51337495  1
  O  O267  1  0.11601680  0.49216049  0.27877370  1
  O  O268  1  0.14649143  0.50103033  0.74277802  1
  O  O269  1  0.13343405  1.00480265  0.24049064  1
  O  O270  1  0.13077702  0.99586233  0.74604408  1
  O  O271  1  0.63033303  0.49510110  0.24368957  1
  O  O272  1  0.64310760  0.49547470  0.73908845  1
  O  O273  1  0.63592995  0.98979701  0.25862765  1
  O  O274  1  0.63350837  1.00093760  0.74378487  1
  O  O275  1  0.36762638  -0.00052071  0.25875798  1
  O  O276  1  0.36556579  0.00837007  0.74678940  1
  O  O277  1  0.38616734  0.50676009  0.25985843  1
  O  O278  1  0.35432356  0.49638582  0.74791723  1
  O  O279  1  0.86432214  0.00322322  0.25577984  1
  O  O280  1  0.86863810  0.00612397  0.75282136  1
  O  O281  1  0.86859280  0.50122027  0.25805970  1
  O  O282  1  0.86359750  0.49546414  0.75540602  1
  O  O283  1  0.13222719  0.35207581  0.39071889  1
  O  O284  1  0.10992736  0.36551252  0.88040251  1
  O  O285  1  0.11131135  0.87560252  0.38194222  1
  O  O286  1  0.11733570  0.86944235  0.86792609  1
  O  O287  1  0.61958574  0.37065593  0.36671248  1
  O  O288  1  0.61465270  0.36611812  0.87250379  1
  O  O289  1  0.63454903  0.85895864  0.36678839  1
  O  O290  1  0.61107271  0.87601132  0.87238566  1
  O  O291  1  0.38434092  0.13626342  0.12960446  1
  O  O292  1  0.38398955  0.12305347  0.63476057  1
  O  O293  1  0.36863513  0.63067593  0.10960314  1
  O  O294  1  0.38145730  0.63095051  0.61631053  1
  O  O295  1  0.88080758  0.13158171  0.13099176  1
  O  O296  1  0.87680143  0.12521203  0.63646669  1
  O  O297  1  0.87156745  0.63848005  0.12231067  1
  O  O298  1  0.88538118  0.63700916  0.61657626  1
  O  O299  1  0.25755366  0.25260055  0.12448617  1
  O  O300  1  0.24362677  0.27014180  0.62265868  1
  O  O301  1  0.24216320  0.76820245  0.11031850  1
  O  O302  1  0.25514561  0.74876106  0.62058128  1
  O  O303  1  0.76567301  0.24844889  0.12782533  1
  O  O304  1  0.75164289  0.25909206  0.62266782  1
  O  O305  1  0.75466578  0.75637152  0.11848747  1
  O  O306  1  0.76149038  0.75718755  0.63044403  1
  O  O307  1  0.24489318  0.23754252  0.37630994  1
  O  O308  1  0.23865072  0.24948301  0.87427714  1
  O  O309  1  0.25217045  0.74710595  0.38351408  1
  O  O310  1  0.23859979  0.75412558  0.88264503  1
  O  O311  1  0.74430686  0.24209607  0.37434264  1
  O  O312  1  0.74041854  0.25286222  0.87295300  1
  O  O313  1  0.74275150  0.73772593  0.37144261  1
  O  O314  1  0.75407882  0.75525833  0.88461745  1
  O  O315  1  0.00444603  0.11932763  0.00562530  1
  O  O316  1  0.00779418  0.11570991  0.50065505  1
  O  O317  1  -0.00278482  0.61147273  0.00250377  1
  O  O318  1  0.00932449  0.62190942  0.50421714  1
  O  O319  1  0.50442894  0.12530362  0.01444161  1
  O  O320  1  0.50408160  0.12324718  0.50821992  1
  O  O321  1  0.51795532  0.60635168  0.00995692  1
  O  O322  1  0.49751381  0.61311380  0.51081075  1
  O  O323  1  0.49556202  0.37933085  0.49212391  1
  O  O324  1  0.49911506  0.38322965  0.99407243  1
  O  O325  1  0.48607342  0.87650158  0.50734781  1
  O  O326  1  0.50353970  0.88899758  1.00789108  1
  O  O327  1  0.99198736  0.38533011  0.50229390  1
  O  O328  1  0.99030667  0.38616308  0.99266445  1
  O  O329  1  0.99372486  0.87912516  0.49430350  1
  O  O330  1  0.99162129  0.88123987  0.99392299  1
  O  O331  1  0.49790182  0.49783435  0.38144021  1
  O  O332  1  0.50490727  0.49024661  0.89354364  1
  O  O333  1  0.48618168  1.00571916  0.37661062  1
  O  O334  1  0.49985700  1.00839594  0.89234311  1
  O  O335  1  0.98087704  0.51312554  0.38488658  1
  O  O336  1  0.99521702  0.49533404  0.87720195  1
  O  O337  1  0.99338424  0.99360365  0.37862934  1
  O  O338  1  0.99365227  0.99507292  0.87886089  1
  O  O339  1  0.00446266  0.00384489  0.12150636  1
  O  O340  1  0.00736415  0.00017555  0.61950561  1
  O  O341  1  -0.00193786  0.50237994  0.11163062  1
  O  O342  1  -0.00599887  0.51184786  0.61374757  1
  O  O343  1  0.49654801  0.01505108  0.12205716  1
  O  O344  1  0.50596058  0.01092006  0.62629336  1
  O  O345  1  0.51452055  0.48770754  0.11272439  1
  O  O346  1  0.50746129  0.50290021  0.62110102  1
  O  O347  1  0.25007918  0.36461250  0.23602152  1
  O  O348  1  0.24675462  0.38027442  0.73743165  1
  O  O349  1  0.25171121  0.88332699  0.23862048  1
  O  O350  1  0.24498477  0.88118504  0.74586612  1
  O  O351  1  0.74136581  0.38977578  0.25915252  1
  O  O352  1  0.75225861  0.38031785  0.73531134  1
  O  O353  1  0.74358052  0.87966595  0.24346397  1
  O  O354  1  0.75044865  0.88238015  0.73878599  1
  O  O355  1  0.25229668  0.11232874  0.25768619  1
  O  O356  1  0.25743563  0.11888267  0.74761802  1
  O  O357  1  0.25979290  0.64040255  0.26022660  1
  O  O358  1  0.25247577  0.61555804  0.76190261  1
  O  O359  1  0.75358635  0.11561063  0.25427176  1
  O  O360  1  0.75737336  0.11782901  0.75047754  1
  O  O361  1  0.75159863  0.61458122  0.25913886  1
  O  O362  1  0.75285963  0.61238952  0.74280232  1
  O  O363  1  0.36405421  0.11679441  0.37617331  1
  O  O364  1  0.37318423  0.12194208  0.86112032  1
  O  O365  1  0.36889777  0.61680095  0.38011574  1
  O  O366  1  0.39470811  0.62774544  0.90395364  1
  O  O367  1  0.86946368  0.11827457  0.36988569  1
  O  O368  1  0.87423889  0.11916892  0.86413041  1
  O  O369  1  0.86215282  0.62219620  0.37485695  1
  O  O370  1  0.87937564  0.61353085  0.87297736  1
  O  O371  1  0.13262005  0.36283612  0.12759030  1
  O  O372  1  0.12868580  0.38085431  0.61878970  1
  O  O373  1  0.12771128  0.88888668  0.12031055  1
  O  O374  1  0.13025341  0.87831288  0.63079142  1
  O  O375  1  0.62703688  0.37807544  0.13676808  1
  O  O376  1  0.63268256  0.38483549  0.62455227  1
  O  O377  1  0.63722213  0.86960353  0.13464572  1
  O  O378  1  0.63475578  0.88224535  0.62453452  1
  O  O379  1  0.11569776  0.24009945  0.26039157  1
  O  O380  1  0.11387234  0.24144745  0.76278120  1
  O  O381  1  0.11001905  0.75519718  0.25018017  1
  O  O382  1  0.11753677  0.75277724  0.75838745  1
  O  O383  1  0.61864791  0.25792801  0.25364565  1
  O  O384  1  0.61335417  0.25314308  0.75617554  1
  O  O385  1  0.61625187  0.75484819  0.25728123  1
  O  O386  1  0.61470718  0.74958061  0.73805322  1
  O  O387  1  0.38807595  0.24731431  0.24780515  1
  O  O388  1  0.38778286  0.24333430  0.75218308  1
  O  O389  1  0.39618797  0.75071912  0.25581598  1
  O  O390  1  0.38043486  0.75033079  0.73776458  1
  O  O391  1  0.88074051  0.24577701  0.24582641  1
  O  O392  1  0.88147934  0.24281122  0.74923335  1
  O  O393  1  0.88058609  0.75257141  0.23888483  1
  O  O394  1  0.89046434  0.75269308  0.74101862  1
  O  O395  1  0.38738720  0.48770703  0.49228763  1
  O  O396  1  0.38767234  0.49337117  1.01183629  1
  O  O397  1  0.37336775  0.99008198  0.49412092  1
  O  O398  1  0.39411869  1.01120049  1.00099649  1
  O  O399  1  0.88215005  0.49402451  0.49433710  1
  O  O400  1  0.87900584  0.49629941  0.98993954  1
  O  O401  1  0.88062008  0.98949976  0.49671328  1
  O  O402  1  0.87760262  0.99408656  0.99434275  1
  O  O403  1  0.11759026  0.00810332  0.00471250  1
  O  O404  1  0.12269967  0.00773204  0.50486064  1
  O  O405  1  0.10888625  0.49620096  -0.00498423  1
  O  O406  1  0.11295076  0.50819278  0.48188112  1
  O  O407  1  0.61034912  0.00781420  0.00388275  1
  O  O408  1  0.62265975  0.00477458  0.50580151  1
  O  O409  1  0.62971788  0.50786773  0.00614472  1
  O  O410  1  0.61283750  0.49205337  0.50567817  1
  O  O411  1  0.37333872  0.36018266  0.12643924  1
  O  O412  1  0.38913856  0.37237994  0.61139465  1
  O  O413  1  0.36232574  0.88157545  0.12380288  1
  O  O414  1  0.36685076  0.86579502  0.61891900  1
  O  O415  1  0.88063509  0.36841436  0.11467098  1
  O  O416  1  0.86830568  0.37494925  0.61283815  1
  O  O417  1  0.86398990  0.86616025  0.11770579  1
  O  O418  1  0.87118190  0.86544211  0.61914605  1
  O  O419  1  0.13612465  0.12445695  0.38258065  1
  O  O420  1  0.12433444  0.13094658  0.88477670  1
  O  O421  1  0.13511533  0.63476041  0.38443782  1
  O  O422  1  0.11945867  0.63929413  0.87350957  1
  O  O423  1  0.63004383  0.13001094  0.37994119  1
  O  O424  1  0.62621981  0.14013052  0.87502799  1
  O  O425  1  0.63649373  0.63649220  0.37415177  1
  O  O426  1  0.61209626  0.61766349  0.88313157  1
