# generated using pymatgen
data_V85Zn86O256
_symmetry_space_group_name_H-M   'P 1'
_cell_length_a   16.98997985
_cell_length_b   16.97086188
_cell_length_c   16.99397762
_cell_angle_alpha   89.96215010
_cell_angle_beta   90.05820237
_cell_angle_gamma   89.85453432
_symmetry_Int_Tables_number   1
_chemical_formula_structural   V85Zn86O256
_chemical_formula_sum   'V85 Zn86 O256'
_cell_volume   4899.93236452
_cell_formula_units_Z   1
loop_
 _symmetry_equiv_pos_site_id
 _symmetry_equiv_pos_as_xyz
  1  'x, y, z'
loop_
 _atom_site_type_symbol
 _atom_site_label
 _atom_site_symmetry_multiplicity
 _atom_site_fract_x
 _atom_site_fract_y
 _atom_site_fract_z
 _atom_site_occupancy
  V  V0  1  0.87562666  0.12558653  0.25107964  1
  V  V1  1  0.62297411  0.37840105  0.25130505  1
  V  V2  1  0.75077308  0.12589095  0.37618668  1
  V  V3  1  0.24794576  0.12523944  0.86814250  1
  V  V4  1  0.00160258  0.11137771  0.12362323  1
  V  V5  1  0.87667255  0.25235846  0.62441302  1
  V  V6  1  0.75197923  0.25464952  0.50122895  1
  V  V7  1  0.62959708  0.00230802  0.64112514  1
  V  V8  1  0.13114167  0.51895510  0.62007865  1
  V  V9  1  0.12486563  0.37042149  0.25290054  1
  V  V10  1  0.49679290  0.87876350  0.37239795  1
  V  V11  1  0.00194934  0.87401807  0.37716092  1
  V  V12  1  0.87719275  0.50510668  0.37157750  1
  V  V13  1  0.60785646  0.74901500  0.87002311  1
  V  V14  1  0.26123209  0.74598274  0.02033375  1
  V  V15  1  0.42517135  0.07445527  0.80493108  1
  V  V16  1  0.74956618  0.62161273  0.85818463  1
  V  V17  1  0.51872597  0.12138635  0.12337270  1
  V  V18  1  0.37873958  0.24518237  0.12757637  1
  V  V19  1  0.87400995  -0.00230952  0.38166535  1
  V  V20  1  0.62412841  0.50139618  0.12152340  1
  V  V21  1  0.36670148  0.00888098  0.37345748  1
  V  V22  1  0.12421824  0.87135500  0.76029305  1
  V  V23  1  0.50207563  0.37374644  0.87292795  1
  V  V24  1  0.49590059  0.64098307  0.62679534  1
  V  V25  1  0.74370866  0.00045406  0.24292827  1
  V  V26  1  0.12518402  0.11026880  0.00007191  1
  V  V27  1  0.49874944  0.50367089  0.50066841  1
  V  V28  1  0.24645513  0.50102176  0.25123435  1
  V  V29  1  0.75007630  0.74093398  -0.00202057  1
  V  V30  1  0.12660664  0.37779214  0.73714740  1
  V  V31  1  -0.00155687  0.26324586  0.75236779  1
  V  V32  1  0.37185688  0.50473399  0.37468199  1
  V  V33  1  0.49308852  0.12743639  0.62364345  1
  V  V34  1  0.49602510  0.25376018  0.74924690  1
  V  V35  1  0.76008536  0.12630269  0.86262309  1
  V  V36  1  0.74389857  0.87413361  0.12175689  1
  V  V37  1  0.62646904  0.12670852  0.50399136  1
  V  V38  1  0.61256637  0.87128059  0.75096021  1
  V  V39  1  0.62285053  0.75424204  0.36997528  1
  V  V40  1  0.12015576  0.49804119  0.12483763  1
  V  V41  1  0.24839732  0.37101882  0.12467801  1
  V  V42  1  0.12759178  0.12386676  0.48787121  1
  V  V43  1  0.62609940  0.25407561  0.37878508  1
  V  V44  1  0.00583141  0.37145201  0.37671475  1
  V  V45  1  0.24663005  0.24855832  0.00042378  1
  V  V46  1  0.75388490  0.50397862  0.25007071  1
  V  V47  1  0.86650460  0.49826350  0.86621186  1
  V  V48  1  0.50182042  0.00163193  0.50069746  1
  V  V49  1  0.93542796  0.68158571  0.68137202  1
  V  V50  1  0.01081037  0.24741136  0.25149773  1
  V  V51  1  0.11963568  0.26047399  0.87541019  1
  V  V52  1  0.49975569  0.37885839  0.37580063  1
  V  V53  1  0.75262157  0.63070902  0.37024873  1
  V  V54  1  0.87868660  0.37902104  0.50302523  1
  V  V55  1  0.63188481  0.37898457  0.74868471  1
  V  V56  1  0.24201612  0.00844343  0.74069004  1
  V  V57  1  -0.00168138  0.49569537  -0.01179497  1
  V  V58  1  0.37553847  0.49822205  0.87253757  1
  V  V59  1  0.87880938  0.24689944  0.12584803  1
  V  V60  1  0.01204821  0.12436565  0.62639294  1
  V  V61  1  0.75105173  0.37332063  0.12564442  1
  V  V62  1  0.62132061  0.62843495  0.49787272  1
  V  V63  1  0.37014282  0.37546504  0.50472680  1
  V  V64  1  0.00712091  0.51365097  0.50155740  1
  V  V65  1  0.25057712  0.49549551  0.74511629  1
  V  V66  1  0.37695978  0.63786791  0.74725143  1
  V  V67  1  0.24597717  0.74889104  0.50394764  1
  V  V68  1  0.12080867  0.62490276  0.00109531  1
  V  V69  1  0.62875646  0.50371074  0.62800613  1
  V  V70  1  0.88163223  0.87111989  0.00028546  1
  V  V71  1  0.24680107  0.62829823  0.87559637  1
  V  V72  1  0.49089343  0.75021124  0.24181272  1
  V  V73  1  0.37503535  0.87133263  0.50713366  1
  V  V74  1  0.24038245  0.87831448  0.62410048  1
  V  V75  1  0.62320098  0.24433262  0.87548652  1
  V  V76  1  0.87958682  0.37176711  -0.00518183  1
  V  V77  1  0.24098867  0.62828133  0.37859565  1
  V  V78  1  0.75062829  0.76173803  0.50770967  1
  V  V79  1  0.88121261  -0.01254157  0.86608035  1
  V  V80  1  -0.00734875  0.74193916  0.25055055  1
  V  V81  1  0.36589768  0.25300612  0.62658386  1
  V  V82  1  0.37560624  0.37070381  -0.00287197  1
  V  V83  1  0.24242540  0.25266505  0.48685172  1
  V  V84  1  0.74798658  0.24390962  -0.00229076  1
  Zn  Zn85  1  0.50061220  0.49862725  -0.00096363  1
  Zn  Zn86  1  0.75871858  0.38819579  0.62978458  1
  Zn  Zn87  1  0.11240551  0.76268367  0.88179135  1
  Zn  Zn88  1  0.49205034  0.62645651  0.12008731  1
  Zn  Zn89  1  0.12049749  0.74782849  0.37913086  1
  Zn  Zn90  1  0.88038459  0.11747228  0.74496987  1
  Zn  Zn91  1  0.86736785  0.73889740  0.13267171  1
  Zn  Zn92  1  0.56857696  -0.02624308  0.03996500  1
  Zn  Zn93  1  0.78639630  -0.07187983  0.68788874  1
  Zn  Zn94  1  0.87790129  0.87209769  0.51524230  1
  Zn  Zn95  1  0.39976947  -0.07964393  0.98466965  1
  Zn  Zn96  1  0.49999679  0.25206614  0.25061547  1
  Zn  Zn97  1  0.37507728  0.12594175  0.25316938  1
  Zn  Zn98  1  0.62131134  0.62138514  -0.00277295  1
  Zn  Zn99  1  0.61864025  0.88253588  0.23890745  1
  Zn  Zn100  1  0.12315971  0.88035503  0.24431468  1
  Zn  Zn101  1  0.36134698  0.63904380  0.23933981  1
  Zn  Zn102  1  0.00631757  -0.00557316  0.50629321  1
  Zn  Zn103  1  0.23371792  0.01129554  0.24887248  1
  Zn  Zn104  1  0.00429979  -0.01126467  -0.00291934  1
  Zn  Zn105  1  0.24292372  0.90122507  0.12351441  1
  Zn  Zn106  1  -0.01348722  0.61808402  0.13125485  1
  Zn  Zn107  1  0.19555633  0.16158232  0.18030924  1
  Zn  Zn108  1  0.18701189  0.19402295  0.68555688  1
  Zn  Zn109  1  0.17459923  0.69091781  0.19177815  1
  Zn  Zn110  1  0.19514062  0.69390634  0.68844097  1
  Zn  Zn111  1  0.69244871  0.19408195  0.19335833  1
  Zn  Zn112  1  0.68734127  0.19188060  0.68790736  1
  Zn  Zn113  1  0.68329214  0.68797581  0.18699693  1
  Zn  Zn114  1  0.68333311  0.69006933  0.68732541  1
  Zn  Zn115  1  0.31331385  0.31436342  0.31252984  1
  Zn  Zn116  1  0.31027196  0.31162948  0.81151789  1
  Zn  Zn117  1  0.30629300  0.82131158  0.31115189  1
  Zn  Zn118  1  0.31666482  0.81599014  0.81546428  1
  Zn  Zn119  1  0.81622893  0.31564615  0.31398520  1
  Zn  Zn120  1  0.81423694  0.31551658  0.81029937  1
  Zn  Zn121  1  0.81376421  0.81778654  0.31340348  1
  Zn  Zn122  1  0.81342298  0.80120276  0.80772628  1
  Zn  Zn123  1  0.18806328  0.43663039  0.44098285  1
  Zn  Zn124  1  0.18620268  0.43830142  0.93278044  1
  Zn  Zn125  1  0.18549985  0.93793805  0.43566168  1
  Zn  Zn126  1  0.23235448  0.92071960  0.92047969  1
  Zn  Zn127  1  0.68957014  0.44219344  0.44024688  1
  Zn  Zn128  1  0.69033108  0.43317366  0.93792068  1
  Zn  Zn129  1  0.68267954  0.94158206  0.43601308  1
  Zn  Zn130  1  0.71001315  0.91552709  0.90971305  1
  Zn  Zn131  1  0.32454237  0.04066754  0.07806629  1
  Zn  Zn132  1  0.31054683  0.06418688  0.55783546  1
  Zn  Zn133  1  0.31200821  0.56113964  0.06262395  1
  Zn  Zn134  1  0.31238097  0.56675910  0.56379698  1
  Zn  Zn135  1  0.75981143  0.03260972  0.02467850  1
  Zn  Zn136  1  0.81493043  0.06659925  0.56454664  1
  Zn  Zn137  1  0.81283849  0.56197677  0.05992179  1
  Zn  Zn138  1  0.80993428  0.56790597  0.55527097  1
  Zn  Zn139  1  0.43133700  0.44794254  0.18384122  1
  Zn  Zn140  1  0.44176076  0.44203574  0.68604204  1
  Zn  Zn141  1  0.43342849  0.93822944  0.18159618  1
  Zn  Zn142  1  0.43916699  0.93355734  0.68522018  1
  Zn  Zn143  1  0.93720172  0.43518206  0.18754077  1
  Zn  Zn144  1  0.96238471  0.48130146  0.70748739  1
  Zn  Zn145  1  0.93149623  0.93123806  0.19036679  1
  Zn  Zn146  1  0.95425403  0.93406347  0.68506518  1
  Zn  Zn147  1  0.05974586  0.06304315  0.31918727  1
  Zn  Zn148  1  0.06385516  0.06369467  0.81314628  1
  Zn  Zn149  1  0.06247416  0.56218999  0.31453678  1
  Zn  Zn150  1  0.03976500  0.60618146  0.82628920  1
  Zn  Zn151  1  0.55974766  0.06784234  0.31023327  1
  Zn  Zn152  1  0.60335154  0.03156754  0.86517929  1
  Zn  Zn153  1  0.56154404  0.56655949  0.31005307  1
  Zn  Zn154  1  0.56057178  0.56491143  0.80952004  1
  Zn  Zn155  1  0.43894615  0.19203794  0.43986323  1
  Zn  Zn156  1  0.41492860  0.14213733  0.96957927  1
  Zn  Zn157  1  0.43194317  0.69014702  0.43345788  1
  Zn  Zn158  1  0.43410521  0.68048290  0.94057454  1
  Zn  Zn159  1  0.94148390  0.18718230  0.43833304  1
  Zn  Zn160  1  0.93987097  0.18289074  0.93625004  1
  Zn  Zn161  1  0.93215985  0.69100643  0.44012641  1
  Zn  Zn162  1  0.93361607  0.68536132  0.93835206  1
  Zn  Zn163  1  0.06140172  0.31030612  0.06325602  1
  Zn  Zn164  1  0.06316371  0.31562580  0.56304622  1
  Zn  Zn165  1  0.06356746  0.80971402  0.06959778  1
  Zn  Zn166  1  0.06222319  0.80790507  0.56567030  1
  Zn  Zn167  1  0.56175642  0.30988431  0.06048060  1
  Zn  Zn168  1  0.56107758  0.31647433  0.56472429  1
  Zn  Zn169  1  0.55837645  0.80554463  0.05394873  1
  Zn  Zn170  1  0.56908823  0.81988592  0.56211179  1
  O  O171  1  0.11026561  0.13720895  0.11010543  1
  O  O172  1  0.11419937  0.13798139  0.61524430  1
  O  O173  1  0.12017223  0.61202087  0.11849900  1
  O  O174  1  0.13255161  0.61692466  0.62637975  1
  O  O175  1  0.61737172  0.13490503  0.13538900  1
  O  O176  1  0.61269733  0.12477574  0.62557331  1
  O  O177  1  0.62113172  0.61277554  0.12488550  1
  O  O178  1  0.61634681  0.62039131  0.61909575  1
  O  O179  1  0.37969873  0.38083566  0.38732537  1
  O  O180  1  0.37977568  0.37882951  0.87802762  1
  O  O181  1  0.38478851  0.88566431  0.38340913  1
  O  O182  1  0.33921394  0.88571481  0.89432421  1
  O  O183  1  0.88286062  0.38298889  0.38523657  1
  O  O184  1  0.86706531  0.37835518  0.89047976  1
  O  O185  1  0.88206182  0.88455457  0.38010172  1
  O  O186  1  0.86924712  0.88199011  0.87903869  1
  O  O187  1  0.26627996  -0.00040992  0.38154277  1
  O  O188  1  0.24613172  0.02156594  0.86215999  1
  O  O189  1  0.25485449  0.50701217  0.37478300  1
  O  O190  1  0.25767281  0.50385169  0.86616978  1
  O  O191  1  0.75500158  0.00743268  0.37032497  1
  O  O192  1  0.76983138  0.01247521  0.87111337  1
  O  O193  1  0.75806036  0.50947283  0.37257771  1
  O  O194  1  0.75202324  0.51239759  0.88045393  1
  O  O195  1  0.23585807  0.49001416  0.12766009  1
  O  O196  1  0.24126275  0.50237080  0.62981140  1
  O  O197  1  0.23059964  1.02362088  0.13035020  1
  O  O198  1  0.25480448  0.99634263  0.63157351  1
  O  O199  1  0.74144725  0.49243641  0.12974256  1
  O  O200  1  0.73371057  0.50320990  0.61335334  1
  O  O201  1  0.75320403  0.99076515  0.13167957  1
  O  O202  1  0.73385172  1.01642521  0.62986851  1
  O  O203  1  0.00466808  0.36733950  0.25708527  1
  O  O204  1  0.00982687  0.36967174  0.74495298  1
  O  O205  1  -0.00357306  0.86542038  0.26064103  1
  O  O206  1  0.02577556  0.88085578  0.75237400  1
  O  O207  1  0.50875298  0.37853960  0.25736249  1
  O  O208  1  0.51019143  0.37272926  0.75335643  1
  O  O209  1  0.49894157  0.86863844  0.25386643  1
  O  O210  1  0.51118774  0.87236668  0.74664315  1
  O  O211  1  0.49634993  0.13412626  0.24297196  1
  O  O212  1  0.48718193  0.13259251  0.74169021  1
  O  O213  1  0.49771658  0.64288010  0.25226837  1
  O  O214  1  0.48857599  0.62174887  0.73916201  1
  O  O215  1  0.99411461  0.13154865  0.24416956  1
  O  O216  1  1.00365113  0.13862719  0.73825394  1
  O  O217  1  1.00082388  0.63705288  0.25406398  1
  O  O218  1  0.98316151  0.59806821  0.73046333  1
  O  O219  1  0.36594256  0.24872566  0.00993820  1
  O  O220  1  0.36672681  0.25803609  0.50458363  1
  O  O221  1  0.35977121  0.73936427  0.00278489  1
  O  O222  1  0.36478796  0.76474294  0.48998370  1
  O  O223  1  0.87412005  0.25465932  0.00719428  1
  O  O224  1  0.87382084  0.25861930  0.50564726  1
  O  O225  1  0.86561400  0.75333987  -0.00009354  1
  O  O226  1  0.85417133  0.75505520  0.49391340  1
  O  O227  1  0.13830142  0.24991768  0.50301740  1
  O  O228  1  0.12990769  0.25177313  0.99066727  1
  O  O229  1  0.14131608  0.75568709  0.49704703  1
  O  O230  1  0.12556208  0.73142277  1.00092764  1
  O  O231  1  0.63132674  0.24857983  0.49802615  1
  O  O232  1  0.63737176  0.26002427  0.98769328  1
  O  O233  1  0.62885343  0.74947479  0.48558553  1
  O  O234  1  0.63196107  0.74516761  0.98511874  1
  O  O235  1  0.49296126  0.24884049  0.12889327  1
  O  O236  1  0.49298889  0.24470747  0.62823958  1
  O  O237  1  0.50463299  0.74753597  0.13907619  1
  O  O238  1  0.50557339  0.73938880  0.61530490  1
  O  O239  1  0.99264600  0.24724900  0.13370325  1
  O  O240  1  0.99236636  0.24762864  0.62937786  1
  O  O241  1  0.99465016  0.74451992  0.14125850  1
  O  O242  1  1.00192733  0.73878778  0.63079474  1
  O  O243  1  -0.00921163  0.26163270  0.36418777  1
  O  O244  1  0.00714494  0.24755010  0.86366974  1
  O  O245  1  -0.00294060  0.75690481  0.37123730  1
  O  O246  1  0.01436446  0.71033920  0.86828305  1
  O  O247  1  0.50830561  0.26073093  0.37576314  1
  O  O248  1  0.51115731  0.25732080  0.86693102  1
  O  O249  1  0.50461944  0.75957936  0.36781969  1
  O  O250  1  0.51036432  0.73874986  0.87650843  1
  O  O251  1  0.23636267  0.13792993  0.50248066  1
  O  O252  1  0.23918423  0.14018204  0.98865650  1
  O  O253  1  0.26071971  0.63788943  0.49141401  1
  O  O254  1  0.24207551  0.62526116  0.99504608  1
  O  O255  1  0.74543425  0.13501571  0.49622039  1
  O  O256  1  0.75931573  0.14027299  0.98474860  1
  O  O257  1  0.73993479  0.63528206  0.48580867  1
  O  O258  1  0.74435081  0.63318349  0.99609057  1
  O  O259  1  0.25350612  0.36382344  0.00078929  1
  O  O260  1  0.25754566  0.36393136  0.49906155  1
  O  O261  1  0.23612361  0.84615463  0.01119976  1
  O  O262  1  0.25614386  0.87331163  0.50615172  1
  O  O263  1  0.75875571  0.36343142  0.00700884  1
  O  O264  1  0.76063205  0.37144032  0.50090225  1
  O  O265  1  0.75808452  0.85981108  0.00265787  1
  O  O266  1  0.74520606  0.86394853  0.49354775  1
  O  O267  1  0.12740153  0.49314486  0.24294105  1
  O  O268  1  0.13286361  0.49467020  0.73432079  1
  O  O269  1  0.12080092  0.99466207  0.26211025  1
  O  O270  1  0.13682303  0.99500501  0.75215595  1
  O  O271  1  0.63121628  0.49227296  0.24698560  1
  O  O272  1  0.61970383  0.49259393  0.73895333  1
  O  O273  1  0.64099019  1.00053738  0.25916452  1
  O  O274  1  0.62087317  0.98970855  0.75090239  1
  O  O275  1  0.38301381  0.00098112  0.27022382  1
  O  O276  1  0.37099775  0.00786820  0.74811803  1
  O  O277  1  0.36271908  0.48611366  0.26839593  1
  O  O278  1  0.36818472  0.50081317  0.75701166  1
  O  O279  1  0.86483255  0.00470593  0.26119684  1
  O  O280  1  0.87862052  -0.00368073  0.75850301  1
  O  O281  1  0.86989073  0.49090098  0.26425134  1
  O  O282  1  0.86819665  0.47593908  0.76844860  1
  O  O283  1  0.11321332  0.38005240  0.37020262  1
  O  O284  1  0.12867033  0.36532542  0.86366646  1
  O  O285  1  0.10896186  0.87407778  0.37910022  1
  O  O286  1  0.13754249  0.87666033  0.86503855  1
  O  O287  1  0.62156715  0.37582605  0.37026703  1
  O  O288  1  0.62372114  0.36823906  0.86597951  1
  O  O289  1  0.61133221  0.87097338  0.37267396  1
  O  O290  1  0.61975406  0.85630682  0.86898797  1
  O  O291  1  0.38901266  0.13525521  0.12833968  1
  O  O292  1  0.38647766  0.13641168  0.61335164  1
  O  O293  1  0.38612121  0.58494110  0.14217136  1
  O  O294  1  0.38421590  0.61952166  0.63543389  1
  O  O295  1  0.88518273  0.13880525  0.13199081  1
  O  O296  1  0.88773909  0.13651163  0.62533697  1
  O  O297  1  0.87289672  0.62400631  0.12789209  1
  O  O298  1  0.87420942  0.63386035  0.61645111  1
  O  O299  1  0.25518969  0.25230336  0.11622406  1
  O  O300  1  0.26331982  0.24851650  0.61674354  1
  O  O301  1  0.25478823  0.72930728  0.11971106  1
  O  O302  1  0.25309710  0.76289890  0.61568695  1
  O  O303  1  0.75899585  0.25288775  0.11773208  1
  O  O304  1  0.76395470  0.25229178  0.61969764  1
  O  O305  1  0.74656203  0.75438555  0.11638311  1
  O  O306  1  0.73572934  0.74888957  0.60509510  1
  O  O307  1  0.25367776  0.25316248  0.38913020  1
  O  O308  1  0.24183430  0.24555260  0.87879382  1
  O  O309  1  0.24906575  0.74288085  0.37955303  1
  O  O310  1  0.24319987  0.73188883  0.88113701  1
  O  O311  1  0.74678156  0.24713635  0.38100629  1
  O  O312  1  0.74777623  0.24757053  0.88043917  1
  O  O313  1  0.74035608  0.74684021  0.37430879  1
  O  O314  1  0.74614127  0.73419039  0.88020189  1
  O  O315  1  0.00708069  0.12183643  0.00822753  1
  O  O316  1  0.01174849  0.13132110  0.51105185  1
  O  O317  1  0.00610695  0.61001097  0.00733439  1
  O  O318  1  -0.00123215  0.61200453  0.49086753  1
  O  O319  1  0.51545736  0.13381774  0.02209582  1
  O  O320  1  0.50865284  0.12445087  0.50756837  1
  O  O321  1  0.50300236  0.61599284  0.00386059  1
  O  O322  1  0.50139531  0.62209175  0.50265781  1
  O  O323  1  0.49356107  0.38355706  0.49414634  1
  O  O324  1  0.49247653  0.37571150  0.99092792  1
  O  O325  1  0.49370400  0.88023730  0.49324219  1
  O  O326  1  0.50563605  0.88808165  1.00419791  1
  O  O327  1  0.99583706  0.38116231  0.49211233  1
  O  O328  1  0.99062078  0.38229840  1.00463098  1
  O  O329  1  0.99706738  0.87601430  0.49585714  1
  O  O330  1  0.98642005  0.87019224  1.00529992  1
  O  O331  1  0.49115344  0.49955591  0.37945861  1
  O  O332  1  0.49106529  0.49277178  0.87239015  1
  O  O333  1  0.50085000  0.99345675  0.38235092  1
  O  O334  1  0.48912634  1.02500039  0.86255134  1
  O  O335  1  0.99395506  0.49256110  0.37946032  1
  O  O336  1  0.98763193  0.50683269  0.88522493  1
  O  O337  1  0.98812882  0.99345177  0.38209367  1
  O  O338  1  0.98405817  1.00614587  0.87845406  1
  O  O339  1  -0.01077260  0.00972464  0.12235697  1
  O  O340  1  0.00193502  0.02151026  0.62311212  1
  O  O341  1  0.00960445  0.49528942  0.12090696  1
  O  O342  1  0.02158662  0.49304516  0.61260510  1
  O  O343  1  0.51244157  0.01522582  0.13250615  1
  O  O344  1  0.50695266  0.01119153  0.62129030  1
  O  O345  1  0.51797432  0.48968511  0.12382572  1
  O  O346  1  0.50959231  0.50750748  0.61606189  1
  O  O347  1  0.24113070  0.37932255  0.24656955  1
  O  O348  1  0.24400883  0.38906450  0.75402524  1
  O  O349  1  0.24711483  0.88909526  0.24734016  1
  O  O350  1  0.24828623  0.88879147  0.74011537  1
  O  O351  1  0.74426740  0.38249301  0.24695030  1
  O  O352  1  0.73574812  0.36890098  0.74492994  1
  O  O353  1  0.74788394  0.88293761  0.23978240  1
  O  O354  1  0.73208472  0.87073282  0.76524804  1
  O  O355  1  0.26119062  0.12503036  0.25942140  1
  O  O356  1  0.24445260  0.12255084  0.75342777  1
  O  O357  1  0.24664760  0.61749788  0.25870183  1
  O  O358  1  0.25527805  0.61450110  0.75664881  1
  O  O359  1  0.75788785  0.12063034  0.25547274  1
  O  O360  1  0.75990781  0.13785656  0.75907639  1
  O  O361  1  0.74097296  0.61944066  0.26323364  1
  O  O362  1  0.74588673  0.62416502  0.75979176  1
  O  O363  1  0.38499191  0.11100958  0.38066960  1
  O  O364  1  0.36683707  0.14181528  0.85997962  1
  O  O365  1  0.36569371  0.61641246  0.36853572  1
  O  O366  1  0.36742693  0.61459512  0.86747132  1
  O  O367  1  0.87057358  0.12062280  0.37061599  1
  O  O368  1  0.87356347  0.11901785  0.86768329  1
  O  O369  1  0.86443599  0.61616285  0.37934664  1
  O  O370  1  0.85689951  0.61257413  0.87898375  1
  O  O371  1  0.12954080  0.37786840  0.13153414  1
  O  O372  1  0.13031052  0.37423041  0.63519841  1
  O  O373  1  0.13442564  0.86359498  0.13208625  1
  O  O374  1  0.13701185  0.87566143  0.63119527  1
  O  O375  1  0.63272381  0.37612085  0.13447679  1
  O  O376  1  0.62608549  0.38541388  0.63124210  1
  O  O377  1  0.63726783  0.87499957  0.12027065  1
  O  O378  1  0.62414094  0.88992401  0.63493742  1
  O  O379  1  0.11336876  0.25096609  0.24474645  1
  O  O380  1  0.11945585  0.25995295  0.75475044  1
  O  O381  1  0.10765762  0.75237885  0.26009211  1
  O  O382  1  0.13934262  0.76813433  0.75483794  1
  O  O383  1  0.62822227  0.26621187  0.25987405  1
  O  O384  1  0.61669075  0.25887483  0.75359229  1
  O  O385  1  0.61539200  0.75578590  0.25922655  1
  O  O386  1  0.62326045  0.75236185  0.76256448  1
  O  O387  1  0.37640939  0.25801943  0.23617764  1
  O  O388  1  0.38209956  0.26354831  0.73655613  1
  O  O389  1  0.38754499  0.75348850  0.25558890  1
  O  O390  1  0.36662360  0.73693890  0.75356080  1
  O  O391  1  0.88144671  0.24805906  0.24263934  1
  O  O392  1  0.88433309  0.25658695  0.74003102  1
  O  O393  1  0.88771707  0.75366604  0.25334382  1
  O  O394  1  0.88100878  0.73851942  0.74501130  1
  O  O395  1  0.37612191  0.49441717  0.49205402  1
  O  O396  1  0.37137453  0.49110397  0.98400643  1
  O  O397  1  0.38345612  0.99545887  0.49219355  1
  O  O398  1  0.37472209  1.03674701  0.98050156  1
  O  O399  1  0.88254018  0.49456704  0.49231311  1
  O  O400  1  0.87970192  0.48879490  0.99466801  1
  O  O401  1  0.87359633  1.00414526  0.48856937  1
  O  O402  1  0.86975657  0.98492738  0.98785069  1
  O  O403  1  0.12303772  0.01110982  -0.01111105  1
  O  O404  1  0.12519342  0.01926272  0.49472143  1
  O  O405  1  0.11682694  0.49905875  0.00643366  1
  O  O406  1  0.12307869  0.49890608  0.51192640  1
  O  O407  1  0.65241816  0.00179476  -0.02945372  1
  O  O408  1  0.61979606  0.00872669  0.50975736  1
  O  O409  1  0.62619594  0.49671215  0.00932602  1
  O  O410  1  0.61749111  0.50928090  0.50269310  1
  O  O411  1  0.36735578  0.37101488  0.11594913  1
  O  O412  1  0.38373598  0.37035805  0.61100924  1
  O  O413  1  0.35860063  0.92050507  0.10131125  1
  O  O414  1  0.36859627  0.88267563  0.61097379  1
  O  O415  1  0.87066471  0.36515764  0.11909550  1
  O  O416  1  0.87642226  0.37135208  0.61096882  1
  O  O417  1  0.86188850  0.86852313  0.11639523  1
  O  O418  1  0.87068536  0.89420516  0.62504604  1
  O  O419  1  0.11131180  0.13784119  0.39152963  1
  O  O420  1  0.12929992  0.13814529  0.88023853  1
  O  O421  1  0.13784468  0.62279871  0.37738749  1
  O  O422  1  0.13725082  0.60497869  0.88911608  1
  O  O423  1  0.63161118  0.13396969  0.38201506  1
  O  O424  1  0.64002690  0.14095308  0.86564287  1
  O  O425  1  0.62814706  0.63531690  0.37855544  1
  O  O426  1  0.63307322  0.63055216  0.87310966  1
