# generated using pymatgen
data_V85Zn86O256
_symmetry_space_group_name_H-M   'P 1'
_cell_length_a   16.94078909
_cell_length_b   16.93882389
_cell_length_c   16.92316983
_cell_angle_alpha   90.01083765
_cell_angle_beta   90.01047342
_cell_angle_gamma   90.01400251
_symmetry_Int_Tables_number   1
_chemical_formula_structural   V85Zn86O256
_chemical_formula_sum   'V85 Zn86 O256'
_cell_volume   4856.22245756
_cell_formula_units_Z   1
loop_
 _symmetry_equiv_pos_site_id
 _symmetry_equiv_pos_as_xyz
  1  'x, y, z'
loop_
 _atom_site_type_symbol
 _atom_site_label
 _atom_site_symmetry_multiplicity
 _atom_site_fract_x
 _atom_site_fract_y
 _atom_site_fract_z
 _atom_site_occupancy
  V  V0  1  0.12266919  0.63114305  0.50287740  1
  V  V1  1  0.49876305  0.62507352  0.12097049  1
  V  V2  1  0.75172611  0.23691301  -0.00612337  1
  V  V3  1  0.87860774  0.87339123  0.49460112  1
  V  V4  1  0.87748351  0.00342081  0.37016886  1
  V  V5  1  0.49613406  0.87402759  0.37445199  1
  V  V6  1  0.37161053  0.86511530  0.50907511  1
  V  V7  1  -0.01102530  0.24480533  0.25539109  1
  V  V8  1  0.12773041  0.12992590  0.49150612  1
  V  V9  1  0.36957159  0.00017160  0.37569026  1
  V  V10  1  -0.00958737  0.12039324  0.13266981  1
  V  V11  1  0.87663250  0.38516041  -0.00048257  1
  V  V12  1  -0.00692254  0.36993401  0.38264307  1
  V  V13  1  0.24477561  0.63479473  0.37560073  1
  V  V14  1  0.37200538  0.62477982  0.25040835  1
  V  V15  1  0.62649453  0.75078118  0.86797001  1
  V  V16  1  0.24663947  0.11987294  0.87565690  1
  V  V17  1  0.37612259  0.74955159  0.12029462  1
  V  V18  1  0.24618363  0.36717168  0.61591128  1
  V  V19  1  0.37406483  0.87589565  0.00273705  1
  V  V20  1  0.62669469  0.62256808  0.49417599  1
  V  V21  1  0.00272242  0.87793606  0.86598251  1
  V  V22  1  0.62551322  0.87472148  0.24888993  1
  V  V23  1  0.62364029  0.62330547  -0.00236955  1
  V  V24  1  0.87408990  0.74235221  0.62916150  1
  V  V25  1  0.62447368  0.87388575  0.74768430  1
  V  V26  1  0.50192637  0.00684211  -0.00130222  1
  V  V27  1  0.49905216  0.74864182  0.24861518  1
  V  V28  1  0.26302752  0.49592443  0.75018159  1
  V  V29  1  0.87347762  0.50719717  0.37925304  1
  V  V30  1  0.74905092  0.50895421  0.25549560  1
  V  V31  1  0.38032414  0.12474785  0.25308862  1
  V  V32  1  0.24606513  0.37529351  0.12637043  1
  V  V33  1  0.49418186  0.49565571  0.49722314  1
  V  V34  1  0.00442132  -0.00585155  0.49752760  1
  V  V35  1  0.50215877  0.87671685  0.87219841  1
  V  V36  1  0.75626395  0.62447947  0.86816221  1
  V  V37  1  0.87324420  0.00600391  0.87616842  1
  V  V38  1  0.13065771  -0.00715831  0.63692190  1
  V  V39  1  0.88628313  0.74289051  0.13021236  1
  V  V40  1  0.49570438  0.62986405  0.63446118  1
  V  V41  1  0.36860176  0.11981706  0.75058476  1
  V  V42  1  0.24532553  0.50450395  0.25148422  1
  V  V43  1  -0.00260254  0.25333862  0.75281926  1
  V  V44  1  0.62625623  0.49720419  0.12538621  1
  V  V45  1  0.49979329  -0.00265549  0.49808642  1
  V  V46  1  0.11266044  0.61974257  0.00124245  1
  V  V47  1  0.49723585  0.37824889  0.87245733  1
  V  V48  1  0.23469418  0.87643526  0.12302984  1
  V  V49  1  0.74977637  0.87466733  0.62259540  1
  V  V50  1  0.62648576  0.12920454  0.48530793  1
  V  V51  1  0.12460942  0.24988120  0.87802997  1
  V  V52  1  0.37395786  0.37850369  -0.00287776  1
  V  V53  1  0.12493869  0.12580564  0.01781773  1
  V  V54  1  0.25308019  0.74643440  0.00262350  1
  V  V55  1  0.62668726  0.74824688  0.37398423  1
  V  V56  1  0.75133892  0.74957828  0.00079870  1
  V  V57  1  0.75327804  0.00774100  0.24801869  1
  V  V58  1  0.75498654  0.25324184  0.49133762  1
  V  V59  1  0.49815943  0.50084897  -0.00414567  1
  V  V60  1  0.75212779  0.74566826  0.49233465  1
  V  V61  1  0.49982099  0.12395409  0.62406545  1
  V  V62  1  0.49627885  0.25006836  0.74618557  1
  V  V63  1  0.62707371  0.23720876  0.87685270  1
  V  V64  1  0.37898251  0.25260367  0.13009132  1
  V  V65  1  0.26008400  0.61357601  0.87417477  1
  V  V66  1  0.62620864  0.00058142  0.62097926  1
  V  V67  1  0.10773417  0.50274235  0.12453266  1
  V  V68  1  -0.00319085  0.74158835  0.75196823  1
  V  V69  1  0.00954899  -0.00094041  0.00307853  1
  V  V70  1  -0.00248543  0.49638956  0.50521378  1
  V  V71  1  0.75814123  0.50176033  0.74912912  1
  V  V72  1  0.50371063  0.13192189  0.12269098  1
  V  V73  1  0.75865430  0.37233101  0.62291379  1
  V  V74  1  0.62186151  0.36453169  0.25565910  1
  V  V75  1  0.62610980  0.00373071  0.12132780  1
  V  V76  1  0.12081286  0.36939906  0.25853813  1
  V  V77  1  0.62601399  0.37297398  0.74923774  1
  V  V78  1  0.12873959  0.75121727  0.86940025  1
  V  V79  1  0.06313577  0.81994339  0.31763854  1
  V  V80  1  -0.00150365  0.12311428  0.62677733  1
  V  V81  1  0.24308840  -0.00218245  0.24473123  1
  V  V82  1  0.62540465  0.49795358  0.62339207  1
  V  V83  1  0.75041014  0.00792458  0.75217863  1
  V  V84  1  0.75213645  0.87329085  0.12558542  1
  Zn  Zn85  1  0.74920247  0.37338316  0.12272700  1
  Zn  Zn86  1  0.86954014  0.13026091  0.75318277  1
  Zn  Zn87  1  0.75398871  0.13203958  0.36625767  1
  Zn  Zn88  1  0.24734576  0.86784055  0.64271321  1
  Zn  Zn89  1  0.36667629  0.24313236  0.61233888  1
  Zn  Zn90  1  0.00394288  0.38203260  0.88321373  1
  Zn  Zn91  1  0.36731468  0.36183899  0.49126034  1
  Zn  Zn92  1  0.88925219  0.50880227  0.87477012  1
  Zn  Zn93  1  0.87760860  0.87575017  -0.00078294  1
  Zn  Zn94  1  0.37408305  0.49771821  0.37350294  1
  Zn  Zn95  1  0.36639076  -0.00204037  0.87400486  1
  Zn  Zn96  1  0.24905896  0.74756862  0.51053375  1
  Zn  Zn97  1  0.12749304  0.37731652  0.75316838  1
  Zn  Zn98  1  0.27441579  0.19466591  0.42848166  1
  Zn  Zn99  1  0.50010129  0.36175193  0.37261813  1
  Zn  Zn100  1  0.88906197  0.62485054  0.25063229  1
  Zn  Zn101  1  0.12577296  0.49983470  0.62945593  1
  Zn  Zn102  1  0.87724025  0.25124708  0.62329002  1
  Zn  Zn103  1  0.24887657  0.24919444  0.00405387  1
  Zn  Zn104  1  0.36782107  0.72904126  0.67067342  1
  Zn  Zn105  1  -0.00083383  0.62072276  0.63074529  1
  Zn  Zn106  1  0.87237603  0.25053994  0.12459188  1
  Zn  Zn107  1  0.20281608  0.20130736  0.23422425  1
  Zn  Zn108  1  0.18189357  0.18505954  0.68806909  1
  Zn  Zn109  1  0.06763284  0.68943377  0.18837079  1
  Zn  Zn110  1  0.18772296  0.68311783  0.69039892  1
  Zn  Zn111  1  0.69239720  0.18624241  0.17638972  1
  Zn  Zn112  1  0.68470059  0.18850537  0.68179514  1
  Zn  Zn113  1  0.68861300  0.68564025  0.18663808  1
  Zn  Zn114  1  0.68560486  0.68569333  0.68305137  1
  Zn  Zn115  1  0.31774631  0.31785140  0.30982160  1
  Zn  Zn116  1  0.31071813  0.30898798  0.81202617  1
  Zn  Zn117  1  0.30592107  0.81371280  0.31054732  1
  Zn  Zn118  1  0.31305485  0.81241629  0.81535307  1
  Zn  Zn119  1  0.81200115  0.32258121  0.31170898  1
  Zn  Zn120  1  0.81415832  0.31469816  0.81635676  1
  Zn  Zn121  1  0.81819594  0.81403634  0.31147572  1
  Zn  Zn122  1  0.81421028  0.81863418  0.81094256  1
  Zn  Zn123  1  0.18073205  0.44235190  0.43713190  1
  Zn  Zn124  1  0.18469598  0.43838811  0.93988223  1
  Zn  Zn125  1  0.19045354  0.93937813  0.44162888  1
  Zn  Zn126  1  0.18250112  0.93847787  0.81509296  1
  Zn  Zn127  1  0.68918414  0.43594547  0.43615155  1
  Zn  Zn128  1  0.69068442  0.43216159  0.93512914  1
  Zn  Zn129  1  0.68910211  0.93764613  0.43347019  1
  Zn  Zn130  1  0.68943029  0.94015592  0.93816638  1
  Zn  Zn131  1  0.31198669  0.06255815  0.06362087  1
  Zn  Zn132  1  0.31017254  0.05787205  0.56523551  1
  Zn  Zn133  1  0.30837365  0.56101617  0.06270499  1
  Zn  Zn134  1  0.31154865  0.56037785  0.56489651  1
  Zn  Zn135  1  0.81685906  0.06150960  0.05981310  1
  Zn  Zn136  1  0.81363408  0.06422944  0.55950552  1
  Zn  Zn137  1  0.81061712  0.56339669  0.06284987  1
  Zn  Zn138  1  0.81282377  0.56206190  0.56033907  1
  Zn  Zn139  1  0.43948298  0.43846827  0.18803760  1
  Zn  Zn140  1  0.43247028  0.43379259  0.67830496  1
  Zn  Zn141  1  0.43843758  0.93962931  0.18737622  1
  Zn  Zn142  1  0.43620709  0.93716561  0.69016126  1
  Zn  Zn143  1  0.93210679  0.43382331  0.19093696  1
  Zn  Zn144  1  0.93877018  0.43626143  0.69163915  1
  Zn  Zn145  1  0.93987702  0.93324571  0.18636789  1
  Zn  Zn146  1  0.93673855  0.93477240  0.68606021  1
  Zn  Zn147  1  0.06010724  0.05564975  0.31291452  1
  Zn  Zn148  1  0.05719530  0.07093222  0.81688145  1
  Zn  Zn149  1  0.06160296  0.56136596  0.31827360  1
  Zn  Zn150  1  0.07082283  0.55939426  0.81341444  1
  Zn  Zn151  1  0.56361894  0.18600096  0.30680962  1
  Zn  Zn152  1  0.56062881  0.06088459  0.80923811  1
  Zn  Zn153  1  0.56247777  0.56092803  0.31219110  1
  Zn  Zn154  1  0.56841127  0.55808076  0.81179349  1
  Zn  Zn155  1  0.44214213  0.18620094  0.43854811  1
  Zn  Zn156  1  0.43472767  0.19122553  0.93760093  1
  Zn  Zn157  1  0.43806440  0.68260731  0.43745940  1
  Zn  Zn158  1  0.42529353  0.70195534  0.88124670  1
  Zn  Zn159  1  0.93783938  0.18341786  0.43928673  1
  Zn  Zn160  1  0.93776784  0.18805858  0.94034227  1
  Zn  Zn161  1  0.94380833  0.68639315  0.43430747  1
  Zn  Zn162  1  0.93621446  0.69060440  0.93741773  1
  Zn  Zn163  1  0.05853961  0.30885373  0.06891698  1
  Zn  Zn164  1  0.06490416  0.31033214  0.56336680  1
  Zn  Zn165  1  0.06419251  0.81419603  0.05042481  1
  Zn  Zn166  1  0.06220241  0.81208563  0.56413973  1
  Zn  Zn167  1  0.56704807  0.31261256  0.05900304  1
  Zn  Zn168  1  0.56595417  0.31008543  0.55906992  1
  Zn  Zn169  1  0.56382595  0.81361507  0.05758591  1
  Zn  Zn170  1  0.55931598  0.80831412  0.56338767  1
  O  O171  1  0.11593735  0.13022308  0.11800099  1
  O  O172  1  0.11461186  0.11385840  0.62166044  1
  O  O173  1  0.12372605  0.61830052  0.11066245  1
  O  O174  1  0.12247971  0.61990921  0.61853788  1
  O  O175  1  0.61541798  0.11605568  0.12685320  1
  O  O176  1  0.61884494  0.11650844  0.61692849  1
  O  O177  1  0.61964125  0.61827747  0.11781952  1
  O  O178  1  0.61736669  0.61908782  0.61285564  1
  O  O179  1  0.38244138  0.38041987  0.37621999  1
  O  O180  1  0.38355791  0.36611334  0.88581558  1
  O  O181  1  0.37776390  0.87804806  0.38378981  1
  O  O182  1  0.38632525  0.87903643  0.88828653  1
  O  O183  1  0.88676998  0.38755185  0.37299369  1
  O  O184  1  0.87577822  0.38045312  0.88776007  1
  O  O185  1  0.86766851  0.88388561  0.38902418  1
  O  O186  1  0.88327061  0.88504997  0.87684342  1
  O  O187  1  0.26254889  -0.00909564  0.36190172  1
  O  O188  1  0.24620706  0.01578094  0.87735211  1
  O  O189  1  0.24972516  0.50344453  0.36284169  1
  O  O190  1  0.24673406  0.50743944  0.87015867  1
  O  O191  1  0.75627846  -0.00002849  0.36297421  1
  O  O192  1  0.75852191  -0.00554594  0.86462108  1
  O  O193  1  0.75990384  0.49500820  0.36854375  1
  O  O194  1  0.74622231  0.50968241  0.86531677  1
  O  O195  1  0.24418300  0.49141165  0.13449003  1
  O  O196  1  0.25171859  0.48840484  0.63356017  1
  O  O197  1  0.25803208  0.98868312  0.13432399  1
  O  O198  1  0.23268556  0.99912561  0.62797847  1
  O  O199  1  0.73755424  0.50098936  0.13035372  1
  O  O200  1  0.74516188  0.49379016  0.62875571  1
  O  O201  1  0.74770263  0.99260930  0.12641383  1
  O  O202  1  0.74518656  0.99397439  0.62784103  1
  O  O203  1  0.00328031  0.36874190  0.25963539  1
  O  O204  1  0.00410877  0.36226303  0.75100834  1
  O  O205  1  0.00606762  0.88090284  0.25852533  1
  O  O206  1  -0.00368467  0.86592061  0.76058233  1
  O  O207  1  0.51766487  0.37937774  0.24903025  1
  O  O208  1  0.50167909  0.36807066  0.75292896  1
  O  O209  1  0.50460849  0.86820078  0.25395284  1
  O  O210  1  0.50693779  0.88197113  0.76474273  1
  O  O211  1  0.49015671  0.12494865  0.23797389  1
  O  O212  1  0.49495792  0.13246646  0.74328806  1
  O  O213  1  0.49370051  0.62919374  0.24296932  1
  O  O214  1  0.51056573  0.61647893  0.73276245  1
  O  O215  1  1.00520524  0.13155658  0.24437491  1
  O  O216  1  0.99745077  0.13647107  0.74367179  1
  O  O217  1  1.00227470  0.61823149  0.24465229  1
  O  O218  1  1.00212471  0.63794149  0.75250417  1
  O  O219  1  0.37256146  0.26031532  0.01205309  1
  O  O220  1  0.36017911  0.24255682  0.49375664  1
  O  O221  1  0.36984123  0.75602994  -0.00302396  1
  O  O222  1  0.37587537  0.76254284  0.49648728  1
  O  O223  1  0.86226842  0.25589415  -0.00400561  1
  O  O224  1  0.85891810  0.24264250  0.50450667  1
  O  O225  1  0.86495995  0.75153870  0.00824314  1
  O  O226  1  0.86868060  0.75478698  0.50316015  1
  O  O227  1  0.12198230  0.22959533  0.50429335  1
  O  O228  1  0.12525959  0.24281450  0.99696967  1
  O  O229  1  0.12735683  0.73626552  0.50799558  1
  O  O230  1  0.13304523  0.73991302  0.99189765  1
  O  O231  1  0.63924888  0.23813238  0.50606026  1
  O  O232  1  0.63907496  0.25498985  0.98943070  1
  O  O233  1  0.63174072  0.74290402  0.49525084  1
  O  O234  1  0.63756679  0.74625156  0.99394413  1
  O  O235  1  0.49554224  0.24015368  0.11540710  1
  O  O236  1  0.49729196  0.24395031  0.63085027  1
  O  O237  1  0.49688535  0.74413357  0.12658069  1
  O  O238  1  0.49787051  0.73299235  0.62417853  1
  O  O239  1  0.99303674  0.23946764  0.13475105  1
  O  O240  1  0.99883536  0.24155823  0.63226617  1
  O  O241  1  0.98875233  0.75426161  0.11820989  1
  O  O242  1  0.99141529  0.75058675  0.63540385  1
  O  O243  1  -0.00728741  0.25738944  0.37081160  1
  O  O244  1  0.00687657  0.25055761  0.86923259  1
  O  O245  1  0.00004548  0.76065381  0.37328849  1
  O  O246  1  0.00527987  0.75709134  0.87073874  1
  O  O247  1  0.51185355  0.24938851  0.38161425  1
  O  O248  1  0.50562344  0.25886010  0.86895003  1
  O  O249  1  0.50483852  0.75440376  0.36929966  1
  O  O250  1  0.52003734  0.76267396  0.88961872  1
  O  O251  1  0.23447231  0.11612579  0.50104257  1
  O  O252  1  0.24146741  0.12738805  0.99795601  1
  O  O253  1  0.24383307  0.62308014  0.49360918  1
  O  O254  1  0.24248866  0.63006283  0.99503893  1
  O  O255  1  0.74266206  0.13442848  0.49770639  1
  O  O256  1  0.75327121  0.13737401  0.99915064  1
  O  O257  1  0.73996592  0.63416198  0.50435288  1
  O  O258  1  0.74293350  0.63199237  0.99255937  1
  O  O259  1  0.25711762  0.37478862  0.00903906  1
  O  O260  1  0.24643268  0.38138982  0.51194270  1
  O  O261  1  0.26253443  0.86653342  0.00701228  1
  O  O262  1  0.26337622  0.87260340  0.50686448  1
  O  O263  1  0.76059046  0.36784032  0.00005771  1
  O  O264  1  0.74260340  0.36075805  0.50671916  1
  O  O265  1  0.75139716  0.86681766  0.00778574  1
  O  O266  1  0.75443469  0.86752816  0.50535456  1
  O  O267  1  0.13051459  0.49232919  0.24261434  1
  O  O268  1  0.14164260  0.49616724  0.74797598  1
  O  O269  1  0.14503061  1.00720352  0.25197612  1
  O  O270  1  0.11681401  1.00387498  0.74124536  1
  O  O271  1  0.62977769  0.49592464  0.24264915  1
  O  O272  1  0.63473797  0.49153966  0.74213566  1
  O  O273  1  0.63594451  0.98836345  0.23304560  1
  O  O274  1  0.63151994  0.99430654  0.74277937  1
  O  O275  1  0.37485468  0.00560567  0.25792224  1
  O  O276  1  0.38412809  0.01595621  0.75616401  1
  O  O277  1  0.36636540  0.50818979  0.24670198  1
  O  O278  1  0.36365027  0.49367134  0.74925631  1
  O  O279  1  0.86544970  -0.00978838  0.25856819  1
  O  O280  1  0.86626403  -0.00055258  0.75558244  1
  O  O281  1  0.86479733  0.50102593  0.25686998  1
  O  O282  1  0.86129300  0.49784609  0.75232664  1
  O  O283  1  0.11085925  0.38237619  0.36593307  1
  O  O284  1  0.12562524  0.36092895  0.87883074  1
  O  O285  1  0.12359013  0.87587228  0.37841182  1
  O  O286  1  0.11649018  0.86445829  0.87693484  1
  O  O287  1  0.62454952  0.37951471  0.35796143  1
  O  O288  1  0.61717645  0.36701591  0.86627059  1
  O  O289  1  0.61723047  0.86909957  0.36932243  1
  O  O290  1  0.62235425  0.86991422  0.87006990  1
  O  O291  1  0.38440127  0.13278608  0.12726133  1
  O  O292  1  0.37878096  0.12485631  0.63214919  1
  O  O293  1  0.37885470  0.63041547  0.12840350  1
  O  O294  1  0.39073140  0.62208685  0.62355116  1
  O  O295  1  0.88630442  0.12694333  0.12439343  1
  O  O296  1  0.88876717  0.12214917  0.62725587  1
  O  O297  1  0.87078422  0.64040106  0.12378065  1
  O  O298  1  0.87536184  0.63921381  0.62119642  1
  O  O299  1  0.25718605  0.26416101  0.13148733  1
  O  O300  1  0.24746141  0.26362194  0.63159309  1
  O  O301  1  0.25913191  0.75769107  0.11130684  1
  O  O302  1  0.26021317  0.74949943  0.63052319  1
  O  O303  1  0.75256157  0.25221587  0.10825098  1
  O  O304  1  0.75237950  0.25725572  0.61788448  1
  O  O305  1  0.75318800  0.75578812  0.11741097  1
  O  O306  1  0.75469915  0.75493833  0.61572919  1
  O  O307  1  0.23885642  0.24418555  0.33773796  1
  O  O308  1  0.24186934  0.24069376  0.88005721  1
  O  O309  1  0.25435555  0.73711608  0.37908005  1
  O  O310  1  0.24437640  0.73976118  0.88498459  1
  O  O311  1  0.75461924  0.25152049  0.38642903  1
  O  O312  1  0.74132677  0.25141985  0.88290585  1
  O  O313  1  0.74580664  0.75585138  0.38567134  1
  O  O314  1  0.74492718  0.74723966  0.88023882  1
  O  O315  1  0.00457514  0.12042381  0.01007764  1
  O  O316  1  0.00599600  0.11422155  0.50849559  1
  O  O317  1  0.01408338  0.62934012  -0.00547619  1
  O  O318  1  0.00706942  0.61754682  0.50347934  1
  O  O319  1  0.49384812  0.11388421  0.00512256  1
  O  O320  1  0.50844357  0.11578433  0.50541642  1
  O  O321  1  0.50701489  0.61512500  0.00257153  1
  O  O322  1  0.50658162  0.61405175  0.50655717  1
  O  O323  1  0.50329718  0.38772067  0.50050024  1
  O  O324  1  0.49455395  0.37931614  0.99172344  1
  O  O325  1  0.49058593  0.87708530  0.49604779  1
  O  O326  1  0.49761284  0.88591084  0.99364689  1
  O  O327  1  1.00553544  0.38130182  0.49358773  1
  O  O328  1  0.98048287  0.36422688  1.00165843  1
  O  O329  1  0.99018519  0.88357746  0.50838809  1
  O  O330  1  0.99846794  0.88331504  0.98752030  1
  O  O331  1  0.50039772  0.50062032  0.38915352  1
  O  O332  1  0.50610411  0.48588278  0.87786648  1
  O  O333  1  0.48583329  0.98783301  0.38319300  1
  O  O334  1  0.50265457  0.99373418  0.88410070  1
  O  O335  1  0.99277492  0.49181106  0.38533215  1
  O  O336  1  1.00083672  0.49509759  0.87005554  1
  O  O337  1  0.99154128  1.00053480  0.38726342  1
  O  O338  1  0.99487509  0.99407103  0.87898222  1
  O  O339  1  -0.00587800  0.00635491  0.11561234  1
  O  O340  1  0.00640099  0.00387683  0.62014867  1
  O  O341  1  0.00946091  0.49059433  0.12628823  1
  O  O342  1  -0.00050736  0.50063573  0.61981768  1
  O  O343  1  0.50828538  0.00708131  0.11868441  1
  O  O344  1  0.50628182  0.00288803  0.61832064  1
  O  O345  1  0.51027757  0.50501984  0.11959059  1
  O  O346  1  0.50594433  0.50349481  0.61425830  1
  O  O347  1  0.24031337  0.38459706  0.24387868  1
  O  O348  1  0.25074256  0.38002645  0.74313426  1
  O  O349  1  0.25939711  0.88709654  0.23597966  1
  O  O350  1  0.25873255  0.88497808  0.75441009  1
  O  O351  1  0.73815614  0.38524972  0.24509048  1
  O  O352  1  0.74500158  0.37988562  0.74345041  1
  O  O353  1  0.74603134  0.87909089  0.24084523  1
  O  O354  1  0.74422634  0.88406085  0.74119477  1
  O  O355  1  0.26936494  0.10772032  0.23577933  1
  O  O356  1  0.25808768  0.13249526  0.75932389  1
  O  O357  1  0.25534231  0.61680915  0.25862092  1
  O  O358  1  0.25068559  0.61589025  0.76662618  1
  O  O359  1  0.74684362  0.11190800  0.24681955  1
  O  O360  1  0.74940147  0.11170139  0.74188666  1
  O  O361  1  0.74990507  0.61167532  0.24854194  1
  O  O362  1  0.74188822  0.61564010  0.75659793  1
  O  O363  1  0.37490415  0.11587481  0.36712209  1
  O  O364  1  0.36494555  0.12590383  0.87045689  1
  O  O365  1  0.36810421  0.62014638  0.36795134  1
  O  O366  1  0.35830033  0.61267492  0.89302699  1
  O  O367  1  0.87090854  0.10817513  0.38050852  1
  O  O368  1  0.88188802  0.11041580  0.87202134  1
  O  O369  1  0.87927177  0.61192802  0.37246689  1
  O  O370  1  0.85983091  0.62636985  0.87975116  1
  O  O371  1  0.13105499  0.38162847  0.12933960  1
  O  O372  1  0.13581249  0.37643588  0.62843407  1
  O  O373  1  0.13614952  0.87452948  0.11546968  1
  O  O374  1  0.12548720  0.88900765  0.62538996  1
  O  O375  1  0.62575891  0.38288218  0.13200438  1
  O  O376  1  0.63355954  0.37898038  0.63050919  1
  O  O377  1  0.63544567  0.87760175  0.12689165  1
  O  O378  1  0.62830642  0.87973067  0.62701457  1
  O  O379  1  0.10790548  0.26537341  0.24070323  1
  O  O380  1  0.11677188  0.24958962  0.76133592  1
  O  O381  1  0.12185093  0.76281299  0.25461351  1
  O  O382  1  0.11869818  0.74454885  0.76375238  1
  O  O383  1  0.63141316  0.26023088  0.24422524  1
  O  O384  1  0.61442476  0.25308488  0.75331902  1
  O  O385  1  0.62054930  0.75371455  0.25409649  1
  O  O386  1  0.63211897  0.75747914  0.75885779  1
  O  O387  1  0.37838574  0.24256032  0.23684524  1
  O  O388  1  0.38687561  0.24075270  0.75079888  1
  O  O389  1  0.37937444  0.74338161  0.24286723  1
  O  O390  1  0.39072181  0.74251517  0.77894743  1
  O  O391  1  0.88464112  0.25641961  0.24839191  1
  O  O392  1  0.88153434  0.24850506  0.74841168  1
  O  O393  1  0.86967302  0.74693899  0.23376501  1
  O  O394  1  0.88151278  0.75545182  0.74089780  1
  O  O395  1  0.38841638  0.49863502  0.49950014  1
  O  O396  1  0.38194253  0.48540559  1.01003089  1
  O  O397  1  0.37699806  0.99047507  0.49444231  1
  O  O398  1  0.38388049  0.99292145  0.99929564  1
  O  O399  1  0.88664419  0.50370950  0.49476291  1
  O  O400  1  0.86900707  0.48923970  0.99802324  1
  O  O401  1  0.88138928  0.99149293  0.49592234  1
  O  O402  1  0.88345835  0.99722159  0.99136817  1
  O  O403  1  0.11038339  0.01297838  -0.00448456  1
  O  O404  1  0.11774110  0.00343194  0.51164020  1
  O  O405  1  0.12911549  0.51223102  0.00911814  1
  O  O406  1  0.11205940  0.50828998  0.50451554  1
  O  O407  1  0.61870196  -0.00515683  0.01182486  1
  O  O408  1  0.62168731  0.00560628  0.50228704  1
  O  O409  1  0.62103040  0.50108090  0.00612856  1
  O  O410  1  0.61995816  0.50580399  0.50300563  1
  O  O411  1  0.37064435  0.36911736  0.12232057  1
  O  O412  1  0.36236517  0.36608442  0.61532556  1
  O  O413  1  0.38080729  0.86818137  0.11379722  1
  O  O414  1  0.37846528  0.87431896  0.61414248  1
  O  O415  1  0.86928466  0.37328787  0.11393907  1
  O  O416  1  0.86155169  0.37501345  0.62703032  1
  O  O417  1  0.86543931  0.86417312  0.12273478  1
  O  O418  1  0.86842595  0.86655709  0.61456638  1
  O  O419  1  0.11921785  0.11692275  0.39233125  1
  O  O420  1  0.12826645  0.13476570  0.88519930  1
  O  O421  1  0.13552092  0.61674877  0.38790837  1
  O  O422  1  0.13525852  0.63010060  0.88635120  1
  O  O423  1  0.63025885  0.12110632  0.38262811  1
  O  O424  1  0.61810222  0.13814965  0.87084591  1
  O  O425  1  0.61958506  0.63141263  0.38635035  1
  O  O426  1  0.63224103  0.63352414  0.87836573  1
