# generated using pymatgen
data_V85Zn86O256
_symmetry_space_group_name_H-M   'P 1'
_cell_length_a   16.94887289
_cell_length_b   16.95551343
_cell_length_c   16.96067818
_cell_angle_alpha   89.92684867
_cell_angle_beta   90.05264524
_cell_angle_gamma   89.96583431
_symmetry_Int_Tables_number   1
_chemical_formula_structural   V85Zn86O256
_chemical_formula_sum   'V85 Zn86 O256'
_cell_volume   4874.09923067
_cell_formula_units_Z   1
loop_
 _symmetry_equiv_pos_site_id
 _symmetry_equiv_pos_as_xyz
  1  'x, y, z'
loop_
 _atom_site_type_symbol
 _atom_site_label
 _atom_site_symmetry_multiplicity
 _atom_site_fract_x
 _atom_site_fract_y
 _atom_site_fract_z
 _atom_site_occupancy
  V  V0  1  0.49652605  0.62270055  0.62722612  1
  V  V1  1  0.87148574  0.37724785  0.00011142  1
  V  V2  1  0.37908256  0.00901410  0.87949569  1
  V  V3  1  0.62375750  0.74972707  0.37133472  1
  V  V4  1  0.87430698  0.24820494  0.12395466  1
  V  V5  1  0.01119044  0.62341768  0.12639483  1
  V  V6  1  0.25121632  0.00813587  0.75123486  1
  V  V7  1  0.74487784  0.01057378  0.74643227  1
  V  V8  1  0.00036951  0.87491861  0.87548877  1
  V  V9  1  0.00453284  0.00446226  -0.00324397  1
  V  V10  1  0.24588218  -0.00685826  0.24848452  1
  V  V11  1  -0.00066263  0.25003016  0.24784901  1
  V  V12  1  0.62045480  0.87905157  0.74587676  1
  V  V13  1  0.61891756  0.49942789  0.12196210  1
  V  V14  1  0.39244920  0.24633319  0.12625354  1
  V  V15  1  -0.00381266  0.50569838  0.00530094  1
  V  V16  1  0.50583809  0.37044487  0.36120639  1
  V  V17  1  0.13127019  0.74852532  0.87997743  1
  V  V18  1  0.62706530  0.75548553  0.88036956  1
  V  V19  1  0.75048074  0.63417327  0.88211607  1
  V  V20  1  0.24906395  0.62591834  0.37585484  1
  V  V21  1  0.12140499  0.36689523  0.75065214  1
  V  V22  1  0.87312964  0.00235979  0.87072540  1
  V  V23  1  0.74393707  0.37408610  0.12838393  1
  V  V24  1  0.25070957  0.87302680  0.62752851  1
  V  V25  1  0.75442196  0.74933089  0.50099523  1
  V  V26  1  0.00293294  0.75250800  0.74891467  1
  V  V27  1  0.87134966  0.50248480  0.87388626  1
  V  V28  1  0.74441157  0.50584481  0.74142509  1
  V  V29  1  0.12455542  0.62836407  0.49637026  1
  V  V30  1  0.62113423  0.38174309  0.74047271  1
  V  V31  1  0.87458450  0.62898398  0.24820026  1
  V  V32  1  0.12355180  0.37923835  0.24543278  1
  V  V33  1  0.74536798  0.88080215  0.62329464  1
  V  V34  1  0.74946548  0.62252490  0.37641822  1
  V  V35  1  0.37754583  0.87431658  0.50091135  1
  V  V36  1  0.37856953  0.49920934  0.37435152  1
  V  V37  1  0.74690191  0.87213369  0.12019297  1
  V  V38  1  0.74681339  0.24480764  0.00026943  1
  V  V39  1  0.25211493  0.37022399  0.12910573  1
  V  V40  1  0.38119215  -0.00028988  0.37486532  1
  V  V41  1  0.12556499  -0.01010145  0.12791067  1
  V  V42  1  0.37639154  0.37005603  0.50308367  1
  V  V43  1  0.11744692  -0.00073988  0.62051445  1
  V  V44  1  0.12645692  0.25012506  0.37498708  1
  V  V45  1  0.62213277  0.12003665  0.50451534  1
  V  V46  1  0.25330094  0.25042828  0.50927820  1
  V  V47  1  0.87205090  0.86684281  -0.00103125  1
  V  V48  1  -0.01875547  0.24564699  0.74483120  1
  V  V49  1  0.36850235  0.61989118  0.76677541  1
  V  V50  1  0.24702746  0.50071494  0.24830530  1
  V  V51  1  0.61758564  0.25395947  0.87290250  1
  V  V52  1  0.37563231  0.63230913  0.24765605  1
  V  V53  1  0.62745130  0.24870173  0.36063715  1
  V  V54  1  0.00783358  0.12556671  0.11925737  1
  V  V55  1  0.74326823  0.49730630  0.25037764  1
  V  V56  1  -0.00052628  0.37502802  0.37509847  1
  V  V57  1  0.25077685  0.12584585  0.37242934  1
  V  V58  1  0.50761911  0.49623034  0.50159296  1
  V  V59  1  0.87597595  0.11709283  0.25190676  1
  V  V60  1  0.62112769  0.62450512  -0.00093983  1
  V  V61  1  0.13683316  0.49666565  0.62553867  1
  V  V62  1  0.49654632  0.87623924  0.88020708  1
  V  V63  1  0.75021207  0.25012108  0.51038852  1
  V  V64  1  0.17946377  0.56975973  -0.05543841  1
  V  V65  1  0.75004641  -0.00395292  0.25162664  1
  V  V66  1  0.12677757  0.87274656  0.74950286  1
  V  V67  1  0.11521618  0.12057752  0.49999858  1
  V  V68  1  0.38070635  0.38754459  0.00166616  1
  V  V69  1  0.87301086  0.63025576  0.74848994  1
  V  V70  1  0.49808158  0.39052694  0.87772336  1
  V  V71  1  0.75073081  0.12737345  0.87267154  1
  V  V72  1  0.00162865  0.62622420  0.62377062  1
  V  V73  1  0.24889842  0.75003676  0.00609148  1
  V  V74  1  0.62753732  0.62201878  0.50953633  1
  V  V75  1  0.49910093  0.63401022  0.12312743  1
  V  V76  1  0.24532006  0.75092381  0.49640520  1
  V  V77  1  0.37471293  0.87226461  0.00881597  1
  V  V78  1  0.01363992  0.75294556  0.25784827  1
  V  V79  1  0.23972933  0.12177474  0.89234298  1
  V  V80  1  0.38838582  0.12836219  0.24713056  1
  V  V81  1  0.00758768  0.88419161  0.37460126  1
  V  V82  1  0.00126068  0.49785069  0.50110567  1
  V  V83  1  0.87474002  0.49705555  0.37593759  1
  V  V84  1  0.87483487  0.89184998  0.48954487  1
  Zn  Zn85  1  0.49638293  0.74911637  0.75028389  1
  Zn  Zn86  1  0.75159478  0.37461925  0.62630671  1
  Zn  Zn87  1  0.88161274  0.36257576  0.50973596  1
  Zn  Zn88  1  0.11339070  0.23619980  0.88124429  1
  Zn  Zn89  1  0.61812118  0.87802862  0.24699482  1
  Zn  Zn90  1  0.47249078  0.25447059  0.74278839  1
  Zn  Zn91  1  0.49525375  0.75193779  0.25045991  1
  Zn  Zn92  1  0.60152231  0.11486580  -0.00201943  1
  Zn  Zn93  1  0.60978948  0.00582646  0.11832500  1
  Zn  Zn94  1  0.47712688  0.12161622  0.63437109  1
  Zn  Zn95  1  0.87922099  0.75862475  0.62350822  1
  Zn  Zn96  1  0.24829084  0.86934287  0.13164106  1
  Zn  Zn97  1  0.75299333  0.12307625  0.37287824  1
  Zn  Zn98  1  0.37390827  0.74604651  0.62849666  1
  Zn  Zn99  1  0.50250348  0.87295651  0.37680206  1
  Zn  Zn100  1  0.87476860  0.74862412  0.12271611  1
  Zn  Zn101  1  0.51257816  -0.00719483  0.51475618  1
  Zn  Zn102  1  0.24789688  0.50235032  0.76675870  1
  Zn  Zn103  1  0.29281708  0.34404997  0.66594035  1
  Zn  Zn104  1  -0.00600685  0.37256964  0.87377480  1
  Zn  Zn105  1  0.24488795  0.24221670  0.00883680  1
  Zn  Zn106  1  -0.01111584  0.13534313  0.61851330  1
  Zn  Zn107  1  0.18831544  0.18383143  0.18873109  1
  Zn  Zn108  1  0.30591856  0.17964330  0.69468534  1
  Zn  Zn109  1  0.18707300  0.68658031  0.18681072  1
  Zn  Zn110  1  0.19090291  0.68437367  0.68646222  1
  Zn  Zn111  1  0.68322583  0.17953949  0.18302317  1
  Zn  Zn112  1  0.61751543  0.18777739  0.68896702  1
  Zn  Zn113  1  0.69020763  0.68937420  0.18471825  1
  Zn  Zn114  1  0.68664764  0.69491096  0.68962784  1
  Zn  Zn115  1  0.31750482  0.31051287  0.31442195  1
  Zn  Zn116  1  0.30450932  0.31649447  0.83121739  1
  Zn  Zn117  1  0.30987850  0.81284402  0.31695244  1
  Zn  Zn118  1  0.31455757  0.80889508  0.81526935  1
  Zn  Zn119  1  0.81103168  0.31065018  0.31307929  1
  Zn  Zn120  1  0.80647588  0.31653045  0.81039067  1
  Zn  Zn121  1  0.81243858  0.81235580  0.31177973  1
  Zn  Zn122  1  0.81200468  0.81712701  0.80921809  1
  Zn  Zn123  1  0.18933501  0.43620667  0.43649984  1
  Zn  Zn124  1  0.17088415  0.39712030  0.95157053  1
  Zn  Zn125  1  0.18836471  0.93819938  0.43552865  1
  Zn  Zn126  1  0.18791747  0.93689147  0.94140841  1
  Zn  Zn127  1  0.68564959  0.43143512  0.43685595  1
  Zn  Zn128  1  0.68587019  0.43964754  0.93653207  1
  Zn  Zn129  1  0.69071156  0.93709766  0.43163910  1
  Zn  Zn130  1  0.68628842  0.94026724  0.94084493  1
  Zn  Zn131  1  0.44012952  0.06258267  0.05884398  1
  Zn  Zn132  1  0.30663711  0.05728152  0.55672584  1
  Zn  Zn133  1  0.31480163  0.56045309  0.07085510  1
  Zn  Zn134  1  0.31690270  0.55946864  0.56227413  1
  Zn  Zn135  1  0.81053785  0.05869816  0.06361960  1
  Zn  Zn136  1  0.80581160  0.07191514  0.56140444  1
  Zn  Zn137  1  0.81016317  0.56617508  0.06415225  1
  Zn  Zn138  1  0.81868194  0.55836430  0.56462304  1
  Zn  Zn139  1  0.43627745  0.44284673  0.18532781  1
  Zn  Zn140  1  0.44135878  0.44759448  0.69041352  1
  Zn  Zn141  1  0.43498836  0.93297092  0.19399205  1
  Zn  Zn142  1  0.43635161  0.94335470  0.69064245  1
  Zn  Zn143  1  0.93278951  0.43957650  0.18689079  1
  Zn  Zn144  1  0.93778591  0.43675438  0.68525695  1
  Zn  Zn145  1  0.93773589  0.93483985  0.18684377  1
  Zn  Zn146  1  0.91185701  0.97533157  0.66147440  1
  Zn  Zn147  1  0.06209656  0.06205106  0.31049101  1
  Zn  Zn148  1  0.06311276  0.06410738  0.80523023  1
  Zn  Zn149  1  0.06302398  0.56366076  0.31293416  1
  Zn  Zn150  1  0.05673054  0.55772193  0.80733113  1
  Zn  Zn151  1  0.56727280  0.06140819  0.31254912  1
  Zn  Zn152  1  0.56017208  0.06517493  0.81708983  1
  Zn  Zn153  1  0.56282560  0.56425081  0.31366031  1
  Zn  Zn154  1  0.56102781  0.56544150  0.81281592  1
  Zn  Zn155  1  0.44226551  0.18800163  0.43784582  1
  Zn  Zn156  1  0.42853804  0.20177398  0.93051172  1
  Zn  Zn157  1  0.43700610  0.68668514  0.43972511  1
  Zn  Zn158  1  0.43911417  0.69148577  0.94021184  1
  Zn  Zn159  1  0.93337288  0.18899413  0.43346450  1
  Zn  Zn160  1  0.93371543  0.18720986  0.93286432  1
  Zn  Zn161  1  0.93745643  0.68928159  0.43412628  1
  Zn  Zn162  1  0.94252996  0.68626645  0.93663694  1
  Zn  Zn163  1  0.06062403  0.31689214  0.06330027  1
  Zn  Zn164  1  0.06637959  0.31023371  0.56681255  1
  Zn  Zn165  1  0.05919023  0.80984707  0.06288286  1
  Zn  Zn166  1  0.06037224  0.81678498  0.55751611  1
  Zn  Zn167  1  0.56437183  0.31215524  0.06001023  1
  Zn  Zn168  1  0.56315591  0.30792820  0.55783961  1
  Zn  Zn169  1  0.56508529  0.81609315  0.06055872  1
  Zn  Zn170  1  0.56262103  0.80820255  0.56257241  1
  O  O171  1  0.11194091  0.11884346  0.12736314  1
  O  O172  1  0.11214097  0.11144924  0.61297554  1
  O  O173  1  0.11065229  0.62098567  0.13186025  1
  O  O174  1  0.12216318  0.61749267  0.61531014  1
  O  O175  1  0.63202286  0.12122527  0.10810630  1
  O  O176  1  0.63972024  0.11670537  0.60299440  1
  O  O177  1  0.62367910  0.62049813  0.11656618  1
  O  O178  1  0.62043054  0.63288936  0.61368985  1
  O  O179  1  0.38445870  0.37995975  0.38237055  1
  O  O180  1  0.38009416  0.37569023  0.89370378  1
  O  O181  1  0.37496648  0.88236020  0.38397137  1
  O  O182  1  0.38108732  0.88017545  0.88127934  1
  O  O183  1  0.88403226  0.38004174  0.37567144  1
  O  O184  1  0.87232183  0.38727815  0.88079790  1
  O  O185  1  0.88024289  0.86800856  0.38630822  1
  O  O186  1  0.88072680  0.87997773  0.88107606  1
  O  O187  1  0.25741397  0.00703486  0.37009568  1
  O  O188  1  0.25350740  0.00584020  0.87236007  1
  O  O189  1  0.25724802  0.50451461  0.36704970  1
  O  O190  1  0.23447799  0.50690485  0.89014758  1
  O  O191  1  0.75185299  0.00044047  0.35585754  1
  O  O192  1  0.75518786  0.00783855  0.87100667  1
  O  O193  1  0.75299108  0.50203085  0.36830497  1
  O  O194  1  0.75810042  0.51088505  0.87066247  1
  O  O195  1  0.25525489  0.48744096  0.14126976  1
  O  O196  1  0.23905760  0.49882316  0.62196831  1
  O  O197  1  0.23722743  0.99670197  0.13576902  1
  O  O198  1  0.24224307  0.99068945  0.63396605  1
  O  O199  1  0.74305027  0.49448487  0.13143236  1
  O  O200  1  0.74625785  0.51062003  0.63957276  1
  O  O201  1  0.75269932  0.98664033  0.13313460  1
  O  O202  1  0.74889910  0.98833219  0.63226106  1
  O  O203  1  0.00648779  0.37263096  0.25208931  1
  O  O204  1  0.00371012  0.36721456  0.74988555  1
  O  O205  1  -0.00699783  0.86127324  0.26085327  1
  O  O206  1  0.00695663  0.86112278  0.75712044  1
  O  O207  1  0.49580869  0.38303277  0.26297696  1
  O  O208  1  0.50596959  0.37856861  0.75719411  1
  O  O209  1  0.50077485  0.86691481  0.25855273  1
  O  O210  1  0.50491539  0.87269271  0.76002576  1
  O  O211  1  0.48645543  0.12489598  0.26010878  1
  O  O212  1  0.52058159  0.14140463  0.74616259  1
  O  O213  1  0.49191154  0.62680856  0.24421102  1
  O  O214  1  0.49033735  0.62411467  0.74288798  1
  O  O215  1  0.99429614  0.12980596  0.24041186  1
  O  O216  1  1.00251634  0.14368347  0.74959023  1
  O  O217  1  0.99405942  0.63253882  0.24776722  1
  O  O218  1  0.99562145  0.63617022  0.74561807  1
  O  O219  1  0.36832541  0.25971296  0.01595286  1
  O  O220  1  0.36768009  0.25953965  0.49188065  1
  O  O221  1  0.36186297  0.75862166  -0.00737795  1
  O  O222  1  0.36759337  0.76050894  0.50137354  1
  O  O223  1  0.86797615  0.25719032  0.00472654  1
  O  O224  1  0.85733299  0.24772362  0.49447588  1
  O  O225  1  0.88342551  0.76325641  -0.00132980  1
  O  O226  1  0.86232013  0.74878367  0.50098389  1
  O  O227  1  0.13300289  0.24464224  0.49312508  1
  O  O228  1  0.13560470  0.28474080  0.98537957  1
  O  O229  1  0.13233144  0.73937797  0.50569880  1
  O  O230  1  0.13001429  0.75208283  0.99151427  1
  O  O231  1  0.63471867  0.23982591  0.49018854  1
  O  O232  1  0.63326161  0.25346702  0.98758131  1
  O  O233  1  0.63661461  0.74313102  0.49263590  1
  O  O234  1  0.62462382  0.74390369  0.98730776  1
  O  O235  1  0.49077831  0.25517925  0.12694648  1
  O  O236  1  0.51996699  0.23969316  0.63452774  1
  O  O237  1  0.50905551  0.73724920  0.12883569  1
  O  O238  1  0.49779249  0.73643782  0.62649905  1
  O  O239  1  0.99637402  0.24397103  0.12689398  1
  O  O240  1  0.99900120  0.25140273  0.63901165  1
  O  O241  1  0.99731325  0.74358651  0.13821293  1
  O  O242  1  1.00160229  0.74633198  0.63264353  1
  O  O243  1  0.00503380  0.25715462  0.36696241  1
  O  O244  1  -0.00223536  0.25315994  0.86422761  1
  O  O245  1  -0.00158720  0.75476202  0.36254285  1
  O  O246  1  0.01189621  0.75136868  0.86874741  1
  O  O247  1  0.51468487  0.25828247  0.37733122  1
  O  O248  1  0.50495235  0.26465134  0.86726417  1
  O  O249  1  0.51140272  0.74658511  0.37682323  1
  O  O250  1  0.50821788  0.75849148  0.87178448  1
  O  O251  1  0.24105487  0.13171187  0.48676605  1
  O  O252  1  0.24522001  0.12134119  0.99041191  1
  O  O253  1  0.24482510  0.63091127  0.49762700  1
  O  O254  1  0.24444052  0.62556707  1.00497051  1
  O  O255  1  0.74382847  0.13379276  0.49050111  1
  O  O256  1  0.75874554  0.13826063  0.99289521  1
  O  O257  1  0.74488379  0.62912419  0.49883307  1
  O  O258  1  0.74202121  0.62511137  0.98879838  1
  O  O259  1  0.26448690  0.37861082  0.01564789  1
  O  O260  1  0.26163676  0.36427882  0.49164019  1
  O  O261  1  0.25611031  0.86554294  0.00209656  1
  O  O262  1  0.25395393  0.86753374  0.50607789  1
  O  O263  1  0.75348331  0.36690428  0.00527787  1
  O  O264  1  0.74754838  0.36065919  0.50123967  1
  O  O265  1  0.76134837  0.87862609  0.00635259  1
  O  O266  1  0.75610853  0.86847233  0.50219588  1
  O  O267  1  0.13464220  0.49130421  0.25760206  1
  O  O268  1  0.12609461  0.49812206  0.73914201  1
  O  O269  1  0.13341614  1.00494400  0.24132138  1
  O  O270  1  0.13219833  0.99027541  0.74419155  1
  O  O271  1  0.63829973  0.50833840  0.24308545  1
  O  O272  1  0.63365958  0.49465840  0.75838330  1
  O  O273  1  0.63850056  0.99910472  0.24563189  1
  O  O274  1  0.63239152  0.98521041  0.76128740  1
  O  O275  1  0.36505077  0.00856554  0.25864880  1
  O  O276  1  0.36056456  -0.01041628  0.76718731  1
  O  O277  1  0.36816478  0.50980963  0.25610642  1
  O  O278  1  0.36814482  0.51365630  0.75000018  1
  O  O279  1  0.86543809  0.00680731  0.24139118  1
  O  O280  1  0.85973368  -0.01322974  0.76600804  1
  O  O281  1  0.86732925  0.50997618  0.25574088  1
  O  O282  1  0.86827726  0.51056140  0.75817427  1
  O  O283  1  0.11953684  0.37062285  0.36531029  1
  O  O284  1  0.11029216  0.39037114  0.85520573  1
  O  O285  1  0.10712535  0.87478963  0.38507087  1
  O  O286  1  0.11952431  0.86727959  0.87065515  1
  O  O287  1  0.61818377  0.36141774  0.37507342  1
  O  O288  1  0.61609182  0.37236483  0.87284218  1
  O  O289  1  0.62526669  0.86308225  0.37271115  1
  O  O290  1  0.61780966  0.86967932  0.87146518  1
  O  O291  1  0.37569040  0.13987515  0.13180238  1
  O  O292  1  0.36475250  0.12823068  0.61716457  1
  O  O293  1  0.38697340  0.62099796  0.13466662  1
  O  O294  1  0.38398836  0.62554981  0.62795450  1
  O  O295  1  0.88339458  0.12996640  0.13086334  1
  O  O296  1  0.89105855  0.08339245  0.62876274  1
  O  O297  1  0.88041563  0.62710377  0.13399653  1
  O  O298  1  0.88372603  0.62944753  0.63202545  1
  O  O299  1  0.25121548  0.26065787  0.12829345  1
  O  O300  1  0.24315967  0.25263709  0.61106384  1
  O  O301  1  0.24244020  0.75115256  0.11209477  1
  O  O302  1  0.25184882  0.75547558  0.61480326  1
  O  O303  1  0.75252753  0.25768468  0.11823482  1
  O  O304  1  0.74318064  0.24939862  0.60940932  1
  O  O305  1  0.75606692  0.76545243  0.13035838  1
  O  O306  1  0.75239996  0.76176252  0.61788192  1
  O  O307  1  0.24506504  0.24209406  0.37785678  1
  O  O308  1  0.24754160  0.23034320  0.88107553  1
  O  O309  1  0.25114688  0.74320171  0.38880797  1
  O  O310  1  0.23728196  0.75115771  0.88378693  1
  O  O311  1  0.73870081  0.24980565  0.37840958  1
  O  O312  1  0.74661478  0.24496120  0.88220161  1
  O  O313  1  0.74559619  0.74184927  0.38235426  1
  O  O314  1  0.74230950  0.74383668  0.86878517  1
  O  O315  1  -0.00794918  0.11695731  0.00692749  1
  O  O316  1  0.01195900  0.13194043  0.49360149  1
  O  O317  1  -0.00523509  0.61493375  0.01037763  1
  O  O318  1  0.00801030  0.62188715  0.50235944  1
  O  O319  1  0.48939881  0.12648197  -0.01704554  1
  O  O320  1  0.51520178  0.12481545  0.50066872  1
  O  O321  1  0.51181987  0.62856056  0.00693449  1
  O  O322  1  0.50754635  0.61751613  0.50574176  1
  O  O323  1  0.49775815  0.38140386  0.49282138  1
  O  O324  1  0.48841291  0.37170467  0.99501656  1
  O  O325  1  0.49164371  0.87515020  0.49874974  1
  O  O326  1  0.49045859  0.86676247  0.98795163  1
  O  O327  1  1.00185855  0.37804628  0.49297423  1
  O  O328  1  0.99068179  0.39030907  1.00047309  1
  O  O329  1  0.98447528  0.86992125  0.48751387  1
  O  O330  1  0.99314965  0.88289495  0.99356038  1
  O  O331  1  0.49832381  0.49422347  0.38187271  1
  O  O332  1  0.50390796  0.49001611  0.87746037  1
  O  O333  1  0.48722763  1.00009121  0.37814264  1
  O  O334  1  0.48481287  0.99315546  0.86796683  1
  O  O335  1  0.99612281  0.49366817  0.37956076  1
  O  O336  1  0.98305739  0.50659137  0.88224549  1
  O  O337  1  0.99795224  0.98336170  0.36423307  1
  O  O338  1  0.99328506  0.99798585  0.87790304  1
  O  O339  1  0.00334900  0.00659707  0.11726122  1
  O  O340  1  0.02054719  -0.02551530  0.62582240  1
  O  O341  1  -0.00728913  0.50885097  0.11689808  1
  O  O342  1  0.00926117  0.50847271  0.61868912  1
  O  O343  1  0.49510956  0.00300151  0.13384161  1
  O  O344  1  0.49557949  0.00748316  0.62465292  1
  O  O345  1  0.51539278  0.51024285  0.13233454  1
  O  O346  1  0.50254125  0.51249658  0.61509101  1
  O  O347  1  0.24469575  0.38079010  0.24948444  1
  O  O348  1  0.23567472  0.38342804  0.75795027  1
  O  O349  1  0.25380794  0.88765098  0.25122658  1
  O  O350  1  0.24532963  0.87673451  0.74355275  1
  O  O351  1  0.75682949  0.38559622  0.23994775  1
  O  O352  1  0.74119702  0.39038395  0.75077140  1
  O  O353  1  0.75152530  0.88375606  0.24320903  1
  O  O354  1  0.74142675  0.88010009  0.74021183  1
  O  O355  1  0.25475809  0.11837106  0.26062823  1
  O  O356  1  0.24227836  0.11026626  0.75946548  1
  O  O357  1  0.25441757  0.61815036  0.25329767  1
  O  O358  1  0.26275332  0.62165870  0.75083782  1
  O  O359  1  0.75910872  0.11285840  0.24608440  1
  O  O360  1  0.73735708  0.11235278  0.75661626  1
  O  O361  1  0.75759621  0.61825276  0.25387265  1
  O  O362  1  0.75142543  0.62402622  0.76002637  1
  O  O363  1  0.36799166  0.11978070  0.37233256  1
  O  O364  1  0.36088164  0.11238886  0.87502208  1
  O  O365  1  0.36928394  0.61822460  0.37055408  1
  O  O366  1  0.38017716  0.62513151  0.86499892  1
  O  O367  1  0.87444833  0.12974068  0.35543303  1
  O  O368  1  0.86060462  0.11711270  0.87404608  1
  O  O369  1  0.86859329  0.61812609  0.36809519  1
  O  O370  1  0.86667989  0.62434706  0.87071375  1
  O  O371  1  0.13303928  0.37343945  0.13923087  1
  O  O372  1  0.12183005  0.38347069  0.63899478  1
  O  O373  1  0.12138717  0.88657987  0.12418342  1
  O  O374  1  0.13835108  0.87380788  0.62654280  1
  O  O375  1  0.63583086  0.38347023  0.11892122  1
  O  O376  1  0.62716598  0.37579124  0.63823714  1
  O  O377  1  0.63405187  0.87576878  0.12802352  1
  O  O378  1  0.63165048  0.86896258  0.63371067  1
  O  O379  1  0.11890301  0.25643905  0.25536278  1
  O  O380  1  0.12010016  0.26668649  0.75754972  1
  O  O381  1  0.11234879  0.74672256  0.25261420  1
  O  O382  1  0.12172104  0.75125966  0.75633536  1
  O  O383  1  0.63252578  0.24690546  0.26152906  1
  O  O384  1  0.63966787  0.26813628  0.76745681  1
  O  O385  1  0.62752763  0.74440627  0.26447821  1
  O  O386  1  0.62259906  0.76161029  0.76080489  1
  O  O387  1  0.36995027  0.24266581  0.23656876  1
  O  O388  1  0.35720716  0.27045166  0.74084234  1
  O  O389  1  0.37107255  0.73573702  0.25605054  1
  O  O390  1  0.37521257  0.73627852  0.74889206  1
  O  O391  1  0.88079242  0.24509571  0.24096460  1
  O  O392  1  0.88230016  0.25415358  0.75104925  1
  O  O393  1  0.87978077  0.73697179  0.25178308  1
  O  O394  1  0.88472608  0.74796824  0.74812029  1
  O  O395  1  0.38716629  0.49567692  0.49149558  1
  O  O396  1  0.38040810  0.48594936  1.01401670  1
  O  O397  1  0.36917958  0.98532680  0.49109640  1
  O  O398  1  0.37184778  0.98873131  0.98390371  1
  O  O399  1  0.88446195  0.50343151  0.48869109  1
  O  O400  1  0.87739323  0.49894707  0.99435533  1
  O  O401  1  0.86463631  0.98900710  0.48856606  1
  O  O402  1  0.88271623  0.99294133  0.98843472  1
  O  O403  1  0.11019890  -0.00453069  0.00630196  1
  O  O404  1  0.13397637  0.01007143  0.50698676  1
  O  O405  1  0.11712678  0.50222026  -0.00549279  1
  O  O406  1  0.12076223  0.50377995  0.50586890  1
  O  O407  1  0.61941603  0.00051943  0.00205701  1
  O  O408  1  0.62585452  0.01532987  0.48364972  1
  O  O409  1  0.63196548  0.51174730  0.00988863  1
  O  O410  1  0.61602645  0.50702179  0.49471621  1
  O  O411  1  0.37166291  0.36661247  0.12430145  1
  O  O412  1  0.38039486  0.38757969  0.60782056  1
  O  O413  1  0.37110955  0.87731059  0.11159862  1
  O  O414  1  0.36390174  0.87312030  0.61999012  1
  O  O415  1  0.86356011  0.37065256  0.11993216  1
  O  O416  1  0.86321442  0.39428590  0.61672720  1
  O  O417  1  0.87134678  0.87311737  0.11405185  1
  O  O418  1  0.86666457  0.87800987  0.60771985  1
  O  O419  1  0.13140470  0.12932942  0.37749624  1
  O  O420  1  0.13480393  0.11968994  0.87701808  1
  O  O421  1  0.13227470  0.61799656  0.38904574  1
  O  O422  1  0.12274739  0.62771902  0.87849727  1
  O  O423  1  0.62782126  0.13657403  0.37854818  1
  O  O424  1  0.63609465  0.13555809  0.87980603  1
  O  O425  1  0.63175334  0.62854378  0.38709331  1
  O  O426  1  0.62975288  0.63297462  0.88117172  1
