# generated using pymatgen
data_V85Zn86O256
_symmetry_space_group_name_H-M   'P 1'
_cell_length_a   16.93708334
_cell_length_b   16.92160889
_cell_length_c   16.93858577
_cell_angle_alpha   89.98317681
_cell_angle_beta   90.03236677
_cell_angle_gamma   90.01983954
_symmetry_Int_Tables_number   1
_chemical_formula_structural   V85Zn86O256
_chemical_formula_sum   'V85 Zn86 O256'
_cell_volume   4854.64314242
_cell_formula_units_Z   1
loop_
 _symmetry_equiv_pos_site_id
 _symmetry_equiv_pos_as_xyz
  1  'x, y, z'
loop_
 _atom_site_type_symbol
 _atom_site_label
 _atom_site_symmetry_multiplicity
 _atom_site_fract_x
 _atom_site_fract_y
 _atom_site_fract_z
 _atom_site_occupancy
  V  V0  1  0.74928289  0.24608966  0.00210278  1
  V  V1  1  0.12389459  0.00265977  0.62404506  1
  V  V2  1  0.24650199  0.50219367  0.74525192  1
  V  V3  1  0.86259636  0.75559618  0.12192638  1
  V  V4  1  0.62554344  -0.00516075  0.12635176  1
  V  V5  1  0.01234917  0.24857832  0.25431596  1
  V  V6  1  0.37979887  -0.01320557  0.87802281  1
  V  V7  1  0.12744984  0.00753189  0.11884902  1
  V  V8  1  0.25131205  0.62294708  0.37260106  1
  V  V9  1  0.74651667  0.37352627  0.12860732  1
  V  V10  1  0.37769558  0.50071030  0.87599207  1
  V  V11  1  0.00031431  0.62686255  0.12164895  1
  V  V12  1  0.50359081  0.12165702  0.62495842  1
  V  V13  1  0.74687111  0.12511302  0.87135609  1
  V  V14  1  0.50900457  -0.00506472  0.50043235  1
  V  V15  1  -0.00162380  0.87497554  0.37369447  1
  V  V16  1  0.37596127  0.12715589  0.25356233  1
  V  V17  1  0.37691806  0.24546415  0.62401335  1
  V  V18  1  0.50198732  0.75265764  0.76544014  1
  V  V19  1  0.37968030  -0.00409966  0.37413406  1
  V  V20  1  0.50520413  0.63155565  0.13338287  1
  V  V21  1  0.87895915  0.50282666  0.88208462  1
  V  V22  1  0.00157138  0.12811605  0.62050464  1
  V  V23  1  0.87280880  0.49165058  0.37982590  1
  V  V24  1  0.12390539  0.62605491  0.00473471  1
  V  V25  1  0.01355368  0.37045007  0.37523735  1
  V  V26  1  0.23710066  0.24204893  0.49675056  1
  V  V27  1  0.25242278  -0.00267119  0.24779164  1
  V  V28  1  0.60653901  0.86888720  0.24915385  1
  V  V29  1  -0.00813132  0.12064126  0.12741456  1
  V  V30  1  0.74550466  0.13018737  0.36927473  1
  V  V31  1  0.25407256  0.00180182  0.74848212  1
  V  V32  1  0.62521454  0.12963281  0.49803030  1
  V  V33  1  0.87037950  0.87186409  0.49780321  1
  V  V34  1  0.38344281  0.49289556  0.36852164  1
  V  V35  1  -0.00319231  0.49530633  0.50304003  1
  V  V36  1  0.25233963  0.86757741  0.10786962  1
  V  V37  1  0.25424458  0.63181360  0.87915446  1
  V  V38  1  0.74552886  0.64433583  0.88357928  1
  V  V39  1  0.38318240  0.74826465  0.62481638  1
  V  V40  1  0.62093894  0.87500699  0.76292730  1
  V  V41  1  0.87124408  0.75102061  0.62127035  1
  V  V42  1  0.74769002  -0.00956005  0.25302577  1
  V  V43  1  0.75255798  0.25625222  0.49686694  1
  V  V44  1  0.86963505  0.23799325  0.13738162  1
  V  V45  1  0.37631336  0.25439821  0.12879525  1
  V  V46  1  0.00276368  0.37772860  0.87668156  1
  V  V47  1  0.12560159  0.61990295  0.50243808  1
  V  V48  1  0.87381640  0.00258268  0.87287876  1
  V  V49  1  0.49785954  -0.02206330  -0.00111369  1
  V  V50  1  0.61577898  0.12533940  0.00058562  1
  V  V51  1  0.25073108  0.37691283  0.62075503  1
  V  V52  1  0.62361371  0.25158314  0.87430823  1
  V  V53  1  0.73992233  0.87588148  0.62014834  1
  V  V54  1  0.74459599  0.00309709  0.74116581  1
  V  V55  1  0.24957488  0.12425307  0.88411791  1
  V  V56  1  0.62493067  0.37578233  0.74429343  1
  V  V57  1  -0.00166818  0.24969494  0.75151910  1
  V  V58  1  0.00104851  0.00535875  0.49773351  1
  V  V59  1  0.00358915  0.00747222  -0.00418594  1
  V  V60  1  0.62380346  0.62983033  0.50780113  1
  V  V61  1  0.75027260  0.50306794  0.75317768  1
  V  V62  1  0.38398536  0.62392554  0.74512893  1
  V  V63  1  0.61866238  0.36739917  0.26303786  1
  V  V64  1  0.23748319  0.49586648  0.24164476  1
  V  V65  1  0.49886812  0.49838896  0.50808094  1
  V  V66  1  0.12642641  0.75202647  0.37642577  1
  V  V67  1  0.24919483  0.87340496  0.62006286  1
  V  V68  1  0.12569667  0.37730081  0.74616698  1
  V  V69  1  0.37398893  0.37904370  0.00399024  1
  V  V70  1  0.05681944  0.44853700  0.06172540  1
  V  V71  1  0.87338201  0.00666457  0.37091279  1
  V  V72  1  0.60428287  0.75363348  0.37759476  1
  V  V73  1  0.00460952  0.62374950  0.62494648  1
  V  V74  1  0.75784704  0.37826630  0.62237867  1
  V  V75  1  0.37763573  0.87320091  0.49385423  1
  V  V76  1  0.75218409  0.63851051  0.37994115  1
  V  V77  1  0.00063032  0.74911229  0.24720496  1
  V  V78  1  0.74761662  0.50150176  0.25380055  1
  V  V79  1  0.12534206  0.74966277  0.87761157  1
  V  V80  1  0.87632916  0.62758782  0.75083827  1
  V  V81  1  0.87347884  0.37530589  0.00477358  1
  V  V82  1  0.50062158  0.37494278  0.87414513  1
  V  V83  1  -0.00148562  0.87488081  0.87601035  1
  V  V84  1  0.12549530  0.87512212  0.24578354  1
  Zn  Zn85  1  0.24956471  0.24787105  0.00472975  1
  Zn  Zn86  1  0.85786081  0.86698492  -0.00187313  1
  Zn  Zn87  1  0.62156681  0.50966761  0.62987709  1
  Zn  Zn88  1  0.50745258  0.50462959  0.00300501  1
  Zn  Zn89  1  0.87247980  0.12735320  0.74706486  1
  Zn  Zn90  1  0.87740224  0.25447789  0.62057937  1
  Zn  Zn91  1  0.49764226  0.25258015  0.26787886  1
  Zn  Zn92  1  0.25038471  0.74845745  0.50108438  1
  Zn  Zn93  1  0.62859767  0.50223213  0.12012218  1
  Zn  Zn94  1  0.87493583  0.62505971  0.25096926  1
  Zn  Zn95  1  0.12483111  0.87243855  0.74950986  1
  Zn  Zn96  1  0.38621579  0.63643096  0.25534932  1
  Zn  Zn97  1  0.24198176  0.38003304  0.12692444  1
  Zn  Zn98  1  0.00152312  0.75199850  0.74861494  1
  Zn  Zn99  1  0.62831261  0.63501555  0.00077637  1
  Zn  Zn100  1  0.23233696  0.13224025  0.37258163  1
  Zn  Zn101  1  0.37985997  0.12301878  0.75214627  1
  Zn  Zn102  1  0.38017298  0.75523036  0.11931052  1
  Zn  Zn103  1  0.49788793  0.12596257  0.12794217  1
  Zn  Zn104  1  0.38269513  0.36746175  0.49554027  1
  Zn  Zn105  1  0.50105686  0.24762496  0.74709115  1
  Zn  Zn106  1  0.12409093  0.24201925  0.87635923  1
  Zn  Zn107  1  0.19133253  0.18579962  0.18430024  1
  Zn  Zn108  1  0.18661420  0.18767308  0.68784888  1
  Zn  Zn109  1  0.19136238  0.68561217  0.18910499  1
  Zn  Zn110  1  0.18927318  0.68888791  0.68938370  1
  Zn  Zn111  1  0.68239208  0.18390573  0.18952825  1
  Zn  Zn112  1  0.68359436  0.19106638  0.68040409  1
  Zn  Zn113  1  0.68361714  0.68854428  0.19293590  1
  Zn  Zn114  1  0.68950936  0.69336798  0.69184060  1
  Zn  Zn115  1  0.30563799  0.31540475  0.31387257  1
  Zn  Zn116  1  0.31484975  0.31100696  0.80984805  1
  Zn  Zn117  1  0.31470913  0.81037680  0.30780715  1
  Zn  Zn118  1  0.31207190  0.81204033  0.81077527  1
  Zn  Zn119  1  0.81489887  0.31254888  0.31409037  1
  Zn  Zn120  1  0.81412580  0.31434109  0.81360625  1
  Zn  Zn121  1  0.81231320  0.81425997  0.30708758  1
  Zn  Zn122  1  0.81625732  0.81851914  0.80536514  1
  Zn  Zn123  1  0.19066547  0.43984195  0.43875392  1
  Zn  Zn124  1  0.19393400  0.43560897  0.93203256  1
  Zn  Zn125  1  0.17146101  0.96901057  0.42130598  1
  Zn  Zn126  1  0.18456449  0.94169254  0.93363506  1
  Zn  Zn127  1  0.68840882  0.44454396  0.44146591  1
  Zn  Zn128  1  0.68875060  0.44101244  0.93773899  1
  Zn  Zn129  1  0.68549456  0.93304487  0.43453329  1
  Zn  Zn130  1  0.68809186  0.93255479  0.93817971  1
  Zn  Zn131  1  0.31894846  0.05934619  0.06377780  1
  Zn  Zn132  1  0.31396283  0.06224629  0.56027354  1
  Zn  Zn133  1  0.32829012  0.59532262  0.05073450  1
  Zn  Zn134  1  0.31522660  0.56153817  0.56109963  1
  Zn  Zn135  1  0.80033746  0.03815876  0.05185000  1
  Zn  Zn136  1  0.81480288  0.06469250  0.56032064  1
  Zn  Zn137  1  0.81480659  0.56329265  0.06421831  1
  Zn  Zn138  1  0.81185973  0.56444095  0.56163487  1
  Zn  Zn139  1  0.44014094  0.44653650  0.18569645  1
  Zn  Zn140  1  0.43696110  0.43489690  0.68432028  1
  Zn  Zn141  1  0.43479548  0.93401405  0.18043952  1
  Zn  Zn142  1  0.43939540  0.93658927  0.68503876  1
  Zn  Zn143  1  0.93057721  0.42994913  0.19872627  1
  Zn  Zn144  1  0.93807563  0.44171175  0.68926067  1
  Zn  Zn145  1  0.93489315  0.93709822  0.18728120  1
  Zn  Zn146  1  0.93531953  0.93874674  0.68815733  1
  Zn  Zn147  1  0.06133882  0.06637308  0.30676880  1
  Zn  Zn148  1  0.06606854  0.06303355  0.80736136  1
  Zn  Zn149  1  0.06155861  0.56167368  0.31372941  1
  Zn  Zn150  1  0.06340380  0.56276761  0.81252972  1
  Zn  Zn151  1  0.56013834  0.06291384  0.31519535  1
  Zn  Zn152  1  0.56211266  0.05689659  0.81273294  1
  Zn  Zn153  1  0.56691845  0.56279337  0.31502177  1
  Zn  Zn154  1  0.56412054  0.56616591  0.81535811  1
  Zn  Zn155  1  0.42866240  0.18145613  0.43972076  1
  Zn  Zn156  1  0.43225913  0.18765609  0.93560144  1
  Zn  Zn157  1  0.43610103  0.68052723  0.44211609  1
  Zn  Zn158  1  0.43964400  0.69251724  0.94917280  1
  Zn  Zn159  1  0.93442053  0.18938324  0.43799925  1
  Zn  Zn160  1  0.93536166  0.18626863  0.94050480  1
  Zn  Zn161  1  0.93667783  0.68646306  0.43691684  1
  Zn  Zn162  1  0.93673542  0.68834028  0.94205890  1
  Zn  Zn163  1  0.06526400  0.27946188  0.06161573  1
  Zn  Zn164  1  0.06295739  0.31663600  0.56352124  1
  Zn  Zn165  1  0.06239716  0.81496860  0.05875991  1
  Zn  Zn166  1  0.06171138  0.81256458  0.56023753  1
  Zn  Zn167  1  0.55865456  0.31455504  0.06625660  1
  Zn  Zn168  1  0.56353823  0.31037043  0.44179039  1
  Zn  Zn169  1  0.57946085  0.79928783  0.05941675  1
  Zn  Zn170  1  0.55986634  0.80951187  0.56416626  1
  O  O171  1  0.11743865  0.11295963  0.12781525  1
  O  O172  1  0.11281342  0.11642462  0.63103181  1
  O  O173  1  0.11991344  0.62782769  0.11275737  1
  O  O174  1  0.11591520  0.63188246  0.61707714  1
  O  O175  1  0.61826265  0.11747698  0.11794938  1
  O  O176  1  0.61716570  0.12629559  0.61034718  1
  O  O177  1  0.61993401  0.62307543  0.12743258  1
  O  O178  1  0.63319925  0.63027769  0.61206018  1
  O  O179  1  0.36979118  0.39015408  0.37924640  1
  O  O180  1  0.37866830  0.38189681  0.87971462  1
  O  O181  1  0.37149592  0.87590600  0.38778490  1
  O  O182  1  0.36704328  0.88735497  0.87601088  1
  O  O183  1  0.88056163  0.38788096  0.37458466  1
  O  O184  1  0.88246107  0.38102376  0.88396755  1
  O  O185  1  0.87640794  0.88135609  0.38131744  1
  O  O186  1  0.88113844  0.88302389  0.87801751  1
  O  O187  1  0.26733681  -0.01081224  0.36120892  1
  O  O188  1  0.25630948  0.00625383  0.86744291  1
  O  O189  1  0.25989864  0.50598910  0.37106575  1
  O  O190  1  0.26166723  0.50463979  0.86362551  1
  O  O191  1  0.75394897  0.00568313  0.37056992  1
  O  O192  1  0.75117006  0.00779499  0.85921135  1
  O  O193  1  0.75688532  0.50742000  0.37194858  1
  O  O194  1  0.76227323  0.50164649  0.86518730  1
  O  O195  1  0.25372865  0.50423877  0.14158735  1
  O  O196  1  0.25765074  0.48718346  0.63106643  1
  O  O197  1  0.24381885  0.99545755  0.12744556  1
  O  O198  1  0.24418779  0.99555927  0.62929236  1
  O  O199  1  0.75169811  0.49131022  0.13575622  1
  O  O200  1  0.75023900  0.49855696  0.63769667  1
  O  O201  1  0.73067214  1.01294193  0.14206707  1
  O  O202  1  0.75743631  0.99241897  0.63426838  1
  O  O203  1  -0.00111163  0.36571189  0.26520796  1
  O  O204  1  0.00768174  0.37122606  0.75266687  1
  O  O205  1  0.00611333  0.87004767  0.25403139  1
  O  O206  1  0.00052528  0.87593656  0.76310849  1
  O  O207  1  0.51731283  0.37731062  0.24730471  1
  O  O208  1  0.50904517  0.37455484  0.75414121  1
  O  O209  1  0.50803864  0.87817898  0.25158560  1
  O  O210  1  0.51371546  0.87081056  0.74603079  1
  O  O211  1  0.48819407  0.12738610  0.25053401  1
  O  O212  1  0.50232358  0.12352431  0.73992582  1
  O  O213  1  0.50727632  0.62365974  0.24021449  1
  O  O214  1  0.49012266  0.63200994  0.75307102  1
  O  O215  1  0.99692114  0.12953758  0.23806360  1
  O  O216  1  0.99914996  0.13511581  0.74443390  1
  O  O217  1  1.00094605  0.62904784  0.23878752  1
  O  O218  1  0.99521563  0.62539051  0.74060314  1
  O  O219  1  0.37188202  0.25974204  0.00840518  1
  O  O220  1  0.36390427  0.24989653  0.51227623  1
  O  O221  1  0.35360406  0.70746639  0.01747677  1
  O  O222  1  0.37426628  0.75507465  0.50716845  1
  O  O223  1  0.86788157  0.25509127  0.01083175  1
  O  O224  1  0.85882019  0.24687289  0.50331973  1
  O  O225  1  0.87513922  0.75155259  0.01547296  1
  O  O226  1  0.88002735  0.76294929  0.50498613  1
  O  O227  1  0.13865898  0.25088167  0.50754435  1
  O  O228  1  0.13866635  0.25679006  0.98683983  1
  O  O229  1  0.12562439  0.73969954  0.49378939  1
  O  O230  1  0.12047613  0.73957373  0.98779875  1
  O  O231  1  0.63864650  0.24122220  0.49790029  1
  O  O232  1  0.62886802  0.24417491  0.99734561  1
  O  O233  1  0.61874599  0.74562846  0.48701732  1
  O  O234  1  0.64630469  0.74702517  0.99359558  1
  O  O235  1  0.48597929  0.24972599  0.13088021  1
  O  O236  1  0.48965401  0.23385603  0.62389511  1
  O  O237  1  0.50142815  0.73690000  0.12198354  1
  O  O238  1  0.48664804  0.75401245  0.63571844  1
  O  O239  1  0.99010248  0.24122134  0.13468878  1
  O  O240  1  0.99981463  0.24523274  0.63135999  1
  O  O241  1  0.99892675  0.74207477  0.12941658  1
  O  O242  1  0.99084270  0.74143076  0.62382955  1
  O  O243  1  -0.00554767  0.26151068  0.37058885  1
  O  O244  1  -0.00029652  0.25761776  0.86872978  1
  O  O245  1  0.00456529  0.75473149  0.36794933  1
  O  O246  1  0.00491167  0.75835078  0.87552066  1
  O  O247  1  0.49092421  0.25227620  0.38112831  1
  O  O248  1  0.50513595  0.25671798  0.87188838  1
  O  O249  1  0.50640234  0.74604010  0.37467461  1
  O  O250  1  0.49033897  0.74978417  0.86462868  1
  O  O251  1  0.25018128  0.13868224  0.50242047  1
  O  O252  1  0.25633835  0.12146200  0.98673474  1
  O  O253  1  0.24238690  0.62253151  0.49135243  1
  O  O254  1  0.23384784  0.60488402  0.98383468  1
  O  O255  1  0.74254696  0.12946934  0.49388187  1
  O  O256  1  0.73498789  0.12632657  0.99391507  1
  O  O257  1  0.73927645  0.61838441  0.48933104  1
  O  O258  1  0.75653900  0.62188512  0.98393692  1
  O  O259  1  0.26441325  0.38046773  0.00389353  1
  O  O260  1  0.25093373  0.36798873  0.50815205  1
  O  O261  1  0.24323737  0.88042354  0.00986516  1
  O  O262  1  0.25744210  0.87551464  0.51231156  1
  O  O263  1  0.75265195  0.36672699  0.00987809  1
  O  O264  1  0.74345332  0.37032395  0.51030524  1
  O  O265  1  0.76634212  0.92995765  0.01304266  1
  O  O266  1  0.75905521  0.88194667  0.50728696  1
  O  O267  1  0.13838740  0.50326119  0.25324424  1
  O  O268  1  0.13909288  0.49595677  0.75224303  1
  O  O269  1  0.13363136  0.99420841  0.23791826  1
  O  O270  1  0.13339778  0.99509815  0.73957898  1
  O  O271  1  0.63762603  0.48876349  0.25467567  1
  O  O272  1  0.63382306  0.49685707  0.75136382  1
  O  O273  1  0.62355086  0.98884380  0.24710691  1
  O  O274  1  0.63063902  0.98656751  0.74784333  1
  O  O275  1  0.37113209  0.00415734  0.25231878  1
  O  O276  1  0.37026467  -0.00107972  0.75724686  1
  O  O277  1  0.37077463  0.50190373  0.26348536  1
  O  O278  1  0.36937942  0.50642165  0.75284928  1
  O  O279  1  0.86273053  -0.00701957  0.25917970  1
  O  O280  1  0.86507461  0.00209798  0.75588496  1
  O  O281  1  0.86313500  0.50139991  0.25948738  1
  O  O282  1  0.86892383  0.50785457  0.75760888  1
  O  O283  1  0.11187253  0.37825253  0.37841120  1
  O  O284  1  0.11970539  0.37889125  0.86178702  1
  O  O285  1  0.11908347  0.87337658  0.36764075  1
  O  O286  1  0.11893672  0.86685364  0.87330792  1
  O  O287  1  0.62981010  0.37532166  0.36664741  1
  O  O288  1  0.62243578  0.37145770  0.86635932  1
  O  O289  1  0.62274282  0.86098540  0.36886266  1
  O  O290  1  0.62798445  0.87678190  0.86170871  1
  O  O291  1  0.37426707  0.13270952  0.13631322  1
  O  O292  1  0.38108070  0.12909624  0.62700512  1
  O  O293  1  0.39822182  0.61017731  0.13901540  1
  O  O294  1  0.36714945  0.63431883  0.63471386  1
  O  O295  1  0.87766988  0.12978889  0.11857311  1
  O  O296  1  0.88812414  0.12702471  0.62779263  1
  O  O297  1  0.88331720  0.63411686  0.12774882  1
  O  O298  1  0.88030614  0.63410062  0.62753947  1
  O  O299  1  0.26080392  0.25715695  0.12620528  1
  O  O300  1  0.25431244  0.25770522  0.62099478  1
  O  O301  1  0.23483319  0.76835477  0.12288280  1
  O  O302  1  0.25893159  0.75825859  0.62525704  1
  O  O303  1  0.75374368  0.25194031  0.12404651  1
  O  O304  1  0.75188983  0.26144440  0.61792306  1
  O  O305  1  0.76502842  0.74800141  0.13671395  1
  O  O306  1  0.76389971  0.75948531  0.62875519  1
  O  O307  1  0.25025649  0.24848034  0.39082235  1
  O  O308  1  0.25611969  0.23189163  0.87078249  1
  O  O309  1  0.24377278  0.74121464  0.37783622  1
  O  O310  1  0.24250727  0.73893250  0.86890289  1
  O  O311  1  0.75603015  0.24024311  0.38088830  1
  O  O312  1  0.74415392  0.24504869  0.88043240  1
  O  O313  1  0.75063143  0.74019042  0.37178582  1
  O  O314  1  0.76144270  0.74180197  0.87106559  1
  O  O315  1  0.00235463  0.12370631  0.01465537  1
  O  O316  1  -0.00428196  0.11914645  0.50816368  1
  O  O317  1  0.00616340  0.62254356  0.01245395  1
  O  O318  1  0.00640407  0.61920143  0.50533354  1
  O  O319  1  0.50966217  0.12637016  -0.00009393  1
  O  O320  1  0.50608825  0.11660001  0.50441224  1
  O  O321  1  0.50785066  0.62309483  0.01252108  1
  O  O322  1  0.51062778  0.61278293  0.49706193  1
  O  O323  1  0.50291866  0.39365496  0.49875076  1
  O  O324  1  0.49020092  0.37843169  0.99353348  1
  O  O325  1  0.49027543  0.88347149  0.50807792  1
  O  O326  1  0.50328196  0.88047005  1.00643362  1
  O  O327  1  1.00221961  0.38328406  0.49119583  1
  O  O328  1  0.99807432  0.38029868  1.00382556  1
  O  O329  1  0.99189305  0.88172516  0.49293459  1
  O  O330  1  0.99844801  0.88576636  0.98757409  1
  O  O331  1  0.48736552  0.50585203  0.38121362  1
  O  O332  1  0.48960033  0.49562070  0.87193177  1
  O  O333  1  0.48709748  1.00192276  0.38342494  1
  O  O334  1  0.49541709  0.99901691  0.89000894  1
  O  O335  1  0.99361604  0.49074611  0.38019702  1
  O  O336  1  0.98680338  0.49471235  0.86894081  1
  O  O337  1  0.98813899  0.99372815  0.37481571  1
  O  O338  1  0.99896701  0.99752020  0.87829046  1
  O  O339  1  0.00419055  0.00442218  0.11831493  1
  O  O340  1  0.00550807  0.00730983  0.62303423  1
  O  O341  1  -0.00357537  0.50164193  0.12779414  1
  O  O342  1  -0.00478114  0.51254418  0.61681767  1
  O  O343  1  0.50602792  0.00139661  0.11407619  1
  O  O344  1  0.49231648  0.01146593  0.61351677  1
  O  O345  1  0.51125082  0.50827396  0.12350584  1
  O  O346  1  0.50042337  0.50172239  0.61291884  1
  O  O347  1  0.24889995  0.38974153  0.24734684  1
  O  O348  1  0.24509993  0.38124537  0.74439603  1
  O  O349  1  0.24422210  0.88579923  0.24053774  1
  O  O350  1  0.25119730  0.88538838  0.73853032  1
  O  O351  1  0.74333731  0.37898138  0.24633636  1
  O  O352  1  0.74631770  0.38474339  0.74826139  1
  O  O353  1  0.73621448  0.88675474  0.25700552  1
  O  O354  1  0.74031361  0.88175663  0.74216022  1
  O  O355  1  0.25611355  0.11297915  0.25095676  1
  O  O356  1  0.25316435  0.11189336  0.75162158  1
  O  O357  1  0.24841909  0.61608922  0.26263048  1
  O  O358  1  0.25687597  0.61782182  0.75672121  1
  O  O359  1  0.73801971  0.11489131  0.26492835  1
  O  O360  1  0.74678462  0.11890016  0.74913756  1
  O  O361  1  0.74941679  0.61621399  0.26086675  1
  O  O362  1  0.75709105  0.62106686  0.75863262  1
  O  O363  1  0.36532804  0.11330465  0.36670896  1
  O  O364  1  0.36652460  0.11353642  0.87183616  1
  O  O365  1  0.36681569  0.61575096  0.37451499  1
  O  O366  1  0.36875970  0.61818099  0.86655939  1
  O  O367  1  0.86476168  0.11216777  0.38034630  1
  O  O368  1  0.86549316  0.12211757  0.87078582  1
  O  O369  1  0.86867579  0.61668939  0.37388747  1
  O  O370  1  0.87120404  0.61934972  0.87188801  1
  O  O371  1  0.11588570  0.38369681  0.11222228  1
  O  O372  1  0.13330930  0.37395914  0.63809279  1
  O  O373  1  0.12783086  0.88755896  0.12627597  1
  O  O374  1  0.13256482  0.87708680  0.62862048  1
  O  O375  1  0.63693239  0.37384957  0.13312216  1
  O  O376  1  0.63836340  0.38340150  0.64127707  1
  O  O377  1  0.61999265  0.87982137  0.14084015  1
  O  O378  1  0.63800533  0.86932131  0.62689937  1
  O  O379  1  0.11221896  0.24260856  0.24692192  1
  O  O380  1  0.11531652  0.25791968  0.75396277  1
  O  O381  1  0.11946611  0.75475966  0.25567607  1
  O  O382  1  0.12157114  0.74980649  0.76268910  1
  O  O383  1  0.62263114  0.26373017  0.24960704  1
  O  O384  1  0.62479595  0.25968906  0.75543948  1
  O  O385  1  0.62551552  0.76220905  0.26226373  1
  O  O386  1  0.61655764  0.76347996  0.74694564  1
  O  O387  1  0.37242333  0.24391248  0.24729386  1
  O  O388  1  0.37717132  0.24671314  0.73690347  1
  O  O389  1  0.36286860  0.74558074  0.23387550  1
  O  O390  1  0.38032443  0.74364050  0.74459721  1
  O  O391  1  0.88161419  0.25182185  0.24022354  1
  O  O392  1  0.88759226  0.25211678  0.74778183  1
  O  O393  1  0.88477387  0.74876256  0.24199960  1
  O  O394  1  0.88033637  0.74584187  0.73965666  1
  O  O395  1  0.38675607  0.50087872  0.49228340  1
  O  O396  1  0.37813692  0.49765533  0.98912909  1
  O  O397  1  0.38002962  0.99262229  0.49145216  1
  O  O398  1  0.39192606  1.00187524  0.99536236  1
  O  O399  1  0.88804202  0.50637252  0.49408420  1
  O  O400  1  0.87070108  0.48999853  0.99311971  1
  O  O401  1  0.88058840  0.99129395  0.49217825  1
  O  O402  1  0.89487367  1.01259578  0.98834112  1
  O  O403  1  0.11362710  0.00083427  0.00416537  1
  O  O404  1  0.11492368  -0.01284272  0.51927923  1
  O  O405  1  0.11628043  0.50179224  -0.00392540  1
  O  O406  1  0.11371703  0.51203559  0.49527531  1
  O  O407  1  0.61267247  0.00433903  0.00678043  1
  O  O408  1  0.61284883  0.00245144  0.49456626  1
  O  O409  1  0.62694655  0.50899325  0.00062893  1
  O  O410  1  0.61469676  0.51001144  0.50222444  1
  O  O411  1  0.37623939  0.37208264  0.11902684  1
  O  O412  1  0.36817282  0.36532856  0.62163923  1
  O  O413  1  0.35746427  0.87537780  0.11983041  1
  O  O414  1  0.36869748  0.86904552  0.61687776  1
  O  O415  1  0.86302945  0.36577625  0.12473818  1
  O  O416  1  0.86212670  0.37718708  0.63104086  1
  O  O417  1  0.88159666  0.85886502  0.12337355  1
  O  O418  1  0.87008617  0.86952484  0.61726331  1
  O  O419  1  0.13522718  0.07718549  0.38702765  1
  O  O420  1  0.14500502  0.12156223  0.86805803  1
  O  O421  1  0.13017125  0.63005216  0.38293130  1
  O  O422  1  0.12838663  0.63065331  0.88172752  1
  O  O423  1  0.63214774  0.11927320  0.38729094  1
  O  O424  1  0.62742349  0.13058513  0.88044598  1
  O  O425  1  0.63121439  0.63881305  0.38073210  1
  O  O426  1  0.64382332  0.62672289  0.87101628  1
