# generated using pymatgen
data_V85Zn86O256
_symmetry_space_group_name_H-M   'P 1'
_cell_length_a   16.94829872
_cell_length_b   16.95873443
_cell_length_c   16.95277532
_cell_angle_alpha   90.03069921
_cell_angle_beta   90.03974642
_cell_angle_gamma   89.96489768
_symmetry_Int_Tables_number   1
_chemical_formula_structural   V85Zn86O256
_chemical_formula_sum   'V85 Zn86 O256'
_cell_volume   4872.59266871
_cell_formula_units_Z   1
loop_
 _symmetry_equiv_pos_site_id
 _symmetry_equiv_pos_as_xyz
  1  'x, y, z'
loop_
 _atom_site_type_symbol
 _atom_site_label
 _atom_site_symmetry_multiplicity
 _atom_site_fract_x
 _atom_site_fract_y
 _atom_site_fract_z
 _atom_site_occupancy
  V  V0  1  0.87355505  0.87432357  0.00230420  1
  V  V1  1  0.49720658  0.87149271  0.86378747  1
  V  V2  1  0.87830136  0.87681052  0.49863809  1
  V  V3  1  0.37073964  0.12474836  0.74635396  1
  V  V4  1  0.74293281  0.49917985  0.74918753  1
  V  V5  1  0.11146100  0.62124872  0.00441505  1
  V  V6  1  0.75093772  0.50545181  0.26542277  1
  V  V7  1  0.75091113  0.24968084  -0.00077292  1
  V  V8  1  0.75075748  0.00076237  0.24854748  1
  V  V9  1  0.12922731  0.12118704  0.00597699  1
  V  V10  1  0.62217404  0.37732045  0.25165337  1
  V  V11  1  0.49890696  0.12414768  0.62334604  1
  V  V12  1  0.75133471  0.87379543  0.12514206  1
  V  V13  1  0.74770914  0.12076262  0.86611052  1
  V  V14  1  0.74985982  0.87460759  0.62881740  1
  V  V15  1  0.75309419  0.24865934  0.50277553  1
  V  V16  1  0.25323716  0.49884524  0.24628315  1
  V  V17  1  0.25216379  0.25357768  -0.00039298  1
  V  V18  1  0.00387356  -0.00138173  0.00332125  1
  V  V19  1  0.87902162  0.73446977  0.12269315  1
  V  V20  1  0.12569807  0.88286156  0.24304148  1
  V  V21  1  0.62484397  0.12503913  -0.00091606  1
  V  V22  1  0.49732317  0.25522084  0.74852201  1
  V  V23  1  0.00097879  0.86961488  0.37204534  1
  V  V24  1  0.74350036  0.62236548  0.87936928  1
  V  V25  1  0.86935836  -0.00178622  0.87237866  1
  V  V26  1  0.88873663  0.24834512  0.63060752  1
  V  V27  1  0.62527531  0.00043096  0.12423249  1
  V  V28  1  0.24913860  0.62493990  0.87711232  1
  V  V29  1  0.38350244  0.64109211  0.74136023  1
  V  V30  1  0.12602430  0.74570427  0.37913444  1
  V  V31  1  0.13018813  0.25323748  0.38540919  1
  V  V32  1  0.37957175  0.49781827  0.38576427  1
  V  V33  1  0.37407221  0.87020203  0.00674047  1
  V  V34  1  0.87165332  0.62235893  0.75002176  1
  V  V35  1  0.11255648  0.50155090  0.12336357  1
  V  V36  1  0.11609814  0.37523970  0.74873448  1
  V  V37  1  0.88416650  0.37809970  0.00179181  1
  V  V38  1  0.37473569  0.12418144  0.24929467  1
  V  V39  1  0.62405006  0.50980732  0.11902381  1
  V  V40  1  0.49795881  -0.00795203  0.49944539  1
  V  V41  1  0.56890927  0.58241936  0.56977452  1
  V  V42  1  0.62296206  0.87668071  0.25589197  1
  V  V43  1  0.75017392  0.12431827  0.37536079  1
  V  V44  1  0.62543282  0.25135858  0.37605025  1
  V  V45  1  0.37635855  0.49820560  0.87441988  1
  V  V46  1  0.61992629  0.74758052  0.86920046  1
  V  V47  1  0.36807610  0.86470607  0.50829888  1
  V  V48  1  0.11774481  0.25065088  0.87255515  1
  V  V49  1  0.88420846  0.50105438  0.87998041  1
  V  V50  1  0.87631872  0.12575160  0.24757170  1
  V  V51  1  0.00127655  0.62342543  0.62354419  1
  V  V52  1  0.18475631  0.94072984  0.69119272  1
  V  V53  1  0.00583931  0.25116050  0.25088394  1
  V  V54  1  0.49833957  -0.00027241  -0.00145751  1
  V  V55  1  0.87652639  0.24995526  0.12455063  1
  V  V56  1  0.87384130  0.74857689  0.62288680  1
  V  V57  1  0.62719786  0.73241116  0.37134830  1
  V  V58  1  0.87806675  0.00145774  0.37833638  1
  V  V59  1  0.88619236  0.12709394  0.75156638  1
  V  V60  1  0.74899593  0.37606560  0.12611810  1
  V  V61  1  0.62711712  0.12049126  0.50109353  1
  V  V62  1  0.63040633  -0.00232388  0.63082996  1
  V  V63  1  0.25062852  0.49868550  0.74779048  1
  V  V64  1  0.36994434  -0.00004139  0.87091644  1
  V  V65  1  0.37476501  0.25845264  0.61173725  1
  V  V66  1  0.74540091  0.37256979  0.62784293  1
  V  V67  1  0.25160881  0.12785367  0.38608391  1
  V  V68  1  -0.00135918  0.74974165  0.75297238  1
  V  V69  1  0.87917444  0.62106828  0.26464682  1
  V  V70  1  0.24651424  0.12500933  0.87213253  1
  V  V71  1  0.25088037  0.74865535  0.01089978  1
  V  V72  1  0.62428339  0.25269053  0.87346731  1
  V  V73  1  0.00345931  0.12200205  0.12595103  1
  V  V74  1  0.12376603  0.75248154  0.87521018  1
  V  V75  1  0.74198424  0.74547429  0.00153332  1
  V  V76  1  0.00177413  0.87848043  0.87182812  1
  V  V77  1  0.25612560  0.37683932  0.61072289  1
  V  V78  1  0.74998032  0.74245102  0.48910814  1
  V  V79  1  -0.01757797  0.50348251  0.49328291  1
  V  V80  1  0.37836492  0.25413086  0.12636801  1
  V  V81  1  0.37797744  0.63107220  0.24266238  1
  V  V82  1  0.12369167  0.50143591  0.61367328  1
  V  V83  1  0.24849872  0.62320299  0.38310929  1
  V  V84  1  0.49805651  0.37703271  0.39185820  1
  Zn  Zn85  1  0.12622313  0.37593598  0.24950321  1
  Zn  Zn86  1  0.86885451  0.38036956  0.49457028  1
  Zn  Zn87  1  0.49400357  0.75575948  0.24355695  1
  Zn  Zn88  1  0.49758073  0.86931731  0.37687381  1
  Zn  Zn89  1  0.25071186  0.37798753  0.12436032  1
  Zn  Zn90  1  0.25621255  0.74262316  0.51205592  1
  Zn  Zn91  1  0.00038045  0.37581820  0.87457295  1
  Zn  Zn92  1  0.24471626  0.00573818  0.24395018  1
  Zn  Zn93  1  0.00617931  0.74122988  0.24052259  1
  Zn  Zn94  1  0.37286873  -0.00546725  0.37323869  1
  Zn  Zn95  1  0.50794118  0.50325638  -0.00714430  1
  Zn  Zn96  1  0.62105273  0.37979326  0.74783664  1
  Zn  Zn97  1  0.50147695  0.12738489  0.12693377  1
  Zn  Zn98  1  0.49703165  0.63751744  0.11093740  1
  Zn  Zn99  1  0.24719028  0.88188001  0.12471248  1
  Zn  Zn100  1  -0.00343656  0.37991788  0.37293124  1
  Zn  Zn101  1  0.04415973  -0.03268405  0.55044492  1
  Zn  Zn102  1  0.62541556  0.87655991  0.74874027  1
  Zn  Zn103  1  0.50018240  0.25154334  0.25129709  1
  Zn  Zn104  1  0.49760509  0.37584821  0.87488285  1
  Zn  Zn105  1  0.10640866  0.12744577  0.52446035  1
  Zn  Zn106  1  0.37838852  0.37764064  -0.00069442  1
  Zn  Zn107  1  0.19066413  0.18846694  0.18874632  1
  Zn  Zn108  1  0.19253977  0.19533534  0.68596815  1
  Zn  Zn109  1  0.18663986  0.68463684  0.19275309  1
  Zn  Zn110  1  0.19139398  0.68461498  0.69288966  1
  Zn  Zn111  1  0.68660017  0.18922304  0.18739921  1
  Zn  Zn112  1  0.68848178  0.18675608  0.68778719  1
  Zn  Zn113  1  0.68998154  0.68662573  0.19191575  1
  Zn  Zn114  1  0.65915664  0.69846996  0.67065457  1
  Zn  Zn115  1  0.31324946  0.31397310  0.31447198  1
  Zn  Zn116  1  0.30957695  0.31441599  0.80744559  1
  Zn  Zn117  1  0.30946749  0.81322834  0.31910274  1
  Zn  Zn118  1  0.30558444  0.81569906  0.81299951  1
  Zn  Zn119  1  0.81459471  0.31690983  0.31400443  1
  Zn  Zn120  1  0.81435411  0.31235608  0.81279463  1
  Zn  Zn121  1  0.81337247  0.80907874  0.30840455  1
  Zn  Zn122  1  0.80990398  0.81031231  0.81203009  1
  Zn  Zn123  1  0.18466454  0.44025600  0.43329067  1
  Zn  Zn124  1  0.18674723  0.43792318  0.93880159  1
  Zn  Zn125  1  0.19367736  0.93715321  0.43255568  1
  Zn  Zn126  1  0.18742751  0.93791292  0.93359694  1
  Zn  Zn127  1  0.67820708  0.44299225  0.44707197  1
  Zn  Zn128  1  0.69251310  0.43465685  0.93711259  1
  Zn  Zn129  1  0.69096529  0.93503195  0.44110228  1
  Zn  Zn130  1  0.68503867  0.93401272  0.93634726  1
  Zn  Zn131  1  0.31210383  0.06154610  0.06678889  1
  Zn  Zn132  1  0.30986655  0.05590403  0.56432319  1
  Zn  Zn133  1  0.31027773  0.56268883  0.06138963  1
  Zn  Zn134  1  0.31789319  0.56319780  0.56446607  1
  Zn  Zn135  1  0.81252236  0.06314806  0.05914655  1
  Zn  Zn136  1  0.82314605  0.06080134  0.56806374  1
  Zn  Zn137  1  0.80768012  0.55884131  0.06332395  1
  Zn  Zn138  1  0.77242013  0.57176855  0.57459848  1
  Zn  Zn139  1  0.43925790  0.43956134  0.18992566  1
  Zn  Zn140  1  0.44197318  0.44921703  0.67998082  1
  Zn  Zn141  1  0.43731950  0.93899375  0.18670625  1
  Zn  Zn142  1  0.43164048  0.93782588  0.68424248  1
  Zn  Zn143  1  0.93483238  0.43902150  0.19125647  1
  Zn  Zn144  1  0.93145320  0.43715758  0.68418303  1
  Zn  Zn145  1  0.94000174  0.93457955  0.18869583  1
  Zn  Zn146  1  0.93223197  0.93585793  0.69299181  1
  Zn  Zn147  1  0.06384032  0.05907371  0.38534018  1
  Zn  Zn148  1  0.05586883  0.06807315  0.69713430  1
  Zn  Zn149  1  0.06340363  0.56324012  0.31078796  1
  Zn  Zn150  1  0.06405639  0.56213054  0.81082535  1
  Zn  Zn151  1  0.55945657  0.06232554  0.31376857  1
  Zn  Zn152  1  0.55826319  0.06335227  0.81037357  1
  Zn  Zn153  1  0.55737926  0.55985746  0.31150796  1
  Zn  Zn154  1  0.55884567  0.56682802  0.80827207  1
  Zn  Zn155  1  0.44025591  0.18551316  0.43544238  1
  Zn  Zn156  1  0.43667819  0.18777283  0.93709219  1
  Zn  Zn157  1  0.44162120  0.68527517  0.43647063  1
  Zn  Zn158  1  0.43632951  0.68439700  0.93679774  1
  Zn  Zn159  1  0.93850633  0.19413177  0.43707357  1
  Zn  Zn160  1  0.93913356  0.18500105  0.93691983  1
  Zn  Zn161  1  0.94149449  0.68869349  0.44039816  1
  Zn  Zn162  1  0.93315614  0.68783753  0.93913353  1
  Zn  Zn163  1  0.06604173  0.31344288  0.06468728  1
  Zn  Zn164  1  0.06338357  0.31983450  0.56039241  1
  Zn  Zn165  1  0.06179756  0.80985684  0.06165974  1
  Zn  Zn166  1  0.10185795  0.79170895  0.58820717  1
  Zn  Zn167  1  0.55925723  0.31886665  0.06092832  1
  Zn  Zn168  1  0.56613878  0.31127461  0.56498629  1
  Zn  Zn169  1  0.56105482  0.81270465  0.06137389  1
  Zn  Zn170  1  0.55940314  0.79815425  0.55987467  1
  O  O171  1  0.12152752  0.13145185  0.11217613  1
  O  O172  1  0.12609189  0.12798476  0.63238965  1
  O  O173  1  0.12821220  0.61264490  0.11841811  1
  O  O174  1  0.10747479  0.61268343  0.63806093  1
  O  O175  1  0.62429232  0.11927002  0.11743268  1
  O  O176  1  0.62153492  0.11745023  0.61998969  1
  O  O177  1  0.62822520  0.61116549  0.12960300  1
  O  O178  1  0.66925236  0.59720665  0.62539492  1
  O  O179  1  0.38405486  0.38750226  0.36973896  1
  O  O180  1  0.37393519  0.38459321  0.87241660  1
  O  O181  1  0.38012310  0.87679175  0.38426996  1
  O  O182  1  0.37855031  0.88354412  0.87996996  1
  O  O183  1  0.88360545  0.36644720  0.38322014  1
  O  O184  1  0.87682795  0.38196565  0.88305550  1
  O  O185  1  0.87837726  0.87885770  0.37853951  1
  O  O186  1  0.87591047  0.88058217  0.88202141  1
  O  O187  1  0.25392949  0.01668449  0.36569900  1
  O  O188  1  0.26132921  0.01057270  0.88127840  1
  O  O189  1  0.25795290  0.50447416  0.36779022  1
  O  O190  1  0.25127883  0.50662638  0.86697609  1
  O  O191  1  0.75828532  0.00367075  0.36856327  1
  O  O192  1  0.75584809  0.00909721  0.88371231  1
  O  O193  1  0.74516158  0.49250301  0.36289337  1
  O  O194  1  0.75840250  0.50631115  0.87089109  1
  O  O195  1  0.24476496  0.49876947  0.13279641  1
  O  O196  1  0.24193903  0.49848163  0.63049155  1
  O  O197  1  0.24992702  0.99652211  0.12992420  1
  O  O198  1  0.25293479  0.99671779  0.64027623  1
  O  O199  1  0.74031631  0.49284067  0.13408793  1
  O  O200  1  0.77211533  0.48073874  0.64056589  1
  O  O201  1  0.74506450  0.99571067  0.12799463  1
  O  O202  1  0.74185511  0.98967280  0.61675191  1
  O  O203  1  -0.00025882  0.36224104  0.24755755  1
  O  O204  1  0.01235342  0.38128865  0.74954015  1
  O  O205  1  0.00794883  0.86697273  0.25379718  1
  O  O206  1  -0.01047610  0.86642896  0.76543648  1
  O  O207  1  0.51383619  0.37583592  0.25633492  1
  O  O208  1  0.50134885  0.36534114  0.74818489  1
  O  O209  1  0.50955993  0.87673349  0.25287160  1
  O  O210  1  0.49782966  0.87859892  0.76097565  1
  O  O211  1  0.48960678  0.12952038  0.25075764  1
  O  O212  1  0.49029421  0.13410650  0.74457241  1
  O  O213  1  0.48410600  0.62403035  0.24770121  1
  O  O214  1  0.48233055  0.63270079  0.75834528  1
  O  O215  1  0.99296217  0.13718054  0.24083716  1
  O  O216  1  0.98417665  0.12818323  0.76645813  1
  O  O217  1  0.98368815  0.62186616  0.24926482  1
  O  O218  1  0.98700590  0.62667574  0.74744738  1
  O  O219  1  0.36896540  0.25050531  0.00674082  1
  O  O220  1  0.38395328  0.24852276  0.51342102  1
  O  O221  1  0.36247271  0.75975016  -0.01079996  1
  O  O222  1  0.37582096  0.75962962  0.49670203  1
  O  O223  1  0.87041849  0.25441347  0.00479691  1
  O  O224  1  0.86430248  0.24611503  0.51114649  1
  O  O225  1  0.86351531  0.75335753  0.00636831  1
  O  O226  1  0.87268176  0.75938544  0.50401948  1
  O  O227  1  0.11997552  0.24878264  0.48832253  1
  O  O228  1  0.13396364  0.24497762  0.99431647  1
  O  O229  1  0.11277406  0.75142642  0.47957480  1
  O  O230  1  0.12957438  0.74181241  0.99287017  1
  O  O231  1  0.63622744  0.24183658  0.49778179  1
  O  O232  1  0.62823525  0.24526130  0.99191374  1
  O  O233  1  0.63662172  0.75862291  0.47621156  1
  O  O234  1  0.63773091  0.75877840  0.98862658  1
  O  O235  1  0.49259264  0.24873124  0.12601192  1
  O  O236  1  0.49701994  0.24412939  0.63233990  1
  O  O237  1  0.50778988  0.74808639  0.13164901  1
  O  O238  1  0.56128393  0.69736452  0.60895414  1
  O  O239  1  0.99583082  0.24374374  0.12853309  1
  O  O240  1  0.98691450  0.25225203  0.61866032  1
  O  O241  1  0.98366607  0.75173494  0.12301705  1
  O  O242  1  0.99847794  0.74052808  0.63241073  1
  O  O243  1  0.01215648  0.25076541  0.36387212  1
  O  O244  1  0.01474939  0.25158682  0.88093759  1
  O  O245  1  0.00017683  0.75900909  0.36797820  1
  O  O246  1  0.00244972  0.75812332  0.87540786  1
  O  O247  1  0.50815225  0.25841784  0.37449752  1
  O  O248  1  0.50702170  0.24985604  0.86668826  1
  O  O249  1  0.51647533  0.75026391  0.36759104  1
  O  O250  1  0.50911780  0.75993694  0.88241185  1
  O  O251  1  0.25377988  0.12324930  0.48667245  1
  O  O252  1  0.24686253  0.13401908  0.99487121  1
  O  O253  1  0.25563047  0.62301038  0.48700455  1
  O  O254  1  0.24369397  0.63195659  0.99314976  1
  O  O255  1  0.74748647  0.12998067  0.49615693  1
  O  O256  1  0.74355278  0.13141855  0.99099240  1
  O  O257  1  0.76545747  0.64377709  0.48914843  1
  O  O258  1  0.75341385  0.63269089  0.99048023  1
  O  O259  1  0.25242724  0.36259026  -0.00031257  1
  O  O260  1  0.24616052  0.38259530  0.51205280  1
  O  O261  1  0.25655846  0.86677544  -0.00181376  1
  O  O262  1  0.26521228  0.87222344  0.49408676  1
  O  O263  1  0.75953495  0.36675049  0.00539467  1
  O  O264  1  0.74871591  0.36635567  0.50881228  1
  O  O265  1  0.75498590  0.86750064  0.00506901  1
  O  O266  1  0.76206776  0.86823969  0.50435607  1
  O  O267  1  0.13245511  0.50100339  0.23891714  1
  O  O268  1  0.13156366  0.49387885  0.74312150  1
  O  O269  1  0.12110348  0.98157234  0.25662600  1
  O  O270  1  0.13010241  0.99931312  0.75299266  1
  O  O271  1  0.63451706  0.49543136  0.24509069  1
  O  O272  1  0.63984684  0.49786181  0.76116239  1
  O  O273  1  0.63000865  0.99628851  0.24441456  1
  O  O274  1  0.61927859  0.99978590  0.73502961  1
  O  O275  1  0.37719064  0.01116294  0.25286581  1
  O  O276  1  0.38283734  0.01143375  0.76026707  1
  O  O277  1  0.36876348  0.50716478  0.25543284  1
  O  O278  1  0.36620494  0.50657123  0.75732678  1
  O  O279  1  0.86836220  0.00526607  0.25362460  1
  O  O280  1  0.87203382  0.00791070  0.76707902  1
  O  O281  1  0.86274030  0.50947760  0.24809939  1
  O  O282  1  0.86961249  0.50526373  0.76011826  1
  O  O283  1  0.12033337  0.36798947  0.37092221  1
  O  O284  1  0.12289999  0.36972323  0.86891711  1
  O  O285  1  0.11632843  0.86739811  0.36621063  1
  O  O286  1  0.11231784  0.86471469  0.88407093  1
  O  O287  1  0.61894160  0.37222280  0.37099737  1
  O  O288  1  0.62642759  0.36151893  0.87239117  1
  O  O289  1  0.62596560  0.88052260  0.36147230  1
  O  O290  1  0.61526763  0.86970440  0.87109981  1
  O  O291  1  0.37849970  0.13666017  0.13122159  1
  O  O292  1  0.37820071  0.13184177  0.63138096  1
  O  O293  1  0.37319279  0.62030094  0.13969878  1
  O  O294  1  0.36843394  0.62581896  0.64214575  1
  O  O295  1  0.88035784  0.13052390  0.12731705  1
  O  O296  1  0.86731135  0.13902660  0.63799842  1
  O  O297  1  0.86672377  0.63162718  0.12994201  1
  O  O298  1  0.87812981  0.63022365  0.63444968  1
  O  O299  1  0.25904456  0.25278516  0.11661236  1
  O  O300  1  0.26381536  0.26569840  0.62963992  1
  O  O301  1  0.24384364  0.75184048  0.11298825  1
  O  O302  1  0.20777073  0.75403671  0.61217869  1
  O  O303  1  0.75574976  0.25609049  0.11993084  1
  O  O304  1  0.75523037  0.25366783  0.61905183  1
  O  O305  1  0.75338540  0.75328440  0.11774578  1
  O  O306  1  0.75354193  0.75809776  0.61238516  1
  O  O307  1  0.24404659  0.24200424  0.37208665  1
  O  O308  1  0.24729445  0.24391030  0.88213566  1
  O  O309  1  0.24188237  0.73978011  0.38053024  1
  O  O310  1  0.23918976  0.74255340  0.88192017  1
  O  O311  1  0.74556875  0.24471637  0.38423877  1
  O  O312  1  0.74286717  0.24272684  0.87901855  1
  O  O313  1  0.73860193  0.75648946  0.37626353  1
  O  O314  1  0.74615035  0.74136911  0.88245752  1
  O  O315  1  0.00915845  0.11721070  0.00329602  1
  O  O316  1  0.00602441  0.11385229  0.47150306  1
  O  O317  1  0.01243549  0.62789973  -0.00450585  1
  O  O318  1  -0.00467412  0.61535890  0.51189415  1
  O  O319  1  0.50575956  0.11360113  -0.00291716  1
  O  O320  1  0.50685647  0.11673890  0.50599556  1
  O  O321  1  0.49387843  0.61481455  0.00050278  1
  O  O322  1  0.50434948  0.61423907  0.49526970  1
  O  O323  1  0.50728325  0.37398676  0.49123081  1
  O  O324  1  0.49669666  0.38499233  0.99353776  1
  O  O325  1  0.49637944  0.87733321  0.50075508  1
  O  O326  1  0.49406916  0.88486805  0.99070211  1
  O  O327  1  0.99584809  0.39407091  0.50309189  1
  O  O328  1  0.98716542  0.37017194  0.99982962  1
  O  O329  1  0.98604124  0.87884889  0.48855014  1
  O  O330  1  0.99342038  0.87990931  0.99506876  1
  O  O331  1  0.48714535  0.49176040  0.37053192  1
  O  O332  1  0.48948616  0.49709847  0.86973642  1
  O  O333  1  0.50120085  0.99939641  0.39120921  1
  O  O334  1  0.49279910  0.99450716  0.88052420  1
  O  O335  1  1.00339855  0.50402037  0.39088787  1
  O  O336  1  0.98760257  0.50002232  0.87344456  1
  O  O337  1  0.98342379  0.98244211  0.35827191  1
  O  O338  1  0.98751257  0.98935122  0.88893726  1
  O  O339  1  -0.00695520  0.00450976  0.11138926  1
  O  O340  1  -0.02116803  0.01345304  0.62936754  1
  O  O341  1  0.01381823  0.49721212  0.12889889  1
  O  O342  1  0.00234792  0.50568859  0.61878135  1
  O  O343  1  0.50624309  0.00240821  0.11415660  1
  O  O344  1  0.50601241  0.00463063  0.61559742  1
  O  O345  1  0.51837274  0.49986024  0.12798788  1
  O  O346  1  0.51457166  0.52080098  0.63155203  1
  O  O347  1  0.24974537  0.38853778  0.24968916  1
  O  O348  1  0.24254612  0.38849688  0.74452869  1
  O  O349  1  0.23622345  0.87362112  0.25031129  1
  O  O350  1  0.23223098  0.87447428  0.75219788  1
  O  O351  1  0.74199638  0.38302942  0.24657128  1
  O  O352  1  0.74902758  0.38093962  0.74646068  1
  O  O353  1  0.74567179  0.88203817  0.24301960  1
  O  O354  1  0.75240941  0.87185442  0.73340754  1
  O  O355  1  0.26417174  0.12824132  0.25394814  1
  O  O356  1  0.26407647  0.13452997  0.76035867  1
  O  O357  1  0.25973653  0.61593363  0.25731758  1
  O  O358  1  0.25022810  0.61393633  0.75926383  1
  O  O359  1  0.75510207  0.12059743  0.25479795  1
  O  O360  1  0.75583462  0.12893569  0.76334726  1
  O  O361  1  0.75841877  0.61130753  0.25044003  1
  O  O362  1  0.76211503  0.61760409  0.76108957  1
  O  O363  1  0.36647638  0.12813035  0.36777486  1
  O  O364  1  0.36795353  0.11951403  0.86947202  1
  O  O365  1  0.37065118  0.61313116  0.36708011  1
  O  O366  1  0.35998340  0.61998986  0.86759275  1
  O  O367  1  0.86842453  0.11787098  0.36762880  1
  O  O368  1  0.86571976  0.11934591  0.87362640  1
  O  O369  1  0.87644087  0.63014804  0.36245975  1
  O  O370  1  0.86777787  0.61881071  0.87111585  1
  O  O371  1  0.12916288  0.38791269  0.12561789  1
  O  O372  1  0.13232523  0.38226514  0.63154978  1
  O  O373  1  0.12266802  0.86899226  0.13901481  1
  O  O374  1  0.11155531  0.89956848  0.62354433  1
  O  O375  1  0.63089905  0.37949255  0.13497879  1
  O  O376  1  0.64013045  0.36825625  0.63095998  1
  O  O377  1  0.63221034  0.88203050  0.13386958  1
  O  O378  1  0.63190844  0.87980205  0.62450362  1
  O  O379  1  0.11853623  0.25372794  0.25282403  1
  O  O380  1  0.13533796  0.26376170  0.76241903  1
  O  O381  1  0.12263593  0.75413816  0.25950763  1
  O  O382  1  0.11316062  0.73791067  0.76943320  1
  O  O383  1  0.62672073  0.26008710  0.25789235  1
  O  O384  1  0.61518672  0.24724955  0.75770748  1
  O  O385  1  0.63045786  0.75971187  0.25959720  1
  O  O386  1  0.63369598  0.75676345  0.76582739  1
  O  O387  1  0.37747085  0.24620569  0.24168958  1
  O  O388  1  0.38354759  0.24475008  0.74473233  1
  O  O389  1  0.37262546  0.73388093  0.25799096  1
  O  O390  1  0.36495077  0.73915313  0.75490785  1
  O  O391  1  0.87977496  0.24450383  0.24240764  1
  O  O392  1  0.87377364  0.24472925  0.73914392  1
  O  O393  1  0.87174877  0.73417427  0.24069056  1
  O  O394  1  0.87820498  0.74063736  0.74567149  1
  O  O395  1  0.37176830  0.49973319  0.48422369  1
  O  O396  1  0.36581141  0.49882868  0.98252010  1
  O  O397  1  0.38337990  0.99060424  0.49902573  1
  O  O398  1  0.38264697  0.99652734  0.99094388  1
  O  O399  1  0.88285361  0.50330500  0.50433031  1
  O  O400  1  0.86794516  0.48982269  0.99293087  1
  O  O401  1  0.86698147  0.99279285  0.48626887  1
  O  O402  1  0.87967249  0.99513417  0.99255756  1
  O  O403  1  0.11586798  0.00985130  -0.00735785  1
  O  O404  1  0.12055490  0.00885848  0.47803702  1
  O  O405  1  0.12967542  0.50705848  0.01343842  1
  O  O406  1  0.11781833  0.49959169  0.51179745  1
  O  O407  1  0.61727205  0.00350754  0.00307435  1
  O  O408  1  0.61994068  0.00204682  0.50891217  1
  O  O409  1  0.63177267  0.49431109  0.01608187  1
  O  O410  1  0.62405501  0.51621452  0.50948796  1
  O  O411  1  0.37474512  0.36604932  0.12422124  1
  O  O412  1  0.36905207  0.37202781  0.62948503  1
  O  O413  1  0.37544349  0.87777799  0.10935779  1
  O  O414  1  0.37953811  0.87311822  0.60819843  1
  O  O415  1  0.86895874  0.37158831  0.11958497  1
  O  O416  1  0.86755655  0.35907327  0.62315122  1
  O  O417  1  0.86740560  0.86704821  0.12126255  1
  O  O418  1  0.86986251  0.86845360  0.61667673  1
  O  O419  1  0.14479723  0.13801479  0.36319032  1
  O  O420  1  0.13922034  0.13447569  0.88636101  1
  O  O421  1  0.13747969  0.63074535  0.36680991  1
  O  O422  1  0.13275016  0.62634254  0.88298813  1
  O  O423  1  0.63136485  0.12963412  0.38058724  1
  O  O424  1  0.62975328  0.13201002  0.87739687  1
  O  O425  1  0.62820009  0.63413161  0.36401448  1
  O  O426  1  0.63546531  0.63195986  0.87102437  1
