# generated using pymatgen
data_V85Zn86O256
_symmetry_space_group_name_H-M   'P 1'
_cell_length_a   16.93449448
_cell_length_b   16.93841020
_cell_length_c   16.94144167
_cell_angle_alpha   90.01648558
_cell_angle_beta   90.04154810
_cell_angle_gamma   90.04424973
_symmetry_Int_Tables_number   1
_chemical_formula_structural   V85Zn86O256
_chemical_formula_sum   'V85 Zn86 O256'
_cell_volume   4859.53803673
_cell_formula_units_Z   1
loop_
 _symmetry_equiv_pos_site_id
 _symmetry_equiv_pos_as_xyz
  1  'x, y, z'
loop_
 _atom_site_type_symbol
 _atom_site_label
 _atom_site_symmetry_multiplicity
 _atom_site_fract_x
 _atom_site_fract_y
 _atom_site_fract_z
 _atom_site_occupancy
  V  V0  1  0.75090454  0.74572807  0.49664841  1
  V  V1  1  0.00122193  0.36886038  0.87737668  1
  V  V2  1  0.24454476  0.63300285  0.37367486  1
  V  V3  1  0.38555093  0.38104813  -0.00648608  1
  V  V4  1  0.88346511  0.87499638  0.00311341  1
  V  V5  1  0.62437643  -0.00747661  0.12582238  1
  V  V6  1  0.87757719  0.49987925  0.87890190  1
  V  V7  1  0.37087687  0.13237263  0.75216809  1
  V  V8  1  0.75516401  0.51079752  0.24739081  1
  V  V9  1  0.38103952  0.75343018  0.62805711  1
  V  V10  1  0.37346188  0.87523985  0.49741235  1
  V  V11  1  -0.00531265  0.13169903  0.63699433  1
  V  V12  1  0.49756393  0.12896712  0.62704294  1
  V  V13  1  0.49265294  0.61983807  0.62039831  1
  V  V14  1  0.50105827  0.61525021  0.12445466  1
  V  V15  1  0.74988750  0.50159327  0.74562388  1
  V  V16  1  0.63242928  0.12108830  -0.00530359  1
  V  V17  1  0.75160223  0.87281090  0.62342665  1
  V  V18  1  0.12434304  0.24228940  0.87564810  1
  V  V19  1  0.37822464  0.13393168  0.24779437  1
  V  V20  1  0.74746353  0.62446004  0.87909775  1
  V  V21  1  0.61631951  0.24919994  0.87560432  1
  V  V22  1  0.24736569  0.50482312  0.76537689  1
  V  V23  1  0.24961845  0.74167275  -0.00423352  1
  V  V24  1  0.56597681  0.56474169  -0.04288159  1
  V  V25  1  0.00275507  0.73509786  0.25053618  1
  V  V26  1  -0.00054507  0.50247191  0.00961002  1
  V  V27  1  0.87596091  0.13667612  0.24315393  1
  V  V28  1  0.37462220  0.87687403  -0.00067133  1
  V  V29  1  0.24418122  0.37434377  0.12186783  1
  V  V30  1  0.76112761  0.25637848  0.49866380  1
  V  V31  1  0.12416527  0.36987058  0.75134869  1
  V  V32  1  0.74731301  0.74427238  0.00225029  1
  V  V33  1  0.12513785  0.74586123  0.87130253  1
  V  V34  1  0.62000567  0.74993698  0.87416898  1
  V  V35  1  0.12004719  0.63266660  0.49669817  1
  V  V36  1  -0.01299835  0.36776393  0.36832240  1
  V  V37  1  0.75103458  -0.00509004  0.75555914  1
  V  V38  1  0.37429218  0.62452535  0.25078857  1
  V  V39  1  0.24181673  0.50318649  0.25051035  1
  V  V40  1  0.49797636  0.87436602  0.86460171  1
  V  V41  1  0.12071682  0.87786331  0.24224324  1
  V  V42  1  0.62059214  0.49597212  0.61653057  1
  V  V43  1  0.12966726  0.10883647  0.00221609  1
  V  V44  1  0.00528173  0.87157541  0.37287427  1
  V  V45  1  0.50345193  0.13134819  0.12730246  1
  V  V46  1  0.12389791  0.00332814  0.62317469  1
  V  V47  1  0.25185795  0.24711543  -0.00495992  1
  V  V48  1  0.63160239  0.74995072  0.36839101  1
  V  V49  1  0.74982048  0.87067336  0.12973952  1
  V  V50  1  0.50429191  0.75475137  0.24618255  1
  V  V51  1  0.24639943  0.75291851  0.49757485  1
  V  V52  1  0.24940418  0.87881656  0.62289324  1
  V  V53  1  0.37248766  0.00693835  0.87532354  1
  V  V54  1  -0.00492191  0.49127666  0.49969749  1
  V  V55  1  0.87577824  0.62600307  0.75105896  1
  V  V56  1  0.62852002  0.49721988  0.12587539  1
  V  V57  1  0.75406964  0.25030586  0.01780496  1
  V  V58  1  0.61932666  0.37517182  0.75295268  1
  V  V59  1  0.62660664  0.37174986  0.24702997  1
  V  V60  1  0.12633154  0.13871916  0.49089431  1
  V  V61  1  0.18191563  0.32087115  0.30684722  1
  V  V62  1  -0.00171772  0.00140470  0.49772146  1
  V  V63  1  0.61750790  0.24946811  0.37090498  1
  V  V64  1  0.24601550  0.00114589  0.24238415  1
  V  V65  1  0.50437821  0.87414398  0.36998169  1
  V  V66  1  0.80144179  0.16790142  0.82206573  1
  V  V67  1  0.87519151  0.36897987  0.01790307  1
  V  V68  1  0.62893790  0.12285966  0.49854601  1
  V  V69  1  0.12653557  0.49935681  0.62871893  1
  V  V70  1  0.74959257  -0.00410653  0.24964727  1
  V  V71  1  0.62502782  -0.00151396  0.62694466  1
  V  V72  1  -0.00137379  0.62568203  0.62609154  1
  V  V73  1  0.24745065  0.00586963  0.75302116  1
  V  V74  1  0.87706027  -0.00393653  0.87676036  1
  V  V75  1  0.49930669  -0.00094756  0.49866720  1
  V  V76  1  0.86752804  0.51256884  0.37787038  1
  V  V77  1  0.37097246  0.63215044  0.75657317  1
  V  V78  1  0.37445961  0.75158374  0.12402007  1
  V  V79  1  0.75366597  0.12422254  0.37409869  1
  V  V80  1  0.36983856  0.00086852  0.37122798  1
  V  V81  1  0.87936554  0.73537809  0.12999983  1
  V  V82  1  -0.00162962  0.11811536  0.11741760  1
  V  V83  1  0.12200166  0.62490190  0.00507192  1
  V  V84  1  0.62295503  0.62267768  0.49224972  1
  Zn  Zn85  1  0.87623209  0.87335238  0.49644281  1
  Zn  Zn86  1  0.25616756  0.37109442  0.61143594  1
  Zn  Zn87  1  0.36656242  0.25486893  0.60586110  1
  Zn  Zn88  1  0.12020837  0.87590271  0.75036012  1
  Zn  Zn89  1  0.87461653  0.75032608  0.62358744  1
  Zn  Zn90  1  0.24332701  0.87799283  0.12071783  1
  Zn  Zn91  1  0.38042570  0.25595209  0.12518056  1
  Zn  Zn92  1  0.38557451  0.50378107  0.87984603  1
  Zn  Zn93  1  0.50187870  -0.00005458  -0.00136175  1
  Zn  Zn94  1  0.49758861  0.38732266  0.37430155  1
  Zn  Zn95  1  -0.00119538  0.75334978  0.75112500  1
  Zn  Zn96  1  0.42560391  0.42705428  0.53566758  1
  Zn  Zn97  1  0.75897660  0.37859258  0.61853422  1
  Zn  Zn98  1  0.00570709  0.25318313  0.24217018  1
  Zn  Zn99  1  0.37858210  0.50135105  0.38741137  1
  Zn  Zn100  1  0.87654177  0.24931445  0.63714523  1
  Zn  Zn101  1  0.11992598  0.50049535  0.12964566  1
  Zn  Zn102  1  0.87720838  -0.00228647  0.37074333  1
  Zn  Zn103  1  0.49579637  0.25597874  0.75133844  1
  Zn  Zn104  1  0.00151380  0.87620767  0.87401901  1
  Zn  Zn105  1  0.61960472  0.86416131  0.74533125  1
  Zn  Zn106  1  0.24850320  0.14136877  0.37429388  1
  Zn  Zn107  1  0.19066801  0.18104010  0.17829087  1
  Zn  Zn108  1  0.18562062  0.18925073  0.68489442  1
  Zn  Zn109  1  0.18380048  0.69294365  0.18469011  1
  Zn  Zn110  1  0.19007294  0.68893627  0.68641598  1
  Zn  Zn111  1  0.68556175  0.18284815  0.18855350  1
  Zn  Zn112  1  0.68297962  0.19134257  0.68163786  1
  Zn  Zn113  1  0.68489415  0.68164837  0.18484169  1
  Zn  Zn114  1  0.68416073  0.68542336  0.68467943  1
  Zn  Zn115  1  0.32608959  0.32302664  0.43182169  1
  Zn  Zn116  1  0.30710213  0.31561987  0.81295077  1
  Zn  Zn117  1  0.31044943  0.81379361  0.30975110  1
  Zn  Zn118  1  0.30700351  0.81645571  0.81154238  1
  Zn  Zn119  1  0.80647689  0.31735424  0.30871600  1
  Zn  Zn120  1  0.81017650  0.32931314  0.81465862  1
  Zn  Zn121  1  0.81929537  0.81047047  0.31138886  1
  Zn  Zn122  1  0.81111857  0.81201114  0.81336114  1
  Zn  Zn123  1  0.18639074  0.44784576  0.44018489  1
  Zn  Zn124  1  0.18712848  0.43499841  0.94180790  1
  Zn  Zn125  1  0.18288822  0.94083077  0.43280169  1
  Zn  Zn126  1  0.19095094  0.93052347  0.93238420  1
  Zn  Zn127  1  0.68553755  0.43528080  0.43301425  1
  Zn  Zn128  1  0.69495432  0.42898403  0.93586098  1
  Zn  Zn129  1  0.68791627  0.93447244  0.43629999  1
  Zn  Zn130  1  0.69060278  0.93166261  0.93920046  1
  Zn  Zn131  1  0.31255871  0.06409795  0.06250640  1
  Zn  Zn132  1  0.31038820  0.07204040  0.55949869  1
  Zn  Zn133  1  0.31216850  0.56014465  0.06343523  1
  Zn  Zn134  1  0.30297711  0.56314781  0.56612556  1
  Zn  Zn135  1  0.81446193  0.06145328  0.06201485  1
  Zn  Zn136  1  0.81599360  0.06288732  0.56446327  1
  Zn  Zn137  1  0.81152191  0.55915538  0.06323582  1
  Zn  Zn138  1  0.81134896  0.56331923  0.55934474  1
  Zn  Zn139  1  0.42993037  0.43007471  0.20192887  1
  Zn  Zn140  1  0.43404922  0.43904701  0.70086599  1
  Zn  Zn141  1  0.43711876  0.94077275  0.18581159  1
  Zn  Zn142  1  0.43495902  0.94167438  0.68808851  1
  Zn  Zn143  1  0.93616893  0.44045771  0.19303716  1
  Zn  Zn144  1  0.93928479  0.43347942  0.68894016  1
  Zn  Zn145  1  0.93589549  0.93908927  0.18664962  1
  Zn  Zn146  1  0.93567144  0.93989959  0.68936165  1
  Zn  Zn147  1  0.06106166  0.06365580  0.30948577  1
  Zn  Zn148  1  0.06122426  0.06134167  0.81576085  1
  Zn  Zn149  1  0.06121401  0.55883193  0.31849341  1
  Zn  Zn150  1  0.06247157  0.56337882  0.81956874  1
  Zn  Zn151  1  0.56482534  0.06057165  0.30882183  1
  Zn  Zn152  1  0.56252691  0.06219253  0.81263386  1
  Zn  Zn153  1  0.56390475  0.56213027  0.30937334  1
  Zn  Zn154  1  0.56059908  0.56985918  0.79240675  1
  Zn  Zn155  1  0.44092192  0.18412636  0.43533162  1
  Zn  Zn156  1  0.43959499  0.18701785  0.94276821  1
  Zn  Zn157  1  0.43661918  0.68153303  0.43730920  1
  Zn  Zn158  1  0.43388572  0.69432424  0.93420143  1
  Zn  Zn159  1  0.93980605  0.18398530  0.43538786  1
  Zn  Zn160  1  0.94287260  0.18856825  0.94686984  1
  Zn  Zn161  1  0.93864509  0.68988256  0.43545053  1
  Zn  Zn162  1  0.93920100  0.68915004  0.93966899  1
  Zn  Zn163  1  0.06249754  0.30640582  0.06418627  1
  Zn  Zn164  1  0.05928267  0.31291982  0.56365462  1
  Zn  Zn165  1  0.06122064  0.80974870  0.06575619  1
  Zn  Zn166  1  0.05995536  0.81452202  0.56516778  1
  Zn  Zn167  1  0.56742615  0.31262950  0.06284198  1
  Zn  Zn168  1  0.56734047  0.30903602  0.55940617  1
  Zn  Zn169  1  0.56136625  0.81146234  0.05747992  1
  Zn  Zn170  1  0.56209861  0.81054027  0.55827942  1
  O  O171  1  0.11890866  0.12124021  0.10943491  1
  O  O172  1  0.11709004  0.11749577  0.61692291  1
  O  O173  1  0.12869016  0.62428752  0.10946285  1
  O  O174  1  0.11653076  0.61867289  0.62126998  1
  O  O175  1  0.62100241  0.11251861  0.11979086  1
  O  O176  1  0.61803107  0.11603237  0.62082632  1
  O  O177  1  0.61641056  0.61172385  0.12117931  1
  O  O178  1  0.61519009  0.61705255  0.61801427  1
  O  O179  1  0.38122289  0.38808524  0.35803700  1
  O  O180  1  0.37407393  0.37889041  0.88854511  1
  O  O181  1  0.38455433  0.88033217  0.37671013  1
  O  O182  1  0.38010659  0.88326896  0.87845167  1
  O  O183  1  0.88444697  0.38351099  0.37259228  1
  O  O184  1  0.88501282  0.38238374  0.88087301  1
  O  O185  1  0.88812303  0.87849101  0.37571053  1
  O  O186  1  0.87376110  0.87874858  0.88460770  1
  O  O187  1  0.26126532  -0.00271553  0.36664533  1
  O  O188  1  0.26025036  -0.00527235  0.86428983  1
  O  O189  1  0.25054978  0.51803112  0.36632521  1
  O  O190  1  0.24682104  0.50210059  0.86701723  1
  O  O191  1  0.75004109  0.00436559  0.36712753  1
  O  O192  1  0.75569713  -0.00751571  0.86454511  1
  O  O193  1  0.76204380  0.49867853  0.37065035  1
  O  O194  1  0.75540521  0.50650213  0.86825758  1
  O  O195  1  0.24678468  0.49319443  0.13296650  1
  O  O196  1  0.23472091  0.49960962  0.63545434  1
  O  O197  1  0.25672094  0.99631614  0.13817848  1
  O  O198  1  0.24185335  0.99948615  0.62822399  1
  O  O199  1  0.74465075  0.50350149  0.13815256  1
  O  O200  1  0.74233854  0.50115850  0.63067147  1
  O  O201  1  0.74491622  0.99055808  0.12985057  1
  O  O202  1  0.74369715  0.99349220  0.63033409  1
  O  O203  1  -0.00023534  0.37383930  0.26362576  1
  O  O204  1  0.01496403  0.38351107  0.76368742  1
  O  O205  1  0.00545251  0.87459155  0.25552126  1
  O  O206  1  0.00117173  0.87133005  0.75115862  1
  O  O207  1  0.52068926  0.38001611  0.24908043  1
  O  O208  1  0.51469059  0.37573007  0.75237910  1
  O  O209  1  0.49488551  0.86323709  0.25455167  1
  O  O210  1  0.49942090  0.87796509  0.75994556  1
  O  O211  1  0.49168821  0.11405132  0.23885981  1
  O  O212  1  0.49163153  0.12391099  0.74171934  1
  O  O213  1  0.49241703  0.63557329  0.24186737  1
  O  O214  1  0.48739792  0.62892844  0.73064568  1
  O  O215  1  0.99191389  0.12991511  0.24416573  1
  O  O216  1  1.00400398  0.12128474  0.73490127  1
  O  O217  1  1.00638738  0.63650566  0.25345868  1
  O  O218  1  0.99126314  0.62304311  0.74381393  1
  O  O219  1  0.36823111  0.25679777  0.00142388  1
  O  O220  1  0.36460766  0.23607947  0.49350453  1
  O  O221  1  0.36739118  0.75723401  0.00287563  1
  O  O222  1  0.36812981  0.75643555  0.50549799  1
  O  O223  1  0.86617211  0.25683974  -0.00279043  1
  O  O224  1  0.86212752  0.24348545  0.49755690  1
  O  O225  1  0.86801795  0.75556364  0.00755272  1
  O  O226  1  0.86514884  0.75027769  0.50128229  1
  O  O227  1  0.12153529  0.23695477  0.50271066  1
  O  O228  1  0.13229888  0.24255560  0.99106706  1
  O  O229  1  0.12813461  0.73967507  0.50794152  1
  O  O230  1  0.13084111  0.74528604  0.99566268  1
  O  O231  1  0.63710845  0.23850845  0.49132423  1
  O  O232  1  0.63483743  0.24534050  0.99206754  1
  O  O233  1  0.63071936  0.74409274  0.49059900  1
  O  O234  1  0.63504085  0.75320731  0.98877035  1
  O  O235  1  0.50400196  0.23518860  0.12205554  1
  O  O236  1  0.50140068  0.23644337  0.62829521  1
  O  O237  1  0.49780178  0.74337386  0.13014426  1
  O  O238  1  0.48588903  0.74778577  0.62030887  1
  O  O239  1  1.00667890  0.23085529  0.12776566  1
  O  O240  1  0.99881984  0.23640388  0.62540821  1
  O  O241  1  0.99182335  0.75109871  0.13843600  1
  O  O242  1  0.99697931  0.73695408  0.62687630  1
  O  O243  1  -0.00469935  0.26511813  0.37373124  1
  O  O244  1  0.00688820  0.26099833  0.88116100  1
  O  O245  1  -0.00423753  0.75693875  0.36097221  1
  O  O246  1  0.00914933  0.75126897  0.87266487  1
  O  O247  1  0.51775575  0.23708673  0.36936026  1
  O  O248  1  0.51328818  0.24569871  0.87381126  1
  O  O249  1  0.50658485  0.75538256  0.36636232  1
  O  O250  1  0.50822899  0.76048724  0.87847858  1
  O  O251  1  0.23111093  0.11862815  0.49262106  1
  O  O252  1  0.23881585  0.13157237  1.00441750  1
  O  O253  1  0.23831555  0.63190601  0.49345194  1
  O  O254  1  0.24651141  0.63607619  1.00157444  1
  O  O255  1  0.74779216  0.12601675  0.49103783  1
  O  O256  1  0.73946680  0.13182131  1.00640758  1
  O  O257  1  0.73871089  0.63797825  0.50524367  1
  O  O258  1  0.75436674  0.63571259  0.99507924  1
  O  O259  1  0.25832886  0.36757427  0.00563056  1
  O  O260  1  0.25920554  0.38996141  0.49879500  1
  O  O261  1  0.26148157  0.86742803  0.00063316  1
  O  O262  1  0.25343654  0.87357184  0.50209294  1
  O  O263  1  0.76389341  0.36247951  -0.00352167  1
  O  O264  1  0.74677964  0.35934875  0.49864626  1
  O  O265  1  0.75666860  0.86214272  0.01064258  1
  O  O266  1  0.75006730  0.86474085  0.50601092  1
  O  O267  1  0.13665054  0.50970167  0.24741717  1
  O  O268  1  0.12871475  0.49848222  0.74627166  1
  O  O269  1  0.13550428  0.99282073  0.25634275  1
  O  O270  1  0.13200391  1.00208845  0.74290593  1
  O  O271  1  0.63601942  0.49804103  0.24295439  1
  O  O272  1  0.63147264  0.49665411  0.73842300  1
  O  O273  1  0.63937437  1.00166222  0.24026682  1
  O  O274  1  0.63012346  0.99617799  0.73920067  1
  O  O275  1  0.36791335  0.00261584  0.25644123  1
  O  O276  1  0.36854637  0.01052455  0.75570425  1
  O  O277  1  0.36168581  0.51696031  0.24309517  1
  O  O278  1  0.36557291  0.50996070  0.75902233  1
  O  O279  1  0.86217121  0.00854531  0.24830055  1
  O  O280  1  0.86036884  -0.00198592  0.75763003  1
  O  O281  1  0.86303457  0.49903666  0.26033766  1
  O  O282  1  0.86821838  0.50899310  0.75534020  1
  O  O283  1  0.12047210  0.37765103  0.36814199  1
  O  O284  1  0.11876046  0.36691019  0.87310540  1
  O  O285  1  0.11260325  0.87712814  0.36517334  1
  O  O286  1  0.12161301  0.86249254  0.87332977  1
  O  O287  1  0.62389126  0.36439793  0.36688132  1
  O  O288  1  0.63343449  0.36215995  0.86585505  1
  O  O289  1  0.61184162  0.86718677  0.37800038  1
  O  O290  1  0.61595600  0.86760372  0.87321079  1
  O  O291  1  0.38706089  0.12275036  0.12909328  1
  O  O292  1  0.38230144  0.12529271  0.63415356  1
  O  O293  1  0.38134253  0.63177958  0.12924678  1
  O  O294  1  0.37779869  0.63488864  0.63102503  1
  O  O295  1  0.88593957  0.12314385  0.12879837  1
  O  O296  1  0.88969246  0.12767158  0.62459190  1
  O  O297  1  0.87200705  0.63650350  0.12233183  1
  O  O298  1  0.88195304  0.62315500  0.63281272  1
  O  O299  1  0.25188456  0.25612957  0.11276572  1
  O  O300  1  0.25636873  0.26063133  0.64103484  1
  O  O301  1  0.25698620  0.75504998  0.11596258  1
  O  O302  1  0.25735387  0.75893005  0.61713115  1
  O  O303  1  0.74465765  0.25003017  0.11661002  1
  O  O304  1  0.75219452  0.24535986  0.60838995  1
  O  O305  1  0.75342002  0.75324556  0.12162935  1
  O  O306  1  0.74778372  0.75693247  0.61679443  1
  O  O307  1  0.24189763  0.26144985  0.36300161  1
  O  O308  1  0.24100902  0.25301507  0.88701160  1
  O  O309  1  0.25195961  0.74133565  0.38004180  1
  O  O310  1  0.24121787  0.75565740  0.88488390  1
  O  O311  1  0.74704206  0.24159411  0.38308160  1
  O  O312  1  0.74643577  0.23912044  0.87562800  1
  O  O313  1  0.73925314  0.75846702  0.37976831  1
  O  O314  1  0.74439261  0.74367811  0.88360470  1
  O  O315  1  0.01055453  0.12079384  0.00932903  1
  O  O316  1  0.00846917  0.11850443  0.50471674  1
  O  O317  1  0.00715573  0.61403850  -0.00416583  1
  O  O318  1  0.00308168  0.61825828  0.50630277  1
  O  O319  1  0.51377162  0.12139632  0.00764674  1
  O  O320  1  0.50854031  0.11607253  0.50651182  1
  O  O321  1  0.49755236  0.62868061  0.00824589  1
  O  O322  1  0.51148043  0.63556475  0.51179529  1
  O  O323  1  0.50201770  0.36218825  0.48814793  1
  O  O324  1  0.48354524  0.36972244  1.00716220  1
  O  O325  1  0.49342461  0.87989388  0.49129095  1
  O  O326  1  0.48760123  0.87554780  0.98995322  1
  O  O327  1  1.00660055  0.38630909  0.48826357  1
  O  O328  1  0.99481929  0.37919639  0.99517769  1
  O  O329  1  1.00022570  0.88144948  0.49245596  1
  O  O330  1  0.98674255  0.87066119  1.00046991  1
  O  O331  1  0.49424987  0.50517874  0.37074695  1
  O  O332  1  0.50978309  0.51479873  0.88304942  1
  O  O333  1  0.49430878  0.99202234  0.37656045  1
  O  O334  1  0.49285076  0.99181582  0.87691170  1
  O  O335  1  0.98975060  0.49215107  0.38099837  1
  O  O336  1  0.99626600  0.49091416  0.88657536  1
  O  O337  1  0.99943782  0.99378936  0.38220968  1
  O  O338  1  0.98157918  0.99795955  0.86973453  1
  O  O339  1  0.00066224  0.01789803  0.13367509  1
  O  O340  1  0.00550261  0.00752044  0.61841763  1
  O  O341  1  0.00085460  0.49558218  0.11445823  1
  O  O342  1  0.00485616  0.50699445  0.61963322  1
  O  O343  1  0.51035811  0.00318422  0.12094213  1
  O  O344  1  0.50610890  0.00709244  0.62052720  1
  O  O345  1  0.50441073  0.51153331  0.13275442  1
  O  O346  1  0.50732144  0.50604012  0.62707399  1
  O  O347  1  0.24140193  0.38411512  0.24454645  1
  O  O348  1  0.23582083  0.38728639  0.75388805  1
  O  O349  1  0.23993922  0.88116443  0.24888173  1
  O  O350  1  0.24847261  0.88923271  0.73985347  1
  O  O351  1  0.73700938  0.39108598  0.25513336  1
  O  O352  1  0.73910748  0.39059617  0.75020436  1
  O  O353  1  0.75550881  0.87926089  0.23769317  1
  O  O354  1  0.74501197  0.87900496  0.74107426  1
  O  O355  1  0.25620791  0.11707015  0.25251643  1
  O  O356  1  0.25670760  0.11392036  0.74625441  1
  O  O357  1  0.25348445  0.62617424  0.25460678  1
  O  O358  1  0.25948237  0.61684944  0.74336406  1
  O  O359  1  0.75591802  0.11725825  0.25529341  1
  O  O360  1  0.74232710  0.11547589  0.75396165  1
  O  O361  1  0.74460885  0.61016345  0.25386064  1
  O  O362  1  0.75314503  0.61599409  0.75449321  1
  O  O363  1  0.37314166  0.11459684  0.36468398  1
  O  O364  1  0.38167043  0.11339554  0.87071546  1
  O  O365  1  0.36518644  0.62949443  0.36383789  1
  O  O366  1  0.38010440  0.62696672  0.86050907  1
  O  O367  1  0.86628385  0.12087221  0.36682143  1
  O  O368  1  0.86865500  0.11730207  0.88313587  1
  O  O369  1  0.87861717  0.61080874  0.37581740  1
  O  O370  1  0.86998959  0.62004556  0.86898576  1
  O  O371  1  0.13902762  0.37836078  0.11471781  1
  O  O372  1  0.11921448  0.38406256  0.63494832  1
  O  O373  1  0.12414500  0.87522036  0.13666063  1
  O  O374  1  0.12836566  0.88931877  0.62471717  1
  O  O375  1  0.62313478  0.38899145  0.12828059  1
  O  O376  1  0.63062935  0.38174775  0.63088290  1
  O  O377  1  0.63227037  0.88416100  0.11758660  1
  O  O378  1  0.63210454  0.87972360  0.62446143  1
  O  O379  1  0.12945602  0.25461643  0.24880775  1
  O  O380  1  0.12811716  0.25664551  0.76515841  1
  O  O381  1  0.11037678  0.75896675  0.24582372  1
  O  O382  1  0.12565886  0.75033156  0.75821090  1
  O  O383  1  0.63676821  0.25864592  0.25856575  1
  O  O384  1  0.62526117  0.25817156  0.75630129  1
  O  O385  1  0.61693636  0.74452310  0.25662908  1
  O  O386  1  0.63148229  0.74632277  0.76718298  1
  O  O387  1  0.37337534  0.23246218  0.24347171  1
  O  O388  1  0.37720835  0.23742846  0.76228760  1
  O  O389  1  0.38052720  0.74253287  0.24412498  1
  O  O390  1  0.36463739  0.74568118  0.73975736  1
  O  O391  1  0.87110145  0.23874965  0.25269008  1
  O  O392  1  0.85537963  0.23212684  0.76453466  1
  O  O393  1  0.88928641  0.75128200  0.24222790  1
  O  O394  1  0.87149198  0.73581066  0.74808257  1
  O  O395  1  0.38188139  0.52289402  0.50146622  1
  O  O396  1  0.37203350  0.48726544  0.99743599  1
  O  O397  1  0.37920574  0.99747622  0.49063373  1
  O  O398  1  0.37453984  0.99398832  0.99162612  1
  O  O399  1  0.88065703  0.50219871  0.48937382  1
  O  O400  1  0.88038788  0.49186063  0.99738465  1
  O  O401  1  0.88787514  0.99876743  0.49880361  1
  O  O402  1  0.86301091  0.98629600  0.99057359  1
  O  O403  1  0.13406275  0.01043937  -0.00695346  1
  O  O404  1  0.11439205  0.00486572  0.50621358  1
  O  O405  1  0.11675270  0.50795470  -0.00070681  1
  O  O406  1  0.11453861  0.51143319  0.50953265  1
  O  O407  1  0.62817974  0.00522770  0.00561354  1
  O  O408  1  0.62207736  0.00223695  0.50968973  1
  O  O409  1  0.63165749  0.49709727  0.00597837  1
  O  O410  1  0.63287137  0.50833350  0.50786346  1
  O  O411  1  0.36372106  0.37481247  0.11994792  1
  O  O412  1  0.37855694  0.37312466  0.62770478  1
  O  O413  1  0.37707310  0.86959091  0.11453440  1
  O  O414  1  0.37090812  0.87188313  0.61876968  1
  O  O415  1  0.87981780  0.37460295  0.11695633  1
  O  O416  1  0.86935036  0.36255859  0.64218392  1
  O  O417  1  0.86732927  0.86793633  0.11963771  1
  O  O418  1  0.86185164  0.87376958  0.62206550  1
  O  O419  1  0.12343822  0.12585497  0.38681778  1
  O  O420  1  0.11594206  0.13136226  0.88893345  1
  O  O421  1  0.12965818  0.62380582  0.38673577  1
  O  O422  1  0.12289429  0.63748622  0.88602828  1
  O  O423  1  0.63783588  0.12624142  0.37561101  1
  O  O424  1  0.62444894  0.13026195  0.88380964  1
  O  O425  1  0.62096284  0.63550921  0.38482345  1
  O  O426  1  0.62411754  0.62687120  0.88168040  1
