# generated using pymatgen
data_V85Zn86O256
_symmetry_space_group_name_H-M   'P 1'
_cell_length_a   16.95443904
_cell_length_b   16.94359828
_cell_length_c   16.95437698
_cell_angle_alpha   90.12887689
_cell_angle_beta   89.96542647
_cell_angle_gamma   89.97988784
_symmetry_Int_Tables_number   1
_chemical_formula_structural   V85Zn86O256
_chemical_formula_sum   'V85 Zn86 O256'
_cell_volume   4870.45687300
_cell_formula_units_Z   1
loop_
 _symmetry_equiv_pos_site_id
 _symmetry_equiv_pos_as_xyz
  1  'x, y, z'
loop_
 _atom_site_type_symbol
 _atom_site_label
 _atom_site_symmetry_multiplicity
 _atom_site_fract_x
 _atom_site_fract_y
 _atom_site_fract_z
 _atom_site_occupancy
  V  V0  1  0.62352431  0.87290726  0.75094153  1
  V  V1  1  0.74024597  0.37981340  0.13985893  1
  V  V2  1  0.87474593  0.12275363  0.24779834  1
  V  V3  1  0.62742932  0.49333366  0.62236918  1
  V  V4  1  0.48668883  0.74422726  0.24656689  1
  V  V5  1  0.37733146  0.87735176  0.00589784  1
  V  V6  1  0.75362183  0.62276119  0.36079173  1
  V  V7  1  0.75036937  0.12392915  0.87645743  1
  V  V8  1  0.25550079  0.87362801  0.13425647  1
  V  V9  1  0.75076522  -0.00158119  0.74958667  1
  V  V10  1  0.74222605  0.62078611  0.87951177  1
  V  V11  1  0.62458981  0.12592827  0.49945311  1
  V  V12  1  0.49940707  0.75116408  0.74880208  1
  V  V13  1  0.74936254  0.49181617  0.74750479  1
  V  V14  1  0.12223649  0.87538225  0.75735251  1
  V  V15  1  0.74957492  0.25405396  0.50336656  1
  V  V16  1  -0.00090846  0.75228251  0.76062205  1
  V  V17  1  0.37059766  0.62541196  0.74614800  1
  V  V18  1  -0.00121907  0.25106399  0.75281731  1
  V  V19  1  0.74673147  0.25230626  0.00064983  1
  V  V20  1  0.61535059  0.24650591  0.87408433  1
  V  V21  1  0.10289296  0.75565721  0.37737460  1
  V  V22  1  0.10796913  0.87803454  0.25863280  1
  V  V23  1  0.61939341  0.36943691  0.75026340  1
  V  V24  1  0.12961654  0.50146133  0.62402554  1
  V  V25  1  0.36499655  0.01360468  0.38090732  1
  V  V26  1  0.37344356  0.87833049  0.50184586  1
  V  V27  1  0.24355199  0.62772519  0.87698522  1
  V  V28  1  0.62080196  0.61955067  0.49747483  1
  V  V29  1  0.49594526  0.61627922  0.62030933  1
  V  V30  1  0.62446673  0.26263825  0.36794682  1
  V  V31  1  0.74603599  0.00073458  0.24664769  1
  V  V32  1  0.87108617  0.49956336  0.35462779  1
  V  V33  1  0.17280604  0.54910983  0.17384793  1
  V  V34  1  0.13351350  0.36232315  0.24409921  1
  V  V35  1  0.75165893  0.74534475  0.00173732  1
  V  V36  1  0.37668502  0.24523992  0.62250213  1
  V  V37  1  0.00149335  0.12598622  0.62368749  1
  V  V38  1  0.37925892  0.37837415  0.00817919  1
  V  V39  1  0.00094010  0.62452552  0.62308143  1
  V  V40  1  0.62121804  0.88116695  0.24647490  1
  V  V41  1  0.62547649  -0.00096304  0.62463176  1
  V  V42  1  0.62176941  0.11114866  0.00559915  1
  V  V43  1  0.87201258  0.37964512  0.50203931  1
  V  V44  1  0.37202637  0.13292949  0.25601377  1
  V  V45  1  0.50606941  0.26877225  0.24375133  1
  V  V46  1  0.87510851  0.25099123  0.12458530  1
  V  V47  1  0.87406884  0.74909863  0.62566770  1
  V  V48  1  0.24839597  0.74832998  0.49002736  1
  V  V49  1  0.74983199  0.87253876  0.62344069  1
  V  V50  1  0.61782013  0.74529205  0.88463423  1
  V  V51  1  0.12898101  0.13663394  0.48778661  1
  V  V52  1  0.00329012  0.12438464  0.11870607  1
  V  V53  1  0.88277990  -0.00927531  0.87586771  1
  V  V54  1  0.87439515  0.49787127  0.87982088  1
  V  V55  1  0.74902924  0.74826386  0.49953523  1
  V  V56  1  0.87224418  0.25466969  0.62562693  1
  V  V57  1  0.41829313  0.49450203  0.38166485  1
  V  V58  1  0.12518361  0.37512034  0.75043238  1
  V  V59  1  0.87296596  0.62315103  0.74957338  1
  V  V60  1  0.35325379  0.00170969  0.87420742  1
  V  V61  1  0.00254099  0.36768800  0.37043233  1
  V  V62  1  0.37444324  0.74974121  0.62181626  1
  V  V63  1  0.87454902  0.12522454  0.75010179  1
  V  V64  1  -0.00904744  0.62246084  0.13477731  1
  V  V65  1  0.36849768  0.12919328  0.75895409  1
  V  V66  1  0.62281854  0.51577632  0.12523927  1
  V  V67  1  0.13231118  0.24331726  0.87815310  1
  V  V68  1  0.24979793  0.87635377  0.63180950  1
  V  V69  1  0.37778800  0.49746858  0.87086368  1
  V  V70  1  0.62248018  0.75082534  0.37438331  1
  V  V71  1  0.49877225  0.00511872  0.50088051  1
  V  V72  1  0.12876170  0.00239303  0.62863136  1
  V  V73  1  0.01467493  0.50608214  0.00068301  1
  V  V74  1  0.50187580  0.10823519  0.12700186  1
  V  V75  1  0.87893192  -0.00724332  0.37370815  1
  V  V76  1  0.49943371  0.88599471  0.88019786  1
  V  V77  1  0.74821546  0.87915237  0.12169721  1
  V  V78  1  0.00123311  -0.00600021  0.49809037  1
  V  V79  1  0.13099140  0.61693019  0.48834888  1
  V  V80  1  0.49700253  0.87766327  0.37612975  1
  V  V81  1  0.24725842  0.75019698  0.00456309  1
  V  V82  1  0.12703424  -0.00052356  0.12614842  1
  V  V83  1  0.87529368  0.74586943  0.14141057  1
  V  V84  1  0.74967033  0.12395430  0.37365748  1
  Zn  Zn85  1  0.88328280  0.86610703  -0.00269636  1
  Zn  Zn86  1  0.51196180  0.51126849  -0.00670851  1
  Zn  Zn87  1  0.28712079  0.20207815  0.43079748  1
  Zn  Zn88  1  -0.00615388  0.50075458  0.49810691  1
  Zn  Zn89  1  0.00115004  0.37427864  0.87995438  1
  Zn  Zn90  1  0.88259042  0.86902156  0.49547862  1
  Zn  Zn91  1  0.49455922  0.36821031  0.87161155  1
  Zn  Zn92  1  0.25927175  0.24455391  -0.00119049  1
  Zn  Zn93  1  0.24760394  0.00730168  0.25741807  1
  Zn  Zn94  1  0.28455508  0.56109164  0.32180102  1
  Zn  Zn95  1  0.24261683  0.37849936  0.11751044  1
  Zn  Zn96  1  0.49106148  0.64096594  0.10769070  1
  Zn  Zn97  1  0.00521911  -0.00994286  -0.00399990  1
  Zn  Zn98  1  0.13850296  0.11704977  -0.00625441  1
  Zn  Zn99  1  0.11911157  0.75028891  0.88398123  1
  Zn  Zn100  1  0.87540026  0.37786970  0.00296332  1
  Zn  Zn101  1  0.24310613  0.35623854  0.61731292  1
  Zn  Zn102  1  0.38760841  0.38155230  0.50453801  1
  Zn  Zn103  1  0.25071148  0.49847262  0.74635299  1
  Zn  Zn104  1  0.37652763  0.24737822  0.12377500  1
  Zn  Zn105  1  0.50353134  0.12512352  0.64170808  1
  Zn  Zn106  1  0.00534721  0.24526949  0.25127117  1
  Zn  Zn107  1  0.19479904  0.19143446  0.17936108  1
  Zn  Zn108  1  0.19208395  0.18137174  0.69478204  1
  Zn  Zn109  1  0.17991609  0.70899688  0.18812984  1
  Zn  Zn110  1  0.18655157  0.69039217  0.68456020  1
  Zn  Zn111  1  0.68452906  0.18850868  0.18466092  1
  Zn  Zn112  1  0.68865547  0.18768051  0.68699052  1
  Zn  Zn113  1  0.68007615  0.69329334  0.18604616  1
  Zn  Zn114  1  0.68465088  0.68296095  0.68994790  1
  Zn  Zn115  1  0.33041200  0.33712853  0.30326260  1
  Zn  Zn116  1  0.30981738  0.31282147  0.80657077  1
  Zn  Zn117  1  0.31045956  0.81725564  0.31647472  1
  Zn  Zn118  1  0.31153972  0.81302966  0.81489862  1
  Zn  Zn119  1  0.81428678  0.31048999  0.31343870  1
  Zn  Zn120  1  0.80880449  0.31331986  0.81500907  1
  Zn  Zn121  1  0.80904312  0.81396824  0.31283279  1
  Zn  Zn122  1  0.80884426  0.80944947  0.81262904  1
  Zn  Zn123  1  0.21330187  0.39060324  0.41532023  1
  Zn  Zn124  1  0.19456419  0.43447360  0.93257588  1
  Zn  Zn125  1  0.18535849  0.93861495  0.44242400  1
  Zn  Zn126  1  0.18514662  0.93070292  0.94419934  1
  Zn  Zn127  1  0.68947252  0.43995809  0.43497596  1
  Zn  Zn128  1  0.68513727  0.43346397  0.94042610  1
  Zn  Zn129  1  0.68853751  0.93713855  0.43526034  1
  Zn  Zn130  1  0.69174362  0.93350987  0.93578889  1
  Zn  Zn131  1  0.31366427  0.06243332  0.06308853  1
  Zn  Zn132  1  0.30864243  0.06880457  0.56965235  1
  Zn  Zn133  1  0.32181745  0.56948989  0.05570699  1
  Zn  Zn134  1  0.28296898  0.51916940  0.50499870  1
  Zn  Zn135  1  0.81211259  0.06217497  0.05981703  1
  Zn  Zn136  1  0.81385469  0.06286178  0.56135157  1
  Zn  Zn137  1  0.81041207  0.56058408  0.06415129  1
  Zn  Zn138  1  0.80800248  0.56270153  0.56109206  1
  Zn  Zn139  1  0.41964927  0.48870304  0.17955730  1
  Zn  Zn140  1  0.43817456  0.43498530  0.68559770  1
  Zn  Zn141  1  0.43372570  0.94059765  0.19480152  1
  Zn  Zn142  1  0.43679790  0.94434356  0.69233491  1
  Zn  Zn143  1  0.94343940  0.43295383  0.18168016  1
  Zn  Zn144  1  0.93845128  0.43700471  0.68768351  1
  Zn  Zn145  1  0.93409626  0.93769871  0.18020256  1
  Zn  Zn146  1  0.93908623  0.93573549  0.68557341  1
  Zn  Zn147  1  0.05966780  0.06376617  0.31145721  1
  Zn  Zn148  1  0.06355847  0.06314814  0.80955376  1
  Zn  Zn149  1  0.05952453  0.55696801  0.31822205  1
  Zn  Zn150  1  0.06074138  0.56263538  0.81229472  1
  Zn  Zn151  1  0.55810275  0.06744049  0.31419650  1
  Zn  Zn152  1  0.56139902  0.06340713  0.81461701  1
  Zn  Zn153  1  0.57630727  0.56246924  0.29915723  1
  Zn  Zn154  1  0.55970918  0.56228918  0.80889078  1
  Zn  Zn155  1  0.46514747  0.22885721  0.45511190  1
  Zn  Zn156  1  0.43596695  0.18065920  0.94259347  1
  Zn  Zn157  1  0.43341063  0.68158989  0.43154192  1
  Zn  Zn158  1  0.42995315  0.69096579  0.93674125  1
  Zn  Zn159  1  0.93796254  0.18415319  0.43817749  1
  Zn  Zn160  1  0.93979522  0.18455338  0.93855962  1
  Zn  Zn161  1  0.93435900  0.68184139  0.43676690  1
  Zn  Zn162  1  0.93480740  0.67988707  0.94210029  1
  Zn  Zn163  1  0.05974825  0.31522402  0.06035630  1
  Zn  Zn164  1  0.05735161  0.31468814  0.56172628  1
  Zn  Zn165  1  0.06054442  0.81099993  0.06635187  1
  Zn  Zn166  1  0.06390722  0.81038127  0.56645739  1
  Zn  Zn167  1  0.55879043  0.31386687  0.06027091  1
  Zn  Zn168  1  0.56112093  0.31022963  0.57479559  1
  Zn  Zn169  1  0.56168998  0.81561119  0.06456407  1
  Zn  Zn170  1  0.56043672  0.81138927  0.56119946  1
  O  O171  1  0.11870267  0.11645943  0.12725323  1
  O  O172  1  0.12063484  0.11710481  0.62353329  1
  O  O173  1  0.11540655  0.62288064  0.12834286  1
  O  O174  1  0.11588622  0.62199409  0.61990733  1
  O  O175  1  0.61325165  0.12490541  0.11908464  1
  O  O176  1  0.62572844  0.11739149  0.61835900  1
  O  O177  1  0.62023365  0.62016474  0.12229677  1
  O  O178  1  0.61766059  0.61692918  0.61892519  1
  O  O179  1  0.39238614  0.39004397  0.38476621  1
  O  O180  1  0.37511013  0.38307979  0.87309176  1
  O  O181  1  0.37930894  0.88607521  0.38452209  1
  O  O182  1  0.38044618  0.88485955  0.87937505  1
  O  O183  1  0.87649491  0.38558905  0.37955380  1
  O  O184  1  0.87599089  0.38751034  0.87420621  1
  O  O185  1  0.86715936  0.88871257  0.37818205  1
  O  O186  1  0.86814652  0.88787741  0.87320777  1
  O  O187  1  0.26212667  -0.00316993  0.37867313  1
  O  O188  1  0.25552390  -0.00624851  0.87580350  1
  O  O189  1  0.22657999  0.50780354  0.40245726  1
  O  O190  1  0.26077316  0.50878957  0.86909248  1
  O  O191  1  0.75586842  0.00587332  0.36850555  1
  O  O192  1  0.75801130  0.00433921  0.86736469  1
  O  O193  1  0.76291307  0.50765895  0.37600849  1
  O  O194  1  0.75295709  0.50480068  0.86984095  1
  O  O195  1  0.23584264  0.50027743  0.10993550  1
  O  O196  1  0.23199877  0.51075948  0.62633014  1
  O  O197  1  0.23889788  0.99375097  0.13042395  1
  O  O198  1  0.23934966  0.98948060  0.62006305  1
  O  O199  1  0.74451390  0.48501878  0.11870400  1
  O  O200  1  0.73922034  0.50761510  0.63652627  1
  O  O201  1  0.75692858  0.98964326  0.13178157  1
  O  O202  1  0.74607766  0.99339408  0.62931707  1
  O  O203  1  0.00547099  0.36890609  0.25390733  1
  O  O204  1  0.00929679  0.36880797  0.75139238  1
  O  O205  1  0.00998356  0.88228152  0.24949781  1
  O  O206  1  0.00829253  0.86313209  0.74280844  1
  O  O207  1  0.50020390  0.36425946  0.24124380  1
  O  O208  1  0.51548813  0.37816489  0.75297283  1
  O  O209  1  0.50482031  0.87111308  0.25660232  1
  O  O210  1  0.50528087  0.87073951  0.75677042  1
  O  O211  1  0.49276705  0.12634122  0.23944848  1
  O  O212  1  0.48024136  0.11056131  0.75412812  1
  O  O213  1  0.50883641  0.64538266  0.25362869  1
  O  O214  1  0.49083680  0.63094335  0.74120179  1
  O  O215  1  0.99294938  0.12595652  0.23848688  1
  O  O216  1  0.99277094  0.13121576  0.74342090  1
  O  O217  1  0.99906877  0.61449010  0.23342491  1
  O  O218  1  0.99249699  0.63159639  0.74356408  1
  O  O219  1  0.38129129  0.26539714  -0.00002949  1
  O  O220  1  0.36721582  0.22732977  0.51802076  1
  O  O221  1  0.36194359  0.76873326  -0.00762231  1
  O  O222  1  0.36731402  0.75468425  0.50232996  1
  O  O223  1  0.86769184  0.24686968  0.00989530  1
  O  O224  1  0.86812505  0.25545104  0.50453234  1
  O  O225  1  0.86141653  0.74743173  0.00244281  1
  O  O226  1  0.86577144  0.74911999  0.50586165  1
  O  O227  1  0.11886386  0.23539734  0.50505861  1
  O  O228  1  0.12131698  0.25223636  0.98341912  1
  O  O229  1  0.12944292  0.74597747  0.49341027  1
  O  O230  1  0.14063342  0.75783845  0.99974717  1
  O  O231  1  0.63449445  0.24252736  0.49495705  1
  O  O232  1  0.63128620  0.24247629  0.99229887  1
  O  O233  1  0.63073886  0.74397757  0.49431871  1
  O  O234  1  0.63439944  0.75582166  0.98941481  1
  O  O235  1  0.50052178  0.24397980  0.13508840  1
  O  O236  1  0.48454881  0.23915523  0.63211633  1
  O  O237  1  0.50117988  0.75478191  0.14142242  1
  O  O238  1  0.49515248  0.74259624  0.62978197  1
  O  O239  1  0.99115380  0.24209913  0.12344380  1
  O  O240  1  0.99308192  0.24463662  0.63269170  1
  O  O241  1  0.98935220  0.73216861  0.11991105  1
  O  O242  1  0.99447532  0.73984767  0.63225600  1
  O  O243  1  -0.01415120  0.26320427  0.37048519  1
  O  O244  1  0.00419114  0.25219603  0.86779348  1
  O  O245  1  0.00351606  0.75804343  0.38622477  1
  O  O246  1  -0.00091383  0.74058767  0.86434388  1
  O  O247  1  0.51570561  0.23983417  0.35377454  1
  O  O248  1  0.51296080  0.24454511  0.87825786  1
  O  O249  1  0.50443403  0.75823162  0.37087675  1
  O  O250  1  0.50535672  0.75758576  0.86788336  1
  O  O251  1  0.23410125  0.12329186  0.49831610  1
  O  O252  1  0.25011230  0.13099292  1.00345521  1
  O  O253  1  0.23469618  0.63519703  0.50775099  1
  O  O254  1  0.25875185  0.63695408  0.98871295  1
  O  O255  1  0.74224269  0.12922124  0.49504770  1
  O  O256  1  0.74308322  0.13430331  0.99835174  1
  O  O257  1  0.74068383  0.63483014  0.49594850  1
  O  O258  1  0.75145095  0.62981706  0.98734024  1
  O  O259  1  0.26590390  0.37160528  -0.00349203  1
  O  O260  1  0.26999540  0.39686125  0.51568957  1
  O  O261  1  0.25572339  0.87120839  0.01377680  1
  O  O262  1  0.25391389  0.86799638  0.50993806  1
  O  O263  1  0.75448714  0.35997305  0.00083632  1
  O  O264  1  0.76027751  0.36508662  0.49532120  1
  O  O265  1  0.75347573  0.86540149  0.00700291  1
  O  O266  1  0.74809152  0.86184982  0.50451836  1
  O  O267  1  0.11892781  0.49209135  0.24064696  1
  O  O268  1  0.12263548  0.49146645  0.74348220  1
  O  O269  1  0.12753502  0.99257166  0.24834081  1
  O  O270  1  0.11650345  0.99122830  0.73690767  1
  O  O271  1  0.63675994  0.50134398  0.22602285  1
  O  O272  1  0.63144595  0.49416167  0.74319027  1
  O  O273  1  0.62740239  0.98811966  0.25853853  1
  O  O274  1  0.63155157  0.99349284  0.74573806  1
  O  O275  1  0.37441118  0.01214340  0.26544439  1
  O  O276  1  0.37299035  0.00003436  0.76914634  1
  O  O277  1  0.36882768  0.48673545  0.27987976  1
  O  O278  1  0.37278207  0.50868856  0.75024110  1
  O  O279  1  0.86979047  0.00369044  0.25622576  1
  O  O280  1  0.87107461  0.00266227  0.75715448  1
  O  O281  1  0.87432800  0.49406955  0.25700634  1
  O  O282  1  0.86687309  0.50286138  0.75508533  1
  O  O283  1  0.11016297  0.38084371  0.35609327  1
  O  O284  1  0.12277037  0.36688619  0.86535037  1
  O  O285  1  0.12530904  0.87380444  0.36580537  1
  O  O286  1  0.12860510  0.87335791  0.86055379  1
  O  O287  1  0.63363739  0.36099450  0.37649592  1
  O  O288  1  0.62448082  0.36351503  0.86844296  1
  O  O289  1  0.61739580  0.87114167  0.37010373  1
  O  O290  1  0.61850469  0.86649183  0.87174367  1
  O  O291  1  0.38886151  0.12378234  0.13218720  1
  O  O292  1  0.37689701  0.12684884  0.64139445  1
  O  O293  1  0.39165865  0.59274830  0.13680669  1
  O  O294  1  0.38439293  0.63230057  0.63083223  1
  O  O295  1  0.88179469  0.12903727  0.12737846  1
  O  O296  1  0.88003199  0.13225783  0.63000380  1
  O  O297  1  0.88215408  0.63015942  0.12351143  1
  O  O298  1  0.87936871  0.62950952  0.62973461  1
  O  O299  1  0.26008648  0.26089221  0.11905726  1
  O  O300  1  0.26669216  0.24438153  0.63578591  1
  O  O301  1  0.25190707  0.76173599  0.11972056  1
  O  O302  1  0.25508316  0.75747797  0.61512674  1
  O  O303  1  0.75561204  0.25496763  0.11822425  1
  O  O304  1  0.75586897  0.24455206  0.61095902  1
  O  O305  1  0.75503355  0.75334040  0.11760198  1
  O  O306  1  0.75236004  0.75077666  0.61916007  1
  O  O307  1  0.25360302  0.28878904  0.37417522  1
  O  O308  1  0.23427028  0.25264659  0.87311590  1
  O  O309  1  0.24221566  0.75559363  0.38744884  1
  O  O310  1  0.24739891  0.74454651  0.88236039  1
  O  O311  1  0.74769070  0.24180171  0.38302116  1
  O  O312  1  0.74491325  0.24192461  0.88303938  1
  O  O313  1  0.74555723  0.74480575  0.38357055  1
  O  O314  1  0.74190026  0.74119823  0.88092301  1
  O  O315  1  0.00358495  0.11843519  0.01123616  1
  O  O316  1  0.00712505  0.11713955  0.50611181  1
  O  O317  1  -0.00009125  0.61214850  0.00765805  1
  O  O318  1  0.00628863  0.62516688  0.50898140  1
  O  O319  1  0.50732953  0.12576887  0.01652730  1
  O  O320  1  0.51630625  0.12510499  0.49997819  1
  O  O321  1  0.49702551  0.62610574  -0.00544879  1
  O  O322  1  0.51410623  0.63492236  0.50823391  1
  O  O323  1  0.49148189  0.33493310  0.49445447  1
  O  O324  1  0.49038821  0.37962409  0.99165725  1
  O  O325  1  0.49278403  0.88289997  0.49673943  1
  O  O326  1  0.49017464  0.86804324  0.99239782  1
  O  O327  1  0.98899648  0.37557151  0.49007229  1
  O  O328  1  0.99437757  0.38994177  0.99932601  1
  O  O329  1  1.00035889  0.88934891  0.50887414  1
  O  O330  1  0.99486891  0.87731600  1.00623744  1
  O  O331  1  0.51747854  0.50060601  0.37346573  1
  O  O332  1  0.48716877  0.49982784  0.87077764  1
  O  O333  1  0.48970613  0.99878377  0.38391666  1
  O  O334  1  0.50167038  0.98669448  0.87810115  1
  O  O335  1  0.98391468  0.49062117  0.37616564  1
  O  O336  1  0.99098918  0.50252788  0.88398879  1
  O  O337  1  0.98997493  1.00524564  0.38444108  1
  O  O338  1  0.98546826  1.00417088  0.87320090  1
  O  O339  1  0.01071187  0.00688124  0.12626549  1
  O  O340  1  0.00451062  0.00721450  0.61814369  1
  O  O341  1  -0.00565648  0.50948706  0.11073390  1
  O  O342  1  0.00371923  0.51376490  0.62877248  1
  O  O343  1  0.50179939  0.00932010  0.13004364  1
  O  O344  1  0.50765230  0.00163525  0.61815212  1
  O  O345  1  0.52026935  0.49413420  0.12004483  1
  O  O346  1  0.50958970  0.51040567  0.62956980  1
  O  O347  1  0.23517942  0.38077437  0.24204871  1
  O  O348  1  0.23626507  0.37775418  0.74189112  1
  O  O349  1  0.24590151  0.87915508  0.24328433  1
  O  O350  1  0.24137415  0.86648265  0.73752146  1
  O  O351  1  0.75121868  0.36948065  0.23768690  1
  O  O352  1  0.74115536  0.38699231  0.75435739  1
  O  O353  1  0.74080003  0.88051444  0.24329975  1
  O  O354  1  0.74270179  0.87757451  0.74382314  1
  O  O355  1  0.26804525  0.12668374  0.24370325  1
  O  O356  1  0.26756516  0.11614920  0.75332850  1
  O  O357  1  0.23048041  0.61195661  0.23371652  1
  O  O358  1  0.26080251  0.62868167  0.75178985  1
  O  O359  1  0.75367638  0.11895137  0.25234184  1
  O  O360  1  0.75632502  0.11786535  0.75417025  1
  O  O361  1  0.74420338  0.63527656  0.26278535  1
  O  O362  1  0.75363618  0.61643756  0.75993838  1
  O  O363  1  0.37157011  0.12571331  0.37192593  1
  O  O364  1  0.37592669  0.10973162  0.87331355  1
  O  O365  1  0.38021065  0.60220069  0.37482727  1
  O  O366  1  0.36628931  0.62119088  0.86198457  1
  O  O367  1  0.86850580  0.11591633  0.36955371  1
  O  O368  1  0.86928006  0.11697204  0.86914487  1
  O  O369  1  0.86884749  0.60859651  0.37767458  1
  O  O370  1  0.86569078  0.61439055  0.86866868  1
  O  O371  1  0.12062071  0.37262783  0.13857671  1
  O  O372  1  0.12246116  0.38323939  0.62988935  1
  O  O373  1  0.13018612  0.88019793  0.14091675  1
  O  O374  1  0.13205282  0.88071911  0.63163218  1
  O  O375  1  0.64080474  0.36851108  0.12163002  1
  O  O376  1  0.62513807  0.38424527  0.63277880  1
  O  O377  1  0.63749701  0.87135369  0.13281655  1
  O  O378  1  0.63001667  0.87911052  0.62925445  1
  O  O379  1  0.12481406  0.25868433  0.24768388  1
  O  O380  1  0.11954858  0.25435307  0.75757277  1
  O  O381  1  0.12127399  0.76804332  0.26337589  1
  O  O382  1  0.11455921  0.75749980  0.74953278  1
  O  O383  1  0.61757521  0.24871146  0.25505507  1
  O  O384  1  0.63470226  0.25791970  0.75953456  1
  O  O385  1  0.61974260  0.76505619  0.25783076  1
  O  O386  1  0.62045966  0.75464186  0.75913531  1
  O  O387  1  0.39043762  0.24859568  0.24826442  1
  O  O388  1  0.37482856  0.23495247  0.75095700  1
  O  O389  1  0.38808484  0.75409483  0.25993448  1
  O  O390  1  0.37966387  0.74487872  0.74408360  1
  O  O391  1  0.87292498  0.24117547  0.23715983  1
  O  O392  1  0.87682778  0.24687641  0.74535522  1
  O  O393  1  0.87134783  0.75217361  0.24076480  1
  O  O394  1  0.87965301  0.74464298  0.74574103  1
  O  O395  1  0.39717212  0.50278345  0.48802567  1
  O  O396  1  0.37744613  0.48989661  0.98542391  1
  O  O397  1  0.37987679  1.00166502  0.49885564  1
  O  O398  1  0.37038725  0.98775904  0.98727295  1
  O  O399  1  0.87378608  0.48908129  0.50206468  1
  O  O400  1  0.87750108  0.50026902  0.99014395  1
  O  O401  1  0.88309823  0.99954246  0.49224584  1
  O  O402  1  0.87310249  0.99929236  0.98310182  1
  O  O403  1  0.12346325  -0.00047053  0.01144300  1
  O  O404  1  0.11762541  0.00742182  0.50944043  1
  O  O405  1  0.11237939  0.49711236  -0.01110599  1
  O  O406  1  0.11092171  0.50957660  0.51194784  1
  O  O407  1  0.63431627  0.01259150  -0.00432987  1
  O  O408  1  0.62189353  0.00712656  0.50373052  1
  O  O409  1  0.62832094  0.49480369  0.01447280  1
  O  O410  1  0.63413483  0.50845388  0.50989467  1
  O  O411  1  0.37675737  0.38918726  0.11049288  1
  O  O412  1  0.37781936  0.35519648  0.63068154  1
  O  O413  1  0.36623487  0.88547791  0.11941014  1
  O  O414  1  0.36846157  0.87230546  0.62195530  1
  O  O415  1  0.86526969  0.36550995  0.12328619  1
  O  O416  1  0.88039781  0.36616295  0.61599433  1
  O  O417  1  0.86325614  0.86476335  0.12453994  1
  O  O418  1  0.86668107  0.86708204  0.62216138  1
  O  O419  1  0.11917497  0.12517933  0.38870899  1
  O  O420  1  0.11921801  0.13869671  0.87464799  1
  O  O421  1  0.11179284  0.63744455  0.38224229  1
  O  O422  1  0.14035337  0.62764195  0.86457121  1
  O  O423  1  0.63319694  0.12887566  0.38223035  1
  O  O424  1  0.63168084  0.12892178  0.88098716  1
  O  O425  1  0.63382721  0.62936590  0.38238858  1
  O  O426  1  0.63142557  0.63380500  0.86660163  1
