# generated using pymatgen
data_V85Zn86O256
_symmetry_space_group_name_H-M   'P 1'
_cell_length_a   16.94726488
_cell_length_b   16.92360828
_cell_length_c   16.94038976
_cell_angle_alpha   90.00829405
_cell_angle_beta   89.98847023
_cell_angle_gamma   90.01336617
_symmetry_Int_Tables_number   1
_chemical_formula_structural   V85Zn86O256
_chemical_formula_sum   'V85 Zn86 O256'
_cell_volume   4858.65380178
_cell_formula_units_Z   1
loop_
 _symmetry_equiv_pos_site_id
 _symmetry_equiv_pos_as_xyz
  1  'x, y, z'
loop_
 _atom_site_type_symbol
 _atom_site_label
 _atom_site_symmetry_multiplicity
 _atom_site_fract_x
 _atom_site_fract_y
 _atom_site_fract_z
 _atom_site_occupancy
  V  V0  1  -0.01374086  0.40842463  0.38133187  1
  V  V1  1  0.25514639  0.36834217  0.62462626  1
  V  V2  1  0.62331883  0.37415830  0.74973167  1
  V  V3  1  0.61162833  0.50516776  0.62224570  1
  V  V4  1  -0.00036805  0.12556312  0.62864209  1
  V  V5  1  0.49989280  -0.00836981  0.48293933  1
  V  V6  1  0.49090363  -0.00189214  -0.00007194  1
  V  V7  1  0.38597826  0.62313722  0.74515961  1
  V  V8  1  0.60836985  0.12640143  0.50081860  1
  V  V9  1  0.49091836  0.13157308  0.13118422  1
  V  V10  1  0.74916452  0.75003519  -0.00006714  1
  V  V11  1  0.37911528  0.12182630  0.73940674  1
  V  V12  1  0.00021755  -0.00061503  0.00066671  1
  V  V13  1  0.12627197  0.74811168  0.37541363  1
  V  V14  1  0.13003465  0.14259307  0.49244200  1
  V  V15  1  0.62390283  0.76012949  0.37212913  1
  V  V16  1  0.74923916  0.50397371  0.24558428  1
  V  V17  1  0.12932447  0.62426586  -0.01386216  1
  V  V18  1  0.38286334  0.50332333  0.38191826  1
  V  V19  1  0.75005318  0.12537749  0.37498786  1
  V  V20  1  0.00007770  0.75028013  0.25085217  1
  V  V21  1  0.00334477  0.86866048  0.87671186  1
  V  V22  1  0.38569719  0.74462948  0.62037912  1
  V  V23  1  0.74830728  -0.00628702  0.24983917  1
  V  V24  1  0.87341338  0.12928865  0.24524396  1
  V  V25  1  0.12662122  0.00086429  0.13084329  1
  V  V26  1  0.74711035  0.37523760  0.62613043  1
  V  V27  1  0.74783035  0.24724684  0.49964036  1
  V  V28  1  0.61423385  0.00067082  0.63019800  1
  V  V29  1  0.87521797  0.75165550  0.12435386  1
  V  V30  1  0.13090110  0.49825247  0.13538329  1
  V  V31  1  0.75812464  0.24284954  -0.00518877  1
  V  V32  1  0.87530586  0.25148820  0.62491193  1
  V  V33  1  0.87390387  0.87750747  0.50324051  1
  V  V34  1  0.12665555  0.86361541  0.75377391  1
  V  V35  1  0.12911738  0.12409306  -0.00083234  1
  V  V36  1  0.38335090  0.24304277  0.61422330  1
  V  V37  1  0.13017226  0.24767619  0.87372762  1
  V  V38  1  0.00215622  0.00194530  0.50147347  1
  V  V39  1  0.62342177  0.75667583  0.86619384  1
  V  V40  1  0.26052011  0.25121948  0.00463490  1
  V  V41  1  0.26104298  0.12098086  0.87558626  1
  V  V42  1  0.37319421  0.50432591  0.87614661  1
  V  V43  1  0.62506283  0.62615594  -0.00196721  1
  V  V44  1  0.12774211  0.87734601  0.25133099  1
  V  V45  1  0.12246484  0.49749971  0.61616262  1
  V  V46  1  0.12884724  0.00038595  0.62636644  1
  V  V47  1  0.25801172  0.37773393  0.13123739  1
  V  V48  1  0.38076470  0.37506973  0.50007571  1
  V  V49  1  0.24877750  0.74587879  0.49870221  1
  V  V50  1  0.50446905  0.37748450  0.37738689  1
  V  V51  1  0.00090084  0.87679517  0.37619536  1
  V  V52  1  -0.00151027  0.25703396  0.26784222  1
  V  V53  1  0.00548143  0.62391240  0.12427987  1
  V  V54  1  0.00089750  0.37458282  0.87834256  1
  V  V55  1  0.62247941  -0.00531239  0.12708562  1
  V  V56  1  0.87750702  0.50381897  0.87148186  1
  V  V57  1  0.50121092  0.37053377  0.87610226  1
  V  V58  1  0.75399038  0.62732560  0.86447912  1
  V  V59  1  0.75169213  0.74917424  0.49336769  1
  V  V60  1  0.37719195  0.87519215  0.48539266  1
  V  V61  1  0.60815697  0.62208640  0.49486891  1
  V  V62  1  0.25070216  0.50633949  0.75280839  1
  V  V63  1  0.37311849  0.62118557  0.24846368  1
  V  V64  1  0.13027333  0.37344499  0.75109979  1
  V  V65  1  0.00191624  0.24722217  0.75056924  1
  V  V66  1  0.86723269  0.00412682  0.87414010  1
  V  V67  1  0.25112684  0.87335179  0.12656719  1
  V  V68  1  0.50066843  0.49998071  0.00001901  1
  V  V69  1  0.25119386  0.87296278  0.62270409  1
  V  V70  1  0.75866385  0.36817385  0.12271470  1
  V  V71  1  0.30405786  0.06557981  0.31741366  1
  V  V72  1  0.87448804  0.62146482  0.25033009  1
  V  V73  1  0.62572617  0.36962590  0.24600981  1
  V  V74  1  0.81233682  0.56701884  0.41940845  1
  V  V75  1  0.49412625  0.87945917  0.86507692  1
  V  V76  1  0.62529689  0.12437932  -0.00596624  1
  V  V77  1  0.74381866  0.87913718  0.63432076  1
  V  V78  1  0.24787048  0.61265578  0.37185046  1
  V  V79  1  -0.00165944  0.13965363  0.12377906  1
  V  V80  1  0.25370871  -0.00189980  0.75288518  1
  V  V81  1  0.87678805  0.74924061  0.63656370  1
  V  V82  1  0.24871352  0.74802275  -0.01451130  1
  V  V83  1  0.50151216  0.62586153  0.12677110  1
  V  V84  1  0.50296665  0.76563470  0.25037946  1
  Zn  Zn85  1  0.37257590  0.87544911  -0.00289254  1
  Zn  Zn86  1  0.47516430  0.25764055  0.23835978  1
  Zn  Zn87  1  0.50108015  0.24353591  0.74579838  1
  Zn  Zn88  1  0.14967257  0.34935629  0.28830008  1
  Zn  Zn89  1  -0.00878225  0.61401482  0.62661849  1
  Zn  Zn90  1  0.00236285  0.73897473  0.75783904  1
  Zn  Zn91  1  0.62508215  0.24815686  0.36999504  1
  Zn  Zn92  1  0.37458631  0.75149008  0.12282552  1
  Zn  Zn93  1  0.38007781  0.37133289  0.00388675  1
  Zn  Zn94  1  0.87407592  0.87588785  0.00167327  1
  Zn  Zn95  1  0.63073456  0.24291734  0.86903831  1
  Zn  Zn96  1  0.86447070  0.12823127  0.75559331  1
  Zn  Zn97  1  0.87846229  0.37256324  0.00258349  1
  Zn  Zn98  1  0.11758094  0.61631319  0.49722562  1
  Zn  Zn99  1  0.62642039  0.49815070  0.12150040  1
  Zn  Zn100  1  0.87119138  0.38914400  0.49873367  1
  Zn  Zn101  1  0.74453881  0.87160551  0.12965503  1
  Zn  Zn102  1  0.87605027  0.00285471  0.37488457  1
  Zn  Zn103  1  0.50565042  0.75095568  0.74316292  1
  Zn  Zn104  1  0.73860534  0.00578408  0.75734835  1
  Zn  Zn105  1  0.75119055  0.50037468  0.75172751  1
  Zn  Zn106  1  0.00265687  0.49921854  0.00091413  1
  Zn  Zn107  1  0.18791276  0.19089380  0.18931475  1
  Zn  Zn108  1  0.19230126  0.18536878  0.68121652  1
  Zn  Zn109  1  0.18913834  0.68859350  0.18516400  1
  Zn  Zn110  1  0.19250069  0.68179728  0.68655570  1
  Zn  Zn111  1  0.68593976  0.18458616  0.18015483  1
  Zn  Zn112  1  0.68559675  0.18261967  0.68759574  1
  Zn  Zn113  1  0.68511022  0.68756876  0.18881802  1
  Zn  Zn114  1  0.68629636  0.68981308  0.68237953  1
  Zn  Zn115  1  0.30889071  0.30520129  0.32422180  1
  Zn  Zn116  1  0.31788350  0.31008359  0.81045302  1
  Zn  Zn117  1  0.31177473  0.80806418  0.30804467  1
  Zn  Zn118  1  0.31777857  0.81074197  0.80918500  1
  Zn  Zn119  1  0.81460399  0.31382814  0.31232547  1
  Zn  Zn120  1  0.81349646  0.31291241  0.81406168  1
  Zn  Zn121  1  0.81444445  0.81210095  0.31566536  1
  Zn  Zn122  1  0.81109938  0.82184757  0.81654698  1
  Zn  Zn123  1  0.19123244  0.41722945  0.43470190  1
  Zn  Zn124  1  0.19001051  0.43841298  0.94088996  1
  Zn  Zn125  1  0.18861850  0.93978544  0.43866440  1
  Zn  Zn126  1  0.18822524  0.93653812  0.93713038  1
  Zn  Zn127  1  0.68307710  0.43650973  0.43946745  1
  Zn  Zn128  1  0.68936888  0.43636679  0.93754078  1
  Zn  Zn129  1  0.68841969  0.94007791  0.43922689  1
  Zn  Zn130  1  0.68214816  0.93406277  0.94172060  1
  Zn  Zn131  1  0.31252812  0.06081985  0.06859702  1
  Zn  Zn132  1  0.33161899  0.08472716  0.51946392  1
  Zn  Zn133  1  0.31234395  0.56304526  0.06081686  1
  Zn  Zn134  1  0.31028612  0.56029366  0.56220889  1
  Zn  Zn135  1  0.81291591  0.06311179  0.06398507  1
  Zn  Zn136  1  0.80931536  0.06449896  0.56820396  1
  Zn  Zn137  1  0.81504471  0.56116233  0.05869744  1
  Zn  Zn138  1  0.79899355  0.57004068  0.58247803  1
  Zn  Zn139  1  0.43640456  0.44152189  0.19020847  1
  Zn  Zn140  1  0.43845039  0.43530130  0.68874767  1
  Zn  Zn141  1  0.42798612  0.94737765  0.19025964  1
  Zn  Zn142  1  0.43509994  0.93559897  0.67950659  1
  Zn  Zn143  1  0.93912523  0.43821314  0.18673458  1
  Zn  Zn144  1  0.93791499  0.43438911  0.69241906  1
  Zn  Zn145  1  0.93716395  0.94038904  0.18711960  1
  Zn  Zn146  1  0.93885310  0.93471957  0.69147464  1
  Zn  Zn147  1  0.06608749  0.06820790  0.31395071  1
  Zn  Zn148  1  0.06407438  0.05955953  0.81373648  1
  Zn  Zn149  1  0.06158961  0.55710320  0.31457858  1
  Zn  Zn150  1  0.06035320  0.56120898  0.80555738  1
  Zn  Zn151  1  0.56436511  0.06379487  0.30977001  1
  Zn  Zn152  1  0.55889002  0.05977528  0.81346454  1
  Zn  Zn153  1  0.56659764  0.56381579  0.31225441  1
  Zn  Zn154  1  0.56412414  0.56087982  0.81296251  1
  Zn  Zn155  1  0.42011277  0.19912648  0.40242064  1
  Zn  Zn156  1  0.44036443  0.18395031  0.93547273  1
  Zn  Zn157  1  0.43775557  0.69272803  0.43101568  1
  Zn  Zn158  1  0.43552422  0.68921405  0.93531439  1
  Zn  Zn159  1  0.93570096  0.18646648  0.44088188  1
  Zn  Zn160  1  0.93882311  0.18650051  0.93826731  1
  Zn  Zn161  1  0.94588433  0.68941543  0.44680737  1
  Zn  Zn162  1  0.93844911  0.68500525  0.93864843  1
  Zn  Zn163  1  0.07287053  0.31350460  0.06210416  1
  Zn  Zn164  1  0.05615305  0.32320581  0.55756170  1
  Zn  Zn165  1  0.06604217  0.81007820  0.06052995  1
  Zn  Zn166  1  0.06260981  0.81047833  0.56388844  1
  Zn  Zn167  1  0.56866429  0.30939596  0.06135736  1
  Zn  Zn168  1  0.55953662  0.31393461  0.56003273  1
  Zn  Zn169  1  0.56077799  0.81390754  0.05953901  1
  Zn  Zn170  1  0.56484259  0.81517432  0.55690324  1
  O  O171  1  0.11925484  0.11830641  0.12008407  1
  O  O172  1  0.11648688  0.11604032  0.62488116  1
  O  O173  1  0.12264076  0.61843588  0.11941113  1
  O  O174  1  0.13481959  0.60352303  0.62326480  1
  O  O175  1  0.61794879  0.11517773  0.11280664  1
  O  O176  1  0.62617919  0.11013865  0.61354757  1
  O  O177  1  0.61736722  0.62394298  0.11721782  1
  O  O178  1  0.63510716  0.61795860  0.60821275  1
  O  O179  1  0.38482428  0.38604447  0.38261582  1
  O  O180  1  0.38616873  0.38342354  0.87432256  1
  O  O181  1  0.36922080  0.86831353  0.38636929  1
  O  O182  1  0.38988091  0.86969743  0.87787754  1
  O  O183  1  0.88296164  0.37404743  0.38031476  1
  O  O184  1  0.88593547  0.37930460  0.87787696  1
  O  O185  1  0.88070817  0.87764229  0.38889920  1
  O  O186  1  0.88498011  0.88616697  0.87973429  1
  O  O187  1  0.24209787  -0.00299168  0.35961670  1
  O  O188  1  0.24695845  0.00758431  0.86520907  1
  O  O189  1  0.25861424  0.51027344  0.37815717  1
  O  O190  1  0.26203427  0.49164813  0.86639353  1
  O  O191  1  0.75159002  0.00709424  0.36823328  1
  O  O192  1  0.76406935  -0.00963113  0.87827245  1
  O  O193  1  0.74877753  0.50120778  0.36474210  1
  O  O194  1  0.75715878  0.50995573  0.87561833  1
  O  O195  1  0.24516837  0.48777802  0.11790073  1
  O  O196  1  0.24662220  0.48927222  0.63519171  1
  O  O197  1  0.23807762  0.98717120  0.11679114  1
  O  O198  1  0.23651217  0.99291743  0.63142855  1
  O  O199  1  0.74861318  0.49372599  0.12985324  1
  O  O200  1  0.73981908  0.48669865  0.63057095  1
  O  O201  1  0.74277904  0.99828298  0.13158589  1
  O  O202  1  0.73688273  0.99246064  0.62128663  1
  O  O203  1  -0.01491515  0.36481249  0.26352763  1
  O  O204  1  0.00810849  0.36716769  0.76146916  1
  O  O205  1  0.00421505  0.87003225  0.25547333  1
  O  O206  1  0.01063260  0.87237844  0.75917904  1
  O  O207  1  0.50832521  0.37278783  0.25311012  1
  O  O208  1  0.50880376  0.37308500  0.75764953  1
  O  O209  1  0.49411343  0.86336286  0.24178402  1
  O  O210  1  0.49405134  0.87410356  0.76134150  1
  O  O211  1  0.50990468  0.13025856  0.23342173  1
  O  O212  1  0.48256257  0.12073397  0.75230218  1
  O  O213  1  0.49746575  0.62853591  0.23837904  1
  O  O214  1  0.49001126  0.62673719  0.75151627  1
  O  O215  1  0.99425459  0.13582834  0.24409373  1
  O  O216  1  0.99909924  0.13142754  0.74597403  1
  O  O217  1  0.99265581  0.63087538  0.24490640  1
  O  O218  1  1.00475396  0.62858540  0.73842648  1
  O  O219  1  0.36371672  0.24910410  -0.00629764  1
  O  O220  1  0.37888342  0.26113735  0.50229081  1
  O  O221  1  0.36064800  0.74818428  0.00212109  1
  O  O222  1  0.36898374  0.75369871  0.50298196  1
  O  O223  1  0.86249671  0.24988632  -0.00296725  1
  O  O224  1  0.86676192  0.24958143  0.51277226  1
  O  O225  1  0.86774169  0.74932396  0.00844256  1
  O  O226  1  0.86821186  0.76020634  0.50804807  1
  O  O227  1  0.11720239  0.24090793  0.50909017  1
  O  O228  1  0.13736692  0.24176267  0.99300577  1
  O  O229  1  0.13376407  0.75001311  0.49440960  1
  O  O230  1  0.13653527  0.73730275  1.00205091  1
  O  O231  1  0.63148593  0.24149930  0.50281756  1
  O  O232  1  0.63519503  0.24040888  0.99581928  1
  O  O233  1  0.63294491  0.73901968  0.49674496  1
  O  O234  1  0.63144110  0.74547663  0.99133725  1
  O  O235  1  0.50188001  0.23778378  0.12368376  1
  O  O236  1  0.48755149  0.25229666  0.62612212  1
  O  O237  1  0.50007471  0.74412068  0.13307442  1
  O  O238  1  0.48948227  0.75573165  0.62352642  1
  O  O239  1  1.00115778  0.24125787  0.12042186  1
  O  O240  1  0.99131192  0.25034141  0.62966990  1
  O  O241  1  0.99414349  0.74501784  0.12994006  1
  O  O242  1  0.98162575  0.75965632  0.62815812  1
  O  O243  1  0.00039496  0.24994140  0.36745387  1
  O  O244  1  0.00789927  0.25412532  0.87078995  1
  O  O245  1  0.00527774  0.75736998  0.37071202  1
  O  O246  1  -0.00547326  0.76382389  0.87590821  1
  O  O247  1  0.51022697  0.26830287  0.37939545  1
  O  O248  1  0.50249053  0.26057511  0.87255140  1
  O  O249  1  0.50699360  0.74934696  0.35831704  1
  O  O250  1  0.50725498  0.75983679  0.87326069  1
  O  O251  1  0.22606290  0.12380978  0.51491623  1
  O  O252  1  0.24942928  0.12837847  0.99349799  1
  O  O253  1  0.24636051  0.63132579  0.49100608  1
  O  O254  1  0.24044564  0.63582378  1.00193233  1
  O  O255  1  0.74416400  0.13451041  0.49734730  1
  O  O256  1  0.74398787  0.13561362  1.00445767  1
  O  O257  1  0.75330283  0.63156779  0.48970868  1
  O  O258  1  0.74628705  0.63542945  0.99309301  1
  O  O259  1  0.25471920  0.36583390  0.00553372  1
  O  O260  1  0.27084933  0.38718753  0.51615221  1
  O  O261  1  0.24869067  0.86333905  0.00377221  1
  O  O262  1  0.25526544  0.86766550  0.50408712  1
  O  O263  1  0.75046989  0.36441869  0.00681588  1
  O  O264  1  0.74765714  0.36384251  0.50776214  1
  O  O265  1  0.75152378  0.86093279  0.00268735  1
  O  O266  1  0.75795389  0.87042889  0.50655998  1
  O  O267  1  0.12695261  0.50439402  0.23565932  1
  O  O268  1  0.13600697  0.49108872  0.74514779  1
  O  O269  1  0.11318263  0.99606902  0.23616610  1
  O  O270  1  0.13333453  0.99272624  0.74404046  1
  O  O271  1  0.63390628  0.49152802  0.24669111  1
  O  O272  1  0.62703693  0.49146267  0.74278037  1
  O  O273  1  0.63644261  1.00615590  0.24026967  1
  O  O274  1  0.61978482  1.00211961  0.73430826  1
  O  O275  1  0.37115427  0.01534358  0.25936968  1
  O  O276  1  0.36046780  0.00414603  0.73711319  1
  O  O277  1  0.37906851  0.51431177  0.26135399  1
  O  O278  1  0.37131227  0.50488183  0.75439957  1
  O  O279  1  0.87059305  0.01199514  0.25158757  1
  O  O280  1  0.87796575  -0.00067410  0.76646391  1
  O  O281  1  0.86819081  0.51467082  0.24331635  1
  O  O282  1  0.87089865  0.49318448  0.76505814  1
  O  O283  1  0.09202141  0.41307795  0.36546108  1
  O  O284  1  0.12134723  0.36925791  0.87092044  1
  O  O285  1  0.11961216  0.86890414  0.37085895  1
  O  O286  1  0.11636347  0.88099942  0.86541684  1
  O  O287  1  0.62022579  0.37626007  0.36546348  1
  O  O288  1  0.61870065  0.37530435  0.86545073  1
  O  O289  1  0.62726568  0.85948419  0.38467883  1
  O  O290  1  0.61184288  0.86657972  0.87876535  1
  O  O291  1  0.39176259  0.12315388  0.12251789  1
  O  O292  1  0.36644061  0.13404761  0.62421092  1
  O  O293  1  0.38157096  0.62621769  0.13201581  1
  O  O294  1  0.37036128  0.63261979  0.63115824  1
  O  O295  1  0.88671880  0.11972460  0.13348478  1
  O  O296  1  0.88206941  0.13394014  0.62745996  1
  O  O297  1  0.88192940  0.63392780  0.12973854  1
  O  O298  1  0.86961348  0.64534042  0.62838865  1
  O  O299  1  0.24363964  0.26322562  0.11578932  1
  O  O300  1  0.26100484  0.26270730  0.62964596  1
  O  O301  1  0.25009979  0.76080497  0.11580027  1
  O  O302  1  0.25599989  0.75080827  0.61226332  1
  O  O303  1  0.74659893  0.25711238  0.11116157  1
  O  O304  1  0.75400751  0.25828644  0.62012339  1
  O  O305  1  0.75642488  0.74960161  0.11891858  1
  O  O306  1  0.75629009  0.75925695  0.61587043  1
  O  O307  1  0.21552274  0.32054738  0.37805875  1
  O  O308  1  0.24731644  0.24227574  0.87912600  1
  O  O309  1  0.24687537  0.74157306  0.38420787  1
  O  O310  1  0.25118383  0.75406117  0.88642363  1
  O  O311  1  0.74807456  0.24598633  0.38412120  1
  O  O312  1  0.74794451  0.25479050  0.88999522  1
  O  O313  1  0.74449292  0.75445322  0.38668708  1
  O  O314  1  0.74502668  0.74743192  0.88027818  1
  O  O315  1  0.00698472  0.11909860  0.00600023  1
  O  O316  1  0.00575717  0.11785631  0.50880259  1
  O  O317  1  0.01422717  0.62616266  0.00584887  1
  O  O318  1  0.00581298  0.62724832  0.51484290  1
  O  O319  1  0.50598977  0.11826492  0.00612491  1
  O  O320  1  0.50747977  0.11524629  0.49169662  1
  O  O321  1  0.50288179  0.62381493  0.00957650  1
  O  O322  1  0.51010518  0.63084617  0.49942190  1
  O  O323  1  0.49210433  0.38042138  0.49340518  1
  O  O324  1  0.50152390  0.37912153  0.99323523  1
  O  O325  1  0.49321093  0.88252797  0.49625955  1
  O  O326  1  0.49592214  0.88192637  0.99242500  1
  O  O327  1  0.99081660  0.38509912  0.48579503  1
  O  O328  1  1.00328431  0.37317147  0.98853313  1
  O  O329  1  0.99334475  0.88250463  0.49865646  1
  O  O330  1  1.00148633  0.88250260  0.99526118  1
  O  O331  1  0.49509111  0.49108254  0.36884551  1
  O  O332  1  0.49564573  0.49052039  0.87984743  1
  O  O333  1  0.50630340  0.99736739  0.38397471  1
  O  O334  1  0.50355566  0.98584792  0.88276244  1
  O  O335  1  0.97298312  0.50727303  0.37157769  1
  O  O336  1  0.99591579  0.49101835  0.87565261  1
  O  O337  1  0.99964411  0.99546522  0.38510128  1
  O  O338  1  0.99606715  0.99340396  0.88639867  1
  O  O339  1  0.00502949  0.00571346  0.11390133  1
  O  O340  1  0.00805931  0.00256775  0.62193682  1
  O  O341  1  0.01015927  0.50466073  0.12245917  1
  O  O342  1  0.01878878  0.49045553  0.63082860  1
  O  O343  1  0.50490691  0.00735296  0.11963387  1
  O  O344  1  0.51201002  -0.00687895  0.61370847  1
  O  O345  1  0.50191821  0.50835808  0.11830660  1
  O  O346  1  0.51251392  0.49812644  0.62752481  1
  O  O347  1  0.25328725  0.37179114  0.23254550  1
  O  O348  1  0.25019851  0.38188088  0.74406360  1
  O  O349  1  0.24005268  0.86570588  0.23898242  1
  O  O350  1  0.24616970  0.87996776  0.74588155  1
  O  O351  1  0.74712289  0.38254952  0.24251753  1
  O  O352  1  0.74000569  0.37305650  0.74332947  1
  O  O353  1  0.75919903  0.88959350  0.24999820  1
  O  O354  1  0.75061561  0.88307506  0.73785998  1
  O  O355  1  0.24538278  0.12725768  0.26077727  1
  O  O356  1  0.25697796  0.11684349  0.75485336  1
  O  O357  1  0.26143572  0.63536728  0.25969008  1
  O  O358  1  0.26128661  0.61169632  0.74889573  1
  O  O359  1  0.75732069  0.12049532  0.25192212  1
  O  O360  1  0.75177266  0.11811650  0.74843043  1
  O  O361  1  0.75553948  0.61324890  0.24482945  1
  O  O362  1  0.74595393  0.62550568  0.76159019  1
  O  O363  1  0.35182437  0.10860646  0.40381333  1
  O  O364  1  0.36483331  0.12762335  0.86354903  1
  O  O365  1  0.37052885  0.62094159  0.36923429  1
  O  O366  1  0.38104421  0.61157709  0.86621054  1
  O  O367  1  0.86836349  0.12396070  0.36830427  1
  O  O368  1  0.88186914  0.10801715  0.87570203  1
  O  O369  1  0.87258096  0.63716761  0.36657806  1
  O  O370  1  0.86641636  0.61783331  0.87915250  1
  O  O371  1  0.13772265  0.38702838  0.12016800  1
  O  O372  1  0.13499793  0.37935442  0.62971685  1
  O  O373  1  0.12872475  0.88186177  0.12988497  1
  O  O374  1  0.12985412  0.88095205  0.63198833  1
  O  O375  1  0.63565242  0.37737659  0.13035019  1
  O  O376  1  0.62930142  0.38066775  0.62948191  1
  O  O377  1  0.62539316  0.88951955  0.11975776  1
  O  O378  1  0.63233780  0.88737419  0.61710445  1
  O  O379  1  0.10151199  0.25564903  0.24011638  1
  O  O380  1  0.12366112  0.25392696  0.75350559  1
  O  O381  1  0.11828582  0.75419570  0.25623901  1
  O  O382  1  0.12862069  0.76052963  0.74289712  1
  O  O383  1  0.63066746  0.26316288  0.24852233  1
  O  O384  1  0.62062600  0.25863648  0.74893063  1
  O  O385  1  0.61380344  0.74819924  0.25666645  1
  O  O386  1  0.62404972  0.74620945  0.76093767  1
  O  O387  1  0.38196840  0.23147436  0.29433432  1
  O  O388  1  0.37658365  0.23885794  0.73811285  1
  O  O389  1  0.38878696  0.73985345  0.24861361  1
  O  O390  1  0.37587566  0.73993631  0.73876660  1
  O  O391  1  0.88500349  0.23922537  0.25149184  1
  O  O392  1  0.88066788  0.25095431  0.74046743  1
  O  O393  1  0.87674687  0.74173722  0.24337816  1
  O  O394  1  0.87259155  0.76130608  0.73815555  1
  O  O395  1  0.37724564  0.49964040  0.48834347  1
  O  O396  1  0.38220747  0.49958244  0.99110548  1
  O  O397  1  0.39313614  0.98820860  0.50792866  1
  O  O398  1  0.38741447  1.00016980  1.00190125  1
  O  O399  1  0.85269932  0.50864089  0.49662357  1
  O  O400  1  0.88069180  0.49624781  0.98813827  1
  O  O401  1  0.88562139  0.99580232  0.50364414  1
  O  O402  1  0.88276205  0.99855000  0.99356202  1
  O  O403  1  0.11852484  0.00503296  0.00714333  1
  O  O404  1  0.11401316  -0.00070611  0.50932264  1
  O  O405  1  0.12708238  0.51283329  0.00653736  1
  O  O406  1  0.13584429  0.49174122  0.51470431  1
  O  O407  1  0.61631531  0.00569630  0.00618463  1
  O  O408  1  0.61462464  0.00459729  0.50420667  1
  O  O409  1  0.61853949  0.50807046  -0.00167108  1
  O  O410  1  0.62749684  0.51442139  0.50469928  1
  O  O411  1  0.36403913  0.38046046  0.12209531  1
  O  O412  1  0.37369563  0.36868541  0.61985126  1
  O  O413  1  0.36448461  0.87530336  0.12206581  1
  O  O414  1  0.36700472  0.86362193  0.61630527  1
  O  O415  1  0.86307881  0.37904367  0.12257803  1
  O  O416  1  0.86573149  0.37068296  0.62263331  1
  O  O417  1  0.87521452  0.86218424  0.12444578  1
  O  O418  1  0.86703929  0.87288854  0.61808212  1
  O  O419  1  0.12064846  0.12659724  0.39281085  1
  O  O420  1  0.13623383  0.12780145  0.87910660  1
  O  O421  1  0.13208502  0.62784610  0.37529291  1
  O  O422  1  0.12385229  0.61816601  0.88779153  1
  O  O423  1  0.63233533  0.12734611  0.38334576  1
  O  O424  1  0.61818749  0.12358016  0.88830894  1
  O  O425  1  0.62150671  0.63403469  0.38831073  1
  O  O426  1  0.63181756  0.63220844  0.88036461  1
