# generated using pymatgen
data_V85Zn86O256
_symmetry_space_group_name_H-M   'P 1'
_cell_length_a   16.93211103
_cell_length_b   16.94091143
_cell_length_c   16.93408493
_cell_angle_alpha   90.04402539
_cell_angle_beta   90.00056099
_cell_angle_gamma   90.04064488
_symmetry_Int_Tables_number   1
_chemical_formula_structural   V85Zn86O256
_chemical_formula_sum   'V85 Zn86 O256'
_cell_volume   4857.46159571
_cell_formula_units_Z   1
loop_
 _symmetry_equiv_pos_site_id
 _symmetry_equiv_pos_as_xyz
  1  'x, y, z'
loop_
 _atom_site_type_symbol
 _atom_site_label
 _atom_site_symmetry_multiplicity
 _atom_site_fract_x
 _atom_site_fract_y
 _atom_site_fract_z
 _atom_site_occupancy
  V  V0  1  0.00239011  0.25611385  0.74986003  1
  V  V1  1  0.62889311  0.25202907  0.37437327  1
  V  V2  1  0.23708265  0.37875202  0.62686433  1
  V  V3  1  0.74987666  -0.00570910  0.74791291  1
  V  V4  1  0.62208543  0.24751673  0.87381292  1
  V  V5  1  0.37590120  0.24731913  0.12402186  1
  V  V6  1  0.25226714  0.12390934  0.37129834  1
  V  V7  1  0.38637283  -0.00546930  0.38035490  1
  V  V8  1  0.12791754  0.75520918  0.37088620  1
  V  V9  1  0.75996315  0.25234811  0.50015296  1
  V  V10  1  0.75844389  0.37887161  0.62306871  1
  V  V11  1  0.37041162  0.11945155  0.73806223  1
  V  V12  1  0.49845863  0.37297683  0.87219271  1
  V  V13  1  0.86659697  0.62542348  0.24697663  1
  V  V14  1  0.50052041  0.62547286  0.62937421  1
  V  V15  1  0.25574534  0.24870449  0.50670061  1
  V  V16  1  0.00291672  0.12528807  0.12449645  1
  V  V17  1  0.37216887  0.75075170  0.12512945  1
  V  V18  1  0.61611020  0.12880139  0.50539661  1
  V  V19  1  -0.00452376  0.37614278  0.37797300  1
  V  V20  1  -0.00317780  0.37437969  0.87737244  1
  V  V21  1  0.62118090  0.12120578  0.00221209  1
  V  V22  1  0.75734613  0.87516312  0.13038537  1
  V  V23  1  0.24587909  0.87315428  0.62582713  1
  V  V24  1  0.87056000  0.25529218  0.11817726  1
  V  V25  1  0.37668459  0.37353441  -0.00110212  1
  V  V26  1  0.36729434  0.86880975  -0.00950791  1
  V  V27  1  0.12516795  0.12404854  0.49987188  1
  V  V28  1  0.88006578  0.87165522  0.49564474  1
  V  V29  1  0.61128747  0.75479447  0.87981085  1
  V  V30  1  0.12289648  0.87500704  0.75373094  1
  V  V31  1  0.50744363  0.76110289  0.26602211  1
  V  V32  1  0.73982919  0.62718817  0.87298305  1
  V  V33  1  0.24958750  0.61490493  0.36980607  1
  V  V34  1  0.37392549  0.49820643  0.87472140  1
  V  V35  1  0.74315849  0.62323345  0.37859274  1
  V  V36  1  0.62549826  -0.00969907  0.14011229  1
  V  V37  1  0.86720145  0.11967323  0.24907855  1
  V  V38  1  0.13173199  0.49976925  0.12671301  1
  V  V39  1  0.00029303  0.62516902  0.12616976  1
  V  V40  1  0.74827289  0.12260307  0.87681364  1
  V  V41  1  0.87518122  0.12603673  0.74952400  1
  V  V42  1  0.24661503  -0.01669598  0.25143327  1
  V  V43  1  0.86734265  0.74842751  0.62203816  1
  V  V44  1  0.50120720  0.50217247  0.49815547  1
  V  V45  1  0.50006840  0.37599339  0.37371527  1
  V  V46  1  0.13010683  0.25179669  0.87061752  1
  V  V47  1  0.25017493  0.74634281  0.50134606  1
  V  V48  1  0.37455163  0.74904261  0.63174087  1
  V  V49  1  0.49430969  0.24354933  0.73259446  1
  V  V50  1  0.69038274  0.79908842  0.44408474  1
  V  V51  1  -0.00194949  -0.00317915  0.00037567  1
  V  V52  1  0.25141181  0.24723150  -0.00385591  1
  V  V53  1  0.25158925  0.37652797  0.12748254  1
  V  V54  1  0.50064122  0.25138408  0.24720663  1
  V  V55  1  -0.00421554  0.49461658  0.00207148  1
  V  V56  1  0.61662848  0.00855284  0.62461918  1
  V  V57  1  0.63042651  0.37572312  0.74911639  1
  V  V58  1  0.60623251  0.87280730  0.75173779  1
  V  V59  1  0.25065263  0.62653677  0.88178476  1
  V  V60  1  0.12597285  0.61964229  0.50340588  1
  V  V61  1  -0.00905695  0.87034129  0.88100015  1
  V  V62  1  -0.00224333  0.12441765  0.62489103  1
  V  V63  1  0.13216010  0.38008936  0.25253353  1
  V  V64  1  0.00279203  0.61958738  0.62581338  1
  V  V65  1  0.00208131  0.25002810  0.24877830  1
  V  V66  1  -0.00213089  0.74541290  0.74986697  1
  V  V67  1  0.12355614  -0.00112152  0.62491151  1
  V  V68  1  0.63927776  0.38151414  0.23938286  1
  V  V69  1  0.86776981  0.50077126  0.87261998  1
  V  V70  1  0.37693038  0.62260434  0.75198967  1
  V  V71  1  0.00398241  0.75640730  0.24844079  1
  V  V72  1  0.37606146  0.61701593  0.24806427  1
  V  V73  1  0.12671360  0.25102781  0.37524846  1
  V  V74  1  0.37811199  0.37214150  0.50960598  1
  V  V75  1  0.51206644  0.62772435  0.12486835  1
  V  V76  1  -0.00385585  0.49697731  0.50231904  1
  V  V77  1  0.50061210  -0.01131509  -0.00704142  1
  V  V78  1  0.87437642  -0.00259592  0.87829673  1
  V  V79  1  0.63139360  0.50170856  0.62878920  1
  V  V80  1  0.50890180  0.50456636  0.00187512  1
  V  V81  1  0.23676754  0.49500352  0.74816552  1
  V  V82  1  0.86971620  0.49943818  0.37194734  1
  V  V83  1  0.13244639  0.12282972  -0.00428239  1
  V  V84  1  0.12711162  0.74843077  0.88392747  1
  Zn  Zn85  1  0.37125913  0.49563682  0.37053429  1
  Zn  Zn86  1  0.37581751  0.12180573  0.24949811  1
  Zn  Zn87  1  0.86777809  0.61699153  0.74631394  1
  Zn  Zn88  1  0.12919589  0.62424483  0.00274945  1
  Zn  Zn89  1  0.62849488  0.63071655  0.50171314  1
  Zn  Zn90  1  0.12617087  -0.00676673  0.13060450  1
  Zn  Zn91  1  0.74846107  0.87372904  0.62277508  1
  Zn  Zn92  1  0.80767135  0.41793815  0.06115230  1
  Zn  Zn93  1  0.00573936  0.87866006  0.37135309  1
  Zn  Zn94  1  0.37135899  0.00582186  0.87248792  1
  Zn  Zn95  1  0.88060637  0.75943953  0.11497828  1
  Zn  Zn96  1  -0.00174722  -0.00128758  0.49571042  1
  Zn  Zn97  1  0.24367561  0.86329513  0.12257694  1
  Zn  Zn98  1  0.38597143  0.87217358  0.49283357  1
  Zn  Zn99  1  0.87264434  -0.00766602  0.36838714  1
  Zn  Zn100  1  0.74857152  0.25304200  0.00030024  1
  Zn  Zn101  1  0.75879405  0.76077191  -0.00597215  1
  Zn  Zn102  1  0.75046290  0.12417637  0.37351353  1
  Zn  Zn103  1  0.24702236  0.00708820  0.75577807  1
  Zn  Zn104  1  0.49936707  0.12048783  0.12469882  1
  Zn  Zn105  1  0.64646848  0.50534855  0.12207856  1
  Zn  Zn106  1  0.87805780  0.25627819  0.62245394  1
  Zn  Zn107  1  0.18805014  0.18622257  0.18626605  1
  Zn  Zn108  1  0.18806155  0.18992268  0.68666158  1
  Zn  Zn109  1  0.18992882  0.68526469  0.18957196  1
  Zn  Zn110  1  0.18655102  0.68323420  0.69239628  1
  Zn  Zn111  1  0.68587714  0.18852100  0.18328089  1
  Zn  Zn112  1  0.69033840  0.19051490  0.68875253  1
  Zn  Zn113  1  0.68722277  0.69868632  0.18994283  1
  Zn  Zn114  1  0.68546757  0.68935061  0.69371861  1
  Zn  Zn115  1  0.31472290  0.31255442  0.31567807  1
  Zn  Zn116  1  0.31364918  0.30853291  0.80681820  1
  Zn  Zn117  1  0.32168881  0.80613349  0.31434633  1
  Zn  Zn118  1  0.31184759  0.81271910  0.81282766  1
  Zn  Zn119  1  0.81581801  0.30864640  0.30897422  1
  Zn  Zn120  1  0.81254349  0.31264112  0.81657473  1
  Zn  Zn121  1  0.81482387  0.81400529  0.30304434  1
  Zn  Zn122  1  0.81040019  0.80790812  0.81173072  1
  Zn  Zn123  1  0.18530501  0.43751080  0.44259576  1
  Zn  Zn124  1  0.18541561  0.43507941  0.93769092  1
  Zn  Zn125  1  0.19317539  0.93722957  0.44042619  1
  Zn  Zn126  1  0.18864513  0.94008598  0.93538299  1
  Zn  Zn127  1  0.68796404  0.43694140  0.43876502  1
  Zn  Zn128  1  0.68644710  0.43858518  0.93297042  1
  Zn  Zn129  1  0.68603847  0.96047694  0.43281841  1
  Zn  Zn130  1  0.68523044  0.93266357  0.93963821  1
  Zn  Zn131  1  0.31431299  0.05798780  0.06341212  1
  Zn  Zn132  1  0.31608004  0.06282379  0.56564628  1
  Zn  Zn133  1  0.31802172  0.56170770  0.06358063  1
  Zn  Zn134  1  0.31263892  0.55793718  0.56342375  1
  Zn  Zn135  1  0.80955391  0.05876642  0.06541422  1
  Zn  Zn136  1  0.80917028  0.06144155  0.55833152  1
  Zn  Zn137  1  0.81142222  0.58236315  0.05399804  1
  Zn  Zn138  1  0.81350709  0.56358233  0.55800455  1
  Zn  Zn139  1  0.44357675  0.43768292  0.18512086  1
  Zn  Zn140  1  0.43729557  0.43729797  0.68819619  1
  Zn  Zn141  1  0.43497172  0.93580433  0.18632454  1
  Zn  Zn142  1  0.43852862  0.93859654  0.66221147  1
  Zn  Zn143  1  0.94116933  0.43892908  0.19312676  1
  Zn  Zn144  1  0.94133095  0.43845416  0.69137755  1
  Zn  Zn145  1  0.94117506  0.93841065  0.18615431  1
  Zn  Zn146  1  0.93556485  0.93592079  0.68620198  1
  Zn  Zn147  1  0.06160839  0.06000582  0.31334333  1
  Zn  Zn148  1  0.06357008  0.06387813  0.81405521  1
  Zn  Zn149  1  0.06151302  0.56509633  0.31198353  1
  Zn  Zn150  1  0.06077351  0.56145018  0.81510086  1
  Zn  Zn151  1  0.56081440  0.06843975  0.31505008  1
  Zn  Zn152  1  0.55705417  0.06157893  0.80992440  1
  Zn  Zn153  1  0.56232932  0.56277066  0.30725235  1
  Zn  Zn154  1  0.56301381  0.56215408  0.81263040  1
  Zn  Zn155  1  0.43654839  0.18721575  0.43661057  1
  Zn  Zn156  1  0.43753555  0.18164974  0.93071356  1
  Zn  Zn157  1  0.43560854  0.68467641  0.43984748  1
  Zn  Zn158  1  0.44048141  0.68836244  0.93928503  1
  Zn  Zn159  1  0.93871507  0.18707221  0.43630610  1
  Zn  Zn160  1  0.94013243  0.18421677  0.93751452  1
  Zn  Zn161  1  0.93664682  0.68812732  0.43515969  1
  Zn  Zn162  1  0.93386068  0.68219515  0.93991537  1
  Zn  Zn163  1  0.06283583  0.31233601  0.06062655  1
  Zn  Zn164  1  0.06253306  0.31154327  0.56082346  1
  Zn  Zn165  1  0.06525121  0.81475102  0.06395376  1
  Zn  Zn166  1  0.05979881  0.80679992  0.56067227  1
  Zn  Zn167  1  0.56451124  0.31326242  0.06053360  1
  Zn  Zn168  1  0.56929192  0.31552526  0.55985494  1
  Zn  Zn169  1  0.56139879  0.81316368  0.06744902  1
  Zn  Zn170  1  0.55533278  0.81698422  0.57632668  1
  O  O171  1  0.11735734  0.12265687  0.11771394  1
  O  O172  1  0.11513398  0.12186062  0.62126528  1
  O  O173  1  0.11809611  0.61647478  0.12566836  1
  O  O174  1  0.11530592  0.62937747  0.61650574  1
  O  O175  1  0.62476904  0.11621837  0.11529992  1
  O  O176  1  0.63593448  0.11669578  0.61990626  1
  O  O177  1  0.61544440  0.62389980  0.13103875  1
  O  O178  1  0.61802523  0.61852487  0.62843416  1
  O  O179  1  0.38194547  0.37758992  0.38474627  1
  O  O180  1  0.38054324  0.37758842  0.87812168  1
  O  O181  1  0.37239050  0.88810552  0.37813008  1
  O  O182  1  0.37632569  0.87213460  0.88750902  1
  O  O183  1  0.88770384  0.38220926  0.36506855  1
  O  O184  1  0.88879114  0.37968032  0.87126726  1
  O  O185  1  0.87913533  0.86960918  0.38215280  1
  O  O186  1  0.88582526  0.87961243  0.86743887  1
  O  O187  1  0.25362764  0.00644693  0.36589335  1
  O  O188  1  0.25670576  -0.00560369  0.86722991  1
  O  O189  1  0.24985460  0.51091738  0.38077159  1
  O  O190  1  0.25499133  0.50274878  0.86931994  1
  O  O191  1  0.76118991  0.01213867  0.37512439  1
  O  O192  1  0.75241891  0.00699176  0.87102410  1
  O  O193  1  0.76303824  0.50416409  0.38035815  1
  O  O194  1  0.75391221  0.51471386  0.87706926  1
  O  O195  1  0.24019553  0.49386017  0.12060273  1
  O  O196  1  0.25233910  0.49171732  0.63489099  1
  O  O197  1  0.25314629  1.00192027  0.14461613  1
  O  O198  1  0.24228411  0.98937434  0.62995984  1
  O  O199  1  0.75924306  0.50350065  0.11460303  1
  O  O200  1  0.74058808  0.49535631  0.61936872  1
  O  O201  1  0.73443219  0.99259009  0.12286531  1
  O  O202  1  0.74455427  0.99838413  0.63439425  1
  O  O203  1  0.01222328  0.36963394  0.25775024  1
  O  O204  1  0.00072794  0.36231616  0.75588224  1
  O  O205  1  -0.00170892  0.86089017  0.24963262  1
  O  O206  1  0.00724106  0.86694923  0.75500486  1
  O  O207  1  0.50691932  0.36559282  0.25348867  1
  O  O208  1  0.50616612  0.36599465  0.75248492  1
  O  O209  1  0.49197294  0.85935401  0.24883705  1
  O  O210  1  0.50883823  0.88139613  0.74607537  1
  O  O211  1  0.49818334  0.14022700  0.24710767  1
  O  O212  1  0.49915713  0.14001128  0.74776421  1
  O  O213  1  0.49324582  0.62992550  0.24280134  1
  O  O214  1  0.48511583  0.61497789  0.74386113  1
  O  O215  1  0.99825475  0.13097118  0.23955626  1
  O  O216  1  0.99635649  0.13361569  0.74365479  1
  O  O217  1  0.99400511  0.63185316  0.24278069  1
  O  O218  1  0.99918020  0.62986183  0.74286636  1
  O  O219  1  0.37221393  0.25189062  0.00463947  1
  O  O220  1  0.36662393  0.25892385  0.49440831  1
  O  O221  1  0.38165838  0.76279808  0.00614510  1
  O  O222  1  0.36839738  0.74867588  0.51470951  1
  O  O223  1  0.87738462  0.24122496  0.01574071  1
  O  O224  1  0.86458250  0.24840551  0.50096878  1
  O  O225  1  0.87536730  0.75154241  0.00194507  1
  O  O226  1  0.88281878  0.75932599  0.50968319  1
  O  O227  1  0.13266085  0.24412131  0.49311970  1
  O  O228  1  0.13109936  0.24310503  0.99396271  1
  O  O229  1  0.12910053  0.73678159  0.49380439  1
  O  O230  1  0.11957107  0.74476540  0.98689587  1
  O  O231  1  0.63531879  0.24917463  0.49165521  1
  O  O232  1  0.62377472  0.23808553  0.99316368  1
  O  O233  1  0.62576285  0.75103474  0.51019443  1
  O  O234  1  0.62004848  0.75993647  0.98181042  1
  O  O235  1  0.49267487  0.24974422  0.13008927  1
  O  O236  1  0.50548531  0.25647540  0.63508789  1
  O  O237  1  0.49146435  0.74180850  0.12878609  1
  O  O238  1  0.48953776  0.73237236  0.62856754  1
  O  O239  1  0.99544877  0.24158575  0.12667518  1
  O  O240  1  0.99938188  0.24487732  0.63215135  1
  O  O241  1  1.00406021  0.74017947  0.13067117  1
  O  O242  1  0.99405157  0.73923919  0.63225378  1
  O  O243  1  0.00621429  0.25924647  0.37183649  1
  O  O244  1  0.00397813  0.25591940  0.86965628  1
  O  O245  1  0.01090392  0.74725465  0.36571404  1
  O  O246  1  0.00437327  0.75340643  0.86807815  1
  O  O247  1  0.50751021  0.25640819  0.36695449  1
  O  O248  1  0.50651355  0.25737648  0.86928355  1
  O  O249  1  0.49228225  0.74840030  0.36606257  1
  O  O250  1  0.51270691  0.74290226  0.86857421  1
  O  O251  1  0.24719230  0.13202447  0.49298947  1
  O  O252  1  0.23900524  0.12802041  1.00649680  1
  O  O253  1  0.24311828  0.62614629  0.49627993  1
  O  O254  1  0.25073459  0.61732666  0.98568703  1
  O  O255  1  0.74237874  0.13737603  0.49942709  1
  O  O256  1  0.73963618  0.12365098  0.99279286  1
  O  O257  1  0.74717539  0.62648673  0.48901832  1
  O  O258  1  0.74880391  0.63885806  0.97862031  1
  O  O259  1  0.25719075  0.36867303  0.00642048  1
  O  O260  1  0.25756327  0.36970028  0.50479447  1
  O  O261  1  0.26477516  0.87797441  0.00145264  1
  O  O262  1  0.25323972  0.86565371  0.51194976  1
  O  O263  1  0.75378903  0.36394836  -0.01920452  1
  O  O264  1  0.74520160  0.36647775  0.51089645  1
  O  O265  1  0.74178544  0.87580517  0.01741956  1
  O  O266  1  0.75328713  0.86490132  0.49933294  1
  O  O267  1  0.11888047  0.49154722  0.23988561  1
  O  O268  1  0.13727523  0.50091653  0.75525863  1
  O  O269  1  0.14307713  1.00406760  0.25241705  1
  O  O270  1  0.12204184  0.99076110  0.74450769  1
  O  O271  1  0.62254816  0.48435273  0.24518256  1
  O  O272  1  0.61788811  0.48928303  0.73896091  1
  O  O273  1  0.61876486  1.00680433  0.23757431  1
  O  O274  1  0.63159510  0.99391619  0.74738805  1
  O  O275  1  0.36519253  0.00169978  0.26049760  1
  O  O276  1  0.37837773  0.01084430  0.74198796  1
  O  O277  1  0.38163759  0.51125881  0.25025098  1
  O  O278  1  0.36815187  0.50469711  0.75692340  1
  O  O279  1  0.88080572  0.01735763  0.24536399  1
  O  O280  1  0.86963403  0.00580064  0.75640858  1
  O  O281  1  0.88452934  0.51190210  0.26144285  1
  O  O282  1  0.88093415  0.49954522  0.76728006  1
  O  O283  1  0.11918296  0.37276617  0.36936726  1
  O  O284  1  0.11130192  0.36345600  0.88102360  1
  O  O285  1  0.12816525  0.85869318  0.38311826  1
  O  O286  1  0.11500421  0.86696689  0.87016764  1
  O  O287  1  0.62111899  0.36676013  0.36764877  1
  O  O288  1  0.61748358  0.37077190  0.86440425  1
  O  O289  1  0.63470873  0.86386129  0.39437482  1
  O  O290  1  0.62477967  0.86758192  0.86155452  1
  O  O291  1  0.37601835  0.13671187  0.12663452  1
  O  O292  1  0.37851466  0.12745372  0.63611324  1
  O  O293  1  0.38285458  0.62920505  0.13157261  1
  O  O294  1  0.37928917  0.62747747  0.63222560  1
  O  O295  1  0.88250308  0.13144188  0.13206206  1
  O  O296  1  0.88609383  0.12538407  0.62829918  1
  O  O297  1  0.88891252  0.62583707  0.13131773  1
  O  O298  1  0.88288496  0.63050214  0.62613173  1
  O  O299  1  0.25753331  0.25571777  0.11906858  1
  O  O300  1  0.24607739  0.25775140  0.61217083  1
  O  O301  1  0.26638407  0.74399768  0.12776430  1
  O  O302  1  0.25221888  0.75059039  0.62114549  1
  O  O303  1  0.76642445  0.24751968  0.12184234  1
  O  O304  1  0.75283123  0.25985369  0.61806258  1
  O  O305  1  0.75127009  0.76279505  0.12037870  1
  O  O306  1  0.76411597  0.75052246  0.63246918  1
  O  O307  1  0.24656035  0.24367698  0.38424034  1
  O  O308  1  0.24007514  0.25704961  0.88086441  1
  O  O309  1  0.24670695  0.73914904  0.38132274  1
  O  O310  1  0.23899348  0.73877220  0.86737132  1
  O  O311  1  0.74494054  0.25010523  0.38138724  1
  O  O312  1  0.74304664  0.23400005  0.87078024  1
  O  O313  1  0.74839329  0.74346932  0.37662498  1
  O  O314  1  0.73737763  0.74517648  0.87260002  1
  O  O315  1  0.01009096  0.12047164  0.00758577  1
  O  O316  1  0.00502698  0.12510709  0.50881929  1
  O  O317  1  0.00381093  0.61156776  0.00813604  1
  O  O318  1  0.00613071  0.61949740  0.50628812  1
  O  O319  1  0.50694552  0.11457530  0.00148717  1
  O  O320  1  0.51661442  0.13775596  0.50000234  1
  O  O321  1  0.49429134  0.61568202  0.01083978  1
  O  O322  1  0.50371664  0.61711077  0.50825332  1
  O  O323  1  0.49540248  0.38059905  0.49584850  1
  O  O324  1  0.49472316  0.37992152  0.99312761  1
  O  O325  1  0.47284009  0.88780569  0.55998431  1
  O  O326  1  0.49093164  0.88531140  1.00478033  1
  O  O327  1  1.00527051  0.38348351  0.49025787  1
  O  O328  1  1.00194980  0.38594170  0.99465055  1
  O  O329  1  0.99384701  0.87553675  0.49712382  1
  O  O330  1  1.00291916  0.88405634  0.99081099  1
  O  O331  1  0.50127643  0.49446368  0.38303351  1
  O  O332  1  0.49463994  0.49407760  0.88086046  1
  O  O333  1  0.48535608  1.00571525  0.37414077  1
  O  O334  1  0.49752125  1.00043979  0.88994189  1
  O  O335  1  0.99435166  0.49450823  0.38128720  1
  O  O336  1  0.99550867  0.49327070  0.88325107  1
  O  O337  1  0.99305392  0.99650936  0.37681575  1
  O  O338  1  0.99607396  0.99118538  0.88051260  1
  O  O339  1  0.00320032  0.00879203  0.11760249  1
  O  O340  1  0.00534298  0.00851829  0.62451255  1
  O  O341  1  0.00682747  0.50423764  0.11990944  1
  O  O342  1  -0.00501927  0.50994528  0.61799947  1
  O  O343  1  0.50854439  0.00031007  0.11734929  1
  O  O344  1  0.52002934  0.01886880  0.63880356  1
  O  O345  1  0.50223663  0.50897999  0.11632324  1
  O  O346  1  0.50566334  0.50722404  0.61903578  1
  O  O347  1  0.23898235  0.37041166  0.24731460  1
  O  O348  1  0.25545619  0.38192220  0.73852206  1
  O  O349  1  0.25410525  0.88215667  0.25200014  1
  O  O350  1  0.23116126  0.86902295  0.74742417  1
  O  O351  1  0.73718641  0.37072755  0.25230500  1
  O  O352  1  0.73662613  0.36743095  0.74403408  1
  O  O353  1  0.74609528  0.87127822  0.23243701  1
  O  O354  1  0.74964402  0.88763132  0.75071416  1
  O  O355  1  0.25222644  0.12794064  0.26353343  1
  O  O356  1  0.26454396  0.12658664  0.74260665  1
  O  O357  1  0.26026153  0.62547205  0.25953083  1
  O  O358  1  0.25769724  0.61447949  0.75773247  1
  O  O359  1  0.76522349  0.13364399  0.24778560  1
  O  O360  1  0.75411192  0.11493040  0.75668200  1
  O  O361  1  0.76247301  0.63358143  0.25526494  1
  O  O362  1  0.75310644  0.63037552  0.76497230  1
  O  O363  1  0.36728267  0.11749336  0.37327504  1
  O  O364  1  0.38398124  0.12289175  0.85132097  1
  O  O365  1  0.36658323  0.62081740  0.36829285  1
  O  O366  1  0.36933138  0.62150361  0.86906371  1
  O  O367  1  0.87914270  0.13154774  0.35545471  1
  O  O368  1  0.86757676  0.11930734  0.87035332  1
  O  O369  1  0.86764127  0.61945061  0.36799925  1
  O  O370  1  0.86699572  0.61604122  0.87041490  1
  O  O371  1  0.12975848  0.38010547  0.13278259  1
  O  O372  1  0.13750350  0.37610945  0.61812757  1
  O  O373  1  0.13272286  0.88039514  0.12074891  1
  O  O374  1  0.12898728  0.87460045  0.63201618  1
  O  O375  1  0.62607267  0.37457779  0.13595690  1
  O  O376  1  0.63392010  0.38325249  0.63070577  1
  O  O377  1  0.62731123  0.88689652  0.12801757  1
  O  O378  1  0.62967439  0.88809038  0.63823425  1
  O  O379  1  0.12075031  0.25662521  0.25539805  1
  O  O380  1  0.11682907  0.24357719  0.76061618  1
  O  O381  1  0.11803408  0.74127704  0.26003316  1
  O  O382  1  0.11317243  0.75342384  0.75701572  1
  O  O383  1  0.62024513  0.25656007  0.25423152  1
  O  O384  1  0.61605197  0.25530731  0.75405888  1
  O  O385  1  0.60662252  0.74723115  0.25291071  1
  O  O386  1  0.62408685  0.76820326  0.75259372  1
  O  O387  1  0.38293291  0.25179934  0.24150369  1
  O  O388  1  0.38878235  0.24450991  0.74754520  1
  O  O389  1  0.38298218  0.73789317  0.24328853  1
  O  O390  1  0.36604711  0.73652068  0.74082596  1
  O  O391  1  0.88402184  0.24317086  0.23784584  1
  O  O392  1  0.88360800  0.24287292  0.74872523  1
  O  O393  1  0.88633311  0.74097567  0.24317164  1
  O  O394  1  0.88734461  0.74920780  0.74349095  1
  O  O395  1  0.38750280  0.49368700  0.49842241  1
  O  O396  1  0.38359587  0.49203754  0.99383098  1
  O  O397  1  0.36482457  1.00008165  0.48290816  1
  O  O398  1  0.38529139  0.98965945  1.00128541  1
  O  O399  1  0.88905851  0.50493906  0.48901918  1
  O  O400  1  0.88206709  0.50060260  0.98988030  1
  O  O401  1  0.87500933  0.98211557  0.50394525  1
  O  O402  1  0.88951503  1.01003857  0.99403977  1
  O  O403  1  0.11428822  0.00829456  -0.00288415  1
  O  O404  1  0.12538174  0.00689612  0.50683935  1
  O  O405  1  0.11803471  0.49958766  0.01074331  1
  O  O406  1  0.11299211  0.51210887  0.49502844  1
  O  O407  1  0.61306798  0.00281888  0.00408946  1
  O  O408  1  0.62702808  0.01152697  0.51604913  1
  O  O409  1  0.61223506  0.49537290  0.00146673  1
  O  O410  1  0.61444581  0.49905616  0.51002424  1
  O  O411  1  0.37233282  0.36566403  0.12083899  1
  O  O412  1  0.36888165  0.37952051  0.61247476  1
  O  O413  1  0.37026751  0.86593302  0.11620110  1
  O  O414  1  0.35086629  0.86113056  0.64830318  1
  O  O415  1  0.88420409  0.35977323  0.12868724  1
  O  O416  1  0.86219411  0.37799280  0.63185504  1
  O  O417  1  0.86252574  0.87968793  0.12766820  1
  O  O418  1  0.87390436  0.86506623  0.61844188  1
  O  O419  1  0.13202253  0.13034729  0.38059760  1
  O  O420  1  0.11796365  0.13751923  0.88528698  1
  O  O421  1  0.13203836  0.63057238  0.38118778  1
  O  O422  1  0.13251845  0.63132689  0.87551866  1
  O  O423  1  0.62659661  0.13887955  0.38063149  1
  O  O424  1  0.62993587  0.12509798  0.88165195  1
  O  O425  1  0.63987964  0.61515800  0.37467917  1
  O  O426  1  0.63097476  0.63837502  0.86562602  1
