# generated using pymatgen
data_V85Zn86O256
_symmetry_space_group_name_H-M   'P 1'
_cell_length_a   17.00298076
_cell_length_b   16.98832969
_cell_length_c   16.98025897
_cell_angle_alpha   89.86221015
_cell_angle_beta   89.97765412
_cell_angle_gamma   89.92360385
_symmetry_Int_Tables_number   1
_chemical_formula_structural   V85Zn86O256
_chemical_formula_sum   'V85 Zn86 O256'
_cell_volume   4904.76697717
_cell_formula_units_Z   1
loop_
 _symmetry_equiv_pos_site_id
 _symmetry_equiv_pos_as_xyz
  1  'x, y, z'
loop_
 _atom_site_type_symbol
 _atom_site_label
 _atom_site_symmetry_multiplicity
 _atom_site_fract_x
 _atom_site_fract_y
 _atom_site_fract_z
 _atom_site_occupancy
  V  V0  1  0.62362435  0.87840712  0.25640427  1
  V  V1  1  0.25101314  0.62473050  0.36246198  1
  V  V2  1  -0.00180947  0.37651967  0.87341522  1
  V  V3  1  0.12525727  0.25248177  0.87453376  1
  V  V4  1  0.88182986  0.87211203  -0.00052524  1
  V  V5  1  0.75314139  0.37871045  0.62433556  1
  V  V6  1  0.70310528  0.83599058  0.67148655  1
  V  V7  1  0.63195594  0.38161386  0.24636019  1
  V  V8  1  0.87589661  0.12680224  0.75404505  1
  V  V9  1  0.72884989  0.75042762  0.00170088  1
  V  V10  1  0.74969390  0.00176750  0.75120528  1
  V  V11  1  0.12893302  0.62950415  -0.00346147  1
  V  V12  1  0.00191421  0.49362315  0.50318588  1
  V  V13  1  0.49010958  0.62361663  0.63509658  1
  V  V14  1  0.37830144  0.86635610  0.50152136  1
  V  V15  1  0.50717099  -0.00024759  0.50225772  1
  V  V16  1  0.64700143  0.13963953  0.00376767  1
  V  V17  1  0.48356351  0.74631038  0.24721226  1
  V  V18  1  0.12484970  0.25495743  0.37308198  1
  V  V19  1  0.49946429  0.24382237  0.75401971  1
  V  V20  1  0.87300827  0.62292197  0.74805663  1
  V  V21  1  0.50230846  0.13181065  0.11351829  1
  V  V22  1  0.12302614  0.12816542  0.00074634  1
  V  V23  1  0.37349333  0.37636917  0.49781538  1
  V  V24  1  0.83090603  0.43451043  0.44667521  1
  V  V25  1  0.36702170  0.26279918  0.12454388  1
  V  V26  1  0.00228655  0.25426682  0.24952815  1
  V  V27  1  0.50726812  0.12880537  0.61647606  1
  V  V28  1  0.00903686  0.74571206  0.75459841  1
  V  V29  1  0.50134663  0.25377330  0.24836095  1
  V  V30  1  0.12784946  0.61675257  0.49799134  1
  V  V31  1  0.00773671  0.61931061  0.62377768  1
  V  V32  1  0.36882718  0.74550090  0.64276644  1
  V  V33  1  0.62865037  0.74623192  0.37363263  1
  V  V34  1  0.24863685  0.25216081  0.49830894  1
  V  V35  1  0.87617655  -0.00010525  0.37679928  1
  V  V36  1  0.63836122  0.24707915  0.87956934  1
  V  V37  1  0.25430617  0.62758102  0.87663130  1
  V  V38  1  0.87462576  0.87411572  0.50182217  1
  V  V39  1  -0.00000928  0.38098619  0.37158091  1
  V  V40  1  0.37040966  0.38415517  -0.01042820  1
  V  V41  1  0.62212296  0.24144304  0.37641745  1
  V  V42  1  0.24667275  0.48475085  0.24143753  1
  V  V43  1  0.12717815  0.00108498  0.12189015  1
  V  V44  1  0.12393510  0.38597712  0.74596505  1
  V  V45  1  0.75024439  0.75206061  0.49769598  1
  V  V46  1  0.24702498  0.38296751  0.62426319  1
  V  V47  1  0.12600287  0.74911486  0.37336961  1
  V  V48  1  0.00295210  0.00029408  0.50097848  1
  V  V49  1  0.62467202  0.62691795  0.50185740  1
  V  V50  1  0.87736457  0.74599290  0.12291370  1
  V  V51  1  -0.00031566  0.49907571  0.00221429  1
  V  V52  1  0.24856854  -0.00109731  0.24973521  1
  V  V53  1  0.37469069  0.12616595  0.24635128  1
  V  V54  1  0.87688508  0.25430892  0.61665608  1
  V  V55  1  -0.00052888  0.25138322  0.74773029  1
  V  V56  1  0.25051684  0.85801288  0.10837424  1
  V  V57  1  0.50231345  0.87513718  0.37888890  1
  V  V58  1  0.63373106  0.00961492  0.62153783  1
  V  V59  1  0.62486291  0.37088948  0.74915688  1
  V  V60  1  0.74683964  0.24147267  0.49957196  1
  V  V61  1  0.86884289  0.24879352  0.12082135  1
  V  V62  1  0.37381356  0.24458575  0.62646084  1
  V  V63  1  0.26594404  0.49940800  0.75816464  1
  V  V64  1  0.86760983  0.61218414  0.25407200  1
  V  V65  1  0.12133958  0.88145880  0.73090421  1
  V  V66  1  0.87919669  0.75532705  0.62632709  1
  V  V67  1  0.49334341  0.50312903  0.49648168  1
  V  V68  1  0.61930087  0.49481580  0.62080084  1
  V  V69  1  0.00244674  0.12044419  0.62512453  1
  V  V70  1  0.50649918  0.51126015  -0.00553963  1
  V  V71  1  0.75664604  0.87970819  0.12925431  1
  V  V72  1  0.75117036  -0.00060429  0.25216974  1
  V  V73  1  0.58554222  -0.03532390  0.08285724  1
  V  V74  1  0.37660871  0.00215187  0.37616985  1
  V  V75  1  0.37404663  0.50444967  0.36461560  1
  V  V76  1  0.01612594  0.86929250  0.87798789  1
  V  V77  1  0.88011199  0.00168402  0.87514453  1
  V  V78  1  0.87118500  0.50065140  0.87392083  1
  V  V79  1  0.87534625  0.12503955  0.25234862  1
  V  V80  1  0.13045989  0.12091990  0.50197359  1
  V  V81  1  0.12698144  0.48410340  0.12561150  1
  V  V82  1  0.86448329  0.37133399  -0.00125448  1
  V  V83  1  0.00147695  0.87379757  0.37588616  1
  V  V84  1  -0.00104261  0.74546326  0.25063275  1
  Zn  Zn85  1  0.49678254  0.37553601  0.37038787  1
  Zn  Zn86  1  0.00030176  0.12396380  0.12693151  1
  Zn  Zn87  1  0.74913750  0.37974278  0.12516771  1
  Zn  Zn88  1  0.25868291  0.12652745  0.86921070  1
  Zn  Zn89  1  0.49179808  0.62356512  0.12941736  1
  Zn  Zn90  1  0.56975444  0.79769783  0.83542681  1
  Zn  Zn91  1  0.00278542  -0.00089421  0.00257911  1
  Zn  Zn92  1  0.24499439  0.25753102  0.00538347  1
  Zn  Zn93  1  0.25053331  0.12622238  0.37448236  1
  Zn  Zn94  1  0.74501525  0.12019936  0.38000730  1
  Zn  Zn95  1  0.63238593  0.51681427  0.11878254  1
  Zn  Zn96  1  0.41324766  0.91672385  -0.05044905  1
  Zn  Zn97  1  0.74190505  0.63055754  0.89145990  1
  Zn  Zn98  1  0.24624249  0.88250788  0.61934908  1
  Zn  Zn99  1  0.41416749  0.07896979  0.80024263  1
  Zn  Zn100  1  0.75435818  0.61067768  0.37609504  1
  Zn  Zn101  1  0.25254333  0.74684021  0.49883595  1
  Zn  Zn102  1  0.24417518  0.02263030  0.73483113  1
  Zn  Zn103  1  0.49983947  0.38127437  0.87289043  1
  Zn  Zn104  1  0.00308073  0.62116050  0.12646889  1
  Zn  Zn105  1  0.12508137  0.87520373  0.24917363  1
  Zn  Zn106  1  0.72864047  0.51043903  0.76594856  1
  Zn  Zn107  1  0.18692156  0.18715272  0.18940911  1
  Zn  Zn108  1  0.18388534  0.19408772  0.68486748  1
  Zn  Zn109  1  0.18553149  0.67811215  0.18331664  1
  Zn  Zn110  1  0.19047181  0.68188518  0.68851468  1
  Zn  Zn111  1  0.68836428  0.18913463  0.18833002  1
  Zn  Zn112  1  0.69082818  0.18664282  0.69046656  1
  Zn  Zn113  1  0.68522719  0.68619743  0.18569346  1
  Zn  Zn114  1  0.66600929  0.66052073  0.71436479  1
  Zn  Zn115  1  0.31337324  0.31467118  0.31181187  1
  Zn  Zn116  1  0.31360624  0.30009891  0.81306451  1
  Zn  Zn117  1  0.30942828  0.82023549  0.31396179  1
  Zn  Zn118  1  0.29185339  0.80137383  0.81451391  1
  Zn  Zn119  1  0.80989915  0.30642836  0.31015437  1
  Zn  Zn120  1  0.81203774  0.31557881  0.80759475  1
  Zn  Zn121  1  0.81510615  0.80816646  0.31350509  1
  Zn  Zn122  1  0.81772456  0.81059563  0.82172022  1
  Zn  Zn123  1  0.18639720  0.43782343  0.43217574  1
  Zn  Zn124  1  0.18869501  0.43826398  0.93811343  1
  Zn  Zn125  1  0.19223718  0.93870324  0.44127623  1
  Zn  Zn126  1  0.22896887  0.92918238  0.91257712  1
  Zn  Zn127  1  0.66863875  0.42959488  0.43561799  1
  Zn  Zn128  1  0.68278631  0.43623375  0.93883810  1
  Zn  Zn129  1  0.68934217  0.93578412  0.44132804  1
  Zn  Zn130  1  0.69818776  0.93748329  0.93742454  1
  Zn  Zn131  1  0.30730026  0.06836311  0.05202401  1
  Zn  Zn132  1  0.34319402  0.03441441  0.60520280  1
  Zn  Zn133  1  0.31819517  0.56899810  0.06323594  1
  Zn  Zn134  1  0.30902928  0.56262797  0.56136064  1
  Zn  Zn135  1  0.81706125  0.06146662  0.06281542  1
  Zn  Zn136  1  0.81657350  0.06329161  0.56610239  1
  Zn  Zn137  1  0.80929306  0.56290070  0.06717116  1
  Zn  Zn138  1  0.80860963  0.57165012  0.57688389  1
  Zn  Zn139  1  0.43864915  0.44556376  0.18135875  1
  Zn  Zn140  1  0.43847226  0.43133387  0.68608816  1
  Zn  Zn141  1  0.40723344  0.96183526  0.14077799  1
  Zn  Zn142  1  0.40711154  0.92146271  0.78170311  1
  Zn  Zn143  1  0.93700861  0.43497484  0.18454707  1
  Zn  Zn144  1  0.93648713  0.43892016  0.68561775  1
  Zn  Zn145  1  0.94164549  0.93610875  0.18966374  1
  Zn  Zn146  1  0.94184019  0.93799982  0.69025026  1
  Zn  Zn147  1  0.06357395  0.06556819  0.31412945  1
  Zn  Zn148  1  0.09281835  0.04268379  0.83207415  1
  Zn  Zn149  1  0.06339027  0.55949624  0.30983473  1
  Zn  Zn150  1  0.06214696  0.56096387  0.81439114  1
  Zn  Zn151  1  0.55936227  0.06370786  0.30692428  1
  Zn  Zn152  1  0.56423681  -0.03706180  0.81794599  1
  Zn  Zn153  1  0.56446888  0.56637317  0.30986602  1
  Zn  Zn154  1  0.55070697  0.59339094  0.83669642  1
  Zn  Zn155  1  0.43673122  0.18579123  0.43766297  1
  Zn  Zn156  1  0.44296057  0.19530685  0.94113621  1
  Zn  Zn157  1  0.43988661  0.68536001  0.43174935  1
  Zn  Zn158  1  0.43416752  0.69992571  0.92426004  1
  Zn  Zn159  1  0.93791499  0.18879767  0.43722579  1
  Zn  Zn160  1  0.94153250  0.18698293  0.93796417  1
  Zn  Zn161  1  0.93682468  0.68151936  0.43653905  1
  Zn  Zn162  1  0.93805507  0.68395638  0.93637728  1
  Zn  Zn163  1  0.05438537  0.31237113  0.06190288  1
  Zn  Zn164  1  0.06387611  0.31372248  0.56112347  1
  Zn  Zn165  1  0.06910240  0.81177604  0.06538321  1
  Zn  Zn166  1  0.05940649  0.80335784  0.55659592  1
  Zn  Zn167  1  0.55806730  0.31914930  0.06071093  1
  Zn  Zn168  1  0.56140467  0.31315941  0.55790075  1
  Zn  Zn169  1  0.52037705  0.78943586  0.03944849  1
  Zn  Zn170  1  0.53185985  0.83071562  0.65827602  1
  O  O171  1  0.12322884  0.12101525  0.11944458  1
  O  O172  1  0.11100240  0.13942909  0.61240743  1
  O  O173  1  0.12259279  0.61081133  0.11172282  1
  O  O174  1  0.11538965  0.62880389  0.61407291  1
  O  O175  1  0.61900178  0.13579908  0.11506945  1
  O  O176  1  0.62279770  0.11822081  0.62479325  1
  O  O177  1  0.60715422  0.62453330  0.14179067  1
  O  O178  1  0.61319148  0.61510526  0.61835333  1
  O  O179  1  0.37501106  0.38612992  0.38036037  1
  O  O180  1  0.37850570  0.36626411  0.88753441  1
  O  O181  1  0.38146629  0.88459440  0.38206281  1
  O  O182  1  0.33197678  0.89112009  0.86643811  1
  O  O183  1  0.88095974  0.37216789  0.37781028  1
  O  O184  1  0.87941844  0.38089550  0.87804416  1
  O  O185  1  0.88256973  0.87822916  0.38113168  1
  O  O186  1  0.88733631  0.88062753  0.88300346  1
  O  O187  1  0.25862794  0.00329538  0.36870166  1
  O  O188  1  0.20909513  0.01996546  0.85207624  1
  O  O189  1  0.25413130  0.50434222  0.36371276  1
  O  O190  1  0.24801967  0.50180408  0.86188155  1
  O  O191  1  0.75891664  0.00077020  0.37226921  1
  O  O192  1  0.77139147  -0.00381937  0.86482302  1
  O  O193  1  0.75925943  0.49124832  0.39490750  1
  O  O194  1  0.76351797  0.49786789  0.87929913  1
  O  O195  1  0.24352612  0.49984789  0.13653404  1
  O  O196  1  0.25436310  0.48899348  0.63478542  1
  O  O197  1  0.23776349  0.99920118  0.13282555  1
  O  O198  1  0.24014254  0.99670337  0.62154149  1
  O  O199  1  0.74295629  0.49253812  0.11898670  1
  O  O200  1  0.74003571  0.48618560  0.61550545  1
  O  O201  1  0.76406472  0.98663727  0.13474545  1
  O  O202  1  0.74524856  1.00057392  0.63060491  1
  O  O203  1  -0.00672186  0.36648851  0.26003132  1
  O  O204  1  0.00566342  0.37183557  0.75178019  1
  O  O205  1  0.00248112  0.86150798  0.25737132  1
  O  O206  1  0.00491633  0.86292580  0.75472570  1
  O  O207  1  0.50424398  0.36440232  0.24832214  1
  O  O208  1  0.50866565  0.36234833  0.74762494  1
  O  O209  1  0.51542459  0.86457160  0.26137171  1
  O  O210  1  0.50634232  0.86969685  0.75935695  1
  O  O211  1  0.49652672  0.13903668  0.24169716  1
  O  O212  1  0.49915257  0.13925494  0.73249486  1
  O  O213  1  0.49828594  0.64512500  0.26316214  1
  O  O214  1  0.49608724  0.60736444  0.73163817  1
  O  O215  1  0.98835122  0.13266142  0.25251262  1
  O  O216  1  0.99179619  0.13326134  0.73892173  1
  O  O217  1  0.99245896  0.63352464  0.25096122  1
  O  O218  1  0.99431776  0.62708947  0.74331662  1
  O  O219  1  0.37513340  0.26185776  0.01419300  1
  O  O220  1  0.36782231  0.25784187  0.50164364  1
  O  O221  1  0.43356250  0.80095695  -0.02894179  1
  O  O222  1  0.37537168  0.76076761  0.48955564  1
  O  O223  1  0.88466362  0.25900427  0.00908369  1
  O  O224  1  0.86873608  0.24826984  0.51107036  1
  O  O225  1  0.88066688  0.75211550  0.01393531  1
  O  O226  1  0.87149005  0.75100132  0.50744071  1
  O  O227  1  0.12922476  0.24621326  0.49171013  1
  O  O228  1  0.12170742  0.24818205  0.99380124  1
  O  O229  1  0.12377682  0.73575153  0.48702529  1
  O  O230  1  0.11480579  0.72706528  1.00262777  1
  O  O231  1  0.63501580  0.25788799  0.48904298  1
  O  O232  1  0.62728418  0.24829341  0.99501649  1
  O  O233  1  0.63593716  0.74393400  0.48794020  1
  O  O234  1  0.63160314  0.75885501  1.01022113  1
  O  O235  1  0.49138470  0.24779930  0.13096265  1
  O  O236  1  0.49538834  0.24687301  0.62531547  1
  O  O237  1  0.50191791  0.75445939  0.14656295  1
  O  O238  1  0.47978897  0.73735701  0.62242414  1
  O  O239  1  0.99029112  0.24985083  0.13630372  1
  O  O240  1  0.99134636  0.24739346  0.62635237  1
  O  O241  1  0.99501754  0.74764853  0.13499797  1
  O  O242  1  0.99456214  0.74013977  0.63080465  1
  O  O243  1  0.00395929  0.26058947  0.37137062  1
  O  O244  1  0.00408357  0.25980987  0.86791276  1
  O  O245  1  0.00580518  0.75173072  0.37000961  1
  O  O246  1  -0.00704525  0.75610738  0.86480813  1
  O  O247  1  0.50463348  0.25062354  0.36711430  1
  O  O248  1  0.51453668  0.25271951  0.86457244  1
  O  O249  1  0.51201224  0.75602190  0.37153199  1
  O  O250  1  0.53061189  0.70094496  0.86516753  1
  O  O251  1  0.23758766  0.13632957  0.49551968  1
  O  O252  1  0.23540891  0.13489474  0.99450246  1
  O  O253  1  0.24053819  0.62239796  0.48774323  1
  O  O254  1  0.23667381  0.61151589  0.98947632  1
  O  O255  1  0.75372820  0.13838575  0.50158266  1
  O  O256  1  0.74592103  0.13524494  1.01127544  1
  O  O257  1  0.74671105  0.63713431  0.50270479  1
  O  O258  1  0.75047023  0.64564076  1.00612249  1
  O  O259  1  0.26487778  0.37506804  -0.00154686  1
  O  O260  1  0.25176870  0.37366655  0.50658728  1
  O  O261  1  0.24080542  0.87285826  0.00944121  1
  O  O262  1  0.26194782  0.86938833  0.49953647  1
  O  O263  1  0.76276318  0.37289792  -0.00350556  1
  O  O264  1  0.75750722  0.37008598  0.50091064  1
  O  O265  1  0.76010399  0.86654194  0.01128913  1
  O  O266  1  0.75933224  0.86178353  0.49737734  1
  O  O267  1  0.13607799  0.50195131  0.24083216  1
  O  O268  1  0.12581723  0.48799699  0.75060812  1
  O  O269  1  0.13187545  1.00268981  0.24563991  1
  O  O270  1  0.10519178  0.98145488  0.73448986  1
  O  O271  1  0.61859087  0.48224090  0.25473283  1
  O  O272  1  0.61835297  0.47811618  0.73440957  1
  O  O273  1  0.63569137  0.98788386  0.26228510  1
  O  O274  1  0.64450575  1.00624607  0.74110217  1
  O  O275  1  0.36667217  0.00840044  0.24872119  1
  O  O276  1  0.36479702  0.00944066  0.72235376  1
  O  O277  1  0.36231540  0.49215175  0.25595660  1
  O  O278  1  0.36370063  0.49202642  0.75013925  1
  O  O279  1  0.87336087  0.00644168  0.25670838  1
  O  O280  1  0.87366112  0.00793626  0.75413798  1
  O  O281  1  0.88025406  0.51425500  0.24596255  1
  O  O282  1  0.87825743  0.50634115  0.76034693  1
  O  O283  1  0.11477416  0.36308539  0.37887745  1
  O  O284  1  0.11645122  0.37232708  0.86869216  1
  O  O285  1  0.12031670  0.86429644  0.37629883  1
  O  O286  1  0.11627993  0.87462055  0.86119398  1
  O  O287  1  0.61731576  0.36159294  0.36216313  1
  O  O288  1  0.62462136  0.36817440  0.86370103  1
  O  O289  1  0.62340238  0.86683373  0.37322816  1
  O  O290  1  0.62956817  0.88611632  0.86965647  1
  O  O291  1  0.38368271  0.13854342  0.12912968  1
  O  O292  1  0.38762320  0.14155842  0.61276065  1
  O  O293  1  0.38002640  0.62311495  0.13267866  1
  O  O294  1  0.37705357  0.63642393  0.61661628  1
  O  O295  1  0.87882053  0.13103227  0.13386567  1
  O  O296  1  0.88420731  0.13501382  0.62976707  1
  O  O297  1  0.87938287  0.63194511  0.13466016  1
  O  O298  1  0.89319004  0.63594313  0.62565743  1
  O  O299  1  0.26423325  0.24805151  0.12757505  1
  O  O300  1  0.25829508  0.26217108  0.61882403  1
  O  O301  1  0.23317467  0.76041707  0.12466682  1
  O  O302  1  0.26003971  0.74470099  0.61916595  1
  O  O303  1  0.76671410  0.25651108  0.13531848  1
  O  O304  1  0.75471424  0.25970876  0.61801328  1
  O  O305  1  0.75768700  0.76053703  0.11998099  1
  O  O306  1  0.76105305  0.75899618  0.61809939  1
  O  O307  1  0.24035811  0.25158204  0.37742642  1
  O  O308  1  0.23088264  0.25700073  0.87825578  1
  O  O309  1  0.24131585  0.74187691  0.37303479  1
  O  O310  1  0.22978768  0.72412685  0.86696677  1
  O  O311  1  0.74226857  0.24671985  0.38365401  1
  O  O312  1  0.73705100  0.25075854  0.86295045  1
  O  O313  1  0.74686674  0.74685536  0.38365457  1
  O  O314  1  0.75203435  0.75283824  0.89703215  1
  O  O315  1  0.01025728  0.12367871  0.00645460  1
  O  O316  1  0.00597269  0.12195174  0.50576758  1
  O  O317  1  0.00431980  0.61087798  -0.00049646  1
  O  O318  1  0.00603688  0.61384142  0.50389904  1
  O  O319  1  0.50977614  0.13121664  0.01202850  1
  O  O320  1  0.50086490  0.11932649  0.50862585  1
  O  O321  1  0.48770229  0.61072903  -0.00022729  1
  O  O322  1  0.50317577  0.61481174  0.50219883  1
  O  O323  1  0.49406935  0.38748561  0.49520896  1
  O  O324  1  0.48873717  0.38324358  0.99575310  1
  O  O325  1  0.49418478  0.88353651  0.49271593  1
  O  O326  1  0.52995706  0.90830750  1.02515950  1
  O  O327  1  1.00108982  0.38722902  0.49575444  1
  O  O328  1  0.99066986  0.38530513  0.99328760  1
  O  O329  1  0.99519155  0.87876746  0.49385740  1
  O  O330  1  1.00042295  0.87392181  0.99330062  1
  O  O331  1  0.48974472  0.50135586  0.37815126  1
  O  O332  1  0.50311236  0.49996072  0.88803942  1
  O  O333  1  0.49644583  0.99710107  0.38102157  1
  O  O334  1  0.46635496  0.99350761  0.86300112  1
  O  O335  1  1.00346942  0.48748832  0.38050922  1
  O  O336  1  0.98833662  0.49631411  0.88124550  1
  O  O337  1  0.99507858  0.99452395  0.38017681  1
  O  O338  1  0.99562405  0.98789625  0.87628964  1
  O  O339  1  0.01353798  0.00029718  0.12773123  1
  O  O340  1  -0.00822788  0.01355136  0.61620961  1
  O  O341  1  0.00637132  0.49943518  0.11723544  1
  O  O342  1  -0.00146667  0.50730094  0.61625440  1
  O  O343  1  0.51509775  0.01602190  0.14158764  1
  O  O344  1  0.51390192  0.01309297  0.61602596  1
  O  O345  1  0.50747783  0.49803738  0.11030690  1
  O  O346  1  0.49797656  0.50163280  0.61228327  1
  O  O347  1  0.24505891  0.38652634  0.25333784  1
  O  O348  1  0.24382567  0.38271801  0.74523856  1
  O  O349  1  0.24326352  0.89020935  0.25214823  1
  O  O350  1  0.22444416  0.86766800  0.74016367  1
  O  O351  1  0.73450607  0.37137994  0.25312973  1
  O  O352  1  0.74242023  0.38098215  0.73948372  1
  O  O353  1  0.74758706  0.87698193  0.24579549  1
  O  O354  1  0.76441844  0.88236720  0.74430350  1
  O  O355  1  0.25468103  0.11622953  0.25279531  1
  O  O356  1  0.24621711  0.13772857  0.75333572  1
  O  O357  1  0.24387241  0.61471763  0.26025925  1
  O  O358  1  0.24194426  0.60588069  0.75931013  1
  O  O359  1  0.76154957  0.12039708  0.25187615  1
  O  O360  1  0.76768806  0.11697212  0.74343614  1
  O  O361  1  0.76492639  0.62857318  0.25276607  1
  O  O362  1  0.77557021  0.61257056  0.71165229  1
  O  O363  1  0.37518495  0.11978448  0.36546883  1
  O  O364  1  0.36970697  0.15281199  0.87117929  1
  O  O365  1  0.36466540  0.61208218  0.37955698  1
  O  O366  1  0.35336850  0.63000735  0.88341349  1
  O  O367  1  0.87307504  0.11999929  0.36853194  1
  O  O368  1  0.88660717  0.11627327  0.86460923  1
  O  O369  1  0.87277998  0.62685564  0.35985652  1
  O  O370  1  0.86734630  0.61946468  0.86376575  1
  O  O371  1  0.12045044  0.38451598  0.12098489  1
  O  O372  1  0.13595981  0.36853967  0.63332170  1
  O  O373  1  0.13223126  0.88433014  0.12927812  1
  O  O374  1  0.11841517  0.86717823  0.62869535  1
  O  O375  1  0.62659289  0.36841479  0.14057821  1
  O  O376  1  0.63344539  0.37355368  0.62679382  1
  O  O377  1  0.63779648  0.88867496  0.13778225  1
  O  O378  1  0.62724493  0.89072314  0.62119143  1
  O  O379  1  0.11047376  0.24320716  0.25767104  1
  O  O380  1  0.11559449  0.26283792  0.75685297  1
  O  O381  1  0.11651113  0.74522391  0.25994977  1
  O  O382  1  0.11089355  0.75132213  0.74190671  1
  O  O383  1  0.61738159  0.25547965  0.25585106  1
  O  O384  1  0.62001545  0.25445593  0.75269266  1
  O  O385  1  0.63415233  0.76101433  0.26441216  1
  O  O386  1  0.63726789  0.76975582  0.72251465  1
  O  O387  1  0.38092609  0.24938799  0.24171099  1
  O  O388  1  0.38686817  0.26134927  0.73534504  1
  O  O389  1  0.38658581  0.75634105  0.26221359  1
  O  O390  1  0.36593598  0.74851753  0.74109783  1
  O  O391  1  0.88344670  0.24226124  0.24713056  1
  O  O392  1  0.87880727  0.24478628  0.74056804  1
  O  O393  1  0.88203647  0.74523680  0.24022961  1
  O  O394  1  0.88161612  0.74210117  0.74353896  1
  O  O395  1  0.37800729  0.49582599  0.49143145  1
  O  O396  1  0.37990207  0.48579318  1.00313574  1
  O  O397  1  0.39097201  0.99040881  0.50149120  1
  O  O398  1  0.38307832  0.99261180  1.03225933  1
  O  O399  1  0.88199057  0.50278170  0.50703681  1
  O  O400  1  0.88145657  0.49504001  0.99384942  1
  O  O401  1  0.88120950  0.99481858  0.49568356  1
  O  O402  1  0.88050810  0.99415343  0.99223732  1
  O  O403  1  0.12348287  0.01284216  0.01025332  1
  O  O404  1  0.11759768  0.01347247  0.49061959  1
  O  O405  1  0.11601297  0.49945301  0.00651595  1
  O  O406  1  0.11768230  0.50913182  0.49464464  1
  O  O407  1  0.64370274  0.01565520  0.01323238  1
  O  O408  1  0.61645718  -0.00143923  0.50504959  1
  O  O409  1  0.61213675  0.50052826  -0.00066925  1
  O  O410  1  0.61240337  0.50425423  0.50196983  1
  O  O411  1  0.37860726  0.36488844  0.11943403  1
  O  O412  1  0.36851298  0.36691141  0.61547650  1
  O  O413  1  0.34749217  0.86609853  0.13547038  1
  O  O414  1  0.37285193  0.85317860  0.61541576  1
  O  O415  1  0.87517310  0.36750688  0.11459604  1
  O  O416  1  0.86515418  0.36698870  0.63015898  1
  O  O417  1  0.87359716  0.86690368  0.12206053  1
  O  O418  1  0.88784399  0.86186528  0.61944749  1
  O  O419  1  0.12195597  0.13904477  0.38442080  1
  O  O420  1  0.11048061  0.14209107  0.88597598  1
  O  O421  1  0.13016222  0.62878896  0.37925203  1
  O  O422  1  0.12727429  0.61045008  0.89170606  1
  O  O423  1  0.62628987  0.13734688  0.36799236  1
  O  O424  1  0.62797468  0.13502831  0.90089446  1
  O  O425  1  0.63355636  0.62953467  0.38130592  1
  O  O426  1  0.66335563  0.60506599  0.81545231  1
