# generated using pymatgen
data_V85Zn86O256
_symmetry_space_group_name_H-M   'P 1'
_cell_length_a   16.93735923
_cell_length_b   16.93301801
_cell_length_c   16.92542355
_cell_angle_alpha   89.91851843
_cell_angle_beta   90.01105261
_cell_angle_gamma   89.99399140
_symmetry_Int_Tables_number   1
_chemical_formula_structural   V85Zn86O256
_chemical_formula_sum   'V85 Zn86 O256'
_cell_volume   4854.21675639
_cell_formula_units_Z   1
loop_
 _symmetry_equiv_pos_site_id
 _symmetry_equiv_pos_as_xyz
  1  'x, y, z'
loop_
 _atom_site_type_symbol
 _atom_site_label
 _atom_site_symmetry_multiplicity
 _atom_site_fract_x
 _atom_site_fract_y
 _atom_site_fract_z
 _atom_site_occupancy
  V  V0  1  0.24398031  0.50495833  0.25067293  1
  V  V1  1  0.37462467  0.87611561  -0.00242144  1
  V  V2  1  0.75339861  0.87753498  0.12469603  1
  V  V3  1  0.12280152  0.00292142  0.12053257  1
  V  V4  1  0.49604630  0.00202954  -0.00356631  1
  V  V5  1  -0.00466870  0.62288635  0.63306877  1
  V  V6  1  0.12218138  0.76261367  0.86974371  1
  V  V7  1  0.75269478  0.87499572  0.61948695  1
  V  V8  1  0.87681518  0.36765732  0.00381194  1
  V  V9  1  0.62536931  0.74493749  0.38185055  1
  V  V10  1  0.51280168  0.36755079  0.88068802  1
  V  V11  1  0.49727729  0.87441228  0.87702621  1
  V  V12  1  -0.00470132  -0.00687512  0.50276424  1
  V  V13  1  0.24742276  0.00066328  0.25016535  1
  V  V14  1  0.74988202  0.24950112  -0.00638613  1
  V  V15  1  0.11410000  0.26766446  0.36924082  1
  V  V16  1  0.63467174  0.25262732  0.38158234  1
  V  V17  1  -0.01181338  0.50371803  -0.00348037  1
  V  V18  1  0.25047632  0.74786265  0.00079659  1
  V  V19  1  0.00068266  -0.01656361  -0.00911921  1
  V  V20  1  0.49841249  0.00510139  0.50206777  1
  V  V21  1  0.88320758  0.37142350  0.49544066  1
  V  V22  1  -0.00062869  0.62495199  0.12828750  1
  V  V23  1  0.50653788  0.62819522  0.62155817  1
  V  V24  1  0.37795373  0.50146924  0.36798091  1
  V  V25  1  0.75298447  0.37570911  0.62115568  1
  V  V26  1  0.75098158  0.62180081  0.38454980  1
  V  V27  1  0.49702371  0.37252840  0.37278519  1
  V  V28  1  0.25099311  0.49854804  0.74801620  1
  V  V29  1  0.11869231  0.87436430  0.25217973  1
  V  V30  1  0.24665324  0.12637628  0.37411886  1
  V  V31  1  0.49877746  0.72968214  0.24344322  1
  V  V32  1  0.26112088  0.12930952  0.88049006  1
  V  V33  1  0.75204601  0.75478443  -0.00042100  1
  V  V34  1  0.63524043  0.12357983  0.49985543  1
  V  V35  1  0.12589142  0.37331680  0.74848697  1
  V  V36  1  0.62192972  0.61888621  0.01453200  1
  V  V37  1  0.25460673  -0.00178738  0.75483349  1
  V  V38  1  0.12248882  0.62351424  -0.00233552  1
  V  V39  1  0.24530326  0.62341938  0.87280792  1
  V  V40  1  0.42225722  0.32280483  0.55118409  1
  V  V41  1  0.37193624  0.74928000  0.62255622  1
  V  V42  1  0.87641534  -0.01968761  0.87622400  1
  V  V43  1  0.24537946  0.37452369  0.13142706  1
  V  V44  1  0.36910132  0.86956219  0.49906490  1
  V  V45  1  -0.00674295  0.38238165  0.87050608  1
  V  V46  1  0.62238114  0.13696226  -0.00724432  1
  V  V47  1  0.37276398  0.12840435  0.24769473  1
  V  V48  1  0.87021175  0.00306093  0.37774561  1
  V  V49  1  0.86937014  0.24593958  0.61993421  1
  V  V50  1  0.36636621  0.25301465  0.12014381  1
  V  V51  1  0.49911985  0.13183743  0.12333692  1
  V  V52  1  0.62452050  0.00158856  0.12461693  1
  V  V53  1  -0.00860104  0.87213247  0.37642527  1
  V  V54  1  0.75269545  0.50191359  0.24284405  1
  V  V55  1  0.87811220  0.75727083  0.12464620  1
  V  V56  1  0.88487836  0.49864780  0.37498949  1
  V  V57  1  0.87564627  0.74979113  0.61931623  1
  V  V58  1  0.11767663  0.13006979  -0.00377078  1
  V  V59  1  0.62302422  0.87476483  0.74998080  1
  V  V60  1  0.12531524  0.50290973  0.62261589  1
  V  V61  1  0.49884549  0.74903060  0.75080759  1
  V  V62  1  0.75113532  0.36802631  0.12616412  1
  V  V63  1  0.12473516  -0.00214291  0.63201877  1
  V  V64  1  0.37336445  -0.00021576  0.37338632  1
  V  V65  1  0.50052676  0.87449471  0.36909328  1
  V  V66  1  0.00124512  0.24742544  0.75082196  1
  V  V67  1  0.50009870  0.50546167  0.50041562  1
  V  V68  1  0.25441786  0.63388682  0.38147320  1
  V  V69  1  0.24340882  0.86895698  0.62678410  1
  V  V70  1  0.37525858  0.62634100  0.75126051  1
  V  V71  1  0.62852593  0.50244505  0.62610500  1
  V  V72  1  0.76023234  0.61868619  0.87073233  1
  V  V73  1  0.62652858  0.37678014  0.25007255  1
  V  V74  1  0.62038425  0.00281370  0.62735418  1
  V  V75  1  -0.00618951  0.25423018  0.23228185  1
  V  V76  1  0.25392144  0.87127734  0.12765658  1
  V  V77  1  0.24834614  0.25173909  0.50123861  1
  V  V78  1  0.62385553  0.74397792  0.87657360  1
  V  V79  1  0.25015423  0.37374542  0.61959055  1
  V  V80  1  0.35716662  0.37239746  -0.01004636  1
  V  V81  1  0.12248604  0.12334240  0.49862382  1
  V  V82  1  0.37962648  0.12624535  0.72886358  1
  V  V83  1  0.87478375  0.12391640  0.75738339  1
  V  V84  1  -0.00354459  0.76297757  0.75338462  1
  Zn  Zn85  1  0.49971221  0.25107554  0.25118752  1
  Zn  Zn86  1  0.87558352  0.13336597  0.22912481  1
  Zn  Zn87  1  0.75418354  0.13285718  0.37029267  1
  Zn  Zn88  1  0.49872422  0.24532817  0.75111131  1
  Zn  Zn89  1  0.37806961  0.73009287  0.12722992  1
  Zn  Zn90  1  0.12922973  0.63755975  0.50541360  1
  Zn  Zn91  1  0.49666723  0.50490166  0.00555778  1
  Zn  Zn92  1  0.00530149  0.50185913  0.49638407  1
  Zn  Zn93  1  0.12734945  0.75378213  0.38348444  1
  Zn  Zn94  1  -0.00021359  0.75048240  0.25287446  1
  Zn  Zn95  1  0.74873718  -0.00151042  0.75271953  1
  Zn  Zn96  1  0.76412826  0.50018031  0.74992693  1
  Zn  Zn97  1  -0.00120894  0.12287179  0.62634443  1
  Zn  Zn98  1  0.87629923  0.62791257  0.25283156  1
  Zn  Zn99  1  0.11835933  0.49303150  0.12995994  1
  Zn  Zn100  1  0.37980207  0.49904308  0.87369351  1
  Zn  Zn101  1  0.63032466  0.36839553  0.75429146  1
  Zn  Zn102  1  0.75010945  0.00477204  0.24941092  1
  Zn  Zn103  1  0.62463282  0.87409757  0.24911900  1
  Zn  Zn104  1  0.75112305  0.74965541  0.49935588  1
  Zn  Zn105  1  0.74570273  0.12515908  0.87316663  1
  Zn  Zn106  1  0.12923517  0.25256855  0.87647275  1
  Zn  Zn107  1  0.17984055  0.18900504  0.18694539  1
  Zn  Zn108  1  0.19071948  0.18483790  0.68722545  1
  Zn  Zn109  1  0.18713335  0.68601373  0.19078299  1
  Zn  Zn110  1  0.18260935  0.68926213  0.69042716  1
  Zn  Zn111  1  0.69009518  0.19022450  0.18684924  1
  Zn  Zn112  1  0.69001019  0.18332982  0.69089774  1
  Zn  Zn113  1  0.68962298  0.69003408  0.19452927  1
  Zn  Zn114  1  0.68914391  0.68695517  0.68893639  1
  Zn  Zn115  1  0.31106848  0.31515939  0.31266589  1
  Zn  Zn116  1  0.31493132  0.30487318  0.80617404  1
  Zn  Zn117  1  0.31832150  0.81075637  0.30683781  1
  Zn  Zn118  1  0.31049677  0.81325242  0.81303440  1
  Zn  Zn119  1  0.81884488  0.31288848  0.31196691  1
  Zn  Zn120  1  0.81382084  0.31526125  0.81088916  1
  Zn  Zn121  1  0.81184883  0.81576008  0.31002030  1
  Zn  Zn122  1  0.80962750  0.80660088  0.80449185  1
  Zn  Zn123  1  0.19183337  0.44101818  0.43898628  1
  Zn  Zn124  1  0.17953218  0.44161207  0.93482864  1
  Zn  Zn125  1  0.18417176  0.93474873  0.44026064  1
  Zn  Zn126  1  0.19229615  0.94148406  0.93663263  1
  Zn  Zn127  1  0.69015672  0.43939767  0.44194171  1
  Zn  Zn128  1  0.68879223  0.43956034  0.94090674  1
  Zn  Zn129  1  0.68552315  0.93436197  0.43890496  1
  Zn  Zn130  1  0.68661768  0.93931390  0.93786705  1
  Zn  Zn131  1  0.31048917  0.06250345  0.06044584  1
  Zn  Zn132  1  0.30794387  0.05710290  0.55997433  1
  Zn  Zn133  1  0.31002319  0.55659702  0.05994439  1
  Zn  Zn134  1  0.31957174  0.55937686  0.55837197  1
  Zn  Zn135  1  0.81288655  0.06454970  0.05580144  1
  Zn  Zn136  1  0.81273084  0.05860444  0.56474743  1
  Zn  Zn137  1  0.81157887  0.56578896  0.06209088  1
  Zn  Zn138  1  0.81789841  0.56195521  0.56242614  1
  Zn  Zn139  1  0.44264199  0.54330852  0.17766724  1
  Zn  Zn140  1  0.44437739  0.44132497  0.69678720  1
  Zn  Zn141  1  0.43677510  0.93892278  0.18482507  1
  Zn  Zn142  1  0.43398674  0.93904138  0.68771111  1
  Zn  Zn143  1  0.93822468  0.43233405  0.18987972  1
  Zn  Zn144  1  0.93777287  0.43500882  0.68309047  1
  Zn  Zn145  1  0.92172643  0.96812916  0.16962864  1
  Zn  Zn146  1  0.93493900  0.93639916  0.68855983  1
  Zn  Zn147  1  0.05568481  0.06562182  0.31096768  1
  Zn  Zn148  1  0.06287860  0.06038134  0.81550903  1
  Zn  Zn149  1  0.06780866  0.56612632  0.31374199  1
  Zn  Zn150  1  -0.06123108  0.56843826  0.81119450  1
  Zn  Zn151  1  0.56282572  0.06582063  0.31141454  1
  Zn  Zn152  1  0.55674655  0.06274188  0.81369277  1
  Zn  Zn153  1  0.57127990  0.55885392  0.31655239  1
  Zn  Zn154  1  0.56411531  0.55692454  0.81513989  1
  Zn  Zn155  1  0.44246576  0.18315781  0.43240778  1
  Zn  Zn156  1  0.43573873  0.19414547  0.93760327  1
  Zn  Zn157  1  0.43707993  0.68665429  0.43524376  1
  Zn  Zn158  1  0.43584298  0.68541657  0.94348199  1
  Zn  Zn159  1  0.93981507  0.18464071  0.43683598  1
  Zn  Zn160  1  0.94028567  0.18721958  0.93780772  1
  Zn  Zn161  1  0.94102869  0.68490711  0.44287084  1
  Zn  Zn162  1  0.93805451  0.70048757  0.94122445  1
  Zn  Zn163  1  0.06244077  0.31294623  0.06152014  1
  Zn  Zn164  1  0.06031679  0.31062261  0.56216045  1
  Zn  Zn165  1  0.06570678  0.81233554  0.06325226  1
  Zn  Zn166  1  0.06354744  0.80978695  0.56246926  1
  Zn  Zn167  1  0.52614030  0.36328623  0.09932214  1
  Zn  Zn168  1  0.59382939  0.28445040  0.59546712  1
  Zn  Zn169  1  0.56569122  0.81157969  0.06367887  1
  Zn  Zn170  1  0.56059750  0.81696970  0.55962858  1
  O  O171  1  0.13522289  0.11556724  0.10758709  1
  O  O172  1  0.12569057  0.11848732  0.61383204  1
  O  O173  1  0.11374074  0.62686348  0.11712550  1
  O  O174  1  0.12070134  0.61641170  0.62628779  1
  O  O175  1  0.61673446  0.12070785  0.11799693  1
  O  O176  1  0.62911361  0.10989364  0.61746261  1
  O  O177  1  0.63265755  0.63133811  0.11252455  1
  O  O178  1  0.61395397  0.62141730  0.62885881  1
  O  O179  1  0.38965819  0.38130116  0.37032413  1
  O  O180  1  0.37209105  0.37178027  0.88151712  1
  O  O181  1  0.37847510  0.87959675  0.38054922  1
  O  O182  1  0.37984346  0.86902866  0.88947743  1
  O  O183  1  0.86999212  0.38467245  0.38518031  1
  O  O184  1  0.88735634  0.37199837  0.88266939  1
  O  O185  1  0.88547849  0.88140805  0.37615314  1
  O  O186  1  0.87134992  0.88200681  0.86868579  1
  O  O187  1  0.25417497  0.00461732  0.37088784  1
  O  O188  1  0.24619536  0.01092257  0.86147352  1
  O  O189  1  0.25805351  0.50438718  0.36737072  1
  O  O190  1  0.24719754  0.50799036  0.86545646  1
  O  O191  1  0.76203202  -0.00407346  0.37877743  1
  O  O192  1  0.76347782  -0.00055975  0.87487856  1
  O  O193  1  0.75862167  0.50638977  0.36970245  1
  O  O194  1  0.74781793  0.51592792  0.87505455  1
  O  O195  1  0.24611341  0.49486332  0.13720876  1
  O  O196  1  0.24800652  0.49273578  0.62643873  1
  O  O197  1  0.24192335  0.99159957  0.12837800  1
  O  O198  1  0.24288695  0.99297243  0.63264543  1
  O  O199  1  0.75561899  0.49579120  0.13793507  1
  O  O200  1  0.74396503  0.49758703  0.62599711  1
  O  O201  1  0.73900274  0.99196349  0.11910067  1
  O  O202  1  0.74173528  0.99079967  0.62878661  1
  O  O203  1  0.00140553  0.35664737  0.24643435  1
  O  O204  1  0.00516714  0.36788940  0.75477528  1
  O  O205  1  0.00777802  0.87688781  0.25850066  1
  O  O206  1  0.00226418  0.86195930  0.74616437  1
  O  O207  1  0.51392316  0.37287954  0.26182699  1
  O  O208  1  0.50031141  0.37248819  0.76779921  1
  O  O209  1  0.49867908  0.87604302  0.26140068  1
  O  O210  1  0.50218430  0.86917387  0.75634021  1
  O  O211  1  0.49223065  0.12842582  0.24129997  1
  O  O212  1  0.48351501  0.12248087  0.75003732  1
  O  O213  1  0.50424220  0.62644384  0.24908838  1
  O  O214  1  0.49506624  0.62944047  0.74498452  1
  O  O215  1  0.99616189  0.14591764  0.26020467  1
  O  O216  1  0.99465277  0.13172045  0.74901404  1
  O  O217  1  1.00033405  0.62888670  0.24085464  1
  O  O218  1  1.00102466  0.63590134  0.73824980  1
  O  O219  1  0.36970471  0.26066739  0.00612972  1
  O  O220  1  0.36792385  0.25520454  0.49123932  1
  O  O221  1  0.36884731  0.75747105  0.00629335  1
  O  O222  1  0.38089710  0.76284749  0.50374342  1
  O  O223  1  0.87174647  0.26030633  -0.00141741  1
  O  O224  1  0.88151043  0.25492182  0.50923481  1
  O  O225  1  0.86584177  0.75094429  0.01360252  1
  O  O226  1  0.87530793  0.75063153  0.51496423  1
  O  O227  1  0.12978138  0.24296782  0.49306804  1
  O  O228  1  0.11917304  0.23396303  0.99619004  1
  O  O229  1  0.13155303  0.75209739  0.49766629  1
  O  O230  1  0.12928692  0.74029362  0.99441700  1
  O  O231  1  0.62005804  0.23477345  0.49614760  1
  O  O232  1  0.63207783  0.23751632  1.00316170  1
  O  O233  1  0.62273572  0.75390035  0.48562508  1
  O  O234  1  0.63045379  0.74215727  0.99350643  1
  O  O235  1  0.48236631  0.25528020  0.12885806  1
  O  O236  1  0.47909285  0.26269496  0.60644579  1
  O  O237  1  0.50376816  0.75307591  0.14233396  1
  O  O238  1  0.49551757  0.74482997  0.62861555  1
  O  O239  1  1.00473173  0.24590343  0.13254739  1
  O  O240  1  0.99130428  0.24791812  0.63574655  1
  O  O241  1  0.99339541  0.74588638  0.12505853  1
  O  O242  1  0.99434731  0.74695525  0.63410746  1
  O  O243  1  0.01402925  0.25334309  0.38158462  1
  O  O244  1  0.00153697  0.25676918  0.86286076  1
  O  O245  1  0.00016966  0.75871413  0.37372929  1
  O  O246  1  0.00626436  0.74763297  0.86266721  1
  O  O247  1  0.51006291  0.25820655  0.37487163  1
  O  O248  1  0.49991311  0.26241106  0.87177749  1
  O  O249  1  0.50482651  0.75363699  0.36496897  1
  O  O250  1  0.50695615  0.75317989  0.87284772  1
  O  O251  1  0.24372874  0.13184863  0.49485686  1
  O  O252  1  0.24144511  0.11634141  0.98484888  1
  O  O253  1  0.25196241  0.61905302  0.48511614  1
  O  O254  1  0.24071486  0.62613632  0.99364627  1
  O  O255  1  0.73808665  0.11688195  0.49567510  1
  O  O256  1  0.74253406  0.13228426  0.99750073  1
  O  O257  1  0.75326153  0.62670772  0.48846134  1
  O  O258  1  0.74326472  0.63468336  0.99178426  1
  O  O259  1  0.25374299  0.37793927  0.00034328  1
  O  O260  1  0.25159378  0.36895303  0.51039025  1
  O  O261  1  0.25711492  0.87158468  0.00748259  1
  O  O262  1  0.26041889  0.88311452  0.51081030  1
  O  O263  1  0.75635137  0.37040180  0.00539199  1
  O  O264  1  0.76342388  0.38150514  0.51364402  1
  O  O265  1  0.74081421  0.86120845  0.00634670  1
  O  O266  1  0.74246777  0.86944679  0.51512686  1
  O  O267  1  0.13915024  0.50018299  0.25007243  1
  O  O268  1  0.13610635  0.48830111  0.73453418  1
  O  O269  1  0.12719816  0.99396290  0.24210645  1
  O  O270  1  0.13368103  1.00877147  0.73775190  1
  O  O271  1  0.63898400  0.48496651  0.26037083  1
  O  O272  1  0.62569526  0.49639754  0.73547191  1
  O  O273  1  0.62337598  1.00157437  0.23531410  1
  O  O274  1  0.62226901  0.99414671  0.74304163  1
  O  O275  1  0.36762518  0.00705665  0.25267279  1
  O  O276  1  0.36594143  0.01166044  0.74577382  1
  O  O277  1  0.36811706  0.50340207  0.26287535  1
  O  O278  1  0.36892849  0.50897943  0.75266694  1
  O  O279  1  0.87399502  -0.00410014  0.27306949  1
  O  O280  1  0.87512776  0.00618938  0.76031467  1
  O  O281  1  0.86920286  0.50033910  0.25801600  1
  O  O282  1  0.87746925  0.49864909  0.75027030  1
  O  O283  1  0.12817078  0.36534140  0.37937398  1
  O  O284  1  0.11300390  0.37322181  0.86850285  1
  O  O285  1  0.11462801  0.87895714  0.36722053  1
  O  O286  1  0.13587484  0.86113642  0.87811257  1
  O  O287  1  0.61813913  0.36977723  0.37740983  1
  O  O288  1  0.61679094  0.37538353  0.87613187  1
  O  O289  1  0.61578745  0.86902362  0.37159367  1
  O  O290  1  0.61973141  0.86354693  0.87197536  1
  O  O291  1  0.37789857  0.13335615  0.12574848  1
  O  O292  1  0.37252157  0.12174189  0.62994657  1
  O  O293  1  0.38075793  0.61795785  0.11903883  1
  O  O294  1  0.38421229  0.63045712  0.62911669  1
  O  O295  1  0.88879954  0.07420324  0.13384838  1
  O  O296  1  0.87493044  0.12940094  0.63542450  1
  O  O297  1  0.88555121  0.63431918  0.12460582  1
  O  O298  1  0.88310099  0.63416581  0.62424769  1
  O  O299  1  0.25825337  0.25706393  0.13498225  1
  O  O300  1  0.24673446  0.25569946  0.61007487  1
  O  O301  1  0.25159468  0.75555054  0.12043634  1
  O  O302  1  0.25702179  0.75964978  0.63397225  1
  O  O303  1  0.75002616  0.25802043  0.11134526  1
  O  O304  1  0.76259705  0.25693947  0.62739652  1
  O  O305  1  0.75552883  0.75722431  0.12001014  1
  O  O306  1  0.75776027  0.75400281  0.62572422  1
  O  O307  1  0.23965097  0.24739685  0.38317773  1
  O  O308  1  0.24625102  0.23292519  0.86798487  1
  O  O309  1  0.25511121  0.73589160  0.36714717  1
  O  O310  1  0.24520936  0.74333478  0.88090789  1
  O  O311  1  0.73855468  0.25450783  0.37656577  1
  O  O312  1  0.75335784  0.25133207  0.88807371  1
  O  O313  1  0.74351887  0.74351954  0.37443312  1
  O  O314  1  0.74406591  0.74378149  0.88143228  1
  O  O315  1  0.01466574  0.11252632  -0.00950768  1
  O  O316  1  0.00778314  0.11344286  0.50352250  1
  O  O317  1  0.00353594  0.62123283  0.00395708  1
  O  O318  1  0.00615224  0.62261889  0.51585753  1
  O  O319  1  0.50342760  0.12041526  0.00309566  1
  O  O320  1  0.50740500  0.10927981  0.49316704  1
  O  O321  1  0.51694843  0.62446923  -0.00313597  1
  O  O322  1  0.49678716  0.61891962  0.50963564  1
  O  O323  1  0.49188526  0.37982097  0.49701737  1
  O  O324  1  0.48514723  0.37112795  0.98556361  1
  O  O325  1  0.49247636  0.88290180  0.48692646  1
  O  O326  1  0.49320465  0.88049452  0.99976373  1
  O  O327  1  0.98766228  0.38072878  0.50726309  1
  O  O328  1  0.99389121  0.38228086  0.99416688  1
  O  O329  1  1.00634334  0.88690296  0.49259877  1
  O  O330  1  1.00809830  0.88350733  0.99457100  1
  O  O331  1  0.49811295  0.49416091  0.38150243  1
  O  O332  1  0.49885863  0.48751241  0.88135006  1
  O  O333  1  0.49378258  0.99311131  0.37828776  1
  O  O334  1  0.50351316  0.99077058  0.88950864  1
  O  O335  1  0.98893777  0.50734915  0.37449876  1
  O  O336  1  0.99940068  0.49468257  0.88370356  1
  O  O337  1  0.99112618  0.99512421  0.38363071  1
  O  O338  1  0.98787700  0.99715083  0.87624132  1
  O  O339  1  0.02030551  -0.01372828  0.11223956  1
  O  O340  1  0.00677882  -0.00109134  0.62050965  1
  O  O341  1  -0.00010468  0.50818262  0.11882539  1
  O  O342  1  0.01041747  0.50721105  0.62606299  1
  O  O343  1  0.50443613  0.00660464  0.11505792  1
  O  O344  1  0.50780346  -0.00959272  0.61355373  1
  O  O345  1  0.50190595  0.47336371  0.11581345  1
  O  O346  1  0.50430677  0.50855097  0.61971013  1
  O  O347  1  0.25641112  0.39003629  0.24298886  1
  O  O348  1  0.24839453  0.37428916  0.73667449  1
  O  O349  1  0.24583854  0.88067587  0.24468386  1
  O  O350  1  0.25871372  0.88618053  0.74037563  1
  O  O351  1  0.74930016  0.37960000  0.24307416  1
  O  O352  1  0.74982946  0.37769855  0.73804806  1
  O  O353  1  0.74467981  0.88124568  0.23983858  1
  O  O354  1  0.73805616  0.87376162  0.74067364  1
  O  O355  1  0.25085293  0.11940874  0.25488561  1
  O  O356  1  0.26133295  0.11901983  0.75504128  1
  O  O357  1  0.24855815  0.61268620  0.25922337  1
  O  O358  1  0.25460673  0.62153491  0.75631177  1
  O  O359  1  0.75634962  0.12289559  0.25194918  1
  O  O360  1  0.75883070  0.12045537  0.75445389  1
  O  O361  1  0.75324314  0.61651770  0.25856090  1
  O  O362  1  0.74837321  0.62600457  0.76767211  1
  O  O363  1  0.36773431  0.11943610  0.36889362  1
  O  O364  1  0.36280954  0.12523408  0.87620494  1
  O  O365  1  0.36511126  0.61699216  0.37735395  1
  O  O366  1  0.36258962  0.62554642  0.87285047  1
  O  O367  1  0.87216156  0.11113098  0.38035777  1
  O  O368  1  0.87463466  0.12251130  0.86478003  1
  O  O369  1  0.86940370  0.61859597  0.37431971  1
  O  O370  1  0.86396186  0.63064997  0.88149774  1
  O  O371  1  0.14090304  0.37672561  0.11416383  1
  O  O372  1  0.13310067  0.37881179  0.62674877  1
  O  O373  1  0.13755337  0.87828388  0.13123802  1
  O  O374  1  0.13598932  0.88359008  0.62301322  1
  O  O375  1  0.63900313  0.36937027  0.13877423  1
  O  O376  1  0.63833345  0.38682580  0.62010688  1
  O  O377  1  0.63249932  0.88330493  0.12586557  1
  O  O378  1  0.62744980  0.88273645  0.63019578  1
  O  O379  1  0.11713015  0.24720989  0.26439473  1
  O  O380  1  0.11751400  0.25402006  0.74800457  1
  O  O381  1  0.12529742  0.76464229  0.25358439  1
  O  O382  1  0.11175979  0.74831269  0.75876448  1
  O  O383  1  0.62622377  0.26053354  0.26111241  1
  O  O384  1  0.60859758  0.25783843  0.71327515  1
  O  O385  1  0.61303553  0.75120475  0.25981138  1
  O  O386  1  0.61819828  0.75371538  0.75776854  1
  O  O387  1  0.37381333  0.24280431  0.24548659  1
  O  O388  1  0.37799416  0.23175513  0.74555802  1
  O  O389  1  0.39511324  0.74907054  0.24770455  1
  O  O390  1  0.38119295  0.74529961  0.74519275  1
  O  O391  1  0.88659405  0.24876270  0.24776248  1
  O  O392  1  0.88178691  0.24260075  0.74422188  1
  O  O393  1  0.87568976  0.74979331  0.23689321  1
  O  O394  1  0.88880264  0.75075198  0.74240268  1
  O  O395  1  0.38985320  0.49989054  0.48802258  1
  O  O396  1  0.37152215  0.48296917  0.99234209  1
  O  O397  1  0.38094588  0.99183493  0.49466505  1
  O  O398  1  0.38366620  0.98933595  1.00708940  1
  O  O399  1  0.87941884  0.49234293  0.49191724  1
  O  O400  1  0.88342344  0.49234370  1.00338962  1
  O  O401  1  0.88389256  1.00016204  0.49321826  1
  O  O402  1  0.88499737  0.99885195  0.98232136  1
  O  O403  1  0.12129399  0.00574473  0.00193332  1
  O  O404  1  0.11983353  0.00638040  0.51002406  1
  O  O405  1  0.11321265  0.51259246  0.00111939  1
  O  O406  1  0.12648908  0.50076111  0.51246643  1
  O  O407  1  0.61674630  0.00609265  0.00935360  1
  O  O408  1  0.61676384  0.00258440  0.50557077  1
  O  O409  1  0.62919783  0.51690577  0.00056517  1
  O  O410  1  0.61133251  0.49724800  0.51016831  1
  O  O411  1  0.35816436  0.36798396  0.10819474  1
  O  O412  1  0.37094225  0.38073719  0.62155309  1
  O  O413  1  0.36390498  0.87336466  0.12027524  1
  O  O414  1  0.36835906  0.86962896  0.61691092  1
  O  O415  1  0.86293804  0.37941846  0.11560744  1
  O  O416  1  0.87136025  0.36517349  0.61784800  1
  O  O417  1  0.86224617  0.87349557  0.12657103  1
  O  O418  1  0.86289070  0.86668576  0.63211177  1
  O  O419  1  0.12901155  0.12462303  0.38685805  1
  O  O420  1  0.13367405  0.12485738  0.88348917  1
  O  O421  1  0.14103568  0.62701736  0.37870047  1
  O  O422  1  0.13775814  0.63547990  0.88280815  1
  O  O423  1  0.62714181  0.13365059  0.38129261  1
  O  O424  1  0.62652725  0.11723794  0.88646074  1
  O  O425  1  0.63682712  0.63289927  0.37261993  1
  O  O426  1  0.63290211  0.63446757  0.87885502  1
