# generated using pymatgen
data_V85Zn86O256
_symmetry_space_group_name_H-M   'P 1'
_cell_length_a   16.90750972
_cell_length_b   16.90591014
_cell_length_c   16.90704773
_cell_angle_alpha   89.94988423
_cell_angle_beta   89.99191098
_cell_angle_gamma   90.07337378
_symmetry_Int_Tables_number   1
_chemical_formula_structural   V85Zn86O256
_chemical_formula_sum   'V85 Zn86 O256'
_cell_volume   4832.65123728
_cell_formula_units_Z   1
loop_
 _symmetry_equiv_pos_site_id
 _symmetry_equiv_pos_as_xyz
  1  'x, y, z'
loop_
 _atom_site_type_symbol
 _atom_site_label
 _atom_site_symmetry_multiplicity
 _atom_site_fract_x
 _atom_site_fract_y
 _atom_site_fract_z
 _atom_site_occupancy
  V  V0  1  0.86991479  0.37876745  0.49536102  1
  V  V1  1  0.12463596  0.75071399  0.37041565  1
  V  V2  1  -0.00342064  0.12504205  0.62093200  1
  V  V3  1  0.74213979  0.74534384  0.49916151  1
  V  V4  1  0.12353909  0.87260545  0.74718390  1
  V  V5  1  0.56887735  0.80961217  0.31513586  1
  V  V6  1  0.49604110  0.24578645  0.25161247  1
  V  V7  1  0.24716537  0.87910527  0.11681364  1
  V  V8  1  -0.00038063  0.25014385  0.25567973  1
  V  V9  1  0.24998509  0.12324558  0.87589179  1
  V  V10  1  0.25170179  0.50075236  0.74701940  1
  V  V11  1  -0.00059167  0.39275846  0.38141150  1
  V  V12  1  0.38707148  0.50364081  0.37968262  1
  V  V13  1  0.37741075  0.37446634  0.00362546  1
  V  V14  1  0.87318456  0.12514299  0.25062790  1
  V  V15  1  -0.01390971  0.63067872  0.12734968  1
  V  V16  1  0.12538108  0.11750184  0.00473512  1
  V  V17  1  0.11168453  0.50396387  0.62162517  1
  V  V18  1  0.24310152  0.24391708  0.50081866  1
  V  V19  1  0.38076016  0.00596201  0.36607430  1
  V  V20  1  0.62790113  0.25258139  0.38183636  1
  V  V21  1  0.76692051  0.49853964  0.25464749  1
  V  V22  1  0.62385656  0.74608027  0.86202317  1
  V  V23  1  0.12339172  0.37474380  0.75062928  1
  V  V24  1  0.50757562  0.50956511  0.00372735  1
  V  V25  1  0.24987416  -0.00198866  0.74848264  1
  V  V26  1  0.87653724  0.00295090  0.87396807  1
  V  V27  1  0.74605924  0.74382638  0.00613092  1
  V  V28  1  0.38517937  0.63309018  0.24695605  1
  V  V29  1  0.25347553  0.50446412  0.25334506  1
  V  V30  1  0.74845969  -0.00035612  0.75310665  1
  V  V31  1  0.87725024  0.73120056  0.62714208  1
  V  V32  1  0.62403843  -0.00323118  0.12810498  1
  V  V33  1  0.75467276  0.50434565  0.74514138  1
  V  V34  1  -0.01602802  0.74986380  0.24725837  1
  V  V35  1  0.87764272  0.87236811  0.50423050  1
  V  V36  1  -0.01068048  0.24321929  0.75072276  1
  V  V37  1  0.24426986  0.12325857  0.37120767  1
  V  V38  1  0.62864087  0.50506718  0.12856141  1
  V  V39  1  0.62402012  -0.00502305  0.62924090  1
  V  V40  1  -0.00542792  0.73363487  0.74645336  1
  V  V41  1  0.12282267  0.74742758  0.87290903  1
  V  V42  1  0.75395104  0.12650451  0.87275631  1
  V  V43  1  0.38303771  0.63768435  0.74723520  1
  V  V44  1  0.12434501  0.62438690  0.00132343  1
  V  V45  1  0.75148191  0.13005861  0.38653941  1
  V  V46  1  0.25242388  0.74835950  0.49886444  1
  V  V47  1  0.12467946  0.50303538  0.12538156  1
  V  V48  1  0.75227616  0.25677611  0.00049894  1
  V  V49  1  0.12583333  0.00387143  0.61607282  1
  V  V50  1  0.49811281  0.63998953  0.61919042  1
  V  V51  1  0.75084323  0.87124299  0.63339906  1
  V  V52  1  0.62358652  0.37625478  0.74926017  1
  V  V53  1  0.11161186  0.62391355  0.50174968  1
  V  V54  1  0.74737516  0.36646421  0.62080242  1
  V  V55  1  0.37809899  0.87360754  0.49420353  1
  V  V56  1  0.37747672  0.50113006  0.87446662  1
  V  V57  1  0.38150513  0.75703718  0.11804568  1
  V  V58  1  0.75788535  0.62734159  0.36779939  1
  V  V59  1  0.50039995  0.37530102  0.87800346  1
  V  V60  1  0.37475143  0.12304704  0.75142730  1
  V  V61  1  0.00271980  0.11608447  0.12737558  1
  V  V62  1  0.74378481  -0.00324127  0.25228624  1
  V  V63  1  0.75343230  0.62529491  0.87221776  1
  V  V64  1  0.12513680  0.24920353  0.87630385  1
  V  V65  1  0.24870305  0.37577177  0.62283151  1
  V  V66  1  0.50073434  -0.00842542  0.00126202  1
  V  V67  1  0.87569414  0.25546602  0.12129880  1
  V  V68  1  0.25441416  0.86923776  0.62376183  1
  V  V69  1  0.12672591  0.88343329  0.24703732  1
  V  V70  1  0.62333325  0.24813755  0.87797159  1
  V  V71  1  0.87484843  -0.00124358  0.37740098  1
  V  V72  1  0.50158099  -0.00053839  0.49831273  1
  V  V73  1  -0.01087651  0.49625419  0.00182130  1
  V  V74  1  0.75488223  0.87329016  0.12510373  1
  V  V75  1  0.37539941  0.24855481  0.62220482  1
  V  V76  1  0.37589515  -0.00973004  0.87990317  1
  V  V77  1  0.50648670  0.87112046  0.86012029  1
  V  V78  1  0.12512132  0.37581023  0.25310238  1
  V  V79  1  0.49818943  0.24895020  0.75185416  1
  V  V80  1  -0.01034661  0.37233862  0.87990289  1
  V  V81  1  0.61360223  0.49828161  0.61557846  1
  V  V82  1  0.25128103  0.62429216  0.87421448  1
  V  V83  1  -0.00329504  0.87273764  0.87314151  1
  V  V84  1  0.25135942  0.37505117  0.12626918  1
  Zn  Zn85  1  0.62835789  0.12680940  0.50498114  1
  Zn  Zn86  1  0.49416386  0.11957726  0.12935199  1
  Zn  Zn87  1  0.25082522  0.62701226  0.37387409  1
  Zn  Zn88  1  -0.00052687  0.87458706  0.37449359  1
  Zn  Zn89  1  0.25271355  0.00631100  0.24099621  1
  Zn  Zn90  1  0.50195986  0.12326983  0.62605355  1
  Zn  Zn91  1  0.87302231  0.50132512  0.87253924  1
  Zn  Zn92  1  0.62395710  0.12438004  0.00321107  1
  Zn  Zn93  1  0.50580907  0.37863869  0.37969909  1
  Zn  Zn94  1  0.12049181  0.24693413  0.38198997  1
  Zn  Zn95  1  0.75369200  0.37836043  0.12290687  1
  Zn  Zn96  1  -0.00047805  -0.00506265  0.00418182  1
  Zn  Zn97  1  0.87601769  0.86951371  0.00176920  1
  Zn  Zn98  1  0.62720305  0.37572154  0.25086750  1
  Zn  Zn99  1  0.61569537  0.62502283  0.48764531  1
  Zn  Zn100  1  0.37784515  0.38239861  0.50095473  1
  Zn  Zn101  1  0.25185000  0.24806825  0.00291374  1
  Zn  Zn102  1  0.86594277  0.24354268  0.62136810  1
  Zn  Zn103  1  0.51215266  0.63890511  0.12440177  1
  Zn  Zn104  1  0.25235086  0.75144852  -0.00229727  1
  Zn  Zn105  1  0.00362271  0.00359742  0.49662917  1
  Zn  Zn106  1  0.37372111  0.24498726  0.13368732  1
  Zn  Zn107  1  0.18727966  0.18871308  0.19012679  1
  Zn  Zn108  1  0.18361535  0.18588833  0.68789597  1
  Zn  Zn109  1  0.19010429  0.69214736  0.18610296  1
  Zn  Zn110  1  0.18710517  0.68586663  0.68579206  1
  Zn  Zn111  1  0.68322336  0.18489053  0.19122510  1
  Zn  Zn112  1  0.68493623  0.18327211  0.69145074  1
  Zn  Zn113  1  0.69027541  0.68539575  0.19139650  1
  Zn  Zn114  1  0.68514362  0.68450227  0.68464816  1
  Zn  Zn115  1  0.31431633  0.31421372  0.31616221  1
  Zn  Zn116  1  0.31166540  0.31300441  0.81300449  1
  Zn  Zn117  1  0.31531083  0.81614763  0.30905844  1
  Zn  Zn118  1  0.31343963  0.81285761  0.81509757  1
  Zn  Zn119  1  0.81364219  0.31429116  0.31444008  1
  Zn  Zn120  1  0.80992989  0.31415926  0.80947622  1
  Zn  Zn121  1  0.80221848  0.81526270  0.31619850  1
  Zn  Zn122  1  0.81358364  0.80927092  0.81211441  1
  Zn  Zn123  1  0.18866813  0.43810999  0.43960362  1
  Zn  Zn124  1  0.18570979  0.43831663  0.93815818  1
  Zn  Zn125  1  0.18999116  0.93665001  0.43419206  1
  Zn  Zn126  1  0.18432107  0.93711285  0.93713360  1
  Zn  Zn127  1  0.69024040  0.44106128  0.43464808  1
  Zn  Zn128  1  0.68702972  0.43876652  0.93819993  1
  Zn  Zn129  1  0.68763656  0.93437737  0.44116322  1
  Zn  Zn130  1  0.68450046  0.93245235  0.93981808  1
  Zn  Zn131  1  0.31663531  0.06228418  0.06201622  1
  Zn  Zn132  1  0.31297468  0.06281839  0.55859672  1
  Zn  Zn133  1  0.31675998  0.56497691  0.06431582  1
  Zn  Zn134  1  0.31046710  0.56783381  0.56393883  1
  Zn  Zn135  1  0.81317570  0.06440404  0.05971381  1
  Zn  Zn136  1  0.81632817  0.05953960  0.56641237  1
  Zn  Zn137  1  0.80791748  0.56591747  0.06133627  1
  Zn  Zn138  1  0.81007469  0.55593230  0.55575592  1
  Zn  Zn139  1  0.44333383  0.43555545  0.19280200  1
  Zn  Zn140  1  0.43616687  0.43771129  0.68726216  1
  Zn  Zn141  1  0.44193779  0.92716725  0.19146406  1
  Zn  Zn142  1  0.43528979  0.93451005  0.68521278  1
  Zn  Zn143  1  0.94041326  0.43575134  0.18653369  1
  Zn  Zn144  1  0.93320273  0.43223264  0.68684338  1
  Zn  Zn145  1  0.93439685  0.93426271  0.19114965  1
  Zn  Zn146  1  0.93579686  0.93741620  0.69049092  1
  Zn  Zn147  1  0.06347310  0.06251057  0.31454610  1
  Zn  Zn148  1  0.06221701  0.06169249  0.80884853  1
  Zn  Zn149  1  0.06284166  0.56943619  0.30993201  1
  Zn  Zn150  1  0.06242419  0.55737397  0.81354727  1
  Zn  Zn151  1  0.56431232  0.06455311  0.31398155  1
  Zn  Zn152  1  0.56447207  0.06123819  0.81338661  1
  Zn  Zn153  1  0.57079695  0.57082621  0.30749851  1
  Zn  Zn154  1  0.56554281  0.56411024  0.81008008  1
  Zn  Zn155  1  0.43850719  0.18538567  0.43740732  1
  Zn  Zn156  1  0.43658263  0.18263523  0.94509799  1
  Zn  Zn157  1  0.43788814  0.69025475  0.43414862  1
  Zn  Zn158  1  0.43990431  0.69172686  0.93784318  1
  Zn  Zn159  1  0.93469656  0.19136270  0.44285167  1
  Zn  Zn160  1  0.93676507  0.18424846  0.93998868  1
  Zn  Zn161  1  0.93331374  0.68807636  0.43434056  1
  Zn  Zn162  1  0.93212609  0.68655999  0.93918954  1
  Zn  Zn163  1  0.06273892  0.30973601  0.06383148  1
  Zn  Zn164  1  0.05949344  0.31338521  0.56253597  1
  Zn  Zn165  1  0.06335261  0.81074243  0.06318576  1
  Zn  Zn166  1  0.06164122  0.80946538  0.56291183  1
  Zn  Zn167  1  0.56618208  0.31679305  0.06805616  1
  Zn  Zn168  1  0.55679816  0.31427192  0.55668369  1
  Zn  Zn169  1  0.56929653  0.81630948  0.05814432  1
  Zn  Zn170  1  0.56218942  0.81645306  0.56102517  1
  O  O171  1  0.11683774  0.13225541  0.11652146  1
  O  O172  1  0.11494167  0.11394359  0.62958342  1
  O  O173  1  0.12156080  0.62106197  0.11710815  1
  O  O174  1  0.12832932  0.61607048  0.61572694  1
  O  O175  1  0.62108732  0.11112583  0.12384187  1
  O  O176  1  0.62577665  0.11061570  0.62435446  1
  O  O177  1  0.62572292  0.61276919  0.12681212  1
  O  O178  1  0.61068542  0.61562301  0.62564053  1
  O  O179  1  0.37373878  0.39558582  0.37316978  1
  O  O180  1  0.37928624  0.38192502  0.88207797  1
  O  O181  1  0.36468556  0.89101054  0.38639507  1
  O  O182  1  0.38869947  0.87878782  0.87186138  1
  O  O183  1  0.88626753  0.37383403  0.38455394  1
  O  O184  1  0.88662701  0.37465971  0.87389597  1
  O  O185  1  0.87300307  0.88292365  0.38470514  1
  O  O186  1  0.88286024  0.88067167  0.87524971  1
  O  O187  1  0.25732592  0.01100467  0.37428797  1
  O  O188  1  0.25783112  -0.00030133  0.86985492  1
  O  O189  1  0.25336175  0.50238397  0.36250837  1
  O  O190  1  0.25540396  0.50514371  0.86847903  1
  O  O191  1  0.75827728  0.00490575  0.37088498  1
  O  O192  1  0.75357181  0.00464925  0.87157569  1
  O  O193  1  0.75418515  0.50532483  0.36093601  1
  O  O194  1  0.74690987  0.50759111  0.86689335  1
  O  O195  1  0.24835710  0.49262297  0.13382160  1
  O  O196  1  0.24651991  0.49440620  0.63091782  1
  O  O197  1  0.25665156  0.98441815  0.12376054  1
  O  O198  1  0.24323716  0.99420915  0.62802577  1
  O  O199  1  0.74750453  0.50129449  0.13434012  1
  O  O200  1  0.73862003  0.49152507  0.63006569  1
  O  O201  1  0.74525291  0.99750494  0.13236535  1
  O  O202  1  0.74716974  0.99326291  0.63404795  1
  O  O203  1  0.00263922  0.36936185  0.26119342  1
  O  O204  1  0.00575993  0.36672978  0.75895231  1
  O  O205  1  0.00891103  0.86676268  0.24840399  1
  O  O206  1  0.00412282  0.86883355  0.75940532  1
  O  O207  1  0.50578160  0.36477111  0.25909299  1
  O  O208  1  0.50327231  0.36942862  0.75747358  1
  O  O209  1  0.50330021  0.87105165  0.26584809  1
  O  O210  1  0.49973435  0.87618505  0.76087292  1
  O  O211  1  0.50421700  0.14040121  0.25020671  1
  O  O212  1  0.49302795  0.13059759  0.75059196  1
  O  O213  1  0.48870100  0.62235337  0.24330577  1
  O  O214  1  0.48859814  0.62181384  0.74266099  1
  O  O215  1  0.99688947  0.13192450  0.24584774  1
  O  O216  1  1.00400049  0.13360142  0.74021722  1
  O  O217  1  1.00384891  0.63760778  0.23993973  1
  O  O218  1  1.00185436  0.63444503  0.75554725  1
  O  O219  1  0.37346601  0.26548704  -0.00190887  1
  O  O220  1  0.36748280  0.24606742  0.51290349  1
  O  O221  1  0.37025483  0.74542045  0.01315167  1
  O  O222  1  0.36545848  0.76031967  0.49230703  1
  O  O223  1  0.86707279  0.24334555  0.00985469  1
  O  O224  1  0.88229782  0.26859011  0.50753886  1
  O  O225  1  0.85364099  0.75272070  -0.00873066  1
  O  O226  1  0.86795355  0.75572664  0.50872828  1
  O  O227  1  0.13882112  0.25469247  0.50100170  1
  O  O228  1  0.12486047  0.24188964  0.98909640  1
  O  O229  1  0.13022109  0.74780270  0.48911703  1
  O  O230  1  0.12434122  0.73669028  0.99315544  1
  O  O231  1  0.62103290  0.24485335  0.48758365  1
  O  O232  1  0.63150926  0.24856405  0.99478235  1
  O  O233  1  0.63940780  0.74753047  0.51040728  1
  O  O234  1  0.63983853  0.75528857  0.98704972  1
  O  O235  1  0.50308898  0.25185532  0.14063619  1
  O  O236  1  0.49095157  0.24764989  0.63205428  1
  O  O237  1  0.48749886  0.75594263  0.11543882  1
  O  O238  1  0.50396739  0.73874175  0.62650222  1
  O  O239  1  0.99470330  0.24406030  0.13571304  1
  O  O240  1  1.00449530  0.23871158  0.63364728  1
  O  O241  1  1.00294681  0.74298843  0.13420109  1
  O  O242  1  0.99004683  0.75298897  0.63473809  1
  O  O243  1  0.00041213  0.25092506  0.36494973  1
  O  O244  1  0.00481294  0.25289368  0.87056428  1
  O  O245  1  0.00665235  0.75149959  0.36579637  1
  O  O246  1  0.00215477  0.75446972  0.86892014  1
  O  O247  1  0.50803192  0.24775079  0.36815373  1
  O  O248  1  0.50284592  0.25456426  0.87271113  1
  O  O249  1  0.51615041  0.74737221  0.37837795  1
  O  O250  1  0.51177685  0.75937401  0.87804973  1
  O  O251  1  0.25254055  0.13232266  0.48840155  1
  O  O252  1  0.24191116  0.12630351  0.99383544  1
  O  O253  1  0.24472621  0.63934538  0.49990771  1
  O  O254  1  0.24186917  0.62198671  0.99302196  1
  O  O255  1  0.75281733  0.11978956  0.49005217  1
  O  O256  1  0.74777093  0.13358779  0.98869733  1
  O  O257  1  0.74649731  0.63090671  0.49430761  1
  O  O258  1  0.74711684  0.63575179  0.99162536  1
  O  O259  1  0.25684250  0.37768494  0.00940156  1
  O  O260  1  0.25680892  0.36695054  0.50572230  1
  O  O261  1  0.24226846  0.87206749  0.01200719  1
  O  O262  1  0.25378265  0.86707408  0.50547280  1
  O  O263  1  0.75027566  0.36118573  -0.00132229  1
  O  O264  1  0.76027197  0.37796069  0.50507952  1
  O  O265  1  0.75167127  0.86582054  0.00676073  1
  O  O266  1  0.75980826  0.86828294  0.51074629  1
  O  O267  1  0.13299875  0.49703279  0.24465625  1
  O  O268  1  0.13315952  0.49531682  0.74441598  1
  O  O269  1  0.12710380  0.98725710  0.25367862  1
  O  O270  1  0.13157440  0.99187331  0.74206082  1
  O  O271  1  0.63622463  0.49822172  0.24272561  1
  O  O272  1  0.63088672  0.49323793  0.74113316  1
  O  O273  1  0.63436335  1.00387777  0.24442979  1
  O  O274  1  0.63822993  1.00097450  0.74516720  1
  O  O275  1  0.37497230  -0.00485884  0.26379148  1
  O  O276  1  0.36964611  0.00260451  0.75842127  1
  O  O277  1  0.36987258  0.50870036  0.25544813  1
  O  O278  1  0.36929813  0.50563495  0.75676630  1
  O  O279  1  0.86897115  0.00524607  0.25975525  1
  O  O280  1  0.86240032  -0.00449030  0.76204906  1
  O  O281  1  0.86559719  0.50034861  0.24402081  1
  O  O282  1  0.85878126  0.49257549  0.75125636  1
  O  O283  1  0.11421911  0.37403474  0.37198048  1
  O  O284  1  0.11832810  0.36665516  0.87163303  1
  O  O285  1  0.12267478  0.86853112  0.36737516  1
  O  O286  1  0.11797529  0.86837465  0.86808253  1
  O  O287  1  0.62829425  0.36665561  0.37381318  1
  O  O288  1  0.61948824  0.36824557  0.87012891  1
  O  O289  1  0.63616167  0.86641936  0.36948337  1
  O  O290  1  0.61466179  0.86629707  0.87229555  1
  O  O291  1  0.38130775  0.13383569  0.11500603  1
  O  O292  1  0.37411262  0.13125300  0.63338635  1
  O  O293  1  0.37674713  0.63865761  0.13047171  1
  O  O294  1  0.38739006  0.62009711  0.63573056  1
  O  O295  1  0.88263305  0.13249575  0.13083367  1
  O  O296  1  0.88943003  0.12571078  0.62641173  1
  O  O297  1  0.88731446  0.62612216  0.11896914  1
  O  O298  1  0.86966727  0.63239759  0.62103014  1
  O  O299  1  0.25005180  0.26397190  0.12489229  1
  O  O300  1  0.25475001  0.25284315  0.62077312  1
  O  O301  1  0.25801934  0.76059052  0.12072027  1
  O  O302  1  0.24382022  0.76030982  0.61583043  1
  O  O303  1  0.75704485  0.24705871  0.11791476  1
  O  O304  1  0.74464813  0.26205575  0.63093799  1
  O  O305  1  0.74430273  0.75603057  0.11401818  1
  O  O306  1  0.75709980  0.75498511  0.62259014  1
  O  O307  1  0.25146351  0.23989714  0.38207991  1
  O  O308  1  0.24113651  0.24448232  0.87678001  1
  O  O309  1  0.24255911  0.75142847  0.38061269  1
  O  O310  1  0.24190553  0.74326801  0.87603850  1
  O  O311  1  0.74390873  0.23977837  0.36945023  1
  O  O312  1  0.74654432  0.24428388  0.87924403  1
  O  O313  1  0.75512023  0.73770133  0.38453682  1
  O  O314  1  0.74028805  0.74499020  0.87757983  1
  O  O315  1  0.00688974  0.12422069  0.01071797  1
  O  O316  1  0.00063886  0.12442686  0.51520255  1
  O  O317  1  0.00586543  0.61861210  0.00404644  1
  O  O318  1  0.01258941  0.63350517  0.49775861  1
  O  O319  1  0.50462504  0.10678550  -0.00347919  1
  O  O320  1  0.50018278  0.11163160  0.50536595  1
  O  O321  1  0.49442048  0.61256264  0.00288805  1
  O  O322  1  0.49803729  0.62791118  0.51466400  1
  O  O323  1  0.48995613  0.37546605  0.49308990  1
  O  O324  1  0.49334311  0.38174472  0.99726881  1
  O  O325  1  0.48993786  0.88622182  0.50453177  1
  O  O326  1  0.50505934  0.88622617  0.98714030  1
  O  O327  1  0.99721522  0.37409848  0.48585371  1
  O  O328  1  1.00777833  0.38343216  0.99238901  1
  O  O329  1  0.98758977  0.87497853  0.49948083  1
  O  O330  1  1.00050584  0.87414591  0.98778366  1
  O  O331  1  0.48883542  0.50648085  0.36976815  1
  O  O332  1  0.49832295  0.49525511  0.88270030  1
  O  O333  1  0.48863887  1.00667482  0.38219159  1
  O  O334  1  0.49612921  0.98838438  0.87633993  1
  O  O335  1  1.00251643  0.49077227  0.37041320  1
  O  O336  1  0.99850129  0.48982962  0.88274645  1
  O  O337  1  0.98783363  0.99887573  0.37644140  1
  O  O338  1  0.99253680  0.99182930  0.87202587  1
  O  O339  1  -0.00534035  0.01242565  0.12673446  1
  O  O340  1  0.00591413  0.00957205  0.62737070  1
  O  O341  1  0.00558545  0.50609027  0.11918705  1
  O  O342  1  0.01313323  0.49434641  0.63339255  1
  O  O343  1  0.50582077  -0.00637027  0.11908542  1
  O  O344  1  0.50847273  -0.00141408  0.62061694  1
  O  O345  1  0.50897858  0.49971925  0.11871734  1
  O  O346  1  0.51091808  0.50385630  0.62985650  1
  O  O347  1  0.24646722  0.38194140  0.24466229  1
  O  O348  1  0.24301499  0.37985702  0.74480077  1
  O  O349  1  0.24270342  0.87807175  0.23913633  1
  O  O350  1  0.24684209  0.87739292  0.74143500  1
  O  O351  1  0.75281745  0.38767671  0.24844678  1
  O  O352  1  0.74118161  0.38036072  0.74210180  1
  O  O353  1  0.75541684  0.88869567  0.24221687  1
  O  O354  1  0.75365697  0.88035706  0.73982860  1
  O  O355  1  0.24868641  0.12445143  0.26390996  1
  O  O356  1  0.25331412  0.11779284  0.75632293  1
  O  O357  1  0.25849730  0.61793393  0.24771629  1
  O  O358  1  0.26070187  0.62010862  0.75264958  1
  O  O359  1  0.75600512  0.11492562  0.25792135  1
  O  O360  1  0.74890623  0.11763694  0.76368909  1
  O  O361  1  0.75498313  0.61681103  0.25932421  1
  O  O362  1  0.74276004  0.61461336  0.75650289  1
  O  O363  1  0.36532228  0.11207697  0.37911266  1
  O  O364  1  0.36832053  0.11653143  0.87085089  1
  O  O365  1  0.37186849  0.61950420  0.36549517  1
  O  O366  1  0.37400456  0.62190013  0.86511101  1
  O  O367  1  0.87013928  0.11976420  0.37252901  1
  O  O368  1  0.86790134  0.11632983  0.87666685  1
  O  O369  1  0.85828010  0.61871723  0.38486624  1
  O  O370  1  0.85900052  0.62251586  0.87488662  1
  O  O371  1  0.13132446  0.38207328  0.13047425  1
  O  O372  1  0.13056049  0.38071442  0.62998078  1
  O  O373  1  0.13780607  0.86927465  0.13176963  1
  O  O374  1  0.13238654  0.88034744  0.62937498  1
  O  O375  1  0.63333454  0.38777906  0.12850992  1
  O  O376  1  0.62668049  0.38250318  0.62713105  1
  O  O377  1  0.63811904  0.88815131  0.12075975  1
  O  O378  1  0.63547220  0.88627091  0.62100087  1
  O  O379  1  0.11624875  0.25857833  0.25340196  1
  O  O380  1  0.11858532  0.25337921  0.76159853  1
  O  O381  1  0.12402306  0.75719970  0.26001484  1
  O  O382  1  0.11731820  0.75342660  0.75341007  1
  O  O383  1  0.61872008  0.25179744  0.26160249  1
  O  O384  1  0.61767873  0.25546792  0.75718069  1
  O  O385  1  0.62000354  0.75319835  0.24643980  1
  O  O386  1  0.62991582  0.75144032  0.76267283  1
  O  O387  1  0.39078996  0.25576388  0.25343796  1
  O  O388  1  0.37696971  0.24507293  0.74179503  1
  O  O389  1  0.36954244  0.74333897  0.23643912  1
  O  O390  1  0.37194466  0.73606670  0.75083214  1
  O  O391  1  0.88150635  0.24412435  0.24521633  1
  O  O392  1  0.88643527  0.25380512  0.74606951  1
  O  O393  1  0.88539185  0.75858615  0.25542396  1
  O  O394  1  0.88290488  0.75149471  0.73986971  1
  O  O395  1  0.36636376  0.50729339  0.48181737  1
  O  O396  1  0.38131291  0.49145722  0.99571207  1
  O  O397  1  0.38166110  0.99415387  0.49291484  1
  O  O398  1  0.38134063  0.99900704  0.98526496  1
  O  O399  1  0.88188842  0.47886235  0.51058578  1
  O  O400  1  0.88591783  0.50192482  0.99834278  1
  O  O401  1  0.87679421  0.99114516  0.49419915  1
  O  O402  1  0.87742218  0.99693589  0.98713528  1
  O  O403  1  0.11909289  0.01347110  -0.00595454  1
  O  O404  1  0.12241819  -0.00868513  0.51200974  1
  O  O405  1  0.11675372  0.50925970  0.00359258  1
  O  O406  1  0.13118185  0.51115859  0.50895094  1
  O  O407  1  0.61916240  0.00081326  0.00774646  1
  O  O408  1  0.61783424  0.00017462  0.50722943  1
  O  O409  1  0.61656574  0.49532506  0.00889360  1
  O  O410  1  0.62909760  0.50257051  0.51339439  1
  O  O411  1  0.36858202  0.37483162  0.11955318  1
  O  O412  1  0.36623611  0.36604327  0.62730564  1
  O  O413  1  0.36459130  0.86403173  0.12862969  1
  O  O414  1  0.36199211  0.88146834  0.61301824  1
  O  O415  1  0.87610457  0.35980085  0.12708356  1
  O  O416  1  0.86320763  0.36964264  0.61941092  1
  O  O417  1  0.86066840  0.88175266  0.12060393  1
  O  O418  1  0.86813319  0.87191696  0.61974531  1
  O  O419  1  0.13855287  0.12576925  0.37664153  1
  O  O420  1  0.12909003  0.13095058  0.87965145  1
  O  O421  1  0.12932843  0.63351459  0.38112636  1
  O  O422  1  0.12991576  0.62658679  0.88156450  1
  O  O423  1  0.63641551  0.13026426  0.37888757  1
  O  O424  1  0.63296520  0.13323920  0.87598697  1
  O  O425  1  0.64618411  0.61659815  0.37800698  1
  O  O426  1  0.63013718  0.63865772  0.87211912  1
