# generated using pymatgen
data_V85Zn86O256
_symmetry_space_group_name_H-M   'P 1'
_cell_length_a   16.94452941
_cell_length_b   16.95444085
_cell_length_c   16.93532278
_cell_angle_alpha   89.97904250
_cell_angle_beta   90.04847730
_cell_angle_gamma   89.93851511
_symmetry_Int_Tables_number   1
_chemical_formula_structural   V85Zn86O256
_chemical_formula_sum   'V85 Zn86 O256'
_cell_volume   4865.25970144
_cell_formula_units_Z   1
loop_
 _symmetry_equiv_pos_site_id
 _symmetry_equiv_pos_as_xyz
  1  'x, y, z'
loop_
 _atom_site_type_symbol
 _atom_site_label
 _atom_site_symmetry_multiplicity
 _atom_site_fract_x
 _atom_site_fract_y
 _atom_site_fract_z
 _atom_site_occupancy
  V  V0  1  0.87439090  0.13206698  0.75157028  1
  V  V1  1  0.37656335  0.62929224  0.25078003  1
  V  V2  1  0.62769326  0.37098177  0.25353164  1
  V  V3  1  0.74596754  0.25009914  -0.00119215  1
  V  V4  1  0.62350490  0.75318082  0.86696985  1
  V  V5  1  0.74521538  0.88105721  0.12444569  1
  V  V6  1  0.87391082  0.49647411  0.87066913  1
  V  V7  1  0.37799610  0.37727032  0.50565797  1
  V  V8  1  -0.00220523  0.88140599  0.37164324  1
  V  V9  1  0.00231801  0.62377839  0.12439600  1
  V  V10  1  0.00146206  0.37616436  0.37394390  1
  V  V11  1  0.62196835  0.88072134  0.25245605  1
  V  V12  1  0.62335209  0.12729457  0.49532148  1
  V  V13  1  0.61893574  0.00521692  0.62374064  1
  V  V14  1  0.74706874  0.62097482  0.87287217  1
  V  V15  1  0.87436179  0.24807232  0.12707361  1
  V  V16  1  0.12802635  0.24900842  0.37588803  1
  V  V17  1  0.50183034  0.11569530  0.12601004  1
  V  V18  1  0.00083459  -0.00355243  0.00080530  1
  V  V19  1  0.12022603  0.74836957  0.38427599  1
  V  V20  1  0.25611970  0.49516151  0.75374973  1
  V  V21  1  0.12300157  -0.01098180  0.62854038  1
  V  V22  1  0.36388664  0.12154427  0.26097068  1
  V  V23  1  0.00189962  0.24897716  0.24796349  1
  V  V24  1  0.50484216  0.36675742  0.38303889  1
  V  V25  1  0.74833827  0.13153249  0.37424276  1
  V  V26  1  0.37380839  0.24835997  0.12560900  1
  V  V27  1  -0.00266381  0.49912076  -0.00735009  1
  V  V28  1  0.87339343  0.37489460  0.50474746  1
  V  V29  1  0.75176075  0.50203127  0.24858013  1
  V  V30  1  0.00080077  0.13327831  0.63056234  1
  V  V31  1  0.74843627  0.74993217  -0.00249424  1
  V  V32  1  0.00096815  0.63132034  0.63202998  1
  V  V33  1  0.23948335  0.62053506  0.38165397  1
  V  V34  1  0.00150096  0.12182843  0.12945099  1
  V  V35  1  0.37558937  0.12548879  0.74348298  1
  V  V36  1  0.87523896  0.75414755  0.62982840  1
  V  V37  1  0.74244114  -0.00009851  0.74806256  1
  V  V38  1  0.50642030  0.24576006  0.25214087  1
  V  V39  1  0.87242193  0.62657063  0.25125291  1
  V  V40  1  0.49250756  0.88244240  0.36978616  1
  V  V41  1  0.12959016  0.12508587  0.50319084  1
  V  V42  1  0.12654608  0.50244659  0.62278895  1
  V  V43  1  0.75147935  -0.00033567  0.25534294  1
  V  V44  1  0.24772055  -0.00840361  0.75030032  1
  V  V45  1  0.87207574  0.37574788  -0.00298765  1
  V  V46  1  0.74139505  0.87331802  0.62417739  1
  V  V47  1  0.87587877  0.87352590  -0.00051453  1
  V  V48  1  0.61617085  0.50428881  0.12575672  1
  V  V49  1  0.88184032  0.11715513  0.25932915  1
  V  V50  1  0.12383234  0.48641868  0.11974607  1
  V  V51  1  0.86731364  0.25379992  0.62744535  1
  V  V52  1  0.49057474  0.00485485  0.49673632  1
  V  V53  1  0.37557465  0.00073683  0.87984680  1
  V  V54  1  0.74812079  0.37558291  0.12547441  1
  V  V55  1  0.00467362  0.51109033  0.49868863  1
  V  V56  1  0.74282738  0.49628983  0.73358532  1
  V  V57  1  0.87330999  0.50525499  0.37461570  1
  V  V58  1  0.49722336  0.75614940  0.73844048  1
  V  V59  1  0.37738089  0.49809301  0.38018015  1
  V  V60  1  0.50265534  0.87635421  0.87131180  1
  V  V61  1  0.10821120  0.37294943  0.75391776  1
  V  V62  1  0.25484290  0.25012355  0.00033593  1
  V  V63  1  0.50372750  0.62068639  0.61837009  1
  V  V64  1  0.87192025  -0.00016122  0.87419920  1
  V  V65  1  0.48982551  0.38042604  0.87945157  1
  V  V66  1  0.12956179  -0.00812564  0.13175819  1
  V  V67  1  0.25171491  0.49103203  0.24816552  1
  V  V68  1  0.25502300  0.62415148  0.87394242  1
  V  V69  1  0.39011976  0.74951428  0.12982425  1
  V  V70  1  0.55669876  0.70107538  0.30694465  1
  V  V71  1  0.50183703  0.24761262  0.74737247  1
  V  V72  1  0.37315796  0.62990816  0.74208284  1
  V  V73  1  0.00662227  0.75371775  0.24779380  1
  V  V74  1  0.24741391  0.75430446  0.00196868  1
  V  V75  1  0.12608949  0.12484068  0.00034971  1
  V  V76  1  0.12146949  0.75550504  0.86347418  1
  V  V77  1  0.25138098  0.24938439  0.49978373  1
  V  V78  1  0.62563350  0.11726088  0.00303116  1
  V  V79  1  0.24889529  0.86899255  0.14142947  1
  V  V80  1  0.31174215  0.41730606  0.06611139  1
  V  V81  1  0.24697424  0.12676067  0.87566534  1
  V  V82  1  -0.00786183  0.00310548  0.49769311  1
  V  V83  1  0.61189718  0.62339474  0.00067698  1
  V  V84  1  0.74562320  0.74850993  0.48481790  1
  Zn  Zn85  1  0.24823490  0.37308414  0.62803502  1
  Zn  Zn86  1  0.87644984  0.63091448  0.75199497  1
  Zn  Zn87  1  -0.00718885  0.85739741  0.85337571  1
  Zn  Zn88  1  0.58069142  0.46580461  0.56577519  1
  Zn  Zn89  1  0.74603534  0.12817665  0.87333413  1
  Zn  Zn90  1  0.37783604  0.87340578  0.00304044  1
  Zn  Zn91  1  0.62331023  0.25440736  0.87443354  1
  Zn  Zn92  1  0.13021864  0.36922394  0.24240978  1
  Zn  Zn93  1  0.37431594  0.24517592  0.62383620  1
  Zn  Zn94  1  0.25112965  0.74755088  0.51014614  1
  Zn  Zn95  1  0.10463923  0.24317290  0.85797870  1
  Zn  Zn96  1  0.12380700  0.62533462  -0.00355009  1
  Zn  Zn97  1  0.50453543  -0.00328238  0.00216288  1
  Zn  Zn98  1  0.87050205  0.87998705  0.49492542  1
  Zn  Zn99  1  0.74365871  0.25501787  0.49859353  1
  Zn  Zn100  1  0.87581342  0.74957622  0.12356125  1
  Zn  Zn101  1  0.25621635  0.86088825  0.63178983  1
  Zn  Zn102  1  0.48651236  0.49725942  -0.00148020  1
  Zn  Zn103  1  0.37154469  0.87084672  0.50918206  1
  Zn  Zn104  1  0.62247160  0.38027370  0.74053303  1
  Zn  Zn105  1  0.26585577  -0.01946806  0.28043688  1
  Zn  Zn106  1  0.62769006  0.63102458  0.49556928  1
  Zn  Zn107  1  0.18834266  0.18874969  0.18241086  1
  Zn  Zn108  1  0.18854681  0.18781088  0.68769436  1
  Zn  Zn109  1  0.18798525  0.68257292  0.18995780  1
  Zn  Zn110  1  0.18430142  0.68548746  0.68683711  1
  Zn  Zn111  1  0.68722580  0.18382678  0.18660672  1
  Zn  Zn112  1  0.68594464  0.18640772  0.68456925  1
  Zn  Zn113  1  0.69179371  0.68804223  0.18080896  1
  Zn  Zn114  1  0.68538263  0.68597138  0.68566439  1
  Zn  Zn115  1  0.31564704  0.30833101  0.31495887  1
  Zn  Zn116  1  0.31230133  0.31211841  0.81483657  1
  Zn  Zn117  1  0.32177322  0.79916189  0.33702124  1
  Zn  Zn118  1  0.31498043  0.81166637  0.81372478  1
  Zn  Zn119  1  0.81607552  0.31187528  0.31386909  1
  Zn  Zn120  1  0.80931634  0.31657768  0.81120046  1
  Zn  Zn121  1  0.81885242  0.81506247  0.30936776  1
  Zn  Zn122  1  0.80799986  0.81576031  0.80878671  1
  Zn  Zn123  1  0.18871653  0.43448414  0.43907547  1
  Zn  Zn124  1  0.18108705  0.43882821  0.92851353  1
  Zn  Zn125  1  0.18692344  0.93086797  0.44326690  1
  Zn  Zn126  1  0.18698834  0.93400762  0.93876112  1
  Zn  Zn127  1  0.69571639  0.43724899  0.43710205  1
  Zn  Zn128  1  0.67869232  0.43618024  0.93192485  1
  Zn  Zn129  1  0.68456416  0.93816936  0.43446841  1
  Zn  Zn130  1  0.68700480  0.93773635  0.93465557  1
  Zn  Zn131  1  0.31359417  0.05984632  0.06791724  1
  Zn  Zn132  1  0.30812207  0.05637690  0.56306987  1
  Zn  Zn133  1  0.31280603  0.58187959  0.06549800  1
  Zn  Zn134  1  0.31336252  0.56451684  0.56566762  1
  Zn  Zn135  1  0.81168241  0.06190159  0.06717297  1
  Zn  Zn136  1  0.80995588  0.06584995  0.56361809  1
  Zn  Zn137  1  0.80931650  0.56404592  0.06117463  1
  Zn  Zn138  1  0.81538707  0.57131274  0.55818034  1
  Zn  Zn139  1  0.44512195  0.44017329  0.19823651  1
  Zn  Zn140  1  0.43612016  0.43726683  0.69247872  1
  Zn  Zn141  1  0.43378043  0.93731824  0.18937546  1
  Zn  Zn142  1  0.43751408  0.93933911  0.68741526  1
  Zn  Zn143  1  0.93932084  0.43585450  0.18518523  1
  Zn  Zn144  1  0.93362024  0.44380068  0.68588916  1
  Zn  Zn145  1  0.93640292  0.93545743  0.18722186  1
  Zn  Zn146  1  0.92805883  0.94162480  0.68064357  1
  Zn  Zn147  1  0.10290624  0.04379713  0.33353839  1
  Zn  Zn148  1  0.04061363  0.02373535  0.79282210  1
  Zn  Zn149  1  0.06319539  0.56104058  0.30661302  1
  Zn  Zn150  1  0.06678113  0.56422849  0.81083986  1
  Zn  Zn151  1  0.56595546  0.06063432  0.31158166  1
  Zn  Zn152  1  0.56345417  0.06689125  0.81569821  1
  Zn  Zn153  1  0.58510581  0.52964623  0.35242861  1
  Zn  Zn154  1  0.55903436  0.56240638  0.81101645  1
  Zn  Zn155  1  0.43771976  0.18646774  0.43794351  1
  Zn  Zn156  1  0.43831131  0.18976015  0.93612059  1
  Zn  Zn157  1  0.42900269  0.68810157  0.44105098  1
  Zn  Zn158  1  0.43436284  0.69034332  0.93435741  1
  Zn  Zn159  1  0.93945127  0.18849575  0.43907804  1
  Zn  Zn160  1  0.93571565  0.18412282  0.93772291  1
  Zn  Zn161  1  0.93192334  0.69148722  0.44021111  1
  Zn  Zn162  1  0.93666782  0.68477034  0.93563236  1
  Zn  Zn163  1  0.05115731  0.30028316  0.03300781  1
  Zn  Zn164  1  0.05910712  0.31606435  0.56555743  1
  Zn  Zn165  1  0.06459987  0.81094667  0.05938433  1
  Zn  Zn166  1  0.06114078  0.81341893  0.55980674  1
  Zn  Zn167  1  0.55984948  0.31275469  0.06335017  1
  Zn  Zn168  1  0.56231782  0.29989670  0.56903335  1
  Zn  Zn169  1  0.56619336  0.81525993  0.05894395  1
  Zn  Zn170  1  0.56282303  0.81791661  0.55649893  1
  O  O171  1  0.12095974  0.11474331  0.12009977  1
  O  O172  1  0.11665947  0.12446031  0.61990230  1
  O  O173  1  0.11510345  0.61401902  0.12376833  1
  O  O174  1  0.11585437  0.61074010  0.62974538  1
  O  O175  1  0.61371602  0.12925453  0.11722753  1
  O  O176  1  0.63136166  0.11267242  0.61301226  1
  O  O177  1  0.63065685  0.61653577  0.11331617  1
  O  O178  1  0.60848607  0.62635105  0.62209444  1
  O  O179  1  0.38041951  0.37739876  0.38618952  1
  O  O180  1  0.39003380  0.37311112  0.87353258  1
  O  O181  1  0.39174863  0.88938942  0.35639941  1
  O  O182  1  0.38230146  0.88352719  0.87835219  1
  O  O183  1  0.88723742  0.38216535  0.37843000  1
  O  O184  1  0.86993704  0.38863774  0.88075709  1
  O  O185  1  0.89189860  0.87178783  0.37768236  1
  O  O186  1  0.87490499  0.88026894  0.88249647  1
  O  O187  1  0.20761852  0.00900922  0.36867412  1
  O  O188  1  0.25484787  0.00593088  0.87150867  1
  O  O189  1  0.25514136  0.50240890  0.36739946  1
  O  O190  1  0.24475553  0.51109094  0.86564568  1
  O  O191  1  0.75055983  0.00761376  0.36254071  1
  O  O192  1  0.75409670  0.00182255  0.86570035  1
  O  O193  1  0.76672104  0.49741471  0.36557107  1
  O  O194  1  0.75505347  0.50762650  0.87221774  1
  O  O195  1  0.24699829  0.49165082  0.12527213  1
  O  O196  1  0.24154451  0.49999252  0.63249383  1
  O  O197  1  0.24389819  0.98583521  0.12472187  1
  O  O198  1  0.23866979  1.00004167  0.63490568  1
  O  O199  1  0.74283059  0.49446505  0.13011306  1
  O  O200  1  0.75469465  0.50951486  0.63522311  1
  O  O201  1  0.75458556  0.99078782  0.13759220  1
  O  O202  1  0.74311901  0.99465098  0.62932376  1
  O  O203  1  0.00313275  0.36904988  0.25723978  1
  O  O204  1  0.00964847  0.38125395  0.74804014  1
  O  O205  1  -0.00434040  0.86455975  0.25592182  1
  O  O206  1  -0.00001485  0.91854537  0.76106882  1
  O  O207  1  0.50715067  0.36371144  0.25827572  1
  O  O208  1  0.49752854  0.36356713  0.75719006  1
  O  O209  1  0.51244677  0.88426977  0.25275261  1
  O  O210  1  0.49738819  0.86949548  0.76182049  1
  O  O211  1  0.49603053  0.12962878  0.24437123  1
  O  O212  1  0.48921807  0.13833754  0.76165646  1
  O  O213  1  0.49440218  0.63470702  0.26076693  1
  O  O214  1  0.49253697  0.63284870  0.74181643  1
  O  O215  1  0.99501135  0.12915341  0.24559805  1
  O  O216  1  0.98765685  0.11884175  0.74244151  1
  O  O217  1  0.99129808  0.62752847  0.24090355  1
  O  O218  1  0.99607589  0.61880186  0.73607295  1
  O  O219  1  0.36576910  0.24688371  0.00944826  1
  O  O220  1  0.36787947  0.25493834  0.50115633  1
  O  O221  1  0.36691935  0.74709121  0.01141001  1
  O  O222  1  0.35396204  0.76786271  0.45349919  1
  O  O223  1  0.86124830  0.25239409  0.00744916  1
  O  O224  1  0.87648118  0.25910778  0.50766532  1
  O  O225  1  0.86848613  0.75817052  -0.00245470  1
  O  O226  1  0.86267319  0.75409635  0.51025969  1
  O  O227  1  0.13047990  0.24839267  0.49673363  1
  O  O228  1  0.14810788  0.23791676  1.01966834  1
  O  O229  1  0.12247459  0.74424587  0.48646333  1
  O  O230  1  0.13381383  0.74467048  0.99489344  1
  O  O231  1  0.62564396  0.23264129  0.50209157  1
  O  O232  1  0.63613015  0.24461506  1.00442495  1
  O  O233  1  0.64071028  0.75142918  0.50165207  1
  O  O234  1  0.62896101  0.74155729  0.99042058  1
  O  O235  1  0.49134260  0.24364235  0.13216487  1
  O  O236  1  0.49156129  0.24619072  0.64264258  1
  O  O237  1  0.48898384  0.75669436  0.12152591  1
  O  O238  1  0.50640802  0.74809894  0.63524844  1
  O  O239  1  0.99464662  0.24219731  0.12736069  1
  O  O240  1  0.99035838  0.23861413  0.62036229  1
  O  O241  1  0.99963357  0.74169803  0.12955432  1
  O  O242  1  0.99121531  0.74220818  0.61685903  1
  O  O243  1  0.00434519  0.25999600  0.36978827  1
  O  O244  1  0.01890350  0.25485477  0.92780891  1
  O  O245  1  0.00594395  0.75117166  0.36908667  1
  O  O246  1  0.01430964  0.74603077  0.87805093  1
  O  O247  1  0.49668387  0.25921890  0.36726863  1
  O  O248  1  0.49991046  0.25914908  0.86657685  1
  O  O249  1  0.50128788  0.75995297  0.37153304  1
  O  O250  1  0.50560675  0.75707055  0.86782656  1
  O  O251  1  0.23709690  0.13159486  0.50551081  1
  O  O252  1  0.24939023  0.12889013  0.99481503  1
  O  O253  1  0.25485380  0.62412257  0.48406300  1
  O  O254  1  0.24764626  0.63641286  0.99158724  1
  O  O255  1  0.74386865  0.12356656  0.48901624  1
  O  O256  1  0.74348458  0.13234909  1.00293864  1
  O  O257  1  0.74897836  0.64311735  0.49902283  1
  O  O258  1  0.74259145  0.62948760  0.98821405  1
  O  O259  1  0.24835282  0.36887273  -0.00394832  1
  O  O260  1  0.25867707  0.36712393  0.50313839  1
  O  O261  1  0.25418000  0.86284770  0.00502823  1
  O  O262  1  0.24916438  0.87080749  0.50947694  1
  O  O263  1  0.75176419  0.36906820  0.00483422  1
  O  O264  1  0.76786062  0.37194061  0.49289695  1
  O  O265  1  0.75650858  0.87340987  0.00548496  1
  O  O266  1  0.75038221  0.86941514  0.50481900  1
  O  O267  1  0.13439743  0.49584784  0.23790932  1
  O  O268  1  0.13209292  0.49040712  0.74421415  1
  O  O269  1  0.11812221  0.99660440  0.23087930  1
  O  O270  1  0.13923027  1.01571710  0.73883088  1
  O  O271  1  0.63305213  0.49504670  0.24653749  1
  O  O272  1  0.63962804  0.50441659  0.75021877  1
  O  O273  1  0.63642034  0.99151760  0.24776945  1
  O  O274  1  0.63334905  1.01039526  0.74135003  1
  O  O275  1  0.36968780  0.01611588  0.24511257  1
  O  O276  1  0.36910899  0.00822312  0.76235171  1
  O  O277  1  0.36906952  0.50625756  0.25538078  1
  O  O278  1  0.36301107  0.50992555  0.74603885  1
  O  O279  1  0.86968058  0.00910557  0.24667813  1
  O  O280  1  0.85950739  0.01405608  0.75131519  1
  O  O281  1  0.87436985  0.50605497  0.25538494  1
  O  O282  1  0.86359103  0.50422306  0.75628201  1
  O  O283  1  0.11508957  0.36727545  0.37461117  1
  O  O284  1  0.12343619  0.37214409  0.85717927  1
  O  O285  1  0.11230596  0.85549809  0.37565596  1
  O  O286  1  0.12086963  0.85886384  0.88168917  1
  O  O287  1  0.61633670  0.38116953  0.36792770  1
  O  O288  1  0.61388285  0.37163569  0.86424038  1
  O  O289  1  0.61642026  0.87710569  0.36153620  1
  O  O290  1  0.61760817  0.86448143  0.87897867  1
  O  O291  1  0.38269822  0.13269256  0.13209834  1
  O  O292  1  0.36909988  0.12111105  0.64062784  1
  O  O293  1  0.37755076  0.63412006  0.14042777  1
  O  O294  1  0.38431094  0.62667048  0.63463419  1
  O  O295  1  0.88115054  0.12881755  0.13547168  1
  O  O296  1  0.88040041  0.13274618  0.63187035  1
  O  O297  1  0.88623023  0.62388361  0.12969922  1
  O  O298  1  0.88251641  0.63604427  0.62707571  1
  O  O299  1  0.26606646  0.25243514  0.12223711  1
  O  O300  1  0.25233421  0.25224078  0.61335842  1
  O  O301  1  0.25286557  0.75264755  0.12029128  1
  O  O302  1  0.24806046  0.74622504  0.62327775  1
  O  O303  1  0.75538171  0.25529560  0.12146829  1
  O  O304  1  0.76359796  0.24516933  0.61959735  1
  O  O305  1  0.75461001  0.75834010  0.11420704  1
  O  O306  1  0.75353594  0.75909268  0.62317509  1
  O  O307  1  0.24090294  0.25577171  0.38748498  1
  O  O308  1  0.24963941  0.24212899  0.88495090  1
  O  O309  1  0.22694041  0.73604884  0.36278344  1
  O  O310  1  0.24234636  0.74660048  0.88173834  1
  O  O311  1  0.75481362  0.23636628  0.37520871  1
  O  O312  1  0.74801305  0.25031442  0.88541282  1
  O  O313  1  0.75571820  0.75696292  0.38635570  1
  O  O314  1  0.74184604  0.74429371  0.87615249  1
  O  O315  1  0.00195684  0.11316371  0.01366223  1
  O  O316  1  0.00828692  0.12192522  0.50659606  1
  O  O317  1  -0.00130773  0.61574528  0.00818093  1
  O  O318  1  -0.00654890  0.61445654  0.50682725  1
  O  O319  1  0.50786669  0.12614906  0.00807349  1
  O  O320  1  0.50735439  0.11403975  0.49394076  1
  O  O321  1  0.50867553  0.61945163  -0.00864410  1
  O  O322  1  0.49685594  0.63669810  0.51550649  1
  O  O323  1  0.49467772  0.36955873  0.49486065  1
  O  O324  1  0.50449201  0.37667706  0.98575889  1
  O  O325  1  0.49598782  0.88545092  0.48910777  1
  O  O326  1  0.49871651  0.87746670  0.98794167  1
  O  O327  1  0.99210466  0.38434528  0.49236373  1
  O  O328  1  0.98641933  0.39393965  1.00888834  1
  O  O329  1  0.99828759  0.88635627  0.49280128  1
  O  O330  1  0.98773861  0.87919403  1.00137777  1
  O  O331  1  0.48323296  0.48164119  0.36660833  1
  O  O332  1  0.50080852  0.48676586  0.87547432  1
  O  O333  1  0.50735357  0.99568362  0.38829957  1
  O  O334  1  0.49326924  0.99381753  0.87520697  1
  O  O335  1  0.99612877  0.49450568  0.37898034  1
  O  O336  1  0.98954740  0.51012194  0.88213930  1
  O  O337  1  1.01132841  0.99164452  0.38367544  1
  O  O338  1  0.98981336  1.00773284  0.89476782  1
  O  O339  1  0.00479363  0.00002420  0.11600311  1
  O  O340  1  0.00490616  0.01354661  0.61719011  1
  O  O341  1  0.00649373  0.50668015  0.11943509  1
  O  O342  1  0.00437579  0.50776024  0.61609533  1
  O  O343  1  0.49348624  0.01226185  0.12146674  1
  O  O344  1  0.50981009  -0.00361949  0.61190068  1
  O  O345  1  0.51329272  0.49574953  0.12352174  1
  O  O346  1  0.49498440  0.51633101  0.62657634  1
  O  O347  1  0.25094601  0.38603235  0.25515277  1
  O  O348  1  0.24807929  0.38334561  0.74847712  1
  O  O349  1  0.25639184  0.86868739  0.24372650  1
  O  O350  1  0.25152803  0.88883404  0.75462740  1
  O  O351  1  0.74668996  0.37898378  0.24626127  1
  O  O352  1  0.74826653  0.39272357  0.74868234  1
  O  O353  1  0.74665099  0.88061574  0.24433298  1
  O  O354  1  0.75108813  0.88837644  0.73911649  1
  O  O355  1  0.26354211  0.13093638  0.24782747  1
  O  O356  1  0.25732236  0.12207887  0.75985738  1
  O  O357  1  0.25725958  0.61085958  0.25570632  1
  O  O358  1  0.25674527  0.61899043  0.75540351  1
  O  O359  1  0.75729714  0.11820112  0.25455948  1
  O  O360  1  0.75565327  0.12053095  0.75131910  1
  O  O361  1  0.76555528  0.62125518  0.24205792  1
  O  O362  1  0.75002360  0.61898426  0.75994203  1
  O  O363  1  0.37638287  0.12926718  0.35947935  1
  O  O364  1  0.36576002  0.11896627  0.87148022  1
  O  O365  1  0.36855747  0.61349305  0.36760332  1
  O  O366  1  0.36204848  0.63068662  0.86506192  1
  O  O367  1  0.87166313  0.12869364  0.36416876  1
  O  O368  1  0.87121309  0.11989915  0.86842454  1
  O  O369  1  0.88396399  0.61568852  0.36491986  1
  O  O370  1  0.86472836  0.61721787  0.87325189  1
  O  O371  1  0.11627853  0.38498842  0.12046379  1
  O  O372  1  0.12393138  0.38581253  0.63375312  1
  O  O373  1  0.13692482  0.87914922  0.11812366  1
  O  O374  1  0.12102220  0.88744040  0.62565839  1
  O  O375  1  0.62959256  0.38145589  0.13279120  1
  O  O376  1  0.61720388  0.37967428  0.62446281  1
  O  O377  1  0.63856998  0.87046795  0.13092030  1
  O  O378  1  0.63469628  0.88735887  0.61954095  1
  O  O379  1  0.12163568  0.25056024  0.25723334  1
  O  O380  1  0.12533838  0.26619145  0.74581173  1
  O  O381  1  0.10969457  0.73909788  0.25561305  1
  O  O382  1  0.12626405  0.74945168  0.76484619  1
  O  O383  1  0.61346093  0.25254154  0.24551428  1
  O  O384  1  0.61143688  0.24678736  0.74940729  1
  O  O385  1  0.62133659  0.75541274  0.24513716  1
  O  O386  1  0.61592447  0.74416501  0.76113306  1
  O  O387  1  0.38487363  0.24241246  0.24488100  1
  O  O388  1  0.38050722  0.24161035  0.75017225  1
  O  O389  1  0.36888807  0.73761227  0.24622523  1
  O  O390  1  0.38618795  0.74198106  0.75567037  1
  O  O391  1  0.88275109  0.24294320  0.24501725  1
  O  O392  1  0.87001857  0.24129031  0.74525517  1
  O  O393  1  0.88560309  0.74145414  0.24719062  1
  O  O394  1  0.87174742  0.75231022  0.73602204  1
  O  O395  1  0.36891706  0.49152143  0.49049700  1
  O  O396  1  0.36871672  0.49265656  1.01778076  1
  O  O397  1  0.38826894  1.00502828  0.49940441  1
  O  O398  1  0.37632536  1.00018600  0.98875735  1
  O  O399  1  0.88145240  0.49649949  0.49184189  1
  O  O400  1  0.87798987  0.49825544  0.99153210  1
  O  O401  1  0.88856035  1.00399897  0.50385090  1
  O  O402  1  0.87864575  0.99182304  0.99803961  1
  O  O403  1  0.11762551  0.00370220  0.00544446  1
  O  O404  1  0.11553965  0.01078093  0.51164946  1
  O  O405  1  0.11560267  0.50249082  0.00227487  1
  O  O406  1  0.11579260  0.49313301  0.50828428  1
  O  O407  1  0.62575568  0.01298839  -0.00200800  1
  O  O408  1  0.61795834  0.00713876  0.50539947  1
  O  O409  1  0.62542831  0.50813998  0.00907301  1
  O  O410  1  0.62048116  0.51539010  0.47263055  1
  O  O411  1  0.37920774  0.36818681  0.13116150  1
  O  O412  1  0.37497794  0.37516136  0.61390262  1
  O  O413  1  0.36688120  0.86660866  0.12445532  1
  O  O414  1  0.36998430  0.88224803  0.62280851  1
  O  O415  1  0.86769587  0.36992111  0.11910563  1
  O  O416  1  0.88333822  0.36698050  0.61650633  1
  O  O417  1  0.86515481  0.87245051  0.11653556  1
  O  O418  1  0.86265223  0.87155892  0.61864332  1
  O  O419  1  0.11319637  0.14478557  0.38877289  1
  O  O420  1  0.13820967  0.12795578  0.88240189  1
  O  O421  1  0.12849137  0.62884737  0.37128281  1
  O  O422  1  0.13646550  0.63430609  0.87452443  1
  O  O423  1  0.63640292  0.12031107  0.38127901  1
  O  O424  1  0.62630553  0.13291453  0.88780135  1
  O  O425  1  0.61469746  0.64068664  0.36567167  1
  O  O426  1  0.62936297  0.63074896  0.88049349  1
