# generated using pymatgen
data_V85Zn86O256
_symmetry_space_group_name_H-M   'P 1'
_cell_length_a   16.95600323
_cell_length_b   16.94871001
_cell_length_c   16.95654561
_cell_angle_alpha   90.00827749
_cell_angle_beta   89.92642808
_cell_angle_gamma   90.03327823
_symmetry_Int_Tables_number   1
_chemical_formula_structural   V85Zn86O256
_chemical_formula_sum   'V85 Zn86 O256'
_cell_volume   4873.00757371
_cell_formula_units_Z   1
loop_
 _symmetry_equiv_pos_site_id
 _symmetry_equiv_pos_as_xyz
  1  'x, y, z'
loop_
 _atom_site_type_symbol
 _atom_site_label
 _atom_site_symmetry_multiplicity
 _atom_site_fract_x
 _atom_site_fract_y
 _atom_site_fract_z
 _atom_site_occupancy
  V  V0  1  0.75483863  0.62520565  0.87738192  1
  V  V1  1  0.87206255  0.36748073  -0.00276059  1
  V  V2  1  0.87741834  0.12474668  0.75037139  1
  V  V3  1  0.00351643  0.62440897  0.62108398  1
  V  V4  1  0.62629920  0.26272618  0.87416315  1
  V  V5  1  0.75174225  0.00203641  0.74616896  1
  V  V6  1  0.62413422  0.37697448  0.25261392  1
  V  V7  1  0.73930523  0.25022238  0.49596072  1
  V  V8  1  0.87840640  0.62233109  0.75375473  1
  V  V9  1  0.50921395  0.49679556  0.00003294  1
  V  V10  1  0.12657504  0.75429600  0.87267194  1
  V  V11  1  0.24418878  0.62218948  0.38014487  1
  V  V12  1  0.12335249  0.00108677  0.12732648  1
  V  V13  1  0.49872680  -0.00368126  0.50404830  1
  V  V14  1  0.87127135  0.50687694  0.37377158  1
  V  V15  1  0.25964982  0.12262669  0.87394406  1
  V  V16  1  0.64590590  0.75584095  0.35993891  1
  V  V17  1  0.00550624  0.12155137  0.61083240  1
  V  V18  1  0.75202259  0.87292173  0.62404938  1
  V  V19  1  0.50061118  0.12224675  0.63069647  1
  V  V20  1  0.63102286  0.62558287  0.49244151  1
  V  V21  1  0.00075631  0.87565339  0.87282291  1
  V  V22  1  0.88276851  0.74540704  0.12378248  1
  V  V23  1  0.37312465  0.86147375  0.50372062  1
  V  V24  1  0.38649331  0.24636407  0.12477517  1
  V  V25  1  0.26036836  0.62296473  0.86792439  1
  V  V26  1  0.87414895  -0.00228238  0.87583970  1
  V  V27  1  -0.00857087  0.50301104  -0.00270741  1
  V  V28  1  0.12787979  0.37674862  0.74935026  1
  V  V29  1  0.12732797  0.50135503  0.62085387  1
  V  V30  1  0.62491800  0.87558622  0.75136395  1
  V  V31  1  0.23921370  0.86964522  0.62811363  1
  V  V32  1  0.25161876  0.87542500  0.12728234  1
  V  V33  1  0.87664374  0.25682030  0.13920675  1
  V  V34  1  0.00425697  0.75593158  0.74906412  1
  V  V35  1  0.18849892  0.07710465  0.43472556  1
  V  V36  1  0.00332831  0.49908933  0.49780970  1
  V  V37  1  0.23889103  0.74152848  0.50381611  1
  V  V38  1  0.87349458  0.25066458  0.62366108  1
  V  V39  1  0.25021039  0.49606328  0.24951751  1
  V  V40  1  -0.00025978  0.25172349  0.74937805  1
  V  V41  1  0.24414877  -0.00902929  0.75557407  1
  V  V42  1  0.50305640  0.36942822  0.37822118  1
  V  V43  1  0.25048450  0.25307898  0.49316925  1
  V  V44  1  0.37820678  0.37757890  -0.01152408  1
  V  V45  1  0.12112059  0.24874789  0.37573444  1
  V  V46  1  0.37596621  0.24567220  0.62254688  1
  V  V47  1  0.37630780  0.49245082  0.37941091  1
  V  V48  1  0.37767439  0.74875634  0.12436263  1
  V  V49  1  0.75596191  0.75724303  0.00237875  1
  V  V50  1  0.11914150  0.36883630  0.24819792  1
  V  V51  1  0.62667706  0.12767018  0.48901662  1
  V  V52  1  0.25126065  0.37288470  0.12262602  1
  V  V53  1  0.12697824  0.62342239  -0.00302494  1
  V  V54  1  0.82105233  0.92779078  0.05864961  1
  V  V55  1  0.87403288  0.00902602  0.36262734  1
  V  V56  1  0.74968477  0.37734726  0.62848625  1
  V  V57  1  0.62405978  0.75585435  0.87656684  1
  V  V58  1  0.25616474  0.37317857  0.61994595  1
  V  V59  1  0.37629302  0.87874276  -0.00280418  1
  V  V60  1  0.62749761  0.62827913  0.01172623  1
  V  V61  1  0.37348340  0.61990759  0.24928729  1
  V  V62  1  0.62773017  0.50559759  0.63079208  1
  V  V63  1  0.50158514  0.49825171  0.50053432  1
  V  V64  1  0.12455241  0.49775541  0.12222913  1
  V  V65  1  0.24693278  0.00688278  0.25135392  1
  V  V66  1  -0.00348033  0.86799480  0.37185347  1
  V  V67  1  -0.01046743  0.13096202  0.13164650  1
  V  V68  1  0.75567866  0.74336096  0.50189782  1
  V  V69  1  0.74757679  0.51122452  0.24952996  1
  V  V70  1  0.37463219  0.00530208  0.37933113  1
  V  V71  1  0.62554349  0.00045457  0.62282611  1
  V  V72  1  0.25090009  0.25079480  -0.00140170  1
  V  V73  1  0.88057097  0.88465709  0.50060371  1
  V  V74  1  -0.00482042  0.38190390  0.87245357  1
  V  V75  1  0.50179288  0.89046771  0.87844251  1
  V  V76  1  0.49531223  0.01222878  0.01935262  1
  V  V77  1  0.49718252  0.74927775  0.25700266  1
  V  V78  1  0.12171501  0.86147428  0.24853740  1
  V  V79  1  -0.00770829  0.37112119  0.37111050  1
  V  V80  1  0.00161681  -0.00501801  -0.00004115  1
  V  V81  1  0.49284309  0.63309222  0.63113431  1
  V  V82  1  0.74128431  0.37697909  0.12162218  1
  V  V83  1  0.75219750  0.49803724  0.75623579  1
  V  V84  1  0.12327162  0.12701869  -0.00218604  1
  Zn  Zn85  1  0.12544018  0.25173613  0.87364876  1
  Zn  Zn86  1  0.00734137  0.62903076  0.13387508  1
  Zn  Zn87  1  0.62863085  0.00282258  0.13589259  1
  Zn  Zn88  1  0.87381058  0.37427465  0.49841894  1
  Zn  Zn89  1  0.37677273  0.11649098  0.75200763  1
  Zn  Zn90  1  0.48243485  0.74286561  0.75809682  1
  Zn  Zn91  1  0.12109144  0.00202007  0.62236193  1
  Zn  Zn92  1  0.50084698  0.27642038  0.76112949  1
  Zn  Zn93  1  0.50636038  0.62188103  0.12849803  1
  Zn  Zn94  1  0.50246116  0.24443214  0.25586819  1
  Zn  Zn95  1  0.63201000  0.88853622  0.24845083  1
  Zn  Zn96  1  0.25184935  0.74932366  0.00020140  1
  Zn  Zn97  1  0.87816586  0.75068196  0.62655220  1
  Zn  Zn98  1  0.38869928  0.50166403  0.86592821  1
  Zn  Zn99  1  0.26099984  0.50334934  0.74394106  1
  Zn  Zn100  1  0.49956991  0.87021803  0.37911987  1
  Zn  Zn101  1  0.72090875  0.07310439  0.30352366  1
  Zn  Zn102  1  0.88215478  0.63284778  0.25695733  1
  Zn  Zn103  1  0.37465144  0.12490710  0.24969384  1
  Zn  Zn104  1  0.62886190  0.12745599  -0.00240878  1
  Zn  Zn105  1  0.75198305  0.13571004  0.88478397  1
  Zn  Zn106  1  0.11302233  0.73510753  0.37116672  1
  Zn  Zn107  1  0.18648572  0.18810174  0.18601770  1
  Zn  Zn108  1  0.18736529  0.18587302  0.68809165  1
  Zn  Zn109  1  0.19192044  0.68369998  0.18463518  1
  Zn  Zn110  1  0.18695362  0.68695181  0.68870696  1
  Zn  Zn111  1  0.67535463  0.19939292  0.17968954  1
  Zn  Zn112  1  0.68397154  0.18944971  0.69245951  1
  Zn  Zn113  1  0.69683976  0.70871211  0.19266212  1
  Zn  Zn114  1  0.68570489  0.68739108  0.68915070  1
  Zn  Zn115  1  0.31145293  0.31196880  0.31178254  1
  Zn  Zn116  1  0.31254993  0.30835780  0.80726544  1
  Zn  Zn117  1  0.30986421  0.81212051  0.31707474  1
  Zn  Zn118  1  0.31021610  0.81097361  0.81581825  1
  Zn  Zn119  1  0.78502511  0.26789954  0.29112810  1
  Zn  Zn120  1  0.80974210  0.31381283  0.81531599  1
  Zn  Zn121  1  0.81535153  0.80973017  0.31323026  1
  Zn  Zn122  1  0.81569473  0.81345391  0.81349329  1
  Zn  Zn123  1  0.18495002  0.43504190  0.43656955  1
  Zn  Zn124  1  0.18825430  0.43951047  0.93424519  1
  Zn  Zn125  1  0.18468598  0.91488150  0.43656204  1
  Zn  Zn126  1  0.18826779  0.93673628  0.93852543  1
  Zn  Zn127  1  0.68891554  0.43514092  0.43706080  1
  Zn  Zn128  1  0.68641983  0.43940649  0.93778515  1
  Zn  Zn129  1  0.69155993  0.93539742  0.43791763  1
  Zn  Zn130  1  0.68876010  0.96390292  0.94180707  1
  Zn  Zn131  1  0.31233535  0.06337508  0.06221675  1
  Zn  Zn132  1  0.31558306  0.05215786  0.57358029  1
  Zn  Zn133  1  0.31509556  0.55987764  0.05764458  1
  Zn  Zn134  1  0.31706994  0.56139360  0.56224316  1
  Zn  Zn135  1  0.77735644  0.09946501  0.08711109  1
  Zn  Zn136  1  0.81408049  0.06580782  0.55945211  1
  Zn  Zn137  1  0.81172699  0.56200944  0.06474673  1
  Zn  Zn138  1  0.81831267  0.56255752  0.56413619  1
  Zn  Zn139  1  0.44073516  0.43549340  0.18187516  1
  Zn  Zn140  1  0.43878966  0.44071919  0.68863865  1
  Zn  Zn141  1  0.43829284  0.93371723  0.19280329  1
  Zn  Zn142  1  0.41216444  0.90216596  0.70725075  1
  Zn  Zn143  1  0.93583768  0.44159252  0.18664386  1
  Zn  Zn144  1  0.93544527  0.43978538  0.68812054  1
  Zn  Zn145  1  0.94187885  0.93897149  0.19242518  1
  Zn  Zn146  1  0.94124991  0.93911621  0.68487505  1
  Zn  Zn147  1  0.05048972  0.05303297  0.31082129  1
  Zn  Zn148  1  0.06472468  0.06356896  0.81105262  1
  Zn  Zn149  1  0.06027490  0.55880898  0.30824005  1
  Zn  Zn150  1  0.06712712  0.56297023  0.81085654  1
  Zn  Zn151  1  0.55096247  0.06132363  0.31060962  1
  Zn  Zn152  1  0.56645837  0.06858514  0.81563732  1
  Zn  Zn153  1  0.56606535  0.56507201  0.31341774  1
  Zn  Zn154  1  0.56726139  0.56587904  0.81557966  1
  Zn  Zn155  1  0.43552733  0.18435087  0.44181339  1
  Zn  Zn156  1  0.44266962  0.19224973  0.93486610  1
  Zn  Zn157  1  0.43738687  0.68158018  0.43871069  1
  Zn  Zn158  1  0.44308259  0.69026971  0.94179448  1
  Zn  Zn159  1  0.93362208  0.19071066  0.43558905  1
  Zn  Zn160  1  0.93807564  0.18877300  0.93735614  1
  Zn  Zn161  1  0.93690509  0.68781257  0.44126828  1
  Zn  Zn162  1  0.93785428  0.68991372  0.93992087  1
  Zn  Zn163  1  0.05994575  0.31214266  0.05957429  1
  Zn  Zn164  1  0.06398685  0.31099240  0.55865724  1
  Zn  Zn165  1  0.06473575  0.81260982  0.05979652  1
  Zn  Zn166  1  0.06216511  0.81081871  0.55841752  1
  Zn  Zn167  1  0.56609773  0.31289158  0.05301493  1
  Zn  Zn168  1  0.55400188  0.32427339  0.58634400  1
  Zn  Zn169  1  0.56645968  0.82199895  0.06895292  1
  Zn  Zn170  1  0.56711148  0.81016751  0.55872773  1
  O  O171  1  0.11634518  0.12287882  0.11425608  1
  O  O172  1  0.10857289  0.12859699  0.62583681  1
  O  O173  1  0.12750987  0.61879594  0.11395500  1
  O  O174  1  0.11884809  0.60899823  0.63175378  1
  O  O175  1  0.65970571  0.11324624  0.11023601  1
  O  O176  1  0.61786225  0.11778163  0.61957868  1
  O  O177  1  0.63066730  0.63858420  0.11327729  1
  O  O178  1  0.62334718  0.61915539  0.61591554  1
  O  O179  1  0.38049936  0.38782099  0.36961437  1
  O  O180  1  0.36977308  0.37224517  0.88605542  1
  O  O181  1  0.36962104  0.88513411  0.38788724  1
  O  O182  1  0.38357437  0.87126991  0.89145660  1
  O  O183  1  0.88874489  0.38528208  0.37548550  1
  O  O184  1  0.88431387  0.37507214  0.88161170  1
  O  O185  1  0.87807449  0.87719365  0.38207262  1
  O  O186  1  0.88768809  0.88479887  0.86805159  1
  O  O187  1  0.24648076  0.00545403  0.37540952  1
  O  O188  1  0.24281603  0.00628254  0.86496569  1
  O  O189  1  0.25704133  0.50167337  0.37214188  1
  O  O190  1  0.25074245  0.51587672  0.87340337  1
  O  O191  1  0.76658185  -0.00232013  0.37802065  1
  O  O192  1  0.75899895  -0.01323922  0.85154610  1
  O  O193  1  0.75965087  0.49232287  0.36176408  1
  O  O194  1  0.74493094  0.51267461  0.86730796  1
  O  O195  1  0.24522418  0.49208804  0.12722565  1
  O  O196  1  0.24364053  0.49226078  0.62128469  1
  O  O197  1  0.24492797  0.99484681  0.13337812  1
  O  O198  1  0.23992352  0.99166051  0.63404827  1
  O  O199  1  0.75872291  0.48976336  0.13998541  1
  O  O200  1  0.74947334  0.49715592  0.63343136  1
  O  O201  1  0.77480901  0.98483880  0.12552814  1
  O  O202  1  0.74968798  0.99406758  0.63090664  1
  O  O203  1  0.01295828  0.38330830  0.25566735  1
  O  O204  1  0.00506847  0.37371029  0.75503490  1
  O  O205  1  0.01065124  0.87447056  0.25645314  1
  O  O206  1  -0.00187680  0.86215987  0.75112464  1
  O  O207  1  0.50664510  0.38089831  0.25992931  1
  O  O208  1  0.51231204  0.36077138  0.68997306  1
  O  O209  1  0.50272001  0.86126104  0.25716665  1
  O  O210  1  0.51346501  0.88259113  0.76235801  1
  O  O211  1  0.48725647  0.13269856  0.25731799  1
  O  O212  1  0.49684666  0.11515203  0.73613993  1
  O  O213  1  0.48321395  0.62142031  0.24915798  1
  O  O214  1  0.50727117  0.62928807  0.73712922  1
  O  O215  1  1.00360182  0.11961227  0.22923053  1
  O  O216  1  0.99018246  0.13192601  0.74648449  1
  O  O217  1  0.99530559  0.62152968  0.24609508  1
  O  O218  1  0.99535349  0.63012454  0.74477641  1
  O  O219  1  0.37195726  0.25743791  0.00726913  1
  O  O220  1  0.36117901  0.24307295  0.51036366  1
  O  O221  1  0.37514371  0.75716681  0.01037634  1
  O  O222  1  0.36730727  0.75712369  0.49402060  1
  O  O223  1  0.87974195  0.26474724  0.00392198  1
  O  O224  1  0.86442975  0.24982964  0.51208724  1
  O  O225  1  0.86793521  0.75325103  0.00661782  1
  O  O226  1  0.86980770  0.75722229  0.50664172  1
  O  O227  1  0.13236951  0.24996364  0.48578170  1
  O  O228  1  0.13128187  0.24304088  0.99823132  1
  O  O229  1  0.13517901  0.74757238  0.49245803  1
  O  O230  1  0.12780151  0.74001304  0.99298142  1
  O  O231  1  0.63444703  0.24399243  0.51223215  1
  O  O232  1  0.62286463  0.24513074  0.98472941  1
  O  O233  1  0.63662833  0.74436265  0.49044184  1
  O  O234  1  0.63290023  0.74943767  0.99266172  1
  O  O235  1  0.48786059  0.25806213  0.12327299  1
  O  O236  1  0.48761747  0.23045695  0.60651308  1
  O  O237  1  0.48936382  0.74668064  0.13397816  1
  O  O238  1  0.51049179  0.73468189  0.62420924  1
  O  O239  1  0.99365280  0.23795929  0.11780456  1
  O  O240  1  0.99170022  0.24545097  0.62883588  1
  O  O241  1  0.98697360  0.74775436  0.11247283  1
  O  O242  1  1.00461486  0.74060809  0.63207698  1
  O  O243  1  0.00746283  0.25864289  0.37918668  1
  O  O244  1  0.00200973  0.26144878  0.86748474  1
  O  O245  1  -0.00187635  0.76006044  0.37746012  1
  O  O246  1  0.00674774  0.75432686  0.86886544  1
  O  O247  1  0.48873365  0.26727735  0.38062094  1
  O  O248  1  0.51202898  0.25162887  0.87059964  1
  O  O249  1  0.50223890  0.74953968  0.37033932  1
  O  O250  1  0.50998158  0.75963896  0.87572301  1
  O  O251  1  0.24748258  0.12809096  0.50119849  1
  O  O252  1  0.24168044  0.12771954  0.99367317  1
  O  O253  1  0.25594831  0.62985875  0.49251858  1
  O  O254  1  0.24065547  0.62480885  0.99070416  1
  O  O255  1  0.74142041  0.14016288  0.50961693  1
  O  O256  1  0.74691160  0.06959160  0.97968866  1
  O  O257  1  0.74392734  0.63190232  0.51045378  1
  O  O258  1  0.74751529  0.63360638  0.99425104  1
  O  O259  1  0.25655872  0.37170115  0.00274175  1
  O  O260  1  0.24293649  0.36420177  0.50710869  1
  O  O261  1  0.25825654  0.87466764  0.00809695  1
  O  O262  1  0.25409217  0.85996744  0.50510487  1
  O  O263  1  0.76073370  0.39171680  0.01251696  1
  O  O264  1  0.75347359  0.36748434  0.51003906  1
  O  O265  1  0.75351424  0.87646103  -0.00257145  1
  O  O266  1  0.76023284  0.86669365  0.50702345  1
  O  O267  1  0.13268255  0.48994589  0.24250855  1
  O  O268  1  0.12870833  0.48950190  0.74113956  1
  O  O269  1  0.13000353  0.99175093  0.24522752  1
  O  O270  1  0.13796836  1.00664452  0.74535871  1
  O  O271  1  0.63975875  0.49674176  0.25305396  1
  O  O272  1  0.63773490  0.51013400  0.74027633  1
  O  O273  1  0.63558365  1.00521601  0.25795110  1
  O  O274  1  0.63520794  0.99705897  0.74279250  1
  O  O275  1  0.36337534  -0.00496825  0.26185223  1
  O  O276  1  0.35128667  -0.00173956  0.74480277  1
  O  O277  1  0.36885385  0.50352978  0.25361509  1
  O  O278  1  0.37335510  0.49585313  0.75493308  1
  O  O279  1  0.87382779  -0.00234442  0.26260178  1
  O  O280  1  0.87221273  0.00832084  0.75126023  1
  O  O281  1  0.86487546  0.50041899  0.25791031  1
  O  O282  1  0.86970548  0.51460295  0.74869290  1
  O  O283  1  0.11617538  0.36767475  0.36702867  1
  O  O284  1  0.11958721  0.37470268  0.86465655  1
  O  O285  1  0.11405931  0.86806423  0.36465251  1
  O  O286  1  0.12155941  0.86084619  0.88008520  1
  O  O287  1  0.61488263  0.38283009  0.36565088  1
  O  O288  1  0.62874357  0.36394537  0.87657349  1
  O  O289  1  0.62195909  0.86130718  0.38046820  1
  O  O290  1  0.61948156  0.87375194  0.87444611  1
  O  O291  1  0.36747176  0.14422737  0.12367737  1
  O  O292  1  0.38157060  0.12848871  0.62711612  1
  O  O293  1  0.37119061  0.63241836  0.13222314  1
  O  O294  1  0.39432528  0.62346127  0.62080084  1
  O  O295  1  0.88135949  0.14059286  0.11764273  1
  O  O296  1  0.88341074  0.13181024  0.63082799  1
  O  O297  1  0.87879783  0.63845386  0.12037426  1
  O  O298  1  0.88715138  0.62663827  0.63465148  1
  O  O299  1  0.25423104  0.25690109  0.11685328  1
  O  O300  1  0.25248753  0.25378151  0.61659183  1
  O  O301  1  0.26231248  0.75611913  0.12517767  1
  O  O302  1  0.24237566  0.75476869  0.61700915  1
  O  O303  1  0.76044096  0.27036111  0.12123001  1
  O  O304  1  0.75534445  0.25964888  0.62511082  1
  O  O305  1  0.76354476  0.75258268  0.10908976  1
  O  O306  1  0.75101243  0.75615718  0.61929635  1
  O  O307  1  0.24366521  0.25226200  0.38470046  1
  O  O308  1  0.24688974  0.24096369  0.87993951  1
  O  O309  1  0.24781340  0.73752713  0.38228523  1
  O  O310  1  0.24317796  0.74135049  0.87762129  1
  O  O311  1  0.74919784  0.26130446  0.39817044  1
  O  O312  1  0.73820157  0.24913612  0.87145459  1
  O  O313  1  0.75479693  0.74357442  0.39441823  1
  O  O314  1  0.74690610  0.74897263  0.88496063  1
  O  O315  1  0.00550799  0.11573439  0.00361879  1
  O  O316  1  -0.00382148  0.13055760  0.51329482  1
  O  O317  1  0.01175335  0.61768004  -0.00382617  1
  O  O318  1  -0.00249773  0.61742263  0.51351808  1
  O  O319  1  0.49390752  0.11256119  0.00172254  1
  O  O320  1  0.50777168  0.11387234  0.50369444  1
  O  O321  1  0.51180619  0.62165974  0.00473604  1
  O  O322  1  0.51092320  0.61746496  0.50565909  1
  O  O323  1  0.51107192  0.39129439  0.49488569  1
  O  O324  1  0.49409733  0.38925622  1.00255469  1
  O  O325  1  0.49018094  0.87832322  0.50347108  1
  O  O326  1  0.49216631  0.88253635  0.99770130  1
  O  O327  1  0.99781368  0.38100852  0.49172168  1
  O  O328  1  0.99456456  0.38233572  0.99097437  1
  O  O329  1  0.98715666  0.87040250  0.49341317  1
  O  O330  1  1.01022639  0.88932062  0.99250041  1
  O  O331  1  0.49426884  0.49728584  0.38225378  1
  O  O332  1  0.50270571  0.51053201  0.89202050  1
  O  O333  1  0.49039599  0.99253259  0.38768496  1
  O  O334  1  0.50055113  0.99248892  0.88146550  1
  O  O335  1  0.99733962  0.49288848  0.38307395  1
  O  O336  1  1.00671741  0.49016602  0.88077213  1
  O  O337  1  0.98604772  0.98354742  0.37450201  1
  O  O338  1  0.99591694  0.99819570  0.88138118  1
  O  O339  1  0.00213678  0.00857677  0.11676264  1
  O  O340  1  0.00251432  0.01591889  0.62545615  1
  O  O341  1  0.00871661  0.50066397  0.11385568  1
  O  O342  1  0.00640922  0.50388126  0.61880884  1
  O  O343  1  0.49621663  0.00444152  0.12197048  1
  O  O344  1  0.50310156  0.00419308  0.61285885  1
  O  O345  1  0.49405260  0.50677186  0.10712294  1
  O  O346  1  0.51254731  0.51269411  0.61747809  1
  O  O347  1  0.24025950  0.37869696  0.24404260  1
  O  O348  1  0.24150427  0.37389436  0.73971616  1
  O  O349  1  0.24269375  0.88333566  0.24760916  1
  O  O350  1  0.24260356  0.88298912  0.74449921  1
  O  O351  1  0.74176124  0.37758864  0.23935904  1
  O  O352  1  0.75928731  0.39111836  0.74459212  1
  O  O353  1  0.70955633  0.80308255  0.27113457  1
  O  O354  1  0.74659578  0.87810303  0.74014956  1
  O  O355  1  0.25187022  0.11111508  0.24573646  1
  O  O356  1  0.25071976  0.11840220  0.75922416  1
  O  O357  1  0.25894525  0.61765492  0.25600512  1
  O  O358  1  0.24766021  0.62460340  0.76432034  1
  O  O359  1  0.75619576  0.16318690  0.25149062  1
  O  O360  1  0.76329767  0.11694102  0.74554745  1
  O  O361  1  0.75554317  0.61282965  0.24391228  1
  O  O362  1  0.75867700  0.62144882  0.75692457  1
  O  O363  1  0.37137764  0.10897242  0.37964742  1
  O  O364  1  0.36259563  0.12834391  0.87540508  1
  O  O365  1  0.36664985  0.61320270  0.36788081  1
  O  O366  1  0.36192487  0.63088526  0.88166041  1
  O  O367  1  0.88300571  0.10834059  0.37722575  1
  O  O368  1  0.87389901  0.11949655  0.86653615  1
  O  O369  1  0.87916697  0.61097185  0.37729041  1
  O  O370  1  0.86362550  0.63189861  0.86980558  1
  O  O371  1  0.12884775  0.37573310  0.13061891  1
  O  O372  1  0.12956912  0.38295091  0.62959374  1
  O  O373  1  0.12977895  0.88001923  0.13072810  1
  O  O374  1  0.13479331  0.88048743  0.61374134  1
  O  O375  1  0.63742125  0.37658250  0.12520055  1
  O  O376  1  0.64473488  0.39326785  0.61662057  1
  O  O377  1  0.62656914  0.88662261  0.13460694  1
  O  O378  1  0.63169284  0.88091526  0.62871835  1
  O  O379  1  0.13213091  0.25682737  0.26247995  1
  O  O380  1  0.11856463  0.26189982  0.74794200  1
  O  O381  1  0.13252716  0.75840568  0.24940370  1
  O  O382  1  0.11497422  0.74318459  0.76044025  1
  O  O383  1  0.61642465  0.27076296  0.24570017  1
  O  O384  1  0.61869846  0.24496957  0.76450524  1
  O  O385  1  0.59942389  0.71535063  0.26009559  1
  O  O386  1  0.62904391  0.75712442  0.76509680  1
  O  O387  1  0.37356531  0.25476803  0.23380782  1
  O  O388  1  0.37991044  0.24591070  0.73533035  1
  O  O389  1  0.37971552  0.74187320  0.24783038  1
  O  O390  1  0.38433943  0.79170606  0.73741694  1
  O  O391  1  0.88726057  0.26977705  0.23732389  1
  O  O392  1  0.87736588  0.24472814  0.74066412  1
  O  O393  1  0.86990259  0.75138629  0.22853989  1
  O  O394  1  0.88375737  0.73953616  0.74856555  1
  O  O395  1  0.38812901  0.50367091  0.49091082  1
  O  O396  1  0.38446389  0.49358014  0.99187582  1
  O  O397  1  0.38151808  0.99236428  0.49686397  1
  O  O398  1  0.38438975  0.99164929  1.00733312  1
  O  O399  1  0.88527254  0.49674002  0.49466549  1
  O  O400  1  0.88826916  0.49565548  1.00374722  1
  O  O401  1  0.87055199  0.98710041  0.49594100  1
  O  O402  1  0.88491856  0.98884514  0.99913214  1
  O  O403  1  0.12060789  0.00770671  0.00685779  1
  O  O404  1  0.13641637  0.01008568  0.48994785  1
  O  O405  1  0.11813131  0.50531852  0.00272414  1
  O  O406  1  0.11240335  0.49500135  0.50619522  1
  O  O407  1  0.59980198  -0.00143991  0.00558316  1
  O  O408  1  0.61988900  0.00395657  0.50454913  1
  O  O409  1  0.61750809  0.51160734  -0.00029901  1
  O  O410  1  0.62454282  0.50965080  0.50514397  1
  O  O411  1  0.36891531  0.36809524  0.11404314  1
  O  O412  1  0.35942930  0.36558754  0.62206156  1
  O  O413  1  0.37222976  0.86723205  0.12015204  1
  O  O414  1  0.35382242  0.88439614  0.60794938  1
  O  O415  1  0.87240321  0.37283283  0.11598576  1
  O  O416  1  0.86800749  0.36837350  0.62422142  1
  O  O417  1  0.88206394  0.86863493  0.11803949  1
  O  O418  1  0.87244646  0.87413498  0.61616713  1
  O  O419  1  0.12102961  0.12754736  0.37292395  1
  O  O420  1  0.12870513  0.12724443  0.88716801  1
  O  O421  1  0.14032082  0.61849833  0.36907928  1
  O  O422  1  0.13280160  0.63277578  0.88007442  1
  O  O423  1  0.62710506  0.11889970  0.38826931  1
  O  O424  1  0.63184435  0.13190619  0.87916338  1
  O  O425  1  0.62699124  0.63347722  0.38712877  1
  O  O426  1  0.63752336  0.63785476  0.88253250  1
