# generated using pymatgen
data_V85Zn86O256
_symmetry_space_group_name_H-M   'P 1'
_cell_length_a   16.93457148
_cell_length_b   16.92143135
_cell_length_c   16.93923019
_cell_angle_alpha   89.96585533
_cell_angle_beta   89.98193749
_cell_angle_gamma   89.97745721
_symmetry_Int_Tables_number   1
_chemical_formula_structural   V85Zn86O256
_chemical_formula_sum   'V85 Zn86 O256'
_cell_volume   4854.05670504
_cell_formula_units_Z   1
loop_
 _symmetry_equiv_pos_site_id
 _symmetry_equiv_pos_as_xyz
  1  'x, y, z'
loop_
 _atom_site_type_symbol
 _atom_site_label
 _atom_site_symmetry_multiplicity
 _atom_site_fract_x
 _atom_site_fract_y
 _atom_site_fract_z
 _atom_site_occupancy
  V  V0  1  0.74382607  0.12607386  0.37517916  1
  V  V1  1  0.12453782  0.62790955  -0.00498184  1
  V  V2  1  0.75286343  0.37601677  0.61967377  1
  V  V3  1  0.37840359  0.13175669  0.24545181  1
  V  V4  1  -0.00080573  0.74987994  0.24992719  1
  V  V5  1  0.86923997  0.62174499  0.25056844  1
  V  V6  1  0.63794943  0.49857930  0.12595549  1
  V  V7  1  0.74839211  0.25024502  0.49887397  1
  V  V8  1  0.50335050  0.75890064  0.75503616  1
  V  V9  1  0.37045916  -0.00129736  0.87033638  1
  V  V10  1  0.87205721  0.12100941  0.74933221  1
  V  V11  1  -0.00481636  -0.00194101  0.50351913  1
  V  V12  1  0.87084260  0.12183719  0.25010446  1
  V  V13  1  0.12428106  0.49484487  0.62969348  1
  V  V14  1  0.25234687  0.75497440  0.01671445  1
  V  V15  1  0.87737848  0.75872445  0.11885826  1
  V  V16  1  0.25885933  0.24370494  0.00131122  1
  V  V17  1  0.87301452  0.49839792  0.87282300  1
  V  V18  1  0.51477698  0.75548088  0.24717772  1
  V  V19  1  0.12699872  0.87530621  0.24422090  1
  V  V20  1  0.00119952  0.12526563  0.12328943  1
  V  V21  1  0.12355270  0.49041132  0.12409743  1
  V  V22  1  0.25253827  0.25130698  0.49998026  1
  V  V23  1  0.73879222  0.75270720  0.48942278  1
  V  V24  1  0.50464076  -0.00219807  0.50141774  1
  V  V25  1  0.12343687  0.25162744  0.37349093  1
  V  V26  1  0.62076330  0.76694100  0.87397430  1
  V  V27  1  0.75119020  0.87552634  0.63817121  1
  V  V28  1  0.74911679  0.12024869  0.87084961  1
  V  V29  1  0.00542132  0.74967261  0.75225038  1
  V  V30  1  0.27035739  0.37086166  0.11834021  1
  V  V31  1  0.62965820  0.00014992  0.12945669  1
  V  V32  1  0.00280360  0.37283512  0.86110269  1
  V  V33  1  0.49838920  0.49548176  0.00482658  1
  V  V34  1  0.61989787  0.50118441  0.61563684  1
  V  V35  1  -0.00373722  0.87472914  0.38042422  1
  V  V36  1  0.25043589  -0.00276741  0.24645254  1
  V  V37  1  0.75303208  0.75863735  -0.00339109  1
  V  V38  1  0.12320257  0.12424777  0.50022921  1
  V  V39  1  0.87360434  0.62784100  0.74767286  1
  V  V40  1  0.12756919  0.87537694  0.75822055  1
  V  V41  1  0.87396653  0.75471014  0.61590172  1
  V  V42  1  0.36874212  0.63323803  0.24101129  1
  V  V43  1  0.49676143  0.37443608  0.87701323  1
  V  V44  1  0.74970468  0.88021088  0.13473112  1
  V  V45  1  0.87013358  0.25457893  0.12649425  1
  V  V46  1  0.49685963  0.24832447  0.75330850  1
  V  V47  1  0.50479361  -0.01078897  -0.01098358  1
  V  V48  1  0.12241074  0.25122524  0.86532973  1
  V  V49  1  0.49971595  0.12346043  0.63076899  1
  V  V50  1  -0.00470670  0.49490123  0.50040605  1
  V  V51  1  0.50487715  0.36919114  0.37996244  1
  V  V52  1  -0.00048670  0.62397621  0.12319831  1
  V  V53  1  0.37920264  -0.00055725  0.37420977  1
  V  V54  1  0.87097633  -0.00154279  0.37399218  1
  V  V55  1  0.86993660  0.50069860  0.37483961  1
  V  V56  1  0.63497792  0.37534331  0.24774113  1
  V  V57  1  0.87846119  0.25424473  0.62658773  1
  V  V58  1  0.12479251  0.62232612  0.49984075  1
  V  V59  1  0.50066588  0.62204290  0.61617019  1
  V  V60  1  0.62338590  0.62691755  -0.00326148  1
  V  V61  1  0.12389074  0.74891765  0.37582054  1
  V  V62  1  0.50695669  0.24757678  0.24818710  1
  V  V63  1  0.24942096  0.74959385  0.49899875  1
  V  V64  1  0.24844066  0.37269875  0.63083705  1
  V  V65  1  -0.00546654  -0.00227966  -0.00214758  1
  V  V66  1  0.24807912  0.87591136  0.62690793  1
  V  V67  1  0.37531137  0.49739750  0.37801937  1
  V  V68  1  0.37584434  0.87406574  0.49757473  1
  V  V69  1  0.37263685  0.49725841  0.88107224  1
  V  V70  1  0.87031146  0.37758528  0.00231146  1
  V  V71  1  0.63082365  -0.00303101  0.63966614  1
  V  V72  1  -0.00098339  0.49805602  -0.00221421  1
  V  V73  1  0.37687970  0.74885554  0.62617128  1
  V  V74  1  0.25064940  0.12702742  0.37470753  1
  V  V75  1  -0.00476124  0.37417843  0.37484159  1
  V  V76  1  0.00091662  0.12909319  0.63230138  1
  V  V77  1  0.50000236  0.12755354  0.12097099  1
  V  V78  1  0.74653381  0.50012378  0.74799684  1
  V  V79  1  -0.00597287  0.87189718  0.87851897  1
  V  V80  1  0.37681048  0.62508363  0.75042869  1
  V  V81  1  0.74817796  0.25255708  -0.00192741  1
  V  V82  1  0.24748590  0.63727197  0.87342993  1
  V  V83  1  0.24770645  0.49764328  0.75283130  1
  V  V84  1  0.37405094  0.24422668  0.62852682  1
  Zn  Zn85  1  0.62395525  0.62727956  0.48208632  1
  Zn  Zn86  1  0.38019245  0.37797137  0.50363307  1
  Zn  Zn87  1  0.00020040  0.62572715  0.62472579  1
  Zn  Zn88  1  0.74700931  0.62780502  0.87342375  1
  Zn  Zn89  1  0.87158398  -0.00390728  0.87210773  1
  Zn  Zn90  1  0.62354088  0.37529067  0.74917172  1
  Zn  Zn91  1  0.62602342  0.25244084  0.87290064  1
  Zn  Zn92  1  0.25293067  0.00861650  0.74751032  1
  Zn  Zn93  1  0.12484360  0.00030175  0.62707846  1
  Zn  Zn94  1  0.37861236  0.86673803  0.00764249  1
  Zn  Zn95  1  0.25536893  0.12895962  0.86758870  1
  Zn  Zn96  1  -0.00017503  0.25102653  0.24790665  1
  Zn  Zn97  1  0.62591250  0.12754510  -0.00305920  1
  Zn  Zn98  1  0.70461802  0.56057076  0.31024516  1
  Zn  Zn99  1  0.12341198  -0.00382172  0.11982597  1
  Zn  Zn100  1  0.12648642  0.37391956  0.24792132  1
  Zn  Zn101  1  0.53253607  0.84875566  0.38444629  1
  Zn  Zn102  1  0.12598992  0.12642756  -0.00308006  1
  Zn  Zn103  1  0.62411445  0.12806062  0.49912291  1
  Zn  Zn104  1  0.49421687  0.63031466  0.12080750  1
  Zn  Zn105  1  0.25130578  0.49521362  0.24835158  1
  Zn  Zn106  1  0.24873186  0.61965751  0.37307629  1
  Zn  Zn107  1  0.19031359  0.18834075  0.18576629  1
  Zn  Zn108  1  0.18590260  0.18595262  0.69159550  1
  Zn  Zn109  1  0.18445895  0.68165770  0.18830447  1
  Zn  Zn110  1  0.18677790  0.68634924  0.68682607  1
  Zn  Zn111  1  0.68703407  0.18506539  0.18698981  1
  Zn  Zn112  1  0.68579690  0.18765431  0.68802191  1
  Zn  Zn113  1  0.68626605  0.69074565  0.17885369  1
  Zn  Zn114  1  0.68465028  0.68882434  0.68680441  1
  Zn  Zn115  1  0.31386936  0.31368857  0.30749442  1
  Zn  Zn116  1  0.31300127  0.31079493  0.81410042  1
  Zn  Zn117  1  0.31245204  0.81372752  0.31336376  1
  Zn  Zn118  1  0.31914375  0.81912035  0.81726799  1
  Zn  Zn119  1  0.81476164  0.31043225  0.31550403  1
  Zn  Zn120  1  0.81456939  0.31003813  0.80884759  1
  Zn  Zn121  1  0.81429426  0.81284435  0.31101208  1
  Zn  Zn122  1  0.81344654  0.81090178  0.81161650  1
  Zn  Zn123  1  0.18900221  0.43476870  0.43971285  1
  Zn  Zn124  1  0.18756895  0.43310673  0.93968669  1
  Zn  Zn125  1  0.18551958  0.93825131  0.43531076  1
  Zn  Zn126  1  0.18391842  0.93825273  0.93790532  1
  Zn  Zn127  1  0.68388064  0.43291190  0.44002388  1
  Zn  Zn128  1  0.68457801  0.43760250  0.93601376  1
  Zn  Zn129  1  0.69566676  0.93228362  0.45036602  1
  Zn  Zn130  1  0.69066744  0.93940815  0.94168819  1
  Zn  Zn131  1  0.33408558  0.02086015  0.08364553  1
  Zn  Zn132  1  0.31368277  0.06304069  0.56373512  1
  Zn  Zn133  1  0.30817481  0.55997129  0.06047558  1
  Zn  Zn134  1  0.31216428  0.56048053  0.56073311  1
  Zn  Zn135  1  0.81450360  0.06497003  0.05827280  1
  Zn  Zn136  1  0.81300716  0.06228165  0.56244874  1
  Zn  Zn137  1  0.81156592  0.56930464  0.06098317  1
  Zn  Zn138  1  0.80965538  0.56827120  0.55943546  1
  Zn  Zn139  1  0.44295025  0.44137364  0.19242624  1
  Zn  Zn140  1  0.43555789  0.43592834  0.69025158  1
  Zn  Zn141  1  0.44386811  0.93051647  0.18448293  1
  Zn  Zn142  1  0.43784486  0.93622138  0.68774450  1
  Zn  Zn143  1  0.93664045  0.43566923  0.18944359  1
  Zn  Zn144  1  0.93449717  0.43841458  0.68429431  1
  Zn  Zn145  1  0.93790301  0.93838516  0.18907306  1
  Zn  Zn146  1  0.93683213  0.93735594  0.68891569  1
  Zn  Zn147  1  0.05918803  0.06303309  0.31145203  1
  Zn  Zn148  1  0.06562925  0.06191862  0.81285113  1
  Zn  Zn149  1  0.06072833  0.56030108  0.31014118  1
  Zn  Zn150  1  0.06185300  0.56187263  0.81212812  1
  Zn  Zn151  1  0.59123228  0.01370142  0.33319251  1
  Zn  Zn152  1  0.56260929  0.06560429  0.81474298  1
  Zn  Zn153  1  0.54335503  0.56247167  0.30957297  1
  Zn  Zn154  1  0.56071872  0.56617990  0.81130227  1
  Zn  Zn155  1  0.43966955  0.18728976  0.43831372  1
  Zn  Zn156  1  0.43483788  0.18131198  0.93833071  1
  Zn  Zn157  1  0.43683538  0.68453729  0.43251439  1
  Zn  Zn158  1  0.43528942  0.68797864  0.93809461  1
  Zn  Zn159  1  0.93358617  0.18755102  0.44235324  1
  Zn  Zn160  1  0.93800398  0.18881313  0.93609030  1
  Zn  Zn161  1  0.93557290  0.68333150  0.43732786  1
  Zn  Zn162  1  0.93671441  0.68788526  0.93402618  1
  Zn  Zn163  1  0.05989410  0.30824142  0.05261877  1
  Zn  Zn164  1  0.06279290  0.31326010  0.56220293  1
  Zn  Zn165  1  0.06563678  0.81148078  0.05877890  1
  Zn  Zn166  1  0.06208115  0.81309833  0.56540057  1
  Zn  Zn167  1  0.56160880  0.31470301  0.06586852  1
  Zn  Zn168  1  0.56588078  0.31139851  0.56392085  1
  Zn  Zn169  1  0.56506070  0.81207911  0.06941909  1
  Zn  Zn170  1  0.56499299  0.81331131  0.56876952  1
  O  O171  1  0.10845563  0.12894366  0.12805778  1
  O  O172  1  0.11692161  0.12618631  0.61787627  1
  O  O173  1  0.11914244  0.61250244  0.11738535  1
  O  O174  1  0.12372156  0.61611643  0.61638166  1
  O  O175  1  0.62130177  0.11777427  0.11749707  1
  O  O176  1  0.61943321  0.11295231  0.62449842  1
  O  O177  1  0.62246784  0.61940950  0.11152312  1
  O  O178  1  0.61487039  0.61770808  0.62614017  1
  O  O179  1  0.38188280  0.38070295  0.37527198  1
  O  O180  1  0.38611168  0.38427176  0.87102301  1
  O  O181  1  0.37112565  0.88673141  0.38336601  1
  O  O182  1  0.37199116  0.88948475  0.88932754  1
  O  O183  1  0.88829775  0.38155689  0.37200758  1
  O  O184  1  0.88092100  0.37996472  0.87895945  1
  O  O185  1  0.88808558  0.88262702  0.36976171  1
  O  O186  1  0.88889481  0.87750357  0.86712593  1
  O  O187  1  0.25775301  0.00773391  0.37017997  1
  O  O188  1  0.26040262  0.00176307  0.87763932  1
  O  O189  1  0.26032477  0.49467011  0.37063495  1
  O  O190  1  0.25646678  0.50311735  0.87325275  1
  O  O191  1  0.76753461  0.00699170  0.38831532  1
  O  O192  1  0.75381746  0.01525622  0.88241741  1
  O  O193  1  0.76587965  0.49030000  0.38034141  1
  O  O194  1  0.75473826  0.50121162  0.86477662  1
  O  O195  1  0.24232323  0.48482253  0.12168920  1
  O  O196  1  0.24388743  0.49249587  0.62925326  1
  O  O197  1  0.23655659  1.01719272  0.14500358  1
  O  O198  1  0.25046279  0.98631168  0.62366198  1
  O  O199  1  0.73754620  0.50219488  0.11705941  1
  O  O200  1  0.74566575  0.49474436  0.62914477  1
  O  O201  1  0.74000488  0.99429340  0.11077772  1
  O  O202  1  0.73926171  0.99118690  0.62027274  1
  O  O203  1  0.00492043  0.37130036  0.25981999  1
  O  O204  1  -0.00433350  0.38121805  0.76201712  1
  O  O205  1  0.00635407  0.86903109  0.25848719  1
  O  O206  1  0.00743747  0.86807840  0.75389828  1
  O  O207  1  0.50487627  0.36567794  0.25736921  1
  O  O208  1  0.50078768  0.36799783  0.75857640  1
  O  O209  1  0.49580907  0.85890745  0.25468757  1
  O  O210  1  0.49866589  0.85803349  0.74386483  1
  O  O211  1  0.49419901  0.13389490  0.24296697  1
  O  O212  1  0.50142337  0.13129167  0.73865205  1
  O  O213  1  0.48400913  0.63512622  0.24345691  1
  O  O214  1  0.49128169  0.63024703  0.74183072  1
  O  O215  1  0.98878585  0.12816885  0.24374974  1
  O  O216  1  0.99667164  0.12288758  0.73687467  1
  O  O217  1  0.99368995  0.63140064  0.24262039  1
  O  O218  1  0.99295268  0.63174174  0.74837586  1
  O  O219  1  0.35818613  0.25043456  -0.00904468  1
  O  O220  1  0.36870198  0.25109941  0.50877483  1
  O  O221  1  0.35833331  0.74870007  -0.00024028  1
  O  O222  1  0.36914706  0.75327397  0.50417721  1
  O  O223  1  0.86757678  0.25849887  0.00446395  1
  O  O224  1  0.86280825  0.24397857  0.51559621  1
  O  O225  1  0.86659672  0.74263880  0.00791894  1
  O  O226  1  0.87139803  0.74316854  0.51341924  1
  O  O227  1  0.13071597  0.24557194  0.48999364  1
  O  O228  1  0.13409663  0.24838184  0.99040549  1
  O  O229  1  0.12750582  0.74104574  0.49731009  1
  O  O230  1  0.13256533  0.73419116  1.00340298  1
  O  O231  1  0.64101619  0.24530019  0.50743600  1
  O  O232  1  0.63951954  0.25511568  1.00068810  1
  O  O233  1  0.63295440  0.75175684  0.49726759  1
  O  O234  1  0.62928273  0.74460629  0.99434077  1
  O  O235  1  0.50345866  0.23665690  0.12962852  1
  O  O236  1  0.49375562  0.24349674  0.62995951  1
  O  O237  1  0.49929034  0.74810697  0.13819472  1
  O  O238  1  0.49567911  0.74183874  0.63188879  1
  O  O239  1  0.98751703  0.24342888  0.12199747  1
  O  O240  1  0.99172057  0.24207466  0.61693460  1
  O  O241  1  0.99417851  0.74541969  0.12671752  1
  O  O242  1  0.99045354  0.74972375  0.63140365  1
  O  O243  1  0.00554399  0.25713033  0.37882503  1
  O  O244  1  0.01195420  0.25881716  0.87874475  1
  O  O245  1  0.00310860  0.75678406  0.37293810  1
  O  O246  1  -0.00279346  0.75683443  0.86457737  1
  O  O247  1  0.49645656  0.26100539  0.36623170  1
  O  O248  1  0.49812335  0.25591335  0.86976222  1
  O  O249  1  0.49491829  0.74643547  0.35704836  1
  O  O250  1  0.50749880  0.74529123  0.86778800  1
  O  O251  1  0.24393779  0.13053295  0.49532967  1
  O  O252  1  0.24752120  0.13991800  0.99761718  1
  O  O253  1  0.23848311  0.62841406  0.49873750  1
  O  O254  1  0.24320965  0.63168779  0.99325625  1
  O  O255  1  0.74933040  0.13125676  0.49349668  1
  O  O256  1  0.75240160  0.13710676  0.99008167  1
  O  O257  1  0.74351083  0.64681150  0.50967022  1
  O  O258  1  0.74158698  0.63788911  0.99745476  1
  O  O259  1  0.24877783  0.36725840  0.01333199  1
  O  O260  1  0.25262033  0.36832822  0.51280207  1
  O  O261  1  0.23840272  0.85457192  -0.00295904  1
  O  O262  1  0.25229822  0.86966809  0.50668991  1
  O  O263  1  0.76275021  0.37037929  -0.00868335  1
  O  O264  1  0.74718756  0.36801744  0.51186094  1
  O  O265  1  0.74962250  0.86313397  0.00673113  1
  O  O266  1  0.75218377  0.85976416  0.51633971  1
  O  O267  1  0.12794875  0.49794657  0.23856237  1
  O  O268  1  0.13033572  0.50552401  0.73692864  1
  O  O269  1  0.13117681  0.99107221  0.25537076  1
  O  O270  1  0.12873648  0.98922867  0.74658864  1
  O  O271  1  0.62566298  0.49490367  0.24111235  1
  O  O272  1  0.63660742  0.50280336  0.74404406  1
  O  O273  1  0.63053123  1.01118213  0.22717807  1
  O  O274  1  0.62137857  1.00140801  0.73777602  1
  O  O275  1  0.36909899  0.00743274  0.26010308  1
  O  O276  1  0.37456328  -0.01055794  0.76560599  1
  O  O277  1  0.37310562  0.50763003  0.25950260  1
  O  O278  1  0.36871527  0.50590896  0.76000858  1
  O  O279  1  0.87983622  0.00922441  0.26062330  1
  O  O280  1  0.87839778  0.01573365  0.75003045  1
  O  O281  1  0.88090888  0.50942239  0.25896930  1
  O  O282  1  0.86428950  0.50783525  0.74984797  1
  O  O283  1  0.11682582  0.36777512  0.37484923  1
  O  O284  1  0.11403728  0.36681292  0.88069104  1
  O  O285  1  0.11476833  0.86944123  0.36836127  1
  O  O286  1  0.11624396  0.87581828  0.86257732  1
  O  O287  1  0.60996870  0.38235007  0.36701596  1
  O  O288  1  0.61121066  0.37472479  0.87121384  1
  O  O289  1  0.62203409  0.91063902  0.37135197  1
  O  O290  1  0.62786599  0.86591108  0.87837262  1
  O  O291  1  0.38644248  0.11355041  0.13587982  1
  O  O292  1  0.38258373  0.13636936  0.62211231  1
  O  O293  1  0.37177686  0.61700521  0.13817713  1
  O  O294  1  0.37943965  0.62850145  0.62941267  1
  O  O295  1  0.88194887  0.12988999  0.13168014  1
  O  O296  1  0.88107393  0.13043375  0.63013881  1
  O  O297  1  0.88241645  0.63309176  0.12932324  1
  O  O298  1  0.87665138  0.63173068  0.63531625  1
  O  O299  1  0.24769649  0.26039991  0.11347557  1
  O  O300  1  0.25610329  0.25543562  0.62300095  1
  O  O301  1  0.24588522  0.74631579  0.11525587  1
  O  O302  1  0.25493276  0.75815729  0.62026673  1
  O  O303  1  0.76304181  0.24327652  0.11556624  1
  O  O304  1  0.75540865  0.25835140  0.62238550  1
  O  O305  1  0.75741793  0.75903570  0.11690661  1
  O  O306  1  0.75471483  0.76046974  0.62598342  1
  O  O307  1  0.24300520  0.24807357  0.37887303  1
  O  O308  1  0.24019450  0.25542703  0.88430597  1
  O  O309  1  0.24147606  0.74756207  0.38314633  1
  O  O310  1  0.25190606  0.73859291  0.87423705  1
  O  O311  1  0.75883552  0.23922807  0.38700505  1
  O  O312  1  0.74985028  0.24467172  0.88142079  1
  O  O313  1  0.75688899  0.75694520  0.39133709  1
  O  O314  1  0.74294712  0.74943981  0.88028958  1
  O  O315  1  -0.00021729  0.11933234  0.00767013  1
  O  O316  1  0.00455278  0.11851862  0.50816988  1
  O  O317  1  0.00652989  0.61909372  0.00122487  1
  O  O318  1  0.01099347  0.61616617  0.50075071  1
  O  O319  1  0.50419441  0.11851576  0.00697400  1
  O  O320  1  0.50183581  0.11886619  0.51224887  1
  O  O321  1  0.50514637  0.61555900  -0.00005770  1
  O  O322  1  0.50112771  0.63027558  0.51275740  1
  O  O323  1  0.50030888  0.36663387  0.48453333  1
  O  O324  1  0.50335380  0.38723325  0.99362646  1
  O  O325  1  0.49520572  0.88053517  0.49865704  1
  O  O326  1  0.50246802  0.88740616  1.00482918  1
  O  O327  1  1.00499691  0.38790740  0.49264187  1
  O  O328  1  0.98686384  0.38072631  0.99165620  1
  O  O329  1  1.00612797  0.88383389  0.49198231  1
  O  O330  1  1.00751173  0.88082581  0.98846636  1
  O  O331  1  0.48399724  0.48315980  0.37011736  1
  O  O332  1  0.49254028  0.49463090  0.87988103  1
  O  O333  1  0.48681552  1.01038472  0.38685772  1
  O  O334  1  0.49822403  1.00012735  0.88400779  1
  O  O335  1  0.99453153  0.49301416  0.38152085  1
  O  O336  1  0.99340624  0.49411364  0.87951810  1
  O  O337  1  0.99365738  0.99407369  0.38239486  1
  O  O338  1  0.99906583  0.99177836  0.88033795  1
  O  O339  1  0.00051808  0.00710609  0.11860915  1
  O  O340  1  0.00122539  0.00666165  0.61791324  1
  O  O341  1  0.00430540  0.50405797  0.11757182  1
  O  O342  1  0.00674809  0.50039540  0.61772167  1
  O  O343  1  0.51354753  0.00748651  0.11673095  1
  O  O344  1  0.50573535  0.00498054  0.62199989  1
  O  O345  1  0.50675473  0.50387649  0.11669622  1
  O  O346  1  0.50797450  0.50742963  0.63203655  1
  O  O347  1  0.24659185  0.37141814  0.23142580  1
  O  O348  1  0.25571810  0.38118839  0.73848777  1
  O  O349  1  0.24017686  0.88607926  0.25915556  1
  O  O350  1  0.24345920  0.87340895  0.74300702  1
  O  O351  1  0.73401783  0.36705642  0.25796918  1
  O  O352  1  0.74875590  0.38315970  0.74022246  1
  O  O353  1  0.75625300  0.87372407  0.23419811  1
  O  O354  1  0.75005734  0.87375747  0.73822195  1
  O  O355  1  0.25837295  0.12363824  0.25739313  1
  O  O356  1  0.25154405  0.12209942  0.75248902  1
  O  O357  1  0.25718863  0.61929189  0.25237283  1
  O  O358  1  0.25493223  0.61918254  0.75582560  1
  O  O359  1  0.76288092  0.13141049  0.25822289  1
  O  O360  1  0.75834720  0.13115686  0.75831323  1
  O  O361  1  0.76448423  0.62838352  0.23962072  1
  O  O362  1  0.75733897  0.61920532  0.74964291  1
  O  O363  1  0.36958651  0.11947472  0.37039071  1
  O  O364  1  0.37531390  0.10605222  0.87614393  1
  O  O365  1  0.37267983  0.61165140  0.36676431  1
  O  O366  1  0.36649733  0.61742471  0.86965142  1
  O  O367  1  0.87196804  0.11876348  0.36803261  1
  O  O368  1  0.86964685  0.12836019  0.86465256  1
  O  O369  1  0.87952989  0.61559419  0.36315834  1
  O  O370  1  0.87293893  0.61860074  0.86238990  1
  O  O371  1  0.11799466  0.38454522  0.12171591  1
  O  O372  1  0.13382556  0.38351114  0.62141511  1
  O  O373  1  0.11827895  0.87568281  0.14053623  1
  O  O374  1  0.13319672  0.87485774  0.63424976  1
  O  O375  1  0.61994782  0.38606856  0.13575217  1
  O  O376  1  0.63118346  0.38430861  0.62820904  1
  O  O377  1  0.63445034  0.88996643  0.12125639  1
  O  O378  1  0.63413192  0.88782671  0.62531061  1
  O  O379  1  0.12295372  0.24867996  0.26311861  1
  O  O380  1  0.12927447  0.25634472  0.76591006  1
  O  O381  1  0.11978190  0.75427525  0.25610851  1
  O  O382  1  0.11197925  0.75451781  0.74297931  1
  O  O383  1  0.61420748  0.25629868  0.24431602  1
  O  O384  1  0.61014401  0.25296164  0.74878320  1
  O  O385  1  0.61425482  0.74715949  0.24800103  1
  O  O386  1  0.61568844  0.74165361  0.76290735  1
  O  O387  1  0.38396687  0.23812348  0.25303990  1
  O  O388  1  0.38689112  0.25414992  0.74237441  1
  O  O389  1  0.36921442  0.73499206  0.25302237  1
  O  O390  1  0.38005437  0.74443105  0.74593208  1
  O  O391  1  0.87745940  0.24476062  0.24119655  1
  O  O392  1  0.87333426  0.24018569  0.73531312  1
  O  O393  1  0.88199756  0.74328732  0.24179960  1
  O  O394  1  0.88274383  0.74315578  0.74270996  1
  O  O395  1  0.37131779  0.49800957  0.48416514  1
  O  O396  1  0.38207798  0.50570549  0.98868349  1
  O  O397  1  0.38496993  0.99578476  0.49708974  1
  O  O398  1  0.39528823  1.00419844  0.98813113  1
  O  O399  1  0.88628543  0.51074185  0.49232766  1
  O  O400  1  0.87706330  0.49592895  0.99431780  1
  O  O401  1  0.88905943  1.00536296  0.49347940  1
  O  O402  1  0.88991830  1.00359464  0.99537070  1
  O  O403  1  0.11400356  0.00582981  0.00169179  1
  O  O404  1  0.11497121  0.00676248  0.50054435  1
  O  O405  1  0.12058872  0.50738603  0.00543900  1
  O  O406  1  0.12047633  0.50542440  0.50777491  1
  O  O407  1  0.61583653  0.00433052  0.00275963  1
  O  O408  1  0.61238087  0.00248673  0.51212582  1
  O  O409  1  0.61806057  0.50632762  0.00417327  1
  O  O410  1  0.62917077  0.50399216  0.51316875  1
  O  O411  1  0.36811936  0.37894493  0.12521690  1
  O  O412  1  0.36963064  0.36493242  0.62313009  1
  O  O413  1  0.36271917  0.91068588  0.11247130  1
  O  O414  1  0.36815955  0.86838916  0.61854674  1
  O  O415  1  0.87830713  0.36743579  0.11559374  1
  O  O416  1  0.86619099  0.36735954  0.62730971  1
  O  O417  1  0.87323429  0.86413066  0.12596503  1
  O  O418  1  0.86400790  0.86834207  0.63020337  1
  O  O419  1  0.12791935  0.13213519  0.38030838  1
  O  O420  1  0.12477722  0.13969310  0.87526809  1
  O  O421  1  0.12495679  0.62847378  0.38226290  1
  O  O422  1  0.13495304  0.61645201  0.88348099  1
  O  O423  1  0.64139365  0.11239435  0.37563270  1
  O  O424  1  0.63405386  0.13179938  0.87636809  1
  O  O425  1  0.62397662  0.60628309  0.37155092  1
  O  O426  1  0.62569430  0.62638925  0.88726350  1
