# generated using pymatgen
data_V85Zn86O256
_symmetry_space_group_name_H-M   'P 1'
_cell_length_a   16.92826645
_cell_length_b   16.95311220
_cell_length_c   16.94875331
_cell_angle_alpha   89.91011821
_cell_angle_beta   90.04179009
_cell_angle_gamma   90.01847116
_symmetry_Int_Tables_number   1
_chemical_formula_structural   V85Zn86O256
_chemical_formula_sum   'V85 Zn86 O256'
_cell_volume   4864.06095556
_cell_formula_units_Z   1
loop_
 _symmetry_equiv_pos_site_id
 _symmetry_equiv_pos_as_xyz
  1  'x, y, z'
loop_
 _atom_site_type_symbol
 _atom_site_label
 _atom_site_symmetry_multiplicity
 _atom_site_fract_x
 _atom_site_fract_y
 _atom_site_fract_z
 _atom_site_occupancy
  V  V0  1  0.62190315  0.37012007  0.25246410  1
  V  V1  1  0.89015679  0.24360757  0.13171592  1
  V  V2  1  0.87732558  0.37436803  0.50051101  1
  V  V3  1  0.25123043  0.24751215  0.50211422  1
  V  V4  1  0.76147287  0.75489476  -0.00086486  1
  V  V5  1  0.24395662  0.86865819  0.12104211  1
  V  V6  1  0.37585464  0.00048488  0.36528395  1
  V  V7  1  0.75499321  0.49521175  0.24825380  1
  V  V8  1  0.25120152  0.62645462  0.89123597  1
  V  V9  1  0.74671052  0.74612141  0.50907598  1
  V  V10  1  0.76639244  0.65844980  0.33985801  1
  V  V11  1  0.11467702  0.12886793  -0.00100492  1
  V  V12  1  0.49007470  0.24008535  0.24779897  1
  V  V13  1  0.00638096  0.11092848  0.62978913  1
  V  V14  1  0.75148958  0.00752968  0.74454286  1
  V  V15  1  0.88596015  0.37969862  0.00118552  1
  V  V16  1  0.00151443  0.36569307  0.37226301  1
  V  V17  1  0.25454498  0.49443338  0.25847904  1
  V  V18  1  0.50007974  0.75140803  0.75080623  1
  V  V19  1  0.87695763  0.87474869  0.50217030  1
  V  V20  1  0.50159444  0.62691996  0.12309206  1
  V  V21  1  0.50455347  -0.00099580  0.50285756  1
  V  V22  1  0.49792218  0.87537133  0.37160020  1
  V  V23  1  0.62477466  0.37497026  0.74778868  1
  V  V24  1  0.75139237  0.01194708  0.25408723  1
  V  V25  1  0.37239471  0.62581483  0.75068857  1
  V  V26  1  0.38058927  0.61630399  0.25818058  1
  V  V27  1  0.75205970  0.37194396  0.12284843  1
  V  V28  1  0.49595003  0.50263108  0.48921724  1
  V  V29  1  0.50575663  0.12360577  0.62466842  1
  V  V30  1  0.75144667  0.24492742  0.49426172  1
  V  V31  1  0.62572828  0.50002103  0.12263064  1
  V  V32  1  0.49724748  0.25207336  0.74216070  1
  V  V33  1  0.37266444  0.12913748  0.74341780  1
  V  V34  1  0.62553215  0.50157030  0.62270827  1
  V  V35  1  0.62958220  0.12097546  0.49653789  1
  V  V36  1  0.76240937  0.87788039  0.11819911  1
  V  V37  1  0.37366739  -0.00032381  0.87207080  1
  V  V38  1  0.88590458  0.24619267  0.62944890  1
  V  V39  1  0.62515965  0.24287064  0.87737081  1
  V  V40  1  -0.00380294  0.62294684  0.63510825  1
  V  V41  1  0.24680927  -0.00465942  0.74393091  1
  V  V42  1  0.88586961  0.50333702  0.87227700  1
  V  V43  1  0.25985308  0.36809052  0.12842431  1
  V  V44  1  0.75153270  0.37340143  0.62408132  1
  V  V45  1  0.12622823  0.49984801  0.62559409  1
  V  V46  1  0.50186992  0.87537427  0.87624093  1
  V  V47  1  0.87230311  0.50203597  0.37193246  1
  V  V48  1  -0.00572995  -0.01345050  0.00105886  1
  V  V49  1  0.12698005  0.75203089  0.88678929  1
  V  V50  1  0.49927395  0.62514471  0.62189658  1
  V  V51  1  0.00534049  0.86041673  0.35878213  1
  V  V52  1  0.37204480  0.75649933  0.62747651  1
  V  V53  1  0.24540878  0.75261484  0.50662273  1
  V  V54  1  0.50352016  0.00914718  -0.00310882  1
  V  V55  1  0.87281761  0.74781584  0.63557381  1
  V  V56  1  0.11960435  -0.00144173  0.12637919  1
  V  V57  1  0.49904170  0.37595659  0.87640167  1
  V  V58  1  0.62658235  0.01006066  0.11819367  1
  V  V59  1  0.74647167  0.24641013  0.00412497  1
  V  V60  1  0.76191905  0.12920484  0.87264906  1
  V  V61  1  0.75004455  0.62285826  0.86996901  1
  V  V62  1  0.87614629  0.00617768  0.37824826  1
  V  V63  1  0.37318834  0.37768155  0.49297011  1
  V  V64  1  0.12322855  0.62767090  0.49335403  1
  V  V65  1  -0.00172775  0.75057436  0.76240626  1
  V  V66  1  0.49833079  0.75172784  0.24754537  1
  V  V67  1  0.12330596  0.87379561  0.74987659  1
  V  V68  1  0.37132255  0.87598784  0.50048837  1
  V  V69  1  0.36975916  0.86830233  -0.00085133  1
  V  V70  1  0.12268793  0.36260098  0.75714371  1
  V  V71  1  0.12041372  0.49919047  0.12039592  1
  V  V72  1  0.24371011  0.13039175  0.87345874  1
  V  V73  1  0.24665795  -0.00173569  0.24472400  1
  V  V74  1  0.25652980  0.37196356  0.62567717  1
  V  V75  1  0.87884127  -0.01434079  0.87362707  1
  V  V76  1  -0.00025045  0.50135636  0.49909234  1
  V  V77  1  0.23386175  0.64974954  0.35513977  1
  V  V78  1  0.25221568  0.12387856  0.37061903  1
  V  V79  1  0.12352631  0.36520160  0.24983014  1
  V  V80  1  0.62499162  0.88292060  0.74393159  1
  V  V81  1  0.25708208  0.24407830  0.00576107  1
  V  V82  1  0.25006540  0.50191689  0.75261676  1
  V  V83  1  0.62640037  0.87689485  0.24451212  1
  V  V84  1  -0.02612609  0.64938203  0.13282703  1
  Zn  Zn85  1  0.74687595  0.88129392  0.62571601  1
  Zn  Zn86  1  0.49844471  0.49903370  -0.00030819  1
  Zn  Zn87  1  0.49146784  0.12940010  0.11909723  1
  Zn  Zn88  1  0.13124460  0.11171116  0.50464171  1
  Zn  Zn89  1  0.11473128  0.62091297  0.00442699  1
  Zn  Zn90  1  0.36952870  0.74633292  0.12181746  1
  Zn  Zn91  1  0.62673082  0.74998141  0.87616726  1
  Zn  Zn92  1  0.18867752  0.93456611  0.58494935  1
  Zn  Zn93  1  0.49577579  0.37649538  0.37136205  1
  Zn  Zn94  1  0.31597752  0.18046535  0.18451331  1
  Zn  Zn95  1  0.62589579  0.63026151  -0.00085260  1
  Zn  Zn96  1  0.75581130  0.50476081  0.74775320  1
  Zn  Zn97  1  0.94727282  0.19755766  0.79352016  1
  Zn  Zn98  1  0.89014487  0.12868809  0.25624031  1
  Zn  Zn99  1  0.62502258  0.24531515  0.37383092  1
  Zn  Zn100  1  0.37638550  0.49932937  0.87921666  1
  Zn  Zn101  1  0.62328235  0.75345829  0.37860321  1
  Zn  Zn102  1  0.62843402  0.62497345  0.49123743  1
  Zn  Zn103  1  0.37897339  0.37048485  0.00506385  1
  Zn  Zn104  1  0.00517131  0.36564661  0.87585327  1
  Zn  Zn105  1  0.01156303  -0.00924996  0.50115088  1
  Zn  Zn106  1  0.12087979  0.23909363  0.37274632  1
  Zn  Zn107  1  0.06792760  0.18016854  0.18672203  1
  Zn  Zn108  1  0.18767215  0.18749706  0.68353296  1
  Zn  Zn109  1  0.18945144  0.68290296  0.18372684  1
  Zn  Zn110  1  0.18344716  0.68722276  0.68973862  1
  Zn  Zn111  1  0.68456766  0.18684453  0.18729321  1
  Zn  Zn112  1  0.68913443  0.18797123  0.68455007  1
  Zn  Zn113  1  0.69763933  0.69383762  0.18464668  1
  Zn  Zn114  1  0.68387129  0.68805693  0.69130730  1
  Zn  Zn115  1  0.31294476  0.31174149  0.31841019  1
  Zn  Zn116  1  0.31183368  0.31009375  0.81326498  1
  Zn  Zn117  1  0.30108467  0.80686307  0.30462335  1
  Zn  Zn118  1  0.30745962  0.81191879  0.81464999  1
  Zn  Zn119  1  0.81369563  0.31257914  0.31285742  1
  Zn  Zn120  1  0.81088324  0.32098352  0.81446166  1
  Zn  Zn121  1  0.81082106  0.82641464  0.31377284  1
  Zn  Zn122  1  0.80876797  0.81271438  0.81258079  1
  Zn  Zn123  1  0.18741066  0.44102046  0.43452875  1
  Zn  Zn124  1  0.19222425  0.43421824  0.93949791  1
  Zn  Zn125  1  0.18393035  0.93046812  0.42227935  1
  Zn  Zn126  1  0.18377418  0.93904610  0.93462332  1
  Zn  Zn127  1  0.68794117  0.43563495  0.43755030  1
  Zn  Zn128  1  0.69027536  0.43614140  0.93735549  1
  Zn  Zn129  1  0.68960033  0.93552292  0.43632277  1
  Zn  Zn130  1  0.68910725  0.93869146  0.93443174  1
  Zn  Zn131  1  0.31158878  0.05435501  0.05673585  1
  Zn  Zn132  1  0.32207422  0.06744053  0.55982929  1
  Zn  Zn133  1  0.31660064  0.55221687  0.06838456  1
  Zn  Zn134  1  0.31086438  0.56514117  0.55821789  1
  Zn  Zn135  1  0.81431749  0.06522648  0.06139494  1
  Zn  Zn136  1  0.81898304  0.06503124  0.56330260  1
  Zn  Zn137  1  0.81472547  0.56502873  0.05756233  1
  Zn  Zn138  1  0.81435074  0.56376144  0.56363458  1
  Zn  Zn139  1  0.44047514  0.43714513  0.18875590  1
  Zn  Zn140  1  0.43634311  0.43925065  0.68360867  1
  Zn  Zn141  1  0.43591616  0.94137151  0.18053508  1
  Zn  Zn142  1  0.43617164  0.94004879  0.68662940  1
  Zn  Zn143  1  0.93968620  0.43557504  0.18875085  1
  Zn  Zn144  1  0.93929913  0.43543112  0.69073252  1
  Zn  Zn145  1  0.93856237  0.94281542  0.18995999  1
  Zn  Zn146  1  0.93597109  0.93286915  0.69379258  1
  Zn  Zn147  1  0.06318511  0.05146560  0.31893158  1
  Zn  Zn148  1  0.06413509  0.05640963  0.81456153  1
  Zn  Zn149  1  0.06007666  0.55803853  0.30388312  1
  Zn  Zn150  1  0.06738119  0.56197339  0.81608650  1
  Zn  Zn151  1  0.56530107  0.06215613  0.31340585  1
  Zn  Zn152  1  0.56592812  0.06453608  0.81280782  1
  Zn  Zn153  1  0.57665313  0.56756893  0.31125169  1
  Zn  Zn154  1  0.56453978  0.56281225  0.81104960  1
  Zn  Zn155  1  0.43547295  0.19017708  0.43470096  1
  Zn  Zn156  1  0.43489221  0.18807713  0.93071618  1
  Zn  Zn157  1  0.43255601  0.68858581  0.43519330  1
  Zn  Zn158  1  0.43795117  0.68715102  0.93831998  1
  Zn  Zn159  1  0.94236227  0.18214535  0.44665413  1
  Zn  Zn160  1  0.93617766  0.19015158  0.95393051  1
  Zn  Zn161  1  0.93336237  0.68816325  0.44170863  1
  Zn  Zn162  1  0.93930572  0.67982104  0.94581561  1
  Zn  Zn163  1  0.07035634  0.31534451  0.05792356  1
  Zn  Zn164  1  0.06878764  0.31190424  0.56169990  1
  Zn  Zn165  1  0.05550779  0.81282500  0.06735146  1
  Zn  Zn166  1  0.05700594  0.80631379  0.56508136  1
  Zn  Zn167  1  0.56281694  0.30986352  0.06481076  1
  Zn  Zn168  1  0.56186788  0.31229818  0.55906590  1
  Zn  Zn169  1  0.56829444  0.81403081  0.06018215  1
  Zn  Zn170  1  0.56106584  0.81435168  0.56416325  1
  O  O171  1  0.12599457  0.11127933  0.10976425  1
  O  O172  1  0.11045194  0.12803855  0.62367614  1
  O  O173  1  0.13470496  0.60663827  0.12252678  1
  O  O174  1  0.11782074  0.61849168  0.61658805  1
  O  O175  1  0.61953697  0.11268224  0.12521096  1
  O  O176  1  0.61267012  0.12847899  0.61628160  1
  O  O177  1  0.61680215  0.61782043  0.12703808  1
  O  O178  1  0.61774956  0.61708045  0.62403020  1
  O  O179  1  0.37404804  0.38044767  0.38813651  1
  O  O180  1  0.38998390  0.37280261  0.87207161  1
  O  O181  1  0.37904380  0.88154219  0.37985721  1
  O  O182  1  0.38116392  0.87930282  0.87837321  1
  O  O183  1  0.88298977  0.38048193  0.38077320  1
  O  O184  1  0.87578374  0.38536947  0.88440742  1
  O  O185  1  0.87886197  0.88295216  0.38481296  1
  O  O186  1  0.87023746  0.88801785  0.87783576  1
  O  O187  1  0.25678276  0.00074833  0.36510388  1
  O  O188  1  0.25413393  0.01054630  0.86488460  1
  O  O189  1  0.24195725  0.51398235  0.36043828  1
  O  O190  1  0.25240392  0.50718074  0.86789628  1
  O  O191  1  0.76033747  -0.00699897  0.36491840  1
  O  O192  1  0.76261766  0.01089411  0.87361615  1
  O  O193  1  0.76235033  0.49201208  0.36714230  1
  O  O194  1  0.75605063  0.50716952  0.87286779  1
  O  O195  1  0.24557839  0.48657280  0.13628301  1
  O  O196  1  0.24520700  0.49619545  0.63141377  1
  O  O197  1  0.24049924  0.99279652  0.12857641  1
  O  O198  1  0.25864605  1.00753461  0.63872445  1
  O  O199  1  0.74604799  0.49137380  0.12874091  1
  O  O200  1  0.74354685  0.49432264  0.62551803  1
  O  O201  1  0.74383412  0.99814608  0.12661180  1
  O  O202  1  0.75945197  1.00214915  0.64111324  1
  O  O203  1  0.00944007  0.37858789  0.26175832  1
  O  O204  1  0.01915750  0.37710536  0.74955616  1
  O  O205  1  -0.00675047  0.87223352  0.25965815  1
  O  O206  1  0.00774705  0.86213976  0.75165184  1
  O  O207  1  0.50652264  0.36510118  0.25113912  1
  O  O208  1  0.50402066  0.36838500  0.75172887  1
  O  O209  1  0.50532675  0.87199712  0.25008883  1
  O  O210  1  0.50383586  0.87490442  0.75822115  1
  O  O211  1  0.50371210  0.13804846  0.25136520  1
  O  O212  1  0.49568331  0.13071149  0.74413268  1
  O  O213  1  0.49821038  0.62964255  0.24639059  1
  O  O214  1  0.49235318  0.63040606  0.74463579  1
  O  O215  1  1.00391028  0.12391074  0.25755466  1
  O  O216  1  1.00405043  0.11911700  0.73723115  1
  O  O217  1  1.00545900  0.61813385  0.22599415  1
  O  O218  1  1.00819078  0.62914898  0.73985528  1
  O  O219  1  0.36241603  0.24854478  -0.00453716  1
  O  O220  1  0.36312585  0.26131151  0.49565504  1
  O  O221  1  0.37950266  0.76424370  0.00175443  1
  O  O222  1  0.37341979  0.75648011  0.51227174  1
  O  O223  1  0.86744758  0.25855299  0.01638872  1
  O  O224  1  0.87034809  0.25360564  0.50978109  1
  O  O225  1  0.86074895  0.75088765  -0.00714717  1
  O  O226  1  0.86669762  0.75489831  0.51478995  1
  O  O227  1  0.14029665  0.25057364  0.49504899  1
  O  O228  1  0.13530043  0.23388476  1.00573361  1
  O  O229  1  0.13243114  0.73912450  0.50718552  1
  O  O230  1  0.11717807  0.74993642  0.98913123  1
  O  O231  1  0.63326197  0.24189122  0.49897852  1
  O  O232  1  0.63405082  0.25570865  0.99000771  1
  O  O233  1  0.63186830  0.74982314  0.50128109  1
  O  O234  1  0.63462680  0.74993801  0.99398548  1
  O  O235  1  0.50429557  0.24704508  0.14147616  1
  O  O236  1  0.50389941  0.24456413  0.63600396  1
  O  O237  1  0.50060335  0.74270880  0.13008369  1
  O  O238  1  0.49261128  0.74480897  0.63113285  1
  O  O239  1  0.99393262  0.25164567  0.12369118  1
  O  O240  1  0.98963267  0.24675132  0.61996592  1
  O  O241  1  0.99088427  0.74929693  0.13387463  1
  O  O242  1  0.99121905  0.74061428  0.63705205  1
  O  O243  1  0.00142142  0.26233744  0.38597310  1
  O  O244  1  -0.00889639  0.25235111  0.87828722  1
  O  O245  1  -0.01525573  0.76160048  0.37465321  1
  O  O246  1  0.00570370  0.73623003  0.86619394  1
  O  O247  1  0.50164258  0.25352818  0.36328919  1
  O  O248  1  0.50817366  0.25348934  0.86426964  1
  O  O249  1  0.50066471  0.75696851  0.36677556  1
  O  O250  1  0.49897690  0.76062961  0.86886891  1
  O  O251  1  0.25151449  0.13249589  0.49672672  1
  O  O252  1  0.24183949  0.12493515  0.99101006  1
  O  O253  1  0.23979610  0.63084919  0.48912169  1
  O  O254  1  0.25495888  0.61989803  0.99245077  1
  O  O255  1  0.74104638  0.13160018  0.50974869  1
  O  O256  1  0.75525681  0.13914236  0.99091861  1
  O  O257  1  0.74860297  0.64022405  0.50773151  1
  O  O258  1  0.74817104  0.63691013  0.99176503  1
  O  O259  1  0.25005838  0.36095825  0.01000455  1
  O  O260  1  0.25474659  0.37340559  0.50558723  1
  O  O261  1  0.25915936  0.88553982  0.00642954  1
  O  O262  1  0.25268327  0.86971044  0.50463282  1
  O  O263  1  0.75760072  0.36419052  0.00370956  1
  O  O264  1  0.75667231  0.36804894  0.50637096  1
  O  O265  1  0.74745021  0.86614703  0.00340528  1
  O  O266  1  0.75784619  0.86796410  0.50655309  1
  O  O267  1  0.13507345  0.48753828  0.24157365  1
  O  O268  1  0.13734853  0.49655416  0.74545607  1
  O  O269  1  0.13381129  1.00134148  0.23799870  1
  O  O270  1  0.13337514  0.98788472  0.75329095  1
  O  O271  1  0.62846986  0.48874292  0.23994243  1
  O  O272  1  0.62354721  0.49386848  0.73539021  1
  O  O273  1  0.63092072  0.99649342  0.24250323  1
  O  O274  1  0.63751032  0.99491708  0.75708653  1
  O  O275  1  0.37258991  -0.00432285  0.26118544  1
  O  O276  1  0.36905796  0.00735795  0.75484065  1
  O  O277  1  0.37069481  0.50445355  0.25078043  1
  O  O278  1  0.36394042  0.50455742  0.75006110  1
  O  O279  1  0.86798053  0.00497564  0.25905513  1
  O  O280  1  0.86865998  -0.00274888  0.76562533  1
  O  O281  1  0.86683895  0.49281773  0.25799963  1
  O  O282  1  0.87309329  0.49219214  0.76681162  1
  O  O283  1  0.11763675  0.37576054  0.36721189  1
  O  O284  1  0.12759267  0.37941592  0.86098051  1
  O  O285  1  0.10568776  0.86679609  0.37332067  1
  O  O286  1  0.13163336  0.86333311  0.86437914  1
  O  O287  1  0.62456881  0.37403118  0.36190156  1
  O  O288  1  0.61694844  0.36743329  0.86819521  1
  O  O289  1  0.61799481  0.87733682  0.36087814  1
  O  O290  1  0.61527108  0.87664461  0.86528729  1
  O  O291  1  0.37890091  0.11193955  0.12355629  1
  O  O292  1  0.38727053  0.12510893  0.63671386  1
  O  O293  1  0.38811465  0.62334871  0.13356951  1
  O  O294  1  0.37978033  0.63395144  0.62958952  1
  O  O295  1  0.87503033  0.14164144  0.12601939  1
  O  O296  1  0.88954686  0.13785290  0.62247496  1
  O  O297  1  0.87466916  0.62874428  0.12969602  1
  O  O298  1  0.88496079  0.63300475  0.62427738  1
  O  O299  1  0.25242046  0.25366245  0.11916596  1
  O  O300  1  0.24884997  0.26022533  0.61683506  1
  O  O301  1  0.24823374  0.76427943  0.12525572  1
  O  O302  1  0.25917455  0.74127053  0.61737111  1
  O  O303  1  0.75083965  0.25422426  0.11845545  1
  O  O304  1  0.75959445  0.25414752  0.61585945  1
  O  O305  1  0.74578874  0.76296140  0.10726648  1
  O  O306  1  0.75607498  0.75355636  0.62685822  1
  O  O307  1  0.24881985  0.23820384  0.38014183  1
  O  O308  1  0.25224390  0.23588727  0.88103805  1
  O  O309  1  0.27048850  0.74947129  0.40265844  1
  O  O310  1  0.23955277  0.73762354  0.87130105  1
  O  O311  1  0.75128243  0.25393377  0.39029895  1
  O  O312  1  0.74533948  0.24695363  0.87991038  1
  O  O313  1  0.74835340  0.75735196  0.39525031  1
  O  O314  1  0.74927267  0.74303529  0.88168604  1
  O  O315  1  0.01212718  0.11664791  -0.00067431  1
  O  O316  1  0.00782152  0.11567891  0.51299367  1
  O  O317  1  -0.00045818  0.62739246  0.02736702  1
  O  O318  1  0.00490535  0.62096293  0.50813015  1
  O  O319  1  0.49712006  0.11233036  -0.00706711  1
  O  O320  1  0.50282292  0.11980292  0.50708724  1
  O  O321  1  0.50330257  0.62307290  0.00972699  1
  O  O322  1  0.50183009  0.61993419  0.50233287  1
  O  O323  1  0.49112115  0.38265172  0.49833050  1
  O  O324  1  0.50029451  0.37184060  0.98996216  1
  O  O325  1  0.49550669  0.88270299  0.49414909  1
  O  O326  1  0.49550151  0.88203535  0.98964778  1
  O  O327  1  0.99816346  0.38354953  0.49501388  1
  O  O328  1  0.98966304  0.37258993  0.99942184  1
  O  O329  1  0.98592487  0.87096259  0.50172720  1
  O  O330  1  1.00058294  0.88851225  0.99596781  1
  O  O331  1  0.51186198  0.50210185  0.38678978  1
  O  O332  1  0.50112440  0.48940290  0.87500857  1
  O  O333  1  0.49297147  0.99584773  0.37977028  1
  O  O334  1  0.49614028  0.99330320  0.87724839  1
  O  O335  1  0.98833003  0.49595772  0.37782828  1
  O  O336  1  0.98905374  0.49794966  0.87395792  1
  O  O337  1  0.99131649  0.98305623  0.38126033  1
  O  O338  1  0.98573288  1.00339913  0.88307218  1
  O  O339  1  0.00426678  -0.00388129  0.11098645  1
  O  O340  1  -0.00703793  0.00872604  0.62456160  1
  O  O341  1  0.02056507  0.48953368  0.12751203  1
  O  O342  1  0.00357868  0.50621924  0.62128831  1
  O  O343  1  0.50878959  -0.00050289  0.11213792  1
  O  O344  1  0.49522812  0.00958907  0.61448390  1
  O  O345  1  0.50973620  0.50709169  0.12523549  1
  O  O346  1  0.50697961  0.50504858  0.61495745  1
  O  O347  1  0.24549986  0.37617703  0.24744030  1
  O  O348  1  0.24656376  0.38133399  0.74408284  1
  O  O349  1  0.25554425  0.88847315  0.23731812  1
  O  O350  1  0.24413212  0.88533952  0.75166160  1
  O  O351  1  0.74305803  0.37878977  0.24408909  1
  O  O352  1  0.74086697  0.37809254  0.74172739  1
  O  O353  1  0.74150081  0.88841208  0.23986177  1
  O  O354  1  0.74087101  0.88545084  0.75109110  1
  O  O355  1  0.25523988  0.11027326  0.25814530  1
  O  O356  1  0.25541768  0.12219599  0.75389825  1
  O  O357  1  0.26488511  0.60798361  0.24276603  1
  O  O358  1  0.25356028  0.61741852  0.75604752  1
  O  O359  1  0.75186457  0.11410885  0.24734546  1
  O  O360  1  0.74553260  0.11937400  0.75917495  1
  O  O361  1  0.73506147  0.59885663  0.24626175  1
  O  O362  1  0.74775136  0.62522225  0.76442092  1
  O  O363  1  0.36328336  0.11285055  0.38360004  1
  O  O364  1  0.36843543  0.11903373  0.86214106  1
  O  O365  1  0.36189987  0.63151237  0.36050768  1
  O  O366  1  0.36833607  0.62520403  0.86799596  1
  O  O367  1  0.88046591  0.11038734  0.38056724  1
  O  O368  1  0.86756092  0.12946532  0.87211105  1
  O  O369  1  0.85939377  0.61778624  0.37992328  1
  O  O370  1  0.86920280  0.60920809  0.88213436  1
  O  O371  1  0.13619890  0.37840550  0.13193882  1
  O  O372  1  0.13563475  0.38135481  0.63311673  1
  O  O373  1  0.13136550  0.88719708  0.11538342  1
  O  O374  1  0.12385514  0.86179155  0.64204158  1
  O  O375  1  0.63028985  0.38003726  0.13411346  1
  O  O376  1  0.62996868  0.38172436  0.62640214  1
  O  O377  1  0.62958693  0.88624061  0.13298815  1
  O  O378  1  0.62333194  0.87626353  0.63949334  1
  O  O379  1  0.12551339  0.26109696  0.25191703  1
  O  O380  1  0.13281285  0.26449403  0.74957806  1
  O  O381  1  0.19460416  0.72396605  0.28925537  1
  O  O382  1  0.11727216  0.75240210  0.76017209  1
  O  O383  1  0.61937044  0.25545015  0.25357704  1
  O  O384  1  0.61907914  0.25594055  0.75508025  1
  O  O385  1  0.61816754  0.76177963  0.24827491  1
  O  O386  1  0.61600559  0.76006932  0.75389784  1
  O  O387  1  0.38525879  0.24917579  0.25289757  1
  O  O388  1  0.38474500  0.24106730  0.75414123  1
  O  O389  1  0.38323402  0.74153538  0.24416027  1
  O  O390  1  0.37834902  0.74757863  0.74389293  1
  O  O391  1  0.87083247  0.25003239  0.23508330  1
  O  O392  1  0.86852337  0.25651129  0.73313120  1
  O  O393  1  0.79776359  0.72554165  0.26299033  1
  O  O394  1  0.88170600  0.75470263  0.74364912  1
  O  O395  1  0.38503966  0.49456785  0.50408223  1
  O  O396  1  0.37956411  0.48991629  0.99702173  1
  O  O397  1  0.38466857  0.99373326  0.49223265  1
  O  O398  1  0.38434698  0.98911035  0.98904458  1
  O  O399  1  0.87920226  0.49459207  0.49317840  1
  O  O400  1  0.86817775  0.48916591  0.98869358  1
  O  O401  1  0.87376988  0.98974283  0.49537000  1
  O  O402  1  0.88700581  1.00789535  0.99058018  1
  O  O403  1  0.11218207  0.00608230  0.00095106  1
  O  O404  1  0.13020262  -0.00817786  0.50406022  1
  O  O405  1  0.13294080  0.49609260  0.01633049  1
  O  O406  1  0.11968487  0.50683390  0.50586825  1
  O  O407  1  0.61649498  -0.00516014  0.00560949  1
  O  O408  1  0.61348169  0.00361794  0.49625770  1
  O  O409  1  0.62605273  0.49879704  0.01402753  1
  O  O410  1  0.62072612  0.50197343  0.50867267  1
  O  O411  1  0.36384285  0.37542644  0.12714332  1
  O  O412  1  0.36216569  0.38092187  0.61592355  1
  O  O413  1  0.36570734  0.87588726  0.11427588  1
  O  O414  1  0.37923367  0.86340001  0.62070396  1
  O  O415  1  0.87171501  0.36772290  0.12000033  1
  O  O416  1  0.87396297  0.36701667  0.61902675  1
  O  O417  1  0.86081328  0.88444729  0.12723874  1
  O  O418  1  0.87278465  0.86538207  0.62091082  1
  O  O419  1  0.14050680  0.11931569  0.38094258  1
  O  O420  1  0.13198982  0.11829897  0.88689580  1
  O  O421  1  0.12462408  0.61822974  0.38504278  1
  O  O422  1  0.13318327  0.62872130  0.88477622  1
  O  O423  1  0.62150425  0.12557572  0.39177159  1
  O  O424  1  0.63440355  0.13884951  0.87181668  1
  O  O425  1  0.65202738  0.63476450  0.37078702  1
  O  O426  1  0.63406963  0.62500132  0.87784633  1
