# generated using pymatgen
data_V85Zn86O256
_symmetry_space_group_name_H-M   'P 1'
_cell_length_a   16.93642388
_cell_length_b   16.94989364
_cell_length_c   16.95239512
_cell_angle_alpha   90.07896110
_cell_angle_beta   89.97413371
_cell_angle_gamma   89.93197861
_symmetry_Int_Tables_number   1
_chemical_formula_structural   V85Zn86O256
_chemical_formula_sum   'V85 Zn86 O256'
_cell_volume   4866.52540614
_cell_formula_units_Z   1
loop_
 _symmetry_equiv_pos_site_id
 _symmetry_equiv_pos_as_xyz
  1  'x, y, z'
loop_
 _atom_site_type_symbol
 _atom_site_label
 _atom_site_symmetry_multiplicity
 _atom_site_fract_x
 _atom_site_fract_y
 _atom_site_fract_z
 _atom_site_occupancy
  V  V0  1  0.37330861  0.61970698  0.75677474  1
  V  V1  1  0.49686537  0.62393563  0.62579712  1
  V  V2  1  0.87027025  0.61795352  0.24060297  1
  V  V3  1  0.37908253  0.49790422  0.36912493  1
  V  V4  1  0.12048649  0.87361948  0.25583491  1
  V  V5  1  0.49874394  0.49745434  0.49797675  1
  V  V6  1  0.37427008  0.25203797  0.62587004  1
  V  V7  1  0.37571279  0.12669745  0.25259624  1
  V  V8  1  0.87497217  0.38675513  0.49856988  1
  V  V9  1  0.37263064  0.75230132  0.11267024  1
  V  V10  1  0.37190694  0.25551775  0.12462738  1
  V  V11  1  0.76538063  0.86352077  0.63263689  1
  V  V12  1  0.25192300  0.49588153  0.75197798  1
  V  V13  1  0.37216025  0.38511234  -0.00134013  1
  V  V14  1  0.86698794  0.49072326  0.36308899  1
  V  V15  1  0.12000364  0.62437467  0.49879898  1
  V  V16  1  0.74986496  0.37959015  0.62311740  1
  V  V17  1  0.24829989  0.25152307  0.50369285  1
  V  V18  1  -0.00318754  0.62480979  0.62301068  1
  V  V19  1  0.86618959  0.36947254  -0.00156200  1
  V  V20  1  0.74365402  0.61500991  0.37198448  1
  V  V21  1  0.50145889  0.63020327  0.12896589  1
  V  V22  1  0.62356325  0.49970594  0.62455868  1
  V  V23  1  0.36943445  0.12220225  0.76253584  1
  V  V24  1  0.62314258  0.37335804  0.75343834  1
  V  V25  1  0.24877621  -0.00151530  0.25148260  1
  V  V26  1  0.36698241  0.87531464  0.50284871  1
  V  V27  1  0.87580063  0.00513782  0.87331398  1
  V  V28  1  0.04419103  0.44423453  0.43992046  1
  V  V29  1  0.87722639  0.24460218  0.12248826  1
  V  V30  1  0.49990576  0.26352276  0.25241918  1
  V  V31  1  0.11055635  0.49969942  0.11155304  1
  V  V32  1  0.36492975  0.75176379  0.62512240  1
  V  V33  1  0.13017907  -0.00468078  0.62419866  1
  V  V34  1  0.00429205  0.26416291  0.25541941  1
  V  V35  1  0.23911454  0.49536267  0.24548878  1
  V  V36  1  0.62006238  0.87915982  0.75008442  1
  V  V37  1  0.63695288  0.24951484  0.88027361  1
  V  V38  1  0.87501324  0.87842601  -0.00236382  1
  V  V39  1  0.12488702  0.49594152  0.62559015  1
  V  V40  1  0.00398637  0.37538449  0.88280585  1
  V  V41  1  0.88228437  0.74578696  0.11906391  1
  V  V42  1  0.63632666  0.12635219  -0.00250071  1
  V  V43  1  0.25204189  0.87052444  0.11479239  1
  V  V44  1  0.75136179  0.12289416  0.36506395  1
  V  V45  1  0.62157794  0.25774429  0.37435203  1
  V  V46  1  0.12146852  0.00415840  0.12602566  1
  V  V47  1  0.13523911  0.86879363  0.74150667  1
  V  V48  1  0.12998949  0.37183801  0.74758891  1
  V  V49  1  0.62610741  0.62605174  0.00030434  1
  V  V50  1  0.24824802  0.62365592  0.88384151  1
  V  V51  1  0.11708396  0.12396185  0.49945040  1
  V  V52  1  0.49648115  0.37846850  0.87746265  1
  V  V53  1  0.24669681  0.63027905  0.37341510  1
  V  V54  1  0.62661815  0.88101161  0.25263650  1
  V  V55  1  0.75195872  0.49967405  0.75214288  1
  V  V56  1  0.00018669  0.01233011  0.00265868  1
  V  V57  1  0.50049144  0.12552509  0.62536997  1
  V  V58  1  0.00203728  0.87674710  0.86914480  1
  V  V59  1  0.87975309  0.50055716  0.88142880  1
  V  V60  1  0.87499148  0.63012499  0.74861569  1
  V  V61  1  0.24605392  0.12676404  0.37491007  1
  V  V62  1  0.12686241  0.75192532  0.88308891  1
  V  V63  1  0.74766202  0.00711169  0.75472894  1
  V  V64  1  -0.01342904  -0.01940833  0.49231983  1
  V  V65  1  0.50156380  -0.00227710  0.49707616  1
  V  V66  1  0.62177418  0.74648961  0.37508138  1
  V  V67  1  0.37575838  0.37392847  0.49895100  1
  V  V68  1  0.88513636  0.11992985  0.25034721  1
  V  V69  1  0.87432049  0.25327874  0.62243050  1
  V  V70  1  0.37541935  0.63534685  0.25006433  1
  V  V71  1  0.75013950  0.88342770  0.12756039  1
  V  V72  1  0.63634324  0.50192755  0.12886446  1
  V  V73  1  0.62144276  0.75452090  0.87688034  1
  V  V74  1  0.13583258  0.12976481  0.00367605  1
  V  V75  1  0.49718073  0.75154104  0.74944690  1
  V  V76  1  -0.00396320  0.74988580  0.25531872  1
  V  V77  1  0.74701786  0.75419170  0.00077972  1
  V  V78  1  0.48732124  -0.00251681  -0.00445524  1
  V  V79  1  0.50132964  0.12561464  0.12487458  1
  V  V80  1  0.62872600  0.12502975  0.49760628  1
  V  V81  1  0.74891165  0.37183923  0.13226461  1
  V  V82  1  0.00026898  0.24724676  0.74914744  1
  V  V83  1  0.87108182  0.13021443  0.75431874  1
  V  V84  1  0.49751875  0.86892283  0.36956062  1
  Zn  Zn85  1  -0.00338921  0.12088024  0.62283726  1
  Zn  Zn86  1  0.62738311  0.38345376  0.25687689  1
  Zn  Zn87  1  0.12159395  0.26622462  0.37360265  1
  Zn  Zn88  1  0.24340580  0.75441643  0.50302427  1
  Zn  Zn89  1  0.80049988  0.79113242  0.47408059  1
  Zn  Zn90  1  0.49856823  0.50364540  -0.00247118  1
  Zn  Zn91  1  0.50077193  0.24790204  0.75467046  1
  Zn  Zn92  1  0.37320978  -0.00078400  0.37580852  1
  Zn  Zn93  1  0.48312954  0.88005929  0.87693582  1
  Zn  Zn94  1  0.13096037  0.23854090  0.86619588  1
  Zn  Zn95  1  0.75121996  0.25162051  0.49743407  1
  Zn  Zn96  1  0.82063213  -0.04259352  0.32322452  1
  Zn  Zn97  1  0.11646647  0.75439367  0.37902285  1
  Zn  Zn98  1  0.25512104  0.25075836  -0.00999569  1
  Zn  Zn99  1  0.24146472  0.37284376  0.12606295  1
  Zn  Zn100  1  0.74870558  0.62447852  0.87644726  1
  Zn  Zn101  1  0.11087084  0.62835458  0.00276803  1
  Zn  Zn102  1  0.62508262  0.00220557  0.12725703  1
  Zn  Zn103  1  -0.00540253  0.75358731  0.74375552  1
  Zn  Zn104  1  0.26097153  -0.00691415  0.75069198  1
  Zn  Zn105  1  0.62946398  -0.00206375  0.62292230  1
  Zn  Zn106  1  0.62459154  0.63198651  0.50289097  1
  Zn  Zn107  1  0.18447257  0.18917154  0.18821510  1
  Zn  Zn108  1  0.18871934  0.18278092  0.68470812  1
  Zn  Zn109  1  0.18400316  0.68609406  0.18331610  1
  Zn  Zn110  1  0.18522845  0.68400113  0.69069754  1
  Zn  Zn111  1  0.69006518  0.19056152  0.18641062  1
  Zn  Zn112  1  0.68691653  0.19020053  0.68742073  1
  Zn  Zn113  1  0.68872383  0.69288908  0.18873126  1
  Zn  Zn114  1  0.68412833  0.68589956  0.69034661  1
  Zn  Zn115  1  0.31151885  0.31400220  0.31471031  1
  Zn  Zn116  1  0.31196087  0.30891628  0.81426269  1
  Zn  Zn117  1  0.31006775  0.81392194  0.31097014  1
  Zn  Zn118  1  0.31030466  0.80687291  0.81451972  1
  Zn  Zn119  1  0.81238252  0.30595920  0.31129256  1
  Zn  Zn120  1  0.81233254  0.31410777  0.81325750  1
  Zn  Zn121  1  0.79907995  0.79451402  0.30309999  1
  Zn  Zn122  1  0.80920134  0.81501813  0.81231616  1
  Zn  Zn123  1  0.20879861  0.44048814  0.43975946  1
  Zn  Zn124  1  0.19007886  0.43448503  0.93486393  1
  Zn  Zn125  1  0.18400061  0.94046747  0.43692132  1
  Zn  Zn126  1  0.30350901  0.94597733  0.92900449  1
  Zn  Zn127  1  0.68918649  0.44206743  0.43758481  1
  Zn  Zn128  1  0.68825474  0.43890387  0.94120909  1
  Zn  Zn129  1  0.69557447  0.93102025  0.43982621  1
  Zn  Zn130  1  0.68346330  0.94345604  0.93701743  1
  Zn  Zn131  1  0.31159864  0.06407378  0.07140118  1
  Zn  Zn132  1  0.31129063  0.06316594  0.56415219  1
  Zn  Zn133  1  0.31120052  0.56350218  0.06533838  1
  Zn  Zn134  1  0.30852314  0.56278590  0.56527598  1
  Zn  Zn135  1  0.81496021  0.06406991  0.06606384  1
  Zn  Zn136  1  0.81090927  0.06060441  0.56773659  1
  Zn  Zn137  1  0.93379693  0.56373852  0.05922237  1
  Zn  Zn138  1  0.82779808  0.60091347  0.54184152  1
  Zn  Zn139  1  0.43834582  0.44494563  0.18236750  1
  Zn  Zn140  1  0.43618972  0.43484050  0.68862004  1
  Zn  Zn141  1  0.43647502  0.93848345  0.18753821  1
  Zn  Zn142  1  0.43839358  0.93897778  0.68494956  1
  Zn  Zn143  1  0.93564506  0.43083062  0.18720091  1
  Zn  Zn144  1  0.94082144  0.44017207  0.68974404  1
  Zn  Zn145  1  0.94058465  0.93368978  0.18439055  1
  Zn  Zn146  1  0.94280988  0.94403545  0.68541889  1
  Zn  Zn147  1  0.05882746  0.06126388  0.31657427  1
  Zn  Zn148  1  0.12308027  0.02018840  0.85414783  1
  Zn  Zn149  1  0.05937240  0.57059152  0.30156137  1
  Zn  Zn150  1  0.06218791  0.56270581  0.81410060  1
  Zn  Zn151  1  0.56339847  0.06362747  0.31297531  1
  Zn  Zn152  1  0.55921937  0.06552359  0.81616505  1
  Zn  Zn153  1  0.55786573  0.56159315  0.30820404  1
  Zn  Zn154  1  0.56183428  0.56182472  0.81445211  1
  Zn  Zn155  1  0.43907347  0.18738820  0.43604900  1
  Zn  Zn156  1  0.44340532  0.19440587  0.94060165  1
  Zn  Zn157  1  0.43707127  0.68779159  0.43822268  1
  Zn  Zn158  1  0.43787152  0.68894281  0.93633407  1
  Zn  Zn159  1  0.93471766  0.19195734  0.43341462  1
  Zn  Zn160  1  0.94120271  0.19008925  0.93558134  1
  Zn  Zn161  1  0.93844051  0.67713460  0.43103612  1
  Zn  Zn162  1  0.93613959  0.69236497  0.92983475  1
  Zn  Zn163  1  0.05852740  0.31513947  0.06954069  1
  Zn  Zn164  1  0.06484082  0.30789550  0.56765896  1
  Zn  Zn165  1  0.06168674  0.81962137  0.06181126  1
  Zn  Zn166  1  0.05502044  0.80868859  0.56225076  1
  Zn  Zn167  1  0.56189721  0.31256944  0.06181786  1
  Zn  Zn168  1  0.56105521  0.31257042  0.56096616  1
  Zn  Zn169  1  0.55830213  0.81501041  0.06711192  1
  Zn  Zn170  1  0.56150186  0.81211594  0.56151638  1
  O  O171  1  0.12790132  0.11197623  0.12187404  1
  O  O172  1  0.12150625  0.11643300  0.61598135  1
  O  O173  1  0.13032294  0.60692514  0.12006810  1
  O  O174  1  0.12117057  0.61650620  0.61670911  1
  O  O175  1  0.61807174  0.12683628  0.11683291  1
  O  O176  1  0.61823374  0.12506675  0.61633494  1
  O  O177  1  0.62049116  0.62356294  0.12124408  1
  O  O178  1  0.61688076  0.61834099  0.62406133  1
  O  O179  1  0.36972375  0.38653812  0.38436503  1
  O  O180  1  0.38488071  0.36935080  0.88504401  1
  O  O181  1  0.38204845  0.87505798  0.38118679  1
  O  O182  1  0.37125901  0.87069953  0.87944692  1
  O  O183  1  0.86886801  0.38263695  0.38049071  1
  O  O184  1  0.88031438  0.37886241  0.88142811  1
  O  O185  1  0.81391225  0.86944044  0.38876869  1
  O  O186  1  0.88176246  0.88324507  0.87689968  1
  O  O187  1  0.25069684  0.00986152  0.36988669  1
  O  O188  1  0.23369577  -0.00166805  0.86156232  1
  O  O189  1  0.25847805  0.51144624  0.36396785  1
  O  O190  1  0.24302225  0.50778401  0.86015234  1
  O  O191  1  0.73835932  0.01958026  0.37741495  1
  O  O192  1  0.75729609  -0.00399609  0.86229732  1
  O  O193  1  0.75532434  0.49934676  0.36274001  1
  O  O194  1  0.75654961  0.50029946  0.86777558  1
  O  O195  1  0.24707451  0.49839773  0.13749604  1
  O  O196  1  0.23597342  0.50530702  0.63588705  1
  O  O197  1  0.24301326  0.99161269  0.13334207  1
  O  O198  1  0.23519710  1.00281456  0.62728607  1
  O  O199  1  0.73657852  0.49026871  0.12242708  1
  O  O200  1  0.74439820  0.48917500  0.63254828  1
  O  O201  1  0.74658011  0.98718841  0.11825333  1
  O  O202  1  0.74827949  0.99183728  0.64007445  1
  O  O203  1  -0.00282506  0.36317827  0.25508731  1
  O  O204  1  0.00470836  0.36444654  0.75654058  1
  O  O205  1  0.00816407  0.86475457  0.24582865  1
  O  O206  1  0.00349525  0.87371487  0.75546541  1
  O  O207  1  0.50003034  0.36596061  0.24478363  1
  O  O208  1  0.50588510  0.37311073  0.75765096  1
  O  O209  1  0.50447919  0.88019118  0.26362713  1
  O  O210  1  0.50372844  0.87165911  0.75432661  1
  O  O211  1  0.49747726  0.13129765  0.23978068  1
  O  O212  1  0.49380738  0.12612728  0.73970339  1
  O  O213  1  0.48756810  0.62363580  0.24103321  1
  O  O214  1  0.49116080  0.62809948  0.74733305  1
  O  O215  1  0.98779478  0.13021348  0.25427609  1
  O  O216  1  0.99048543  0.14128327  0.74620219  1
  O  O217  1  0.98277242  0.63462723  0.24622794  1
  O  O218  1  0.99128790  0.62537354  0.74391667  1
  O  O219  1  0.37562015  0.25866306  0.01079850  1
  O  O220  1  0.37128123  0.25571040  0.50312212  1
  O  O221  1  0.37404111  0.74473915  0.01339093  1
  O  O222  1  0.37289129  0.75660334  0.50824688  1
  O  O223  1  0.88100953  0.25662412  0.00889070  1
  O  O224  1  0.87301137  0.26390461  0.50408160  1
  O  O225  1  0.86659353  0.75730153  0.00258867  1
  O  O226  1  0.86366490  0.70738552  0.50715400  1
  O  O227  1  0.13304601  0.24392676  0.49909387  1
  O  O228  1  0.12270736  0.23442713  1.01460237  1
  O  O229  1  0.12542957  0.74033875  0.49745337  1
  O  O230  1  0.12023399  0.75319901  0.98641540  1
  O  O231  1  0.62409340  0.24263026  0.49250396  1
  O  O232  1  0.62002961  0.23565006  0.99581020  1
  O  O233  1  0.61882473  0.74822326  0.48489869  1
  O  O234  1  0.62509178  0.74959899  0.99390319  1
  O  O235  1  0.49100830  0.24499203  0.13202030  1
  O  O236  1  0.49485527  0.23885881  0.62393012  1
  O  O237  1  0.49137578  0.73941589  0.12316237  1
  O  O238  1  0.49240114  0.74188088  0.63021045  1
  O  O239  1  0.98624115  0.25603444  0.13859388  1
  O  O240  1  0.99012940  0.24941386  0.63189924  1
  O  O241  1  0.98576922  0.75839569  0.12893397  1
  O  O242  1  1.00190101  0.72991632  0.62687668  1
  O  O243  1  0.00308201  0.24914555  0.36091685  1
  O  O244  1  0.00718647  0.25775573  0.86608605  1
  O  O245  1  -0.00284849  0.74579356  0.36047794  1
  O  O246  1  0.00407500  0.76411816  0.86917784  1
  O  O247  1  0.50763539  0.24501603  0.36377469  1
  O  O248  1  0.51129432  0.26256710  0.87507792  1
  O  O249  1  0.50422545  0.75876014  0.37624136  1
  O  O250  1  0.50899718  0.75347341  0.86997252  1
  O  O251  1  0.24163983  0.13051123  0.49313148  1
  O  O252  1  0.23885877  0.12812335  1.00756108  1
  O  O253  1  0.23803437  0.62159272  0.49065489  1
  O  O254  1  0.24830519  0.61708143  0.98571577  1
  O  O255  1  0.73898570  0.12733957  0.49862732  1
  O  O256  1  0.73491255  0.11997286  1.00316474  1
  O  O257  1  0.73446906  0.59941762  0.47836931  1
  O  O258  1  0.73302682  0.63874268  0.99801354  1
  O  O259  1  0.25810856  0.37313564  0.00440355  1
  O  O260  1  0.26469037  0.36600029  0.50394968  1
  O  O261  1  0.24954086  0.88328291  0.01771842  1
  O  O262  1  0.26291258  0.87449480  0.49322595  1
  O  O263  1  0.76167182  0.37689002  0.00797198  1
  O  O264  1  0.75661751  0.37612523  0.50850578  1
  O  O265  1  0.75323148  0.87255111  0.00331831  1
  O  O266  1  0.73933253  0.87357480  0.53018596  1
  O  O267  1  0.13627734  0.50663208  0.24284064  1
  O  O268  1  0.13083019  0.49202090  0.74377136  1
  O  O269  1  0.12529476  0.99361907  0.24421182  1
  O  O270  1  0.12125194  0.98197902  0.74045349  1
  O  O271  1  0.61765995  0.49725104  0.23616659  1
  O  O272  1  0.63228747  0.49505104  0.74533731  1
  O  O273  1  0.61992189  0.98725841  0.24799932  1
  O  O274  1  0.63002080  0.99608809  0.75192908  1
  O  O275  1  0.36871064  0.00937639  0.25255358  1
  O  O276  1  0.37692581  0.01686628  0.74235903  1
  O  O277  1  0.36776560  0.50925492  0.25478953  1
  O  O278  1  0.36569018  0.50856416  0.74261350  1
  O  O279  1  0.88107473  0.01128156  0.24679744  1
  O  O280  1  0.87064290  0.01151132  0.75386901  1
  O  O281  1  0.87678678  0.50501352  0.25203532  1
  O  O282  1  0.86740715  0.50161302  0.76054228  1
  O  O283  1  0.11845786  0.38552141  0.39123081  1
  O  O284  1  0.11689052  0.37643214  0.86312492  1
  O  O285  1  0.13144701  0.87148830  0.36034934  1
  O  O286  1  0.11696231  0.86649227  0.85838520  1
  O  O287  1  0.63020306  0.36210508  0.37575639  1
  O  O288  1  0.62130421  0.36931308  0.87341781  1
  O  O289  1  0.61895377  0.86914066  0.37137643  1
  O  O290  1  0.62110637  0.87072456  0.86553589  1
  O  O291  1  0.38176764  0.13484006  0.13269224  1
  O  O292  1  0.38404166  0.13496668  0.62345012  1
  O  O293  1  0.37983876  0.63142555  0.13123681  1
  O  O294  1  0.37882089  0.63017012  0.63278965  1
  O  O295  1  0.87167614  0.13158103  0.13885037  1
  O  O296  1  0.87424330  0.13401626  0.63523741  1
  O  O297  1  0.86941008  0.63399306  0.12762071  1
  O  O298  1  0.88615151  0.60372740  0.63858033  1
  O  O299  1  0.26267967  0.25330119  0.12936458  1
  O  O300  1  0.25892481  0.24265600  0.61116013  1
  O  O301  1  0.25379799  0.76285304  0.12800322  1
  O  O302  1  0.26173710  0.74123712  0.62272961  1
  O  O303  1  0.76455972  0.25744313  0.12644993  1
  O  O304  1  0.75491761  0.26467965  0.62489651  1
  O  O305  1  0.75813426  0.76149220  0.11918685  1
  O  O306  1  0.74937451  0.76391450  0.64063336  1
  O  O307  1  0.24475073  0.24637786  0.38445383  1
  O  O308  1  0.24070205  0.25308802  0.87803787  1
  O  O309  1  0.24802247  0.73766005  0.37625701  1
  O  O310  1  0.23670543  0.73619561  0.86700368  1
  O  O311  1  0.74096227  0.24025410  0.37701135  1
  O  O312  1  0.73695796  0.25579707  0.87503138  1
  O  O313  1  0.73856327  0.72993264  0.37910646  1
  O  O314  1  0.73638740  0.75138121  0.87973266  1
  O  O315  1  -0.00122615  0.11478016  0.00392443  1
  O  O316  1  0.01170551  0.13195992  0.49872300  1
  O  O317  1  -0.00265760  0.62732534  -0.00547959  1
  O  O318  1  0.01287728  0.61821191  0.50479961  1
  O  O319  1  0.50196369  0.11913205  0.01152313  1
  O  O320  1  0.50923899  0.11859464  0.50312804  1
  O  O321  1  0.51070759  0.62675687  0.00517156  1
  O  O322  1  0.49820675  0.61207552  0.50551324  1
  O  O323  1  0.48831025  0.38599098  0.50419857  1
  O  O324  1  0.49254007  0.37746936  0.99450319  1
  O  O325  1  0.49276396  0.88223801  0.49204652  1
  O  O326  1  0.50432031  0.89530208  1.00290485  1
  O  O327  1  0.99294163  0.37746513  0.50444168  1
  O  O328  1  0.99258468  0.36917057  0.98686057  1
  O  O329  1  0.99293693  0.88012462  0.49952703  1
  O  O330  1  0.99245855  0.88325237  0.99151770  1
  O  O331  1  0.48676816  0.50466252  0.38217209  1
  O  O332  1  0.50724320  0.48502767  0.87851999  1
  O  O333  1  0.49783615  0.99571854  0.38561683  1
  O  O334  1  0.49977039  1.00186871  0.89216725  1
  O  O335  1  0.99170676  0.50234036  0.37057946  1
  O  O336  1  0.99041969  0.48762503  0.86486542  1
  O  O337  1  1.00261866  0.99999511  0.39359900  1
  O  O338  1  1.00367193  0.98961012  0.88394868  1
  O  O339  1  0.01112107  -0.00960286  0.11427558  1
  O  O340  1  0.01044452  0.00224091  0.61224630  1
  O  O341  1  0.00640423  0.49881296  0.12539000  1
  O  O342  1  0.01579697  0.50813309  0.63227630  1
  O  O343  1  0.49985755  0.00960638  0.11751812  1
  O  O344  1  0.50245659  0.01007751  0.61307977  1
  O  O345  1  0.50666685  0.51548119  0.11961357  1
  O  O346  1  0.50188360  0.50476753  0.61880164  1
  O  O347  1  0.25294719  0.39230393  0.25146489  1
  O  O348  1  0.24166599  0.38218268  0.75209068  1
  O  O349  1  0.24211837  0.88196603  0.24487255  1
  O  O350  1  0.23745331  0.86892240  0.74366406  1
  O  O351  1  0.74893964  0.36967257  0.23648717  1
  O  O352  1  0.74596468  0.38458262  0.74496832  1
  O  O353  1  0.74427265  0.87953650  0.24092343  1
  O  O354  1  0.74055807  0.88329601  0.74600510  1
  O  O355  1  0.25255436  0.12127584  0.25805347  1
  O  O356  1  0.26713938  0.12609234  0.74583260  1
  O  O357  1  0.25447122  0.61748541  0.25552355  1
  O  O358  1  0.25627721  0.61665266  0.75632223  1
  O  O359  1  0.76139919  0.13034459  0.25554112  1
  O  O360  1  0.75723766  0.11930432  0.74635376  1
  O  O361  1  0.76147473  0.62980657  0.25516343  1
  O  O362  1  0.75449058  0.61226627  0.74989985  1
  O  O363  1  0.36274259  0.12620463  0.37152589  1
  O  O364  1  0.38418753  0.13306717  0.86014903  1
  O  O365  1  0.36788828  0.62034650  0.36860809  1
  O  O366  1  0.36748030  0.63016798  0.86374441  1
  O  O367  1  0.86597310  0.13017149  0.36161736  1
  O  O368  1  0.88042002  0.12233401  0.86206150  1
  O  O369  1  0.86425148  0.60821447  0.36385767  1
  O  O370  1  0.87037049  0.61548430  0.86680584  1
  O  O371  1  0.12511528  0.39320084  0.12410264  1
  O  O372  1  0.12081369  0.38080959  0.63805548  1
  O  O373  1  0.13503448  0.88121881  0.13252262  1
  O  O374  1  0.11835982  0.87674373  0.63382374  1
  O  O375  1  0.63259550  0.38116147  0.12295434  1
  O  O376  1  0.63059917  0.37850491  0.63101705  1
  O  O377  1  0.63179091  0.87409256  0.13492490  1
  O  O378  1  0.61958757  0.87636821  0.64123242  1
  O  O379  1  0.10966306  0.24883440  0.25095990  1
  O  O380  1  0.11807828  0.25450462  0.74479472  1
  O  O381  1  0.11345956  0.75489200  0.24778586  1
  O  O382  1  0.11962661  0.75683598  0.75266806  1
  O  O383  1  0.61632767  0.25303299  0.25648275  1
  O  O384  1  0.62354419  0.25646028  0.75883316  1
  O  O385  1  0.63096281  0.76436082  0.26307825  1
  O  O386  1  0.61729511  0.75656190  0.75853186  1
  O  O387  1  0.38144614  0.24726810  0.24713185  1
  O  O388  1  0.37864165  0.24161653  0.74039503  1
  O  O389  1  0.36717332  0.73825544  0.24290990  1
  O  O390  1  0.37932125  0.74102331  0.74225365  1
  O  O391  1  0.88492265  0.24138744  0.24528171  1
  O  O392  1  0.87902540  0.24821993  0.74513294  1
  O  O393  1  0.87865466  0.74355410  0.23835176  1
  O  O394  1  0.87218467  0.73345789  0.75754554  1
  O  O395  1  0.37624987  0.49381563  0.49444601  1
  O  O396  1  0.37709842  0.48907228  1.00498887  1
  O  O397  1  0.38229911  0.99327570  0.50049361  1
  O  O398  1  0.38279615  1.00541226  1.00199847  1
  O  O399  1  0.87332090  0.49113038  0.48789428  1
  O  O400  1  0.87612629  0.48990445  0.98709524  1
  O  O401  1  0.88906891  1.00564306  0.50543254  1
  O  O402  1  0.88077251  0.99916133  0.99302496  1
  O  O403  1  0.11702873  0.01395501  0.01034502  1
  O  O404  1  0.11769799  0.00545550  0.50583947  1
  O  O405  1  0.12464486  0.49986054  0.00981438  1
  O  O406  1  0.12208778  0.49952237  0.50334400  1
  O  O407  1  0.61493093  0.01414871  0.00258112  1
  O  O408  1  0.61822895  0.00655938  0.50078121  1
  O  O409  1  0.62434451  0.51150717  0.00803782  1
  O  O410  1  0.61179612  0.49550964  0.50665390  1
  O  O411  1  0.37478787  0.37000689  0.11823397  1
  O  O412  1  0.38124739  0.35930900  0.61878739  1
  O  O413  1  0.36204030  0.86671241  0.13334791  1
  O  O414  1  0.38148455  0.86424557  0.61557403  1
  O  O415  1  0.86789130  0.36942665  0.11653455  1
  O  O416  1  0.86864143  0.37653706  0.61844614  1
  O  O417  1  0.86756996  0.87001200  0.11690826  1
  O  O418  1  0.86461593  0.87315355  0.63692286  1
  O  O419  1  0.13492313  0.12613111  0.38153472  1
  O  O420  1  0.11473578  0.12631162  0.90063954  1
  O  O421  1  0.13006814  0.62521141  0.38012768  1
  O  O422  1  0.12998701  0.63340435  0.87577051  1
  O  O423  1  0.62818707  0.13544132  0.38057957  1
  O  O424  1  0.61973225  0.13368398  0.88915558  1
  O  O425  1  0.62686850  0.63009318  0.36905662  1
  O  O426  1  0.62439203  0.63451543  0.88201585  1
