# generated using pymatgen
data_V85Zn86O256
_symmetry_space_group_name_H-M   'P 1'
_cell_length_a   16.95550034
_cell_length_b   16.95905265
_cell_length_c   16.93875526
_cell_angle_alpha   90.05455232
_cell_angle_beta   89.93363134
_cell_angle_gamma   89.98051352
_symmetry_Int_Tables_number   1
_chemical_formula_structural   V85Zn86O256
_chemical_formula_sum   'V85 Zn86 O256'
_cell_volume   4870.72015372
_cell_formula_units_Z   1
loop_
 _symmetry_equiv_pos_site_id
 _symmetry_equiv_pos_as_xyz
  1  'x, y, z'
loop_
 _atom_site_type_symbol
 _atom_site_label
 _atom_site_symmetry_multiplicity
 _atom_site_fract_x
 _atom_site_fract_y
 _atom_site_fract_z
 _atom_site_occupancy
  V  V0  1  0.25363083  0.37549861  0.14252433  1
  V  V1  1  0.00370586  0.49425888  -0.00525014  1
  V  V2  1  0.48699990  0.75013206  0.75096264  1
  V  V3  1  0.12898671  0.62096728  -0.00790827  1
  V  V4  1  0.37882460  0.87360241  -0.00177422  1
  V  V5  1  0.62995006  0.37516716  0.25083694  1
  V  V6  1  0.00399677  0.75187760  0.75515694  1
  V  V7  1  0.12265423  0.12674659  0.50551998  1
  V  V8  1  0.87883023  0.49876235  0.87281075  1
  V  V9  1  -0.00157461  0.62323319  0.12734266  1
  V  V10  1  0.49592692  0.38111155  0.37435516  1
  V  V11  1  0.62543572  0.62766273  0.50279549  1
  V  V12  1  0.48122247  0.62694342  0.62740445  1
  V  V13  1  0.74840356  0.50141155  0.74930935  1
  V  V14  1  -0.00720696  0.01033609  0.50677989  1
  V  V15  1  0.89693056  0.25134247  0.62661786  1
  V  V16  1  0.37183195  0.74677443  0.12556764  1
  V  V17  1  0.25550479  0.50881176  0.74792429  1
  V  V18  1  0.11502181  0.37320328  0.75183479  1
  V  V19  1  0.61595420  -0.00028811  0.61943992  1
  V  V20  1  0.00612675  0.88508455  0.87489970  1
  V  V21  1  0.00615753  0.37380534  0.36750353  1
  V  V22  1  0.37690650  0.37304229  0.50047278  1
  V  V23  1  0.25794676  0.24375742  0.50903036  1
  V  V24  1  0.50316189  0.12475863  0.12256267  1
  V  V25  1  0.24354580  -0.00158249  0.74873965  1
  V  V26  1  0.61967403  0.74983018  0.87248220  1
  V  V27  1  0.24974893  0.87427266  0.12278491  1
  V  V28  1  0.87542513  0.24950721  0.12131392  1
  V  V29  1  0.50391432  0.24922840  0.25191420  1
  V  V30  1  0.25779343  0.26085631  -0.00162233  1
  V  V31  1  0.87141700  0.37373769  0.49544459  1
  V  V32  1  0.75349696  0.24193462  -0.00925950  1
  V  V33  1  0.00324554  0.50504685  0.49927037  1
  V  V34  1  0.75162169  0.87331375  0.12787208  1
  V  V35  1  0.11906363  -0.00153671  0.63042891  1
  V  V36  1  0.36526718  0.87904382  0.51756141  1
  V  V37  1  0.11345088  0.25649208  0.87542937  1
  V  V38  1  0.37240702  0.13279215  0.74736163  1
  V  V39  1  0.62073648  0.12861892  0.49911373  1
  V  V40  1  0.75471466  0.50845787  0.24718896  1
  V  V41  1  0.87426173  0.75130232  0.62629414  1
  V  V42  1  0.87655523  0.74529062  0.12796558  1
  V  V43  1  0.12897974  0.75361906  0.38326229  1
  V  V44  1  0.25124309  0.74321588  -0.00749331  1
  V  V45  1  -0.00116556  0.12227615  0.11585751  1
  V  V46  1  0.62221835  0.87857502  0.75394085  1
  V  V47  1  0.37354369  -0.00098844  0.87419574  1
  V  V48  1  0.74779383  0.88067063  0.63074918  1
  V  V49  1  0.49643989  0.62247540  0.12508505  1
  V  V50  1  0.62544746  0.50234516  0.62432883  1
  V  V51  1  0.62613045  0.24213668  0.87108006  1
  V  V52  1  0.62367996  0.87506581  0.25178423  1
  V  V53  1  0.25122380  -0.00055345  0.24939299  1
  V  V54  1  0.25712722  0.36818275  0.63340105  1
  V  V55  1  0.62458690  0.75114475  0.37636573  1
  V  V56  1  -0.00219640  0.74859859  0.25295807  1
  V  V57  1  0.12769879  0.12421081  -0.00111912  1
  V  V58  1  0.49228642  0.12891813  0.61989317  1
  V  V59  1  0.87814571  0.12280981  0.25470136  1
  V  V60  1  0.75487011  0.00026890  0.25809787  1
  V  V61  1  0.00415561  0.62634357  0.62339166  1
  V  V62  1  0.85396482  -0.00067122  0.87009510  1
  V  V63  1  0.49647222  0.48734022  0.00031260  1
  V  V64  1  0.75150709  0.75219508  0.50003668  1
  V  V65  1  0.87966248  0.87602521  0.00006835  1
  V  V66  1  0.49621580  0.88150084  0.38598417  1
  V  V67  1  0.87761684  0.36981595  -0.00901408  1
  V  V68  1  0.62565621  0.49979508  0.12361915  1
  V  V69  1  0.87043956  0.88981615  0.49768662  1
  V  V70  1  0.36675229  0.50307683  0.88147464  1
  V  V71  1  0.74924110  0.74562970  -0.00153764  1
  V  V72  1  0.61956646  0.37508920  0.75007101  1
  V  V73  1  0.12181676  -0.00030815  0.12058181  1
  V  V74  1  0.87626372  0.50962118  0.37047370  1
  V  V75  1  0.62619995  -0.00074553  0.12485870  1
  V  V76  1  0.50056726  -0.00345295  -0.00643977  1
  V  V77  1  0.36062760  0.61530529  0.26474551  1
  V  V78  1  0.12716624  0.49290142  0.13802980  1
  V  V79  1  0.49687778  0.74981485  0.25056551  1
  V  V80  1  0.37750251  0.12508089  0.24903525  1
  V  V81  1  -0.00455656  0.88781125  0.37235427  1
  V  V82  1  0.24995474  0.12420819  0.37577951  1
  V  V83  1  0.74743332  0.36564711  0.61758875  1
  V  V84  1  0.75610940  0.12960797  0.38679027  1
  Zn  Zn85  1  0.12744931  0.74960687  0.87231581  1
  Zn  Zn86  1  0.12939991  0.25201933  0.36973274  1
  Zn  Zn87  1  0.75359409  0.62871580  0.37216959  1
  Zn  Zn88  1  0.38187243  0.25855356  0.11953428  1
  Zn  Zn89  1  0.12599519  0.49611468  0.62366588  1
  Zn  Zn90  1  0.12457019  0.87524532  0.24890275  1
  Zn  Zn91  1  0.62935260  0.12009255  -0.00920055  1
  Zn  Zn92  1  0.75332623  0.37542215  0.12323804  1
  Zn  Zn93  1  0.49384227  0.25159462  0.74823278  1
  Zn  Zn94  1  0.49504870  0.37148829  0.87849795  1
  Zn  Zn95  1  0.87400180  0.62584077  0.75058636  1
  Zn  Zn96  1  0.63469172  0.25404669  0.38059375  1
  Zn  Zn97  1  0.17826357  0.82979114  0.69410106  1
  Zn  Zn98  1  0.50224392  0.50348940  0.49517531  1
  Zn  Zn99  1  0.37959295  0.00222435  0.38154563  1
  Zn  Zn100  1  0.25451565  0.75792839  0.52155766  1
  Zn  Zn101  1  0.62194769  0.62155326  -0.00297912  1
  Zn  Zn102  1  0.74789947  0.62292889  0.87451543  1
  Zn  Zn103  1  0.00639616  0.25430841  0.24327536  1
  Zn  Zn104  1  0.18037251  0.59676723  0.44632054  1
  Zn  Zn105  1  0.87472980  0.12833333  0.74606076  1
  Zn  Zn106  1  0.25014902  0.12933714  0.87595026  1
  Zn  Zn107  1  0.18689684  0.19122688  0.18726890  1
  Zn  Zn108  1  0.18254715  0.18567076  0.69067342  1
  Zn  Zn109  1  0.18370135  0.68565083  0.18743384  1
  Zn  Zn110  1  0.21284767  0.66026297  0.64893595  1
  Zn  Zn111  1  0.69155683  0.18651947  0.18733681  1
  Zn  Zn112  1  0.68917032  0.18643511  0.69060807  1
  Zn  Zn113  1  0.68437768  0.68644974  0.18598701  1
  Zn  Zn114  1  0.68579471  0.69020864  0.68807195  1
  Zn  Zn115  1  0.31651946  0.30729096  0.31427911  1
  Zn  Zn116  1  0.31259693  0.31871067  0.81834273  1
  Zn  Zn117  1  0.31269783  0.81091008  0.31357430  1
  Zn  Zn118  1  0.31340054  0.81651375  0.81504238  1
  Zn  Zn119  1  0.81665067  0.31265291  0.31062626  1
  Zn  Zn120  1  0.81062907  0.31432497  0.80752079  1
  Zn  Zn121  1  0.81592358  0.81276518  0.31476678  1
  Zn  Zn122  1  0.81235963  0.81388126  0.81293669  1
  Zn  Zn123  1  0.19200514  0.42780627  0.43550917  1
  Zn  Zn124  1  0.18999592  0.43599072  0.93703172  1
  Zn  Zn125  1  0.18388644  0.93862729  0.43911972  1
  Zn  Zn126  1  0.19028010  0.93769025  0.93633862  1
  Zn  Zn127  1  0.68786827  0.44156417  0.43442028  1
  Zn  Zn128  1  0.68776250  0.43150620  0.93575990  1
  Zn  Zn129  1  0.68522152  0.94264616  0.44007334  1
  Zn  Zn130  1  0.68364511  0.92781201  0.94049951  1
  Zn  Zn131  1  0.31306794  0.06655393  0.06188186  1
  Zn  Zn132  1  0.31129185  0.05281774  0.56552639  1
  Zn  Zn133  1  0.31164908  0.55877190  0.06654657  1
  Zn  Zn134  1  0.30664793  0.54971253  0.53418234  1
  Zn  Zn135  1  0.81317045  0.06095803  0.05981192  1
  Zn  Zn136  1  0.79484165  0.08350456  0.59509599  1
  Zn  Zn137  1  0.81473442  0.56136236  0.06056326  1
  Zn  Zn138  1  0.81442453  0.56271528  0.56183910  1
  Zn  Zn139  1  0.43447421  0.43990283  0.19210030  1
  Zn  Zn140  1  0.43385334  0.44111954  0.68447207  1
  Zn  Zn141  1  0.43733191  0.93653908  0.18712852  1
  Zn  Zn142  1  0.44025439  0.94077574  0.69304406  1
  Zn  Zn143  1  0.93620833  0.43776980  0.18469991  1
  Zn  Zn144  1  0.93500295  0.43602780  0.68423686  1
  Zn  Zn145  1  0.93824339  0.93837462  0.18567000  1
  Zn  Zn146  1  0.93688852  0.93982686  0.69101245  1
  Zn  Zn147  1  0.06507678  0.06782551  0.31044835  1
  Zn  Zn148  1  0.05479309  0.06847415  0.80945214  1
  Zn  Zn149  1  0.05758088  0.56629526  0.31027190  1
  Zn  Zn150  1  0.06434091  0.56166498  0.80783529  1
  Zn  Zn151  1  0.56823053  0.06262813  0.31447659  1
  Zn  Zn152  1  0.56026402  0.06232195  0.80822960  1
  Zn  Zn153  1  0.56147162  0.56393126  0.31115162  1
  Zn  Zn154  1  0.55605745  0.56525166  0.81357531  1
  Zn  Zn155  1  0.43921174  0.18895489  0.43621202  1
  Zn  Zn156  1  0.43956876  0.18593471  0.93456677  1
  Zn  Zn157  1  0.43506036  0.69515202  0.44180554  1
  Zn  Zn158  1  0.43667373  0.68055623  0.93523884  1
  Zn  Zn159  1  0.93408160  0.19146159  0.44002642  1
  Zn  Zn160  1  0.94939676  0.16784748  0.90986284  1
  Zn  Zn161  1  0.93999709  0.69275108  0.43913090  1
  Zn  Zn162  1  0.93822100  0.68351995  0.93718375  1
  Zn  Zn163  1  0.06419402  0.31284826  0.06017891  1
  Zn  Zn164  1  0.07000738  0.31927859  0.55510256  1
  Zn  Zn165  1  0.06382426  0.81051082  0.05918091  1
  Zn  Zn166  1  0.05357478  0.81748773  0.55992795  1
  Zn  Zn167  1  0.56962439  0.30994820  0.06320396  1
  Zn  Zn168  1  0.56211356  0.30698629  0.56321996  1
  Zn  Zn169  1  0.56229683  0.81125849  0.06220242  1
  Zn  Zn170  1  0.55680756  0.80953273  0.56650962  1
  O  O171  1  0.11896578  0.11979361  0.11795027  1
  O  O172  1  0.12419026  0.12007377  0.61182089  1
  O  O173  1  0.11726177  0.61369627  0.11721905  1
  O  O174  1  0.10603705  0.61496639  0.63499341  1
  O  O175  1  0.61579831  0.11923002  0.12568403  1
  O  O176  1  0.61722761  0.11713057  0.61795126  1
  O  O177  1  0.61438917  0.61722952  0.12371132  1
  O  O178  1  0.62536905  0.62230862  0.61381747  1
  O  O179  1  0.38489864  0.36744251  0.38460186  1
  O  O180  1  0.38146116  0.39265293  0.87104631  1
  O  O181  1  0.38887692  0.87838860  0.37162862  1
  O  O182  1  0.37434528  0.89058739  0.88274541  1
  O  O183  1  0.88176679  0.38467279  0.37929357  1
  O  O184  1  0.87108376  0.38325130  0.88340460  1
  O  O185  1  0.88211709  0.87563638  0.38601211  1
  O  O186  1  0.88012989  0.88044721  0.88295621  1
  O  O187  1  0.25004667  0.00879076  0.36690246  1
  O  O188  1  0.25744752  0.00795208  0.87292643  1
  O  O189  1  0.25617983  0.51596597  0.42941361  1
  O  O190  1  0.25950878  0.49676152  0.86730057  1
  O  O191  1  0.74650812  0.00728654  0.36278098  1
  O  O192  1  0.75527408  -0.01534271  0.87284103  1
  O  O193  1  0.75913985  0.50392136  0.36600847  1
  O  O194  1  0.75561048  0.49885955  0.86620553  1
  O  O195  1  0.23814063  0.48616881  0.12257868  1
  O  O196  1  0.25012411  0.48898566  0.63583255  1
  O  O197  1  0.24285006  0.99728893  0.12996876  1
  O  O198  1  0.23503123  1.00232354  0.63681526  1
  O  O199  1  0.74635817  0.49848257  0.13019440  1
  O  O200  1  0.74474734  0.49452088  0.63112400  1
  O  O201  1  0.74473598  0.99341471  0.13252070  1
  O  O202  1  0.73483555  0.98388354  0.61708874  1
  O  O203  1  -0.00550632  0.37618293  0.26426746  1
  O  O204  1  0.01601875  0.38447745  0.74583546  1
  O  O205  1  0.00031627  0.87174215  0.25709193  1
  O  O206  1  -0.00724766  0.86866569  0.76730375  1
  O  O207  1  0.50666937  0.36827090  0.25401874  1
  O  O208  1  0.51178566  0.37453339  0.74368555  1
  O  O209  1  0.50543409  0.86786783  0.25392247  1
  O  O210  1  0.50717587  0.85872863  0.74424549  1
  O  O211  1  0.50042797  0.13116446  0.24504906  1
  O  O212  1  0.48877854  0.12474553  0.74128325  1
  O  O213  1  0.49642113  0.63096165  0.24032230  1
  O  O214  1  0.50237277  0.63545669  0.73670746  1
  O  O215  1  0.99096459  0.12124572  0.23717112  1
  O  O216  1  0.97391569  0.14200750  0.79778293  1
  O  O217  1  1.00020233  0.63504886  0.23932666  1
  O  O218  1  0.99384936  0.63354538  0.74565717  1
  O  O219  1  0.36187500  0.24459183  0.00192766  1
  O  O220  1  0.36508611  0.25347757  0.49888820  1
  O  O221  1  0.37018338  0.75082647  0.00403551  1
  O  O222  1  0.37236952  0.77321185  0.49553205  1
  O  O223  1  0.87114733  0.25508076  0.00082237  1
  O  O224  1  0.87865776  0.26753385  0.50743608  1
  O  O225  1  0.86718234  0.75376847  0.00519846  1
  O  O226  1  0.87198565  0.76278564  0.50824655  1
  O  O227  1  0.13596500  0.24266136  0.49421435  1
  O  O228  1  0.13620197  0.24521702  0.99646505  1
  O  O229  1  0.12118007  0.76117623  0.48614344  1
  O  O230  1  0.13405658  0.73836252  1.00140502  1
  O  O231  1  0.62562255  0.23483988  0.49836565  1
  O  O232  1  0.63466058  0.24954778  0.98926214  1
  O  O233  1  0.62939736  0.74595343  0.49672334  1
  O  O234  1  0.63059772  0.74892508  0.99192047  1
  O  O235  1  0.50256912  0.24336706  0.13290972  1
  O  O236  1  0.50299799  0.23364363  0.63005413  1
  O  O237  1  0.49421140  0.74097337  0.12885806  1
  O  O238  1  0.49932760  0.73718385  0.63622074  1
  O  O239  1  0.99056563  0.24257750  0.12146421  1
  O  O240  1  0.99517080  0.26468629  0.62328514  1
  O  O241  1  0.99869799  0.74203628  0.13113687  1
  O  O242  1  0.99328353  0.74599130  0.63077823  1
  O  O243  1  -0.00372950  0.26788051  0.37609287  1
  O  O244  1  0.01713986  0.26229337  0.89650846  1
  O  O245  1  0.00284579  0.76298803  0.36904227  1
  O  O246  1  -0.00270603  0.75628085  0.86865346  1
  O  O247  1  0.50585366  0.25610316  0.36244398  1
  O  O248  1  0.50861674  0.25329262  0.87104260  1
  O  O249  1  0.50643446  0.76196698  0.37048661  1
  O  O250  1  0.50655040  0.74134577  0.86211192  1
  O  O251  1  0.24553001  0.12607844  0.49523798  1
  O  O252  1  0.24280132  0.13894915  1.00374106  1
  O  O253  1  0.23950812  0.64193318  0.53338921  1
  O  O254  1  0.24172447  0.63128741  1.00767557  1
  O  O255  1  0.74553296  0.11708857  0.49084790  1
  O  O256  1  0.74539922  0.13883816  1.00891087  1
  O  O257  1  0.74303772  0.63295131  0.49795163  1
  O  O258  1  0.74683114  0.63583696  1.00182249  1
  O  O259  1  0.24621474  0.36291546  0.00982969  1
  O  O260  1  0.25838510  0.36068197  0.50886726  1
  O  O261  1  0.25769995  0.86781455  0.00548878  1
  O  O262  1  0.26080683  0.87839736  0.49965650  1
  O  O263  1  0.75952479  0.36397816  0.00181237  1
  O  O264  1  0.75863579  0.38451883  0.50538088  1
  O  O265  1  0.75443714  0.86060472  0.00828657  1
  O  O266  1  0.75502897  0.87138103  0.50360544  1
  O  O267  1  0.12191875  0.50452891  0.23633065  1
  O  O268  1  0.13818016  0.48940457  0.75357417  1
  O  O269  1  0.13669506  1.00154415  0.24079145  1
  O  O270  1  0.12840600  1.01352644  0.74298163  1
  O  O271  1  0.63175731  0.49350331  0.24469496  1
  O  O272  1  0.62994028  0.49472045  0.74679706  1
  O  O273  1  0.63376899  0.99417867  0.24407570  1
  O  O274  1  0.61679395  0.98402335  0.74411404  1
  O  O275  1  0.36363335  0.00566542  0.24769697  1
  O  O276  1  0.36721294  0.00606635  0.75808308  1
  O  O277  1  0.37577399  0.51629939  0.25167079  1
  O  O278  1  0.36095370  0.49627483  0.75667148  1
  O  O279  1  0.86602645  0.00992248  0.24236830  1
  O  O280  1  0.87577711  0.00011188  0.76770639  1
  O  O281  1  0.86638323  0.49628705  0.25632471  1
  O  O282  1  0.86631732  0.49721357  0.75691201  1
  O  O283  1  0.11048847  0.37369693  0.37885546  1
  O  O284  1  0.13159036  0.36370263  0.86831222  1
  O  O285  1  0.11412684  0.87009956  0.37162073  1
  O  O286  1  0.10959360  0.87193491  0.88557806  1
  O  O287  1  0.62135331  0.37349322  0.36447463  1
  O  O288  1  0.62143481  0.36585909  0.86443865  1
  O  O289  1  0.61567991  0.87261622  0.37203379  1
  O  O290  1  0.62512010  0.86037408  0.86743734  1
  O  O291  1  0.38982439  0.12582678  0.13006762  1
  O  O292  1  0.38157755  0.11608722  0.63370525  1
  O  O293  1  0.38046984  0.62876168  0.13247862  1
  O  O294  1  0.38514550  0.61597380  0.61772441  1
  O  O295  1  0.88240492  0.12893117  0.12742941  1
  O  O296  1  0.89019098  0.15010550  0.61016219  1
  O  O297  1  0.89020724  0.62878164  0.11746052  1
  O  O298  1  0.88161202  0.63433115  0.62654910  1
  O  O299  1  0.25099217  0.26215649  0.11801420  1
  O  O300  1  0.24465730  0.25307943  0.61818958  1
  O  O301  1  0.25290296  0.75494432  0.11681168  1
  O  O302  1  0.24589145  0.76466432  0.63681372  1
  O  O303  1  0.76342331  0.25079969  0.11935201  1
  O  O304  1  0.74877928  0.26539573  0.62127591  1
  O  O305  1  0.75508000  0.75318023  0.12123322  1
  O  O306  1  0.75422807  0.75929384  0.61913550  1
  O  O307  1  0.25220736  0.23589797  0.38259326  1
  O  O308  1  0.24528561  0.25116569  0.88909006  1
  O  O309  1  0.23050383  0.75847993  0.37488535  1
  O  O310  1  0.24822369  0.75412994  0.88845076  1
  O  O311  1  0.75158228  0.23610969  0.36816879  1
  O  O312  1  0.74291087  0.25416761  0.88008750  1
  O  O313  1  0.74351811  0.74914506  0.38035828  1
  O  O314  1  0.74391521  0.74740192  0.88329639  1
  O  O315  1  0.00950032  0.12701491  0.00952079  1
  O  O316  1  0.00729415  0.11551368  0.48784744  1
  O  O317  1  0.00659083  0.61381667  0.00668220  1
  O  O318  1  -0.00696409  0.61840590  0.50913306  1
  O  O319  1  0.50446651  0.11755516  0.00776320  1
  O  O320  1  0.50589814  0.12628655  0.50590842  1
  O  O321  1  0.49969720  0.61654547  0.01316487  1
  O  O322  1  0.50578858  0.62876118  0.51163054  1
  O  O323  1  0.49551466  0.36675287  0.48991564  1
  O  O324  1  0.50197206  0.38457303  1.00534563  1
  O  O325  1  0.49502298  0.87300270  0.48896750  1
  O  O326  1  0.49235285  0.88561290  1.00802590  1
  O  O327  1  0.99290478  0.38541875  0.48938493  1
  O  O328  1  0.99293177  0.38731848  1.00517737  1
  O  O329  1  0.98971528  0.88977025  0.49319347  1
  O  O330  1  0.98933113  0.86440340  0.98824051  1
  O  O331  1  0.50616874  0.48504507  0.37502537  1
  O  O332  1  0.49606838  0.49659146  0.88580435  1
  O  O333  1  0.50098157  0.98445572  0.36668416  1
  O  O334  1  0.49427302  1.00515221  0.88755804  1
  O  O335  1  0.99429173  0.49379773  0.37793835  1
  O  O336  1  0.99134599  0.50362702  0.88266120  1
  O  O337  1  1.00477316  0.99182103  0.38005335  1
  O  O338  1  0.99560892  0.98556924  0.87874519  1
  O  O339  1  0.01370076  0.00524968  0.12580292  1
  O  O340  1  0.00151899  0.00382393  0.61745833  1
  O  O341  1  0.00941203  0.50375759  0.11954059  1
  O  O342  1  -0.00536664  0.50750311  0.61455881  1
  O  O343  1  0.50556189  0.00630121  0.11838788  1
  O  O344  1  0.50985819  0.00941335  0.62918756  1
  O  O345  1  0.50312940  0.50488678  0.12090145  1
  O  O346  1  0.50860681  0.51444842  0.62751032  1
  O  O347  1  0.24827422  0.36755004  0.24158636  1
  O  O348  1  0.24331718  0.37640658  0.74488803  1
  O  O349  1  0.24888542  0.88374552  0.24299316  1
  O  O350  1  0.24374670  0.89326229  0.76525313  1
  O  O351  1  0.74419897  0.38387756  0.24847764  1
  O  O352  1  0.73869525  0.38496248  0.74074628  1
  O  O353  1  0.74680710  0.88161554  0.24768229  1
  O  O354  1  0.73734416  0.86587978  0.73992440  1
  O  O355  1  0.25580589  0.11954671  0.25605840  1
  O  O356  1  0.25590683  0.11689916  0.75273214  1
  O  O357  1  0.26149595  0.63053173  0.25021844  1
  O  O358  1  0.24417343  0.60666080  0.74733009  1
  O  O359  1  0.75893041  0.11772956  0.25540871  1
  O  O360  1  0.76990220  0.11352022  0.70609273  1
  O  O361  1  0.74457922  0.61279045  0.25171937  1
  O  O362  1  0.75067183  0.61239085  0.74829389  1
  O  O363  1  0.36969380  0.12121285  0.36818056  1
  O  O364  1  0.37448252  0.11472205  0.86828393  1
  O  O365  1  0.38117283  0.63356507  0.36230614  1
  O  O366  1  0.38311169  0.60283915  0.87116677  1
  O  O367  1  0.87073872  0.12916062  0.36398902  1
  O  O368  1  0.85970756  0.09693052  0.89961783  1
  O  O369  1  0.87676310  0.61340915  0.37902420  1
  O  O370  1  0.86953503  0.61122751  0.87475922  1
  O  O371  1  0.13094281  0.38627926  0.12453350  1
  O  O372  1  0.13707325  0.37597783  0.63209209  1
  O  O373  1  0.12989397  0.88399064  0.12285137  1
  O  O374  1  0.10929393  0.89278910  0.62734614  1
  O  O375  1  0.62836445  0.38031150  0.13658739  1
  O  O376  1  0.62947448  0.38157278  0.62749095  1
  O  O377  1  0.63142193  0.87780571  0.13260295  1
  O  O378  1  0.62683390  0.87982987  0.62935968  1
  O  O379  1  0.11666767  0.23815096  0.25818480  1
  O  O380  1  0.12658635  0.25441652  0.76755239  1
  O  O381  1  0.11255748  0.75451432  0.25509658  1
  O  O382  1  0.10871272  0.75403545  0.75353963  1
  O  O383  1  0.62142770  0.25835861  0.24955179  1
  O  O384  1  0.62582209  0.25797674  0.75453262  1
  O  O385  1  0.61872127  0.75519135  0.25610305  1
  O  O386  1  0.61795857  0.75627171  0.75610256  1
  O  O387  1  0.38708759  0.24273871  0.24527470  1
  O  O388  1  0.37174184  0.23585269  0.75880443  1
  O  O389  1  0.38045895  0.74543265  0.24294301  1
  O  O390  1  0.38843585  0.75324750  0.75775250  1
  O  O391  1  0.87987603  0.24151399  0.23829993  1
  O  O392  1  0.87177745  0.25869430  0.72876147  1
  O  O393  1  0.88819801  0.75483669  0.24390318  1
  O  O394  1  0.88167547  0.75078112  0.74195200  1
  O  O395  1  0.39073005  0.47618110  0.51307229  1
  O  O396  1  0.38041492  0.50149164  0.99143550  1
  O  O397  1  0.37466917  0.98565808  0.49645749  1
  O  O398  1  0.38142110  0.99751583  0.99499221  1
  O  O399  1  0.88140696  0.49314113  0.49091352  1
  O  O400  1  0.88147488  0.49156871  0.99281484  1
  O  O401  1  0.87794490  0.99302265  0.50983298  1
  O  O402  1  0.86565567  0.97928046  0.99801166  1
  O  O403  1  0.13518131  0.01431502  0.00744435  1
  O  O404  1  0.11535362  0.00701874  0.50862635  1
  O  O405  1  0.11939126  0.50265858  0.00488034  1
  O  O406  1  0.10897346  0.49928069  0.50090312  1
  O  O407  1  0.61823744  -0.00127875  0.00498444  1
  O  O408  1  0.62385152  0.01141913  0.50831596  1
  O  O409  1  0.61818035  0.49871317  0.00602827  1
  O  O410  1  0.62224159  0.50989468  0.50428552  1
  O  O411  1  0.35899777  0.37623542  0.13073781  1
  O  O412  1  0.36470064  0.36931669  0.62243755  1
  O  O413  1  0.36936881  0.86753643  0.11949116  1
  O  O414  1  0.37875005  0.88254373  0.61579600  1
  O  O415  1  0.87629931  0.36620217  0.11316107  1
  O  O416  1  0.86681586  0.37255632  0.61437329  1
  O  O417  1  0.87227116  0.86651329  0.11860856  1
  O  O418  1  0.86546558  0.87263539  0.62134033  1
  O  O419  1  0.13484728  0.12204749  0.38703672  1
  O  O420  1  0.12696948  0.13803951  0.88477622  1
  O  O421  1  0.11143877  0.64661775  0.37387529  1
  O  O422  1  0.11914215  0.62648696  0.88880319  1
  O  O423  1  0.63494982  0.12610711  0.38277582  1
  O  O424  1  0.62341998  0.13682570  0.87068337  1
  O  O425  1  0.62240752  0.63126189  0.38727635  1
  O  O426  1  0.62746208  0.63518792  0.87629896  1
