# generated using pymatgen
data_V85Zn86O256
_symmetry_space_group_name_H-M   'P 1'
_cell_length_a   16.92117743
_cell_length_b   16.92288390
_cell_length_c   16.93283449
_cell_angle_alpha   89.95575748
_cell_angle_beta   90.04800025
_cell_angle_gamma   89.90251238
_symmetry_Int_Tables_number   1
_chemical_formula_structural   V85Zn86O256
_chemical_formula_sum   'V85 Zn86 O256'
_cell_volume   4848.79370193
_cell_formula_units_Z   1
loop_
 _symmetry_equiv_pos_site_id
 _symmetry_equiv_pos_as_xyz
  1  'x, y, z'
loop_
 _atom_site_type_symbol
 _atom_site_label
 _atom_site_symmetry_multiplicity
 _atom_site_fract_x
 _atom_site_fract_y
 _atom_site_fract_z
 _atom_site_occupancy
  V  V0  1  0.23810687  0.23549412  0.48869400  1
  V  V1  1  0.62322774  0.63252406  0.49942407  1
  V  V2  1  0.25226385  0.37471693  0.62384599  1
  V  V3  1  0.50298349  0.37596967  0.37593177  1
  V  V4  1  0.49921911  0.37719923  0.87502338  1
  V  V5  1  0.36707937  0.50152029  0.87072336  1
  V  V6  1  0.75902304  0.37330648  0.62481429  1
  V  V7  1  0.37274714  0.87461754  0.50202188  1
  V  V8  1  0.12909260  0.50007605  0.62587029  1
  V  V9  1  0.86829336  0.85868401  0.00364800  1
  V  V10  1  0.62843742  0.87490142  0.73836910  1
  V  V11  1  0.87017031  0.12598104  0.74947147  1
  V  V12  1  0.25227310  0.25019402  0.00148350  1
  V  V13  1  0.12614779  0.50135924  0.12160427  1
  V  V14  1  0.37566247  0.86949882  0.00976351  1
  V  V15  1  0.63044435  0.24202781  0.37676214  1
  V  V16  1  0.00237617  0.12362233  0.63008344  1
  V  V17  1  0.62571350  0.63595952  -0.00072437  1
  V  V18  1  0.37514747  0.62478878  0.73777666  1
  V  V19  1  0.49387782  0.88104486  0.37569536  1
  V  V20  1  0.50040041  0.00083609  0.50549888  1
  V  V21  1  0.49818680  0.74502810  0.74000591  1
  V  V22  1  0.62477494  0.12444152  0.00082075  1
  V  V23  1  -0.00185124  0.87039033  0.37621828  1
  V  V24  1  0.75191739  0.63431963  0.38175201  1
  V  V25  1  0.37144918  0.37755884  0.00059867  1
  V  V26  1  0.75304430  0.50158119  0.25151952  1
  V  V27  1  0.87031661  0.61236974  0.75164318  1
  V  V28  1  0.62500456  0.25024094  0.87623958  1
  V  V29  1  0.87183156  0.00574106  0.37263255  1
  V  V30  1  0.49253309  0.63011206  0.12488269  1
  V  V31  1  0.76046054  0.37232621  0.12476153  1
  V  V32  1  0.49427609  0.12547694  0.12662149  1
  V  V33  1  0.75667056  0.61895155  0.88132200  1
  V  V34  1  0.12325736  0.12388389  0.00152258  1
  V  V35  1  0.74942785  0.00456410  0.24999283  1
  V  V36  1  0.63083717  0.38018590  0.74941954  1
  V  V37  1  0.25096318  0.00379710  0.26201419  1
  V  V38  1  0.12475024  0.24879711  0.87181070  1
  V  V39  1  0.00275852  0.87521229  0.87350398  1
  V  V40  1  0.50056471  -0.00287813  -0.00004532  1
  V  V41  1  0.63114591  0.12097361  0.50864448  1
  V  V42  1  0.36936731  0.63178322  0.25092543  1
  V  V43  1  0.62592903  -0.00296584  0.12585800  1
  V  V44  1  0.87322625  0.88012831  0.50548376  1
  V  V45  1  0.62575768  0.87315167  0.25770841  1
  V  V46  1  0.00468235  0.75269461  0.74937582  1
  V  V47  1  0.12222112  -0.00441681  0.62776918  1
  V  V48  1  0.37089851  0.12444601  0.26680220  1
  V  V49  1  0.01807286  0.02963366  0.47545822  1
  V  V50  1  0.37554097  0.37281336  0.49957281  1
  V  V51  1  0.13175012  0.37313816  0.74687468  1
  V  V52  1  0.62511597  0.37571813  0.25098799  1
  V  V53  1  0.00304260  0.25307981  0.24244272  1
  V  V54  1  0.24996338  0.86703232  0.62651106  1
  V  V55  1  0.01015343  0.63354789  0.12294253  1
  V  V56  1  0.87633884  0.50481046  0.37476636  1
  V  V57  1  0.00054722  0.37291503  0.37471114  1
  V  V58  1  0.86956021  -0.00329962  0.87766525  1
  V  V59  1  0.37722920  -0.00508309  0.87446294  1
  V  V60  1  0.13248511  0.74393146  0.37848633  1
  V  V61  1  0.76195325  0.24595435  0.49906794  1
  V  V62  1  0.50092301  0.24811463  0.74819794  1
  V  V63  1  0.74712360  -0.00592267  0.73573142  1
  V  V64  1  0.86728210  0.75447732  0.62751293  1
  V  V65  1  -0.00729342  0.12771074  0.12131287  1
  V  V66  1  0.00188850  0.62516956  0.62254175  1
  V  V67  1  0.24646969  -0.00736881  0.74920681  1
  V  V68  1  0.63003285  0.50479155  0.62704789  1
  V  V69  1  0.12842123  0.75276829  0.87776223  1
  V  V70  1  0.24779377  0.50442712  0.25632504  1
  V  V71  1  0.37532990  0.24363418  0.62278666  1
  V  V72  1  0.24980648  0.62669601  0.87442587  1
  V  V73  1  0.49788261  0.75052868  0.25820270  1
  V  V74  1  0.37299470  0.50622943  0.37686921  1
  V  V75  1  0.62313946  0.49826905  0.12246036  1
  V  V76  1  0.75767809  0.24961100  0.00224098  1
  V  V77  1  0.82759547  0.68386778  0.19394349  1
  V  V78  1  0.50097635  0.50453797  0.50821947  1
  V  V79  1  0.25170786  0.12061460  0.87404282  1
  V  V80  1  -0.00486361  0.25076290  0.74723224  1
  V  V81  1  0.12829804  0.37165056  0.25437337  1
  V  V82  1  0.25152995  0.74607738  0.00939555  1
  V  V83  1  0.12346779  0.87659300  0.24756493  1
  V  V84  1  0.86913694  0.13442908  0.24710552  1
  Zn  Zn85  1  0.25252332  0.87626243  0.12888591  1
  Zn  Zn86  1  0.87808494  0.37942169  -0.01211422  1
  Zn  Zn87  1  0.50544641  0.86935449  0.87510732  1
  Zn  Zn88  1  0.50555050  0.11677882  0.62953443  1
  Zn  Zn89  1  0.74621828  0.12126929  0.87472800  1
  Zn  Zn90  1  -0.00582316  0.38776648  0.87240610  1
  Zn  Zn91  1  0.37611593  0.25163755  0.12745492  1
  Zn  Zn92  1  -0.00252199  0.74772483  0.24830474  1
  Zn  Zn93  1  0.74283981  0.76194879  0.50324834  1
  Zn  Zn94  1  0.26041565  0.74050539  0.50230058  1
  Zn  Zn95  1  -0.00706412  0.50379648  -0.00555507  1
  Zn  Zn96  1  0.25146243  0.37611428  0.12681661  1
  Zn  Zn97  1  0.13193434  0.61943475  0.49375468  1
  Zn  Zn98  1  0.37749956  0.12034731  0.74928840  1
  Zn  Zn99  1  0.62781253  0.75081705  0.87393175  1
  Zn  Zn100  1  0.00066742  0.49716551  0.50021204  1
  Zn  Zn101  1  0.49776465  0.50348557  -0.00092863  1
  Zn  Zn102  1  0.12606169  0.00160194  0.12579054  1
  Zn  Zn103  1  -0.00247927  -0.00186895  0.00097586  1
  Zn  Zn104  1  0.75313837  0.86375041  0.12503010  1
  Zn  Zn105  1  0.87857144  0.37219625  0.50242559  1
  Zn  Zn106  1  0.49874331  0.25053709  0.25045340  1
  Zn  Zn107  1  0.18767497  0.18759961  0.18746579  1
  Zn  Zn108  1  0.18975722  0.18205773  0.68296217  1
  Zn  Zn109  1  0.18631177  0.68923420  0.19230703  1
  Zn  Zn110  1  0.18748159  0.68651156  0.69123626  1
  Zn  Zn111  1  0.68416689  0.18913892  0.18635215  1
  Zn  Zn112  1  0.69152227  0.19015352  0.68548171  1
  Zn  Zn113  1  0.66651719  0.68558266  0.19256181  1
  Zn  Zn114  1  0.68802916  0.68605176  0.68992110  1
  Zn  Zn115  1  0.31305101  0.31136187  0.31429312  1
  Zn  Zn116  1  0.31263319  0.31063690  0.81285059  1
  Zn  Zn117  1  0.31185812  0.81632100  0.31437965  1
  Zn  Zn118  1  0.31706825  0.81135595  0.81281044  1
  Zn  Zn119  1  0.81356572  0.31445803  0.31488472  1
  Zn  Zn120  1  0.81095761  0.31197325  0.81381477  1
  Zn  Zn121  1  0.80730297  0.82030251  0.32061244  1
  Zn  Zn122  1  0.81005218  0.80658804  0.81463486  1
  Zn  Zn123  1  0.18798691  0.43383674  0.43941245  1
  Zn  Zn124  1  0.16087443  0.45758380  0.91802450  1
  Zn  Zn125  1  0.18742430  0.93519809  0.43794835  1
  Zn  Zn126  1  0.18803322  0.93400597  0.93900103  1
  Zn  Zn127  1  0.69062605  0.43932278  0.44078914  1
  Zn  Zn128  1  0.69257347  0.44206109  0.93770582  1
  Zn  Zn129  1  0.68721031  0.94156233  0.43628461  1
  Zn  Zn130  1  0.68869351  0.93137381  0.93386736  1
  Zn  Zn131  1  0.31006138  0.05785989  0.06685767  1
  Zn  Zn132  1  0.31474736  0.05776697  0.55943116  1
  Zn  Zn133  1  0.30887004  0.56208759  0.06330610  1
  Zn  Zn134  1  0.30827942  0.56165966  0.56062875  1
  Zn  Zn135  1  0.81181103  0.05950162  0.06295330  1
  Zn  Zn136  1  0.81882991  0.06547672  0.56021515  1
  Zn  Zn137  1  0.81181921  0.55581251  0.05628295  1
  Zn  Zn138  1  0.81307423  0.56067036  0.56232022  1
  Zn  Zn139  1  0.43604571  0.44039358  0.18789212  1
  Zn  Zn140  1  0.43804265  0.43797830  0.68898549  1
  Zn  Zn141  1  0.43497136  0.94205329  0.19036684  1
  Zn  Zn142  1  0.43800238  0.93139436  0.68615323  1
  Zn  Zn143  1  0.93880353  0.44558730  0.18618903  1
  Zn  Zn144  1  0.94267343  0.43565419  0.68805239  1
  Zn  Zn145  1  0.93859196  0.93838814  0.18407970  1
  Zn  Zn146  1  0.93691981  0.93874213  0.69002007  1
  Zn  Zn147  1  0.06061032  0.06343660  0.30707106  1
  Zn  Zn148  1  0.06271203  0.05880145  0.81218743  1
  Zn  Zn149  1  0.05576804  0.56460562  0.30511595  1
  Zn  Zn150  1  0.06575040  0.56571743  0.80623625  1
  Zn  Zn151  1  0.55929603  0.06182091  0.31608146  1
  Zn  Zn152  1  0.56541239  0.05835723  0.81194461  1
  Zn  Zn153  1  0.56343577  0.56389942  0.31656179  1
  Zn  Zn154  1  0.56035914  0.56371855  0.81464820  1
  Zn  Zn155  1  0.44268471  0.18843428  0.44163976  1
  Zn  Zn156  1  0.43760117  0.18557346  0.93719429  1
  Zn  Zn157  1  0.43822621  0.68934864  0.43906568  1
  Zn  Zn158  1  0.43861399  0.69012896  0.93258297  1
  Zn  Zn159  1  0.95301504  0.18463482  0.42839317  1
  Zn  Zn160  1  0.93625702  0.19048066  0.93174433  1
  Zn  Zn161  1  0.93708794  0.68942718  0.44098948  1
  Zn  Zn162  1  0.93984618  0.68233209  0.93769475  1
  Zn  Zn163  1  0.06120391  0.31718442  0.06267212  1
  Zn  Zn164  1  0.06275886  0.30807600  0.56130392  1
  Zn  Zn165  1  0.06316228  0.81244440  0.05805323  1
  Zn  Zn166  1  0.06020451  0.81717017  0.56049610  1
  Zn  Zn167  1  0.56190927  0.31246027  0.06213073  1
  Zn  Zn168  1  0.56734506  0.31180998  0.56288236  1
  Zn  Zn169  1  0.55950240  0.81224985  0.06942552  1
  Zn  Zn170  1  0.55815099  0.81272692  0.56422989  1
  O  O171  1  0.11460638  0.12786090  0.11589469  1
  O  O172  1  0.11513256  0.11121950  0.62992144  1
  O  O173  1  0.11674876  0.61925591  0.13075186  1
  O  O174  1  0.11909020  0.61565656  0.62921045  1
  O  O175  1  0.61331794  0.11827734  0.12210273  1
  O  O176  1  0.62314512  0.13099783  0.61287200  1
  O  O177  1  0.61641601  0.61618466  0.11874488  1
  O  O178  1  0.63185014  0.61225756  0.61881715  1
  O  O179  1  0.38429424  0.38449721  0.37771111  1
  O  O180  1  0.37682557  0.38246731  0.87873746  1
  O  O181  1  0.38683274  0.87600779  0.37901000  1
  O  O182  1  0.37676695  0.88463579  0.88446891  1
  O  O183  1  0.88309970  0.38447250  0.37591461  1
  O  O184  1  0.88245890  0.37066904  0.87118098  1
  O  O185  1  0.88086116  0.88497724  0.38031310  1
  O  O186  1  0.87760759  0.87829658  0.88370993  1
  O  O187  1  0.24265424  0.00079077  0.36239670  1
  O  O188  1  0.25581580  0.00033188  0.86837599  1
  O  O189  1  0.25953552  0.49384257  0.36637157  1
  O  O190  1  0.25845654  0.50887931  0.87623551  1
  O  O191  1  0.75808438  -0.00228761  0.36023809  1
  O  O192  1  0.75681991  0.00087497  0.86746167  1
  O  O193  1  0.75602480  0.50959206  0.37054596  1
  O  O194  1  0.74057762  0.51916393  0.86807560  1
  O  O195  1  0.24689306  0.49951754  0.14121409  1
  O  O196  1  0.24582983  0.48270680  0.62165962  1
  O  O197  1  0.24415292  0.99761201  0.13739691  1
  O  O198  1  0.24325732  0.99415904  0.63168989  1
  O  O199  1  0.74053261  0.49523630  0.13157201  1
  O  O200  1  0.74060224  0.48875977  0.61969775  1
  O  O201  1  0.74392697  0.99709668  0.13558995  1
  O  O202  1  0.75931703  1.00006115  0.63710545  1
  O  O203  1  0.00626851  0.37061154  0.25140380  1
  O  O204  1  0.01405035  0.36601770  0.74909184  1
  O  O205  1  0.00584034  0.87327394  0.25599678  1
  O  O206  1  -0.00811323  0.86637941  0.76432575  1
  O  O207  1  0.50558625  0.37597314  0.25868497  1
  O  O208  1  0.50752349  0.36507929  0.75428985  1
  O  O209  1  0.50229102  0.87126761  0.25588808  1
  O  O210  1  0.50872422  0.86520858  0.75077903  1
  O  O211  1  0.48882785  0.12423720  0.24423713  1
  O  O212  1  0.50096945  0.13540548  0.74935280  1
  O  O213  1  0.49481169  0.63221635  0.24763588  1
  O  O214  1  0.49031181  0.63498586  0.75269480  1
  O  O215  1  0.99387645  0.13424850  0.23952766  1
  O  O216  1  0.99335807  0.12899760  0.74645612  1
  O  O217  1  0.99343232  0.62827476  0.23206852  1
  O  O218  1  0.99350520  0.63176798  0.74203665  1
  O  O219  1  0.36771695  0.25590883  -0.00114737  1
  O  O220  1  0.37452774  0.25536761  0.50865889  1
  O  O221  1  0.36624851  0.75950694  -0.00637556  1
  O  O222  1  0.37641161  0.76640267  0.49504855  1
  O  O223  1  0.86040225  0.24969438  -0.00373849  1
  O  O224  1  0.86426910  0.24806267  0.48770539  1
  O  O225  1  0.87524512  0.76051276  -0.00429482  1
  O  O226  1  0.87614394  0.76190907  0.51022138  1
  O  O227  1  0.13889091  0.24880903  0.50176463  1
  O  O228  1  0.13152869  0.24210795  0.99232009  1
  O  O229  1  0.12219013  0.75292264  0.48464955  1
  O  O230  1  0.13480841  0.75345472  0.98619952  1
  O  O231  1  0.63280754  0.24303690  0.49344569  1
  O  O232  1  0.62888392  0.24450404  0.99400223  1
  O  O233  1  0.62508887  0.73749097  0.50753745  1
  O  O234  1  0.62270483  0.73875234  1.00453601  1
  O  O235  1  0.49964052  0.24013505  0.12834893  1
  O  O236  1  0.49302806  0.25119468  0.63266454  1
  O  O237  1  0.50232074  0.73745846  0.13899096  1
  O  O238  1  0.49799985  0.75033307  0.64022416  1
  O  O239  1  1.00114596  0.24523609  0.13442765  1
  O  O240  1  1.00660378  0.24193815  0.63951288  1
  O  O241  1  1.00613222  0.73863697  0.12610146  1
  O  O242  1  0.99718279  0.74476678  0.63234891  1
  O  O243  1  -0.00471207  0.26607675  0.35873478  1
  O  O244  1  0.01135386  0.24714354  0.86234253  1
  O  O245  1  0.00367122  0.75959909  0.37373611  1
  O  O246  1  0.00804822  0.75280098  0.87053211  1
  O  O247  1  0.50810869  0.26311180  0.37677075  1
  O  O248  1  0.50398462  0.25588818  0.86810375  1
  O  O249  1  0.49784125  0.75867817  0.36425909  1
  O  O250  1  0.50550300  0.75083048  0.86267414  1
  O  O251  1  0.25413391  0.13661300  0.50387840  1
  O  O252  1  0.24367907  0.12975816  0.99547710  1
  O  O253  1  0.24481476  0.62887194  0.50142028  1
  O  O254  1  0.25859881  0.63530912  0.98924739  1
  O  O255  1  0.74485280  0.13235343  0.50262615  1
  O  O256  1  0.74156505  0.13179602  1.00254110  1
  O  O257  1  0.74295914  0.62726176  0.49476344  1
  O  O258  1  0.74240588  0.62297284  0.98976225  1
  O  O259  1  0.26174394  0.36657572  -0.00167923  1
  O  O260  1  0.25790545  0.36596503  0.50657202  1
  O  O261  1  0.25801675  0.86737092  0.00355727  1
  O  O262  1  0.25696387  0.87471786  0.50768936  1
  O  O263  1  0.74720615  0.36725522  0.00836928  1
  O  O264  1  0.75263983  0.36651637  0.50775985  1
  O  O265  1  0.76284950  0.87396542  0.00372385  1
  O  O266  1  0.76636007  0.87868228  0.49279066  1
  O  O267  1  0.13269771  0.49603489  0.24626630  1
  O  O268  1  0.12545855  0.48749926  0.73554543  1
  O  O269  1  0.12971155  0.99469203  0.24967790  1
  O  O270  1  0.13549061  0.99990628  0.74374649  1
  O  O271  1  0.63090799  0.49797596  0.24245600  1
  O  O272  1  0.61449628  0.49041206  0.74046738  1
  O  O273  1  0.63078197  0.99662739  0.24675030  1
  O  O274  1  0.63171124  0.98579404  0.75117795  1
  O  O275  1  0.36753692  0.01543317  0.24890147  1
  O  O276  1  0.37131068  -0.00092383  0.75894730  1
  O  O277  1  0.36884997  0.50797725  0.25827434  1
  O  O278  1  0.38114514  0.51262598  0.75779234  1
  O  O279  1  0.86790515  0.00749290  0.25230534  1
  O  O280  1  0.86715501  0.00155299  0.76120987  1
  O  O281  1  0.86688465  0.49705647  0.26280255  1
  O  O282  1  0.88472829  0.51449665  0.74906613  1
  O  O283  1  0.11653522  0.38299348  0.36217446  1
  O  O284  1  0.13576383  0.35735698  0.86370098  1
  O  O285  1  0.11625354  0.86909436  0.36707316  1
  O  O286  1  0.11477551  0.86783480  0.87787212  1
  O  O287  1  0.61899037  0.37254601  0.37229851  1
  O  O288  1  0.62090665  0.37262515  0.86801523  1
  O  O289  1  0.61587244  0.88041834  0.36383757  1
  O  O290  1  0.62391766  0.86971010  0.86381628  1
  O  O291  1  0.38638092  0.12557339  0.12537396  1
  O  O292  1  0.37897236  0.13456872  0.62695077  1
  O  O293  1  0.38316498  0.61772335  0.13682607  1
  O  O294  1  0.37370303  0.61688126  0.63928030  1
  O  O295  1  0.88507988  0.12182814  0.13068034  1
  O  O296  1  0.88159004  0.11569523  0.64476149  1
  O  O297  1  0.87940566  0.62614891  0.12743405  1
  O  O298  1  0.88200160  0.63014511  0.63364465  1
  O  O299  1  0.25125050  0.25095955  0.11125996  1
  O  O300  1  0.25843514  0.25546889  0.61881990  1
  O  O301  1  0.24394896  0.75136753  0.11291492  1
  O  O302  1  0.24030271  0.76413245  0.62478503  1
  O  O303  1  0.74024601  0.26123700  0.11524342  1
  O  O304  1  0.74680393  0.26033010  0.61229892  1
  O  O305  1  0.75928926  0.73942492  0.14102496  1
  O  O306  1  0.76449168  0.74662883  0.62461658  1
  O  O307  1  0.25399426  0.25111254  0.38995879  1
  O  O308  1  0.24706637  0.24089413  0.88342832  1
  O  O309  1  0.23478868  0.75593706  0.37749420  1
  O  O310  1  0.24511336  0.74733694  0.87991563  1
  O  O311  1  0.73879272  0.25804305  0.38377516  1
  O  O312  1  0.73954400  0.24588971  0.88332936  1
  O  O313  1  0.75325424  0.73864784  0.38021407  1
  O  O314  1  0.74404907  0.72746768  0.86522079  1
  O  O315  1  0.00569375  0.12810195  0.00457547  1
  O  O316  1  -0.02424978  0.12447919  0.52746146  1
  O  O317  1  -0.00336781  0.62285149  0.01692759  1
  O  O318  1  0.00449667  0.62554462  0.51411758  1
  O  O319  1  0.50486565  0.11866774  0.00753910  1
  O  O320  1  0.50893910  0.11731488  0.50307834  1
  O  O321  1  0.50397713  0.62533423  0.00913649  1
  O  O322  1  0.50825051  0.61521638  0.49399633  1
  O  O323  1  0.49642215  0.38091805  0.49400660  1
  O  O324  1  0.48783315  0.37515682  0.99354952  1
  O  O325  1  0.49718628  0.88044498  0.49346303  1
  O  O326  1  0.49385003  0.87893744  1.00003698  1
  O  O327  1  0.99868399  0.37269871  0.48986388  1
  O  O328  1  0.99967481  0.37884651  0.99427685  1
  O  O329  1  0.99093528  0.88370432  0.49013346  1
  O  O330  1  0.98989800  0.87569597  0.98979473  1
  O  O331  1  0.49591208  0.49139562  0.38310335  1
  O  O332  1  0.48774238  0.49423339  0.87766050  1
  O  O333  1  0.50349577  0.99093879  0.38706657  1
  O  O334  1  0.49255083  0.99702487  0.88168254  1
  O  O335  1  0.99352892  0.49284657  0.37416828  1
  O  O336  1  1.04742487  0.49202927  0.88797485  1
  O  O337  1  0.98997042  0.98463016  0.36986282  1
  O  O338  1  0.99203905  0.99077912  0.87518106  1
  O  O339  1  0.00456586  0.01198100  0.12086896  1
  O  O340  1  0.00820284  0.00555542  0.62641214  1
  O  O341  1  0.01129879  0.51035593  0.12508054  1
  O  O342  1  0.00876492  0.50732338  0.62316935  1
  O  O343  1  0.50591393  0.00599891  0.12051627  1
  O  O344  1  0.49816909  -0.00145769  0.61198366  1
  O  O345  1  0.50721311  0.51020902  0.12604710  1
  O  O346  1  0.50791594  0.49178832  0.61280058  1
  O  O347  1  0.24409897  0.38093549  0.24998076  1
  O  O348  1  0.24012309  0.36422447  0.73976684  1
  O  O349  1  0.24254878  0.88320196  0.24955567  1
  O  O350  1  0.25718996  0.88455213  0.74349097  1
  O  O351  1  0.74304921  0.37896749  0.24352164  1
  O  O352  1  0.73639051  0.36533684  0.74129357  1
  O  O353  1  0.74165903  0.88195590  0.24777913  1
  O  O354  1  0.73817811  0.87825014  0.75219259  1
  O  O355  1  0.26294838  0.12201616  0.24767021  1
  O  O356  1  0.25415301  0.11305005  0.75596800  1
  O  O357  1  0.25824485  0.61867569  0.25094404  1
  O  O358  1  0.26728837  0.63351012  0.75717688  1
  O  O359  1  0.75807517  0.11907497  0.24257000  1
  O  O360  1  0.75415141  0.11773639  0.75174441  1
  O  O361  1  0.75644805  0.62636789  0.25298721  1
  O  O362  1  0.76617889  0.62360394  0.75225323  1
  O  O363  1  0.38129577  0.12772176  0.36455465  1
  O  O364  1  0.37042954  0.11117508  0.87608373  1
  O  O365  1  0.38247608  0.61217395  0.36825588  1
  O  O366  1  0.36860773  0.61805115  0.86855928  1
  O  O367  1  0.88152100  0.11282849  0.36215270  1
  O  O368  1  0.87338531  0.11528658  0.86619553  1
  O  O369  1  0.86748354  0.61786098  0.38184302  1
  O  O370  1  0.86791645  0.62692530  0.86419145  1
  O  O371  1  0.12790784  0.38253238  0.13806830  1
  O  O372  1  0.13261358  0.37713989  0.62880518  1
  O  O373  1  0.12254413  0.87548704  0.13781616  1
  O  O374  1  0.13092333  0.88728003  0.62140307  1
  O  O375  1  0.62742759  0.38390566  0.13014140  1
  O  O376  1  0.63229610  0.38260439  0.63112120  1
  O  O377  1  0.62739662  0.87975307  0.13716220  1
  O  O378  1  0.62543099  0.87155319  0.63851100  1
  O  O379  1  0.11724676  0.25838402  0.24759915  1
  O  O380  1  0.12188147  0.25077698  0.75472693  1
  O  O381  1  0.12301735  0.75879001  0.26174141  1
  O  O382  1  0.11235631  0.74805341  0.75897750  1
  O  O383  1  0.62246838  0.25602976  0.26003129  1
  O  O384  1  0.61805585  0.25581920  0.75511928  1
  O  O385  1  0.61243257  0.76094607  0.25329033  1
  O  O386  1  0.61625769  0.75549491  0.74769852  1
  O  O387  1  0.37643446  0.23816620  0.24782638  1
  O  O388  1  0.38376314  0.24779326  0.74332107  1
  O  O389  1  0.37767192  0.73873117  0.25598308  1
  O  O390  1  0.38693289  0.73892915  0.75366576  1
  O  O391  1  0.87902931  0.23932850  0.25260696  1
  O  O392  1  0.88341130  0.23854460  0.75406668  1
  O  O393  1  0.87644967  0.75252767  0.25224678  1
  O  O394  1  0.88605807  0.74365281  0.74454820  1
  O  O395  1  0.38243106  0.49464685  0.49441775  1
  O  O396  1  0.37434788  0.49278335  0.99243250  1
  O  O397  1  0.38461799  0.98815768  0.49966201  1
  O  O398  1  0.37925298  0.99290842  0.99410963  1
  O  O399  1  0.87812479  0.49629532  0.48900630  1
  O  O400  1  0.87821778  0.49440215  0.99606786  1
  O  O401  1  0.88653881  1.00028383  0.48802865  1
  O  O402  1  0.87496691  0.99696684  0.98743785  1
  O  O403  1  0.12366700  0.01395774  -0.00248745  1
  O  O404  1  0.11350221  -0.00376869  0.50641339  1
  O  O405  1  0.14068507  0.49881345  0.02228345  1
  O  O406  1  0.12290835  0.49824148  0.51183903  1
  O  O407  1  0.62116166  0.00281951  0.00558246  1
  O  O408  1  0.61974550  0.01184184  0.49522530  1
  O  O409  1  0.62173774  0.50632983  0.01078722  1
  O  O410  1  0.61868903  0.50665939  0.50757547  1
  O  O411  1  0.37363254  0.37383409  0.11606278  1
  O  O412  1  0.36949883  0.36605482  0.62279797  1
  O  O413  1  0.37524364  0.87879593  0.11398895  1
  O  O414  1  0.36255278  0.87865825  0.61610380  1
  O  O415  1  0.86182412  0.37918881  0.12710307  1
  O  O416  1  0.86360992  0.37921063  0.62596785  1
  O  O417  1  0.87514480  0.87779698  0.10835949  1
  O  O418  1  0.88323480  0.86772258  0.61715031  1
  O  O419  1  0.05288519  0.11025920  0.40913469  1
  O  O420  1  0.12978888  0.13230709  0.87958391  1
  O  O421  1  0.11484296  0.64103154  0.37310905  1
  O  O422  1  0.14276953  0.63485913  0.86483364  1
  O  O423  1  0.61903879  0.13812272  0.38196272  1
  O  O424  1  0.62341612  0.13043767  0.88359297  1
  O  O425  1  0.63677660  0.61821399  0.38721323  1
  O  O426  1  0.62887359  0.62570373  0.88544951  1
