# generated using pymatgen
data_V85Zn86O256
_symmetry_space_group_name_H-M   'P 1'
_cell_length_a   16.93569844
_cell_length_b   16.93082274
_cell_length_c   16.92962839
_cell_angle_alpha   90.06207056
_cell_angle_beta   89.96188946
_cell_angle_gamma   90.03582196
_symmetry_Int_Tables_number   1
_chemical_formula_structural   V85Zn86O256
_chemical_formula_sum   'V85 Zn86 O256'
_cell_volume   4854.31734801
_cell_formula_units_Z   1
loop_
 _symmetry_equiv_pos_site_id
 _symmetry_equiv_pos_as_xyz
  1  'x, y, z'
loop_
 _atom_site_type_symbol
 _atom_site_label
 _atom_site_symmetry_multiplicity
 _atom_site_fract_x
 _atom_site_fract_y
 _atom_site_fract_z
 _atom_site_occupancy
  V  V0  1  0.55201750  0.67335115  0.57888169  1
  V  V1  1  -0.00974003  -0.00534450  0.00007342  1
  V  V2  1  0.37172939  0.86492857  0.50338396  1
  V  V3  1  0.12204077  0.12549041  0.00077843  1
  V  V4  1  0.49510436  0.25277360  0.24940726  1
  V  V5  1  0.24844403  0.50205400  0.25219327  1
  V  V6  1  0.63391201  0.12379848  0.49392590  1
  V  V7  1  0.37400369  0.50162513  0.37821379  1
  V  V8  1  0.37398119  0.24445809  0.63211108  1
  V  V9  1  0.62402895  0.75522473  0.85978647  1
  V  V10  1  0.87633331  0.11952814  0.74069664  1
  V  V11  1  0.88788767  0.25323862  0.61887847  1
  V  V12  1  0.25230926  0.62189126  0.86913345  1
  V  V13  1  0.24606003  0.12800352  0.87163988  1
  V  V14  1  0.86740130  0.12266511  0.25604702  1
  V  V15  1  0.75161936  0.62874833  0.87947999  1
  V  V16  1  0.87626176  0.49756606  0.86737727  1
  V  V17  1  0.00185750  0.49858888  -0.00582218  1
  V  V18  1  -0.00318963  0.74531670  0.74643286  1
  V  V19  1  0.24814359  0.00205298  0.25474855  1
  V  V20  1  0.12419528  0.87630686  0.74845468  1
  V  V21  1  0.75010327  0.37700256  0.12216868  1
  V  V22  1  0.74519873  -0.00530730  0.25718773  1
  V  V23  1  0.50394792  0.86160303  0.36780131  1
  V  V24  1  0.75442829  0.49887444  0.25265739  1
  V  V25  1  0.62223341  0.50000282  0.62851467  1
  V  V26  1  -0.00607596  0.87363956  0.38143398  1
  V  V27  1  0.62539803  0.63736318  0.00362984  1
  V  V28  1  0.24596709  0.62744064  0.38868946  1
  V  V29  1  0.86532235  -0.00185881  0.87078181  1
  V  V30  1  0.36918333  0.12928828  0.25420045  1
  V  V31  1  0.50156591  0.37432954  0.87673646  1
  V  V32  1  0.87615345  0.75366534  0.11138722  1
  V  V33  1  0.12420955  0.87042225  0.25418016  1
  V  V34  1  0.75219522  0.87255851  0.11439167  1
  V  V35  1  -0.00859960  0.87245457  0.87674505  1
  V  V36  1  0.87719496  0.62741790  0.25138937  1
  V  V37  1  0.87376727  0.24734865  0.12442994  1
  V  V38  1  0.25095523  0.37948104  0.63847352  1
  V  V39  1  0.49270843  0.12942234  0.12672258  1
  V  V40  1  0.50017427  0.24411780  0.75040665  1
  V  V41  1  0.12060280  -0.00299860  0.12581637  1
  V  V42  1  0.50162937  0.00231485  0.49723576  1
  V  V43  1  0.25355872  0.37227089  0.12663728  1
  V  V44  1  0.75422478  0.87570959  0.62867600  1
  V  V45  1  0.24929190  0.00632633  0.74717151  1
  V  V46  1  0.25192055  0.86508991  0.62410554  1
  V  V47  1  0.12380393  0.50199504  0.12515105  1
  V  V48  1  0.50330044  0.50027646  0.50485195  1
  V  V49  1  0.25380589  0.24905424  0.00457437  1
  V  V50  1  0.38779552  0.64665153  0.74296371  1
  V  V51  1  0.74952183  0.24742836  -0.00313664  1
  V  V52  1  0.86912942  -0.00312716  0.38232785  1
  V  V53  1  0.63427658  0.00072455  0.63978832  1
  V  V54  1  0.10851781  0.38309938  0.75460755  1
  V  V55  1  0.49640673  0.00113766  0.00044400  1
  V  V56  1  0.12544600  0.74803086  0.87472822  1
  V  V57  1  0.12724933  0.74727332  0.39195945  1
  V  V58  1  0.00470027  0.62281864  0.60755915  1
  V  V59  1  0.37461300  0.87357152  -0.00191459  1
  V  V60  1  -0.00462049  0.12283167  0.12674057  1
  V  V61  1  0.50218450  0.50586634  0.00695315  1
  V  V62  1  0.37649458  0.50155812  0.86406755  1
  V  V63  1  0.37378783  0.37484174  0.50368561  1
  V  V64  1  0.63321168  0.24684167  0.37283494  1
  V  V65  1  -0.00379005  0.00451936  0.50441243  1
  V  V66  1  0.88159660  0.49542671  0.39149134  1
  V  V67  1  0.12091774  0.01056063  0.62525852  1
  V  V68  1  0.73869878  0.63092111  0.38203006  1
  V  V69  1  0.62465618  0.24447689  0.87458565  1
  V  V70  1  0.87606455  0.75108623  0.61035276  1
  V  V71  1  0.75275073  0.37129665  0.61327114  1
  V  V72  1  0.24922378  0.87329940  0.12444583  1
  V  V73  1  0.37580550  0.37529796  0.00063772  1
  V  V74  1  0.62994644  0.37196532  0.75096385  1
  V  V75  1  0.62365622  0.12457949  -0.00142445  1
  V  V76  1  0.62540717  0.37456231  0.24986385  1
  V  V77  1  0.37186983  0.00356771  0.87081735  1
  V  V78  1  0.62419705  -0.00242504  0.12780421  1
  V  V79  1  0.50022213  0.12400351  0.62811000  1
  V  V80  1  0.37901290  0.62922884  0.24336163  1
  V  V81  1  0.37109183  0.00318505  0.37709767  1
  V  V82  1  0.12744665  0.50440110  0.61435900  1
  V  V83  1  0.25110059  0.24012025  0.49473089  1
  V  V84  1  0.88202220  0.37189386  -0.00831446  1
  Zn  Zn85  1  0.37831724  0.75053168  0.12620841  1
  Zn  Zn86  1  0.00421898  0.36935829  0.38520503  1
  Zn  Zn87  1  0.12350150  0.24206883  0.36581680  1
  Zn  Zn88  1  0.75131462  0.49830069  0.75060587  1
  Zn  Zn89  1  0.74369781  0.11665435  0.86492389  1
  Zn  Zn90  1  0.62400472  0.50874636  0.12663855  1
  Zn  Zn91  1  -0.00084675  0.25024663  0.75906727  1
  Zn  Zn92  1  -0.00101337  0.25455204  0.25188408  1
  Zn  Zn93  1  0.12771301  0.12106314  0.49032935  1
  Zn  Zn94  1  0.11859638  0.37403523  0.25385475  1
  Zn  Zn95  1  0.62472341  0.85391032  0.25088718  1
  Zn  Zn96  1  0.54262449  0.69407220  0.18596754  1
  Zn  Zn97  1  0.12778149  0.62395037  -0.00127446  1
  Zn  Zn98  1  0.49647313  0.86142140  0.85603606  1
  Zn  Zn99  1  0.11827901  0.26292086  0.87938857  1
  Zn  Zn100  1  0.50066266  0.37580415  0.37628244  1
  Zn  Zn101  1  0.75774470  0.24872675  0.49374284  1
  Zn  Zn102  1  0.00074361  0.62636715  0.12448629  1
  Zn  Zn103  1  0.87681471  0.62333174  0.74663083  1
  Zn  Zn104  1  -0.00142767  0.74991363  0.25115962  1
  Zn  Zn105  1  0.24916530  0.74860430  -0.00050783  1
  Zn  Zn106  1  0.73111967  0.74775891  0.50025914  1
  Zn  Zn107  1  0.18613275  0.18745814  0.18750217  1
  Zn  Zn108  1  0.18363619  0.19364282  0.68821743  1
  Zn  Zn109  1  0.19083350  0.68728450  0.19093456  1
  Zn  Zn110  1  0.19030797  0.68219728  0.69025550  1
  Zn  Zn111  1  0.68682252  0.18431430  0.18708423  1
  Zn  Zn112  1  0.69306864  0.18533259  0.68462100  1
  Zn  Zn113  1  0.70292483  0.68807960  0.18702696  1
  Zn  Zn114  1  0.69878285  0.68932180  0.69559615  1
  Zn  Zn115  1  0.31243738  0.31625724  0.31448820  1
  Zn  Zn116  1  0.31262184  0.30927036  0.81585838  1
  Zn  Zn117  1  0.31203398  0.81061627  0.31742979  1
  Zn  Zn118  1  0.30958032  0.81468221  0.81109331  1
  Zn  Zn119  1  0.81692488  0.31400702  0.31279227  1
  Zn  Zn120  1  0.81448371  0.30734445  0.80818393  1
  Zn  Zn121  1  0.80931884  0.81102463  0.31182339  1
  Zn  Zn122  1  0.81007752  0.80909454  0.80815872  1
  Zn  Zn123  1  0.18663582  0.42937877  0.43829760  1
  Zn  Zn124  1  0.19086774  0.44016097  0.93550479  1
  Zn  Zn125  1  0.18697333  0.93719128  0.43964694  1
  Zn  Zn126  1  0.18227782  0.93711261  0.93743940  1
  Zn  Zn127  1  0.68514274  0.44152444  0.43560324  1
  Zn  Zn128  1  0.68812443  0.44053173  0.93830577  1
  Zn  Zn129  1  0.68571114  0.93054590  0.44125367  1
  Zn  Zn130  1  0.68393936  0.93354147  0.93752891  1
  Zn  Zn131  1  0.31047889  0.06209228  0.06562451  1
  Zn  Zn132  1  0.31531838  0.05946206  0.56699443  1
  Zn  Zn133  1  0.31126006  0.56147612  0.05768762  1
  Zn  Zn134  1  0.31404349  0.56325073  0.57107870  1
  Zn  Zn135  1  0.80976609  0.05856986  0.06186648  1
  Zn  Zn136  1  0.81356560  0.06412637  0.56241207  1
  Zn  Zn137  1  0.81364447  0.56288625  0.06030233  1
  Zn  Zn138  1  0.80664446  0.56893877  0.56601600  1
  Zn  Zn139  1  0.43464765  0.43963508  0.18727450  1
  Zn  Zn140  1  0.44109624  0.43432511  0.68929475  1
  Zn  Zn141  1  0.43596335  0.93656274  0.18882754  1
  Zn  Zn142  1  0.43640953  0.93797784  0.68693532  1
  Zn  Zn143  1  0.93849225  0.43649918  0.18749512  1
  Zn  Zn144  1  0.94187458  0.43704607  0.56721342  1
  Zn  Zn145  1  0.93429523  0.93455883  0.19301135  1
  Zn  Zn146  1  0.93430131  0.93427248  0.68707368  1
  Zn  Zn147  1  0.05843151  0.06591490  0.31640954  1
  Zn  Zn148  1  0.05766983  0.06546734  0.81313211  1
  Zn  Zn149  1  0.06170307  0.56264788  0.31565803  1
  Zn  Zn150  1  0.06338723  0.55892174  0.80744017  1
  Zn  Zn151  1  0.55996556  0.06055682  0.31314169  1
  Zn  Zn152  1  0.55115589  0.03889898  0.80311533  1
  Zn  Zn153  1  0.56230512  0.55916578  0.31475173  1
  Zn  Zn154  1  0.56207351  0.56534493  0.81367120  1
  Zn  Zn155  1  0.44060358  0.18854465  0.43688182  1
  Zn  Zn156  1  0.43331795  0.18562126  0.93638106  1
  Zn  Zn157  1  0.43038624  0.68572625  0.43642233  1
  Zn  Zn158  1  0.44085576  0.68792782  0.93694651  1
  Zn  Zn159  1  0.94082336  0.18415565  0.43624498  1
  Zn  Zn160  1  0.93743734  0.18300345  0.93107626  1
  Zn  Zn161  1  0.93636496  0.68532653  0.43254014  1
  Zn  Zn162  1  0.94133127  0.68132532  0.93721467  1
  Zn  Zn163  1  0.06404825  0.31232717  0.06653070  1
  Zn  Zn164  1  0.06944690  0.31198897  0.56191187  1
  Zn  Zn165  1  0.05906442  0.81093851  0.06104878  1
  Zn  Zn166  1  0.06205713  0.81925582  0.56408190  1
  Zn  Zn167  1  0.56229359  0.31332535  0.06451018  1
  Zn  Zn168  1  0.56443098  0.31155256  0.56103480  1
  Zn  Zn169  1  0.56313953  0.81704382  0.05491427  1
  Zn  Zn170  1  0.55988933  0.83247125  0.56960221  1
  O  O171  1  0.11620501  0.11558511  0.12085909  1
  O  O172  1  0.12882228  0.11284542  0.62322592  1
  O  O173  1  0.12754135  0.61377914  0.12417871  1
  O  O174  1  0.12179253  0.61239609  0.62997044  1
  O  O175  1  0.61338328  0.11748419  0.12146421  1
  O  O176  1  0.62184951  0.11808871  0.61480936  1
  O  O177  1  0.62939099  0.62612771  0.11620635  1
  O  O178  1  0.62170988  0.61750230  0.63688143  1
  O  O179  1  0.37706894  0.38303894  0.38670552  1
  O  O180  1  0.38024756  0.38155400  0.88056251  1
  O  O181  1  0.38073369  0.88111009  0.38485136  1
  O  O182  1  0.37354313  0.88912092  0.88042819  1
  O  O183  1  0.87098969  0.39388348  0.37472503  1
  O  O184  1  0.86695397  0.37990003  0.88600874  1
  O  O185  1  0.88285428  0.88255096  0.36905402  1
  O  O186  1  0.88495859  0.87955467  0.86527225  1
  O  O187  1  0.26301267  -0.00621117  0.37036268  1
  O  O188  1  0.25240700  0.00564562  0.86918742  1
  O  O189  1  0.25384006  0.50398669  0.36870018  1
  O  O190  1  0.26397165  0.51002515  0.87993035  1
  O  O191  1  0.75460267  -0.01060135  0.36796003  1
  O  O192  1  0.76212242  -0.00430786  0.88047639  1
  O  O193  1  0.75860335  0.50714092  0.37031640  1
  O  O194  1  0.75946497  0.50532342  0.87442730  1
  O  O195  1  0.24380276  0.49547247  0.13098475  1
  O  O196  1  0.24071774  0.49195726  0.62607473  1
  O  O197  1  0.24281940  0.99004058  0.13172437  1
  O  O198  1  0.24333825  0.99567255  0.63291289  1
  O  O199  1  0.75064743  0.49237832  0.13248146  1
  O  O200  1  0.73876835  0.49411166  0.62695666  1
  O  O201  1  0.74743024  0.98921147  0.13379081  1
  O  O202  1  0.74071173  0.99002419  0.61486802  1
  O  O203  1  -0.00096969  0.37425095  0.25684319  1
  O  O204  1  0.01118852  0.37702564  0.75067039  1
  O  O205  1  0.00850064  0.87557194  0.26193792  1
  O  O206  1  0.00468013  0.86390195  0.75429357  1
  O  O207  1  0.50420885  0.36877453  0.24938449  1
  O  O208  1  0.51214601  0.36565959  0.75559710  1
  O  O209  1  0.49807813  0.87646047  0.26396209  1
  O  O210  1  0.50439746  0.93345997  0.77233241  1
  O  O211  1  0.49097553  0.13100606  0.24512124  1
  O  O212  1  0.50607998  0.12766693  0.73560367  1
  O  O213  1  0.48389320  0.61508536  0.25026331  1
  O  O214  1  0.48563913  0.62142402  0.75166467  1
  O  O215  1  0.98369998  0.11751234  0.24001975  1
  O  O216  1  0.98272314  0.12748209  0.75374508  1
  O  O217  1  0.98768698  0.62387736  0.24681724  1
  O  O218  1  1.00073465  0.63670341  0.74455331  1
  O  O219  1  0.36154155  0.25664019  -0.00509312  1
  O  O220  1  0.37252749  0.25568465  0.51002056  1
  O  O221  1  0.37158487  0.76595012  -0.00766031  1
  O  O222  1  0.37602521  0.76656012  0.50002334  1
  O  O223  1  0.86858013  0.25474847  0.00348930  1
  O  O224  1  0.87320890  0.23658871  0.51521874  1
  O  O225  1  0.88158526  0.74732937  0.01279379  1
  O  O226  1  0.87625669  0.74854145  0.50904191  1
  O  O227  1  0.14496606  0.24364262  0.50758464  1
  O  O228  1  0.13559671  0.24510793  1.00172417  1
  O  O229  1  0.12555697  0.75719741  0.49090591  1
  O  O230  1  0.12309516  0.74863108  0.98609620  1
  O  O231  1  0.62385891  0.24147863  0.48982747  1
  O  O232  1  0.62940215  0.24504223  0.99561830  1
  O  O233  1  0.60912244  0.73373760  0.51852311  1
  O  O234  1  0.62624118  0.73952649  0.99233415  1
  O  O235  1  0.50486018  0.24281249  0.13904162  1
  O  O236  1  0.49523498  0.24265406  0.62826264  1
  O  O237  1  0.48952640  0.75345175  0.10989738  1
  O  O238  1  0.50327289  0.74438902  0.62801812  1
  O  O239  1  0.98976225  0.24116332  0.12494021  1
  O  O240  1  0.98932731  0.25240518  0.62838463  1
  O  O241  1  0.98874441  0.74990235  0.12945916  1
  O  O242  1  0.99662266  0.74676084  0.62932525  1
  O  O243  1  -0.00002324  0.24967854  0.36945278  1
  O  O244  1  0.00604950  0.24844329  0.87520510  1
  O  O245  1  0.00694600  0.75661446  0.37277381  1
  O  O246  1  0.00299922  0.75429244  0.86787074  1
  O  O247  1  0.50856721  0.25271365  0.36372510  1
  O  O248  1  0.50400785  0.25275930  0.87068730  1
  O  O249  1  0.49391449  0.76346983  0.37946057  1
  O  O250  1  0.51703270  0.75000414  0.87663768  1
  O  O251  1  0.25716819  0.13798823  0.50506385  1
  O  O252  1  0.24366560  0.13158232  0.99883741  1
  O  O253  1  0.25909363  0.62007029  0.48725655  1
  O  O254  1  0.24974502  0.62956338  0.98703703  1
  O  O255  1  0.73679344  0.12557973  0.49984405  1
  O  O256  1  0.74037264  0.13020245  1.00074354  1
  O  O257  1  0.74842238  0.62798021  0.48698426  1
  O  O258  1  0.74062009  0.61778711  0.98866375  1
  O  O259  1  0.25433839  0.36886257  0.00617645  1
  O  O260  1  0.26183989  0.36656362  0.51158915  1
  O  O261  1  0.25464525  0.87692470  0.00781757  1
  O  O262  1  0.26429366  0.88228147  0.50791169  1
  O  O263  1  0.75553976  0.36933476  0.00646196  1
  O  O264  1  0.74204141  0.37286394  0.51047753  1
  O  O265  1  0.75206784  0.88290226  0.01572168  1
  O  O266  1  0.72914030  0.86163550  0.51944943  1
  O  O267  1  0.13286595  0.50002362  0.24345898  1
  O  O268  1  0.12420826  0.48940387  0.73936473  1
  O  O269  1  0.12729234  0.98862893  0.24600868  1
  O  O270  1  0.12946240  0.99708736  0.74571751  1
  O  O271  1  0.63632860  0.49386003  0.24871250  1
  O  O272  1  0.62498806  0.48901971  0.74581723  1
  O  O273  1  0.63138163  0.99938584  0.24464399  1
  O  O274  1  0.64404858  1.01980782  0.73586855  1
  O  O275  1  0.37093434  0.00734874  0.25843083  1
  O  O276  1  0.35719665  0.00309578  0.75775773  1
  O  O277  1  0.36772674  0.50733436  0.25600720  1
  O  O278  1  0.38151616  0.49903547  0.76244340  1
  O  O279  1  0.86427401  0.00280443  0.25871569  1
  O  O280  1  0.87749220  0.00938478  0.75480075  1
  O  O281  1  0.86486133  0.50642174  0.25108741  1
  O  O282  1  0.87770564  0.49816560  0.76548691  1
  O  O283  1  0.12690291  0.36420133  0.37129511  1
  O  O284  1  0.13299740  0.38004088  0.85847494  1
  O  O285  1  0.12017055  0.86908813  0.36954380  1
  O  O286  1  0.11421977  0.86894643  0.86833078  1
  O  O287  1  0.62209257  0.36891108  0.36718577  1
  O  O288  1  0.62261902  0.36756339  0.86856363  1
  O  O289  1  0.60713438  0.87694545  0.37347431  1
  O  O290  1  0.62593336  0.85862988  0.87705196  1
  O  O291  1  0.38662662  0.12018548  0.13311126  1
  O  O292  1  0.38697057  0.13267096  0.62184730  1
  O  O293  1  0.36630027  0.62443971  0.13992775  1
  O  O294  1  0.36783188  0.62905215  0.64515290  1
  O  O295  1  0.87694146  0.12766668  0.12957115  1
  O  O296  1  0.87300341  0.13283001  0.63385628  1
  O  O297  1  0.87183878  0.63720495  0.13132487  1
  O  O298  1  0.88523905  0.63134498  0.62561989  1
  O  O299  1  0.24816982  0.26074738  0.11767860  1
  O  O300  1  0.26005510  0.25568146  0.62050147  1
  O  O301  1  0.25267119  0.76213513  0.12249931  1
  O  O302  1  0.24422558  0.76612974  0.63300850  1
  O  O303  1  0.75365154  0.25565390  0.11778712  1
  O  O304  1  0.75803846  0.25785921  0.62066401  1
  O  O305  1  0.76405179  0.76178760  0.12316616  1
  O  O306  1  0.75978743  0.75270881  0.62140630  1
  O  O307  1  0.25730696  0.25291090  0.39343010  1
  O  O308  1  0.24405178  0.24243765  0.88284522  1
  O  O309  1  0.23968991  0.74037187  0.37204937  1
  O  O310  1  0.23931368  0.74709603  0.87578660  1
  O  O311  1  0.73814616  0.25392749  0.37434288  1
  O  O312  1  0.74355916  0.24757684  0.88292616  1
  O  O313  1  0.75234324  0.73585349  0.37880402  1
  O  O314  1  0.74101081  0.74037438  0.87125003  1
  O  O315  1  0.00223856  0.11532806  0.00758363  1
  O  O316  1  0.00318896  0.10788137  0.49889882  1
  O  O317  1  0.00541642  0.61392788  0.00500318  1
  O  O318  1  0.00355708  0.63064463  0.50845477  1
  O  O319  1  0.50234586  0.12614163  0.01158823  1
  O  O320  1  0.50657047  0.11972899  0.50807437  1
  O  O321  1  0.51077156  0.61546686  -0.00584253  1
  O  O322  1  0.48827084  0.61821470  0.51323539  1
  O  O323  1  0.48979388  0.38109296  0.50202221  1
  O  O324  1  0.49547807  0.37820848  0.99486291  1
  O  O325  1  0.49048744  0.88478588  0.49344092  1
  O  O326  1  0.49125168  0.88848324  0.99074886  1
  O  O327  1  1.00279970  0.37372301  0.49985589  1
  O  O328  1  0.98921629  0.38115902  1.00755147  1
  O  O329  1  1.00367527  0.88440653  0.48719204  1
  O  O330  1  1.00294929  0.88249268  0.98863429  1
  O  O331  1  0.49322981  0.49989056  0.38777875  1
  O  O332  1  0.49652532  0.49201036  0.88369262  1
  O  O333  1  0.48972594  0.99403030  0.38148372  1
  O  O334  1  0.48253033  1.02616189  0.89553222  1
  O  O335  1  0.98306384  0.50255021  0.37517331  1
  O  O336  1  0.99415728  0.50444004  0.88685957  1
  O  O337  1  0.98927861  0.99170593  0.38093504  1
  O  O338  1  0.99152109  0.99113263  0.88083495  1
  O  O339  1  -0.00086711  0.00019109  0.11797148  1
  O  O340  1  0.00815937  -0.01115520  0.61629005  1
  O  O341  1  0.00804021  0.50069492  0.11585393  1
  O  O342  1  0.01373633  0.51066975  0.62340065  1
  O  O343  1  0.50103431  0.00565482  0.11652203  1
  O  O344  1  0.51234755  0.00702013  0.61682042  1
  O  O345  1  0.50331784  0.49302770  0.11127560  1
  O  O346  1  0.51361356  0.49291071  0.62157598  1
  O  O347  1  0.25380160  0.38703150  0.24285856  1
  O  O348  1  0.25258014  0.37114864  0.73983616  1
  O  O349  1  0.24489024  0.88010470  0.24481807  1
  O  O350  1  0.24374217  0.88570938  0.74510615  1
  O  O351  1  0.74846582  0.38160005  0.24244335  1
  O  O352  1  0.74022569  0.37370716  0.74259935  1
  O  O353  1  0.74528157  0.88171498  0.24248151  1
  O  O354  1  0.74805614  0.86756449  0.72950894  1
  O  O355  1  0.26341042  0.11864633  0.24021437  1
  O  O356  1  0.24075201  0.11995190  0.75990915  1
  O  O357  1  0.25747368  0.61452099  0.25646243  1
  O  O358  1  0.26367219  0.63230091  0.76393707  1
  O  O359  1  0.75894660  0.11150892  0.24325383  1
  O  O360  1  0.76890371  0.13096211  0.75151167  1
  O  O361  1  0.76071134  0.61653702  0.25949698  1
  O  O362  1  0.75712016  0.61766118  0.76288759  1
  O  O363  1  0.38099947  0.11634979  0.36639832  1
  O  O364  1  0.35619630  0.11636110  0.88205202  1
  O  O365  1  0.36718895  0.61959082  0.36598036  1
  O  O366  1  0.37187195  0.61945656  0.86829425  1
  O  O367  1  0.87491185  0.11192590  0.36575781  1
  O  O368  1  0.86950307  0.11326999  0.86616856  1
  O  O369  1  0.86813166  0.61424548  0.36878046  1
  O  O370  1  0.86843703  0.61625882  0.87669164  1
  O  O371  1  0.13643609  0.38694565  0.12559161  1
  O  O372  1  0.13354427  0.38389973  0.63416141  1
  O  O373  1  0.12938178  0.87765514  0.13137266  1
  O  O374  1  0.13329784  0.88457095  0.63103505  1
  O  O375  1  0.63817980  0.37499247  0.12991816  1
  O  O376  1  0.63121261  0.37894019  0.63253807  1
  O  O377  1  0.63505299  0.87995258  0.12540342  1
  O  O378  1  0.62802106  0.89491346  0.63423513  1
  O  O379  1  0.12022337  0.25434735  0.24568595  1
  O  O380  1  0.12235487  0.26750477  0.74893762  1
  O  O381  1  0.12391042  0.76177719  0.25221406  1
  O  O382  1  0.11846681  0.75399423  0.75899098  1
  O  O383  1  0.61971241  0.25350274  0.25508556  1
  O  O384  1  0.62151933  0.25335368  0.75358658  1
  O  O385  1  0.62443793  0.74096868  0.24660020  1
  O  O386  1  0.62440827  0.74800549  0.76083987  1
  O  O387  1  0.38295895  0.24317139  0.25676453  1
  O  O388  1  0.38253435  0.25234331  0.73976171  1
  O  O389  1  0.36994974  0.73318873  0.25033110  1
  O  O390  1  0.38385806  0.74715839  0.75848735  1
  O  O391  1  0.87040599  0.23858686  0.24279151  1
  O  O392  1  0.87823722  0.24251411  0.73740754  1
  O  O393  1  0.87556019  0.74104564  0.24439504  1
  O  O394  1  0.88387033  0.74799849  0.73877473  1
  O  O395  1  0.38298908  0.49241626  0.50273975  1
  O  O396  1  0.38450237  0.49620093  0.99184170  1
  O  O397  1  0.38501409  0.99821246  0.49444843  1
  O  O398  1  0.37591152  0.99234473  0.99580871  1
  O  O399  1  0.87195388  0.50251152  0.49493402  1
  O  O400  1  0.88286337  0.49121698  0.99434882  1
  O  O401  1  0.87862101  1.00150335  0.49044701  1
  O  O402  1  0.88481060  1.00345084  0.99076608  1
  O  O403  1  0.11320125  0.00374664  0.00620571  1
  O  O404  1  0.11824631  -0.00054768  0.50888924  1
  O  O405  1  0.11862199  0.49905521  0.00628180  1
  O  O406  1  0.13243621  0.49643007  0.51513015  1
  O  O407  1  0.61398162  0.00408688  0.00472634  1
  O  O408  1  0.61405562  0.00659367  0.49979737  1
  O  O409  1  0.61754064  0.50808428  0.00104273  1
  O  O410  1  0.61124355  0.49776075  0.50812447  1
  O  O411  1  0.36170805  0.38228826  0.11671353  1
  O  O412  1  0.37122524  0.36814837  0.62149712  1
  O  O413  1  0.36525830  0.87804664  0.11674963  1
  O  O414  1  0.36934167  0.88404416  0.61261333  1
  O  O415  1  0.86471416  0.36947743  0.11680032  1
  O  O416  1  0.86752040  0.36204460  0.62373118  1
  O  O417  1  0.86711283  0.86321230  0.12973807  1
  O  O418  1  0.86258812  0.86915524  0.62243205  1
  O  O419  1  0.12884159  0.12651189  0.37595571  1
  O  O420  1  0.13342214  0.12066537  0.88495776  1
  O  O421  1  0.13318964  0.63513630  0.37008272  1
  O  O422  1  0.13322557  0.63112769  0.87190862  1
  O  O423  1  0.61730482  0.13397011  0.38167379  1
  O  O424  1  0.62447111  0.12762141  0.88132485  1
  O  O425  1  0.64073403  0.61781402  0.37335818  1
  O  O426  1  0.63315304  0.63203442  0.87923283  1
