# generated using pymatgen
data_V85Zn86O256
_symmetry_space_group_name_H-M   'P 1'
_cell_length_a   16.92449281
_cell_length_b   16.92459728
_cell_length_c   16.92658463
_cell_angle_alpha   89.96647922
_cell_angle_beta   90.06437921
_cell_angle_gamma   90.01891770
_symmetry_Int_Tables_number   1
_chemical_formula_structural   V85Zn86O256
_chemical_formula_sum   'V85 Zn86 O256'
_cell_volume   4848.45055575
_cell_formula_units_Z   1
loop_
 _symmetry_equiv_pos_site_id
 _symmetry_equiv_pos_as_xyz
  1  'x, y, z'
loop_
 _atom_site_type_symbol
 _atom_site_label
 _atom_site_symmetry_multiplicity
 _atom_site_fract_x
 _atom_site_fract_y
 _atom_site_fract_z
 _atom_site_occupancy
  V  V0  1  0.62059248  0.12477257  0.00073255  1
  V  V1  1  0.74431763  0.49626030  0.73775039  1
  V  V2  1  0.11940917  0.25427570  0.87136641  1
  V  V3  1  0.74782911  0.37523652  0.12723067  1
  V  V4  1  0.25010568  0.12590128  0.87074902  1
  V  V5  1  0.75163660  0.62308658  0.37686347  1
  V  V6  1  0.24639097  0.63057162  0.87447813  1
  V  V7  1  0.37436569  0.49872023  0.87702483  1
  V  V8  1  0.11552467  0.62374163  0.49871020  1
  V  V9  1  0.38013459  0.12557513  0.25358741  1
  V  V10  1  0.62086519  0.24985802  0.86977950  1
  V  V11  1  0.88812290  0.37535107  0.50878151  1
  V  V12  1  0.62387950  0.24862874  0.36847542  1
  V  V13  1  -0.01537849  -0.00179728  -0.00436386  1
  V  V14  1  0.37739744  0.37654133  0.50353073  1
  V  V15  1  0.50759106  0.49728709  0.50335573  1
  V  V16  1  0.87572528  0.62405631  0.74644396  1
  V  V17  1  -0.00205328  0.50076097  0.00129519  1
  V  V18  1  0.74739966  0.25047700  0.00125889  1
  V  V19  1  0.49636455  0.00006781  0.49927318  1
  V  V20  1  0.13065587  0.11652943  0.51006223  1
  V  V21  1  0.25193581  0.37496884  0.62444249  1
  V  V22  1  0.48762664  0.74489011  0.25230987  1
  V  V23  1  0.75554996  0.75374437  0.50014244  1
  V  V24  1  0.62561856  0.74961341  0.37555556  1
  V  V25  1  0.74567359  0.63869203  0.87854490  1
  V  V26  1  0.50108573  0.13785511  0.62848341  1
  V  V27  1  0.62793841  0.87222718  0.25076362  1
  V  V28  1  0.87265653  0.37615053  0.00172089  1
  V  V29  1  0.49889449  0.37121942  0.36755483  1
  V  V30  1  0.38117276  0.13836003  0.74741181  1
  V  V31  1  0.74776196  0.49833533  0.25351626  1
  V  V32  1  0.62590934  -0.00082934  0.62722963  1
  V  V33  1  0.24872565  0.37436048  0.12688127  1
  V  V34  1  0.00543165  0.74810412  0.75623573  1
  V  V35  1  -0.00685521  0.12209115  0.13058999  1
  V  V36  1  0.88222752  0.74650396  0.62190074  1
  V  V37  1  0.12733005  0.62871613  -0.00223400  1
  V  V38  1  0.62848921  0.62129786  0.50404661  1
  V  V39  1  0.50775760  0.74938409  0.75399986  1
  V  V40  1  0.25444405  -0.00528232  0.25005411  1
  V  V41  1  0.86702247  0.49971901  0.87623904  1
  V  V42  1  0.88022239  0.00193649  0.36962080  1
  V  V43  1  0.75778150  0.12557817  0.37041584  1
  V  V44  1  0.75067756  0.87045644  0.11177292  1
  V  V45  1  0.87603798  0.63414570  0.25259182  1
  V  V46  1  0.62292751  -0.00151946  0.12593098  1
  V  V47  1  0.25430124  0.11887526  0.37519253  1
  V  V48  1  0.62632397  0.63611071  -0.00147651  1
  V  V49  1  0.37875996  0.75828458  0.62157295  1
  V  V50  1  0.49466343  0.62333141  0.12689866  1
  V  V51  1  -0.00020833  -0.00756098  0.50829573  1
  V  V52  1  0.62576510  0.37476602  0.73846949  1
  V  V53  1  0.24933311  0.50449695  0.74449179  1
  V  V54  1  0.12362639  0.74682227  0.37025967  1
  V  V55  1  0.87495074  0.24738156  0.13029681  1
  V  V56  1  0.49269936  0.87836403  0.37549245  1
  V  V57  1  0.75859988  0.87694411  0.62297186  1
  V  V58  1  0.12087671  0.12748328  0.00093206  1
  V  V59  1  0.37701918  0.62399694  0.74718495  1
  V  V60  1  0.62928068  0.12500664  0.50033782  1
  V  V61  1  -0.00080370  0.62897373  0.12968261  1
  V  V62  1  0.24884050  0.25147749  0.00203614  1
  V  V63  1  0.36909702  0.75453413  0.10823183  1
  V  V64  1  0.11140235  0.50705229  0.62017655  1
  V  V65  1  0.87131380  0.75242025  0.11100762  1
  V  V66  1  0.75497881  0.11829425  0.87544698  1
  V  V67  1  -0.01093246  0.87657657  0.87694945  1
  V  V68  1  0.12373696  0.25171471  0.37818529  1
  V  V69  1  0.50730242  0.61915817  0.62675544  1
  V  V70  1  -0.00418925  0.24623628  0.25623843  1
  V  V71  1  0.25689546  0.25008309  0.50196798  1
  V  V72  1  0.25462497  0.50628204  0.25381491  1
  V  V73  1  0.12292937  0.86936810  0.24639112  1
  V  V74  1  0.88894196  0.49100062  0.37654468  1
  V  V75  1  0.50030861  0.37271638  0.87015178  1
  V  V76  1  0.12023013  0.37455865  0.25407753  1
  V  V77  1  0.38263855  0.25004003  0.12993419  1
  V  V78  1  0.49422530  0.87233579  0.87870795  1
  V  V79  1  -0.00663707  0.13405571  0.62379125  1
  V  V80  1  0.12397655  -0.00163676  0.12387371  1
  V  V81  1  -0.00289046  0.87134112  0.37350962  1
  V  V82  1  0.48839261  -0.00246193  0.00139811  1
  V  V83  1  0.75573437  0.25817836  0.50954190  1
  V  V84  1  0.62665702  0.87298740  0.75475034  1
  Zn  Zn85  1  0.61944501  0.37111207  0.24704533  1
  Zn  Zn86  1  0.23364239  0.88806704  0.61886666  1
  Zn  Zn87  1  0.24818434  0.00431263  0.73321923  1
  Zn  Zn88  1  0.62381313  0.50096634  0.12341757  1
  Zn  Zn89  1  0.75716206  0.00137702  0.24714604  1
  Zn  Zn90  1  0.37607217  0.37454048  -0.00001387  1
  Zn  Zn91  1  0.50351636  0.49956446  -0.00016313  1
  Zn  Zn92  1  0.37142005  -0.00216655  0.87182048  1
  Zn  Zn93  1  0.25223908  0.87492960  0.09655449  1
  Zn  Zn94  1  0.75907168  -0.00566017  0.75911309  1
  Zn  Zn95  1  0.12713072  0.88447942  0.75062952  1
  Zn  Zn96  1  0.25179560  0.74771410  0.49884041  1
  Zn  Zn97  1  0.12435392  0.50100184  0.12670667  1
  Zn  Zn98  1  0.25987046  0.62917224  0.37528243  1
  Zn  Zn99  1  -0.01045201  0.25881807  0.74181313  1
  Zn  Zn100  1  0.87314396  0.12660746  0.74653491  1
  Zn  Zn101  1  0.36839637  0.88135980  0.49654089  1
  Zn  Zn102  1  -0.00181624  0.37698437  0.87241349  1
  Zn  Zn103  1  0.12115250  0.37767470  0.74795996  1
  Zn  Zn104  1  0.38129398  0.50897173  0.37259390  1
  Zn  Zn105  1  0.50048097  0.12692393  0.13049784  1
  Zn  Zn106  1  0.17895124  0.79455758  0.92837927  1
  Zn  Zn107  1  0.18696828  0.18613582  0.18955561  1
  Zn  Zn108  1  0.18592597  0.18876358  0.68853988  1
  Zn  Zn109  1  0.18762624  0.68921058  0.18403316  1
  Zn  Zn110  1  0.17341505  0.71346076  0.67085933  1
  Zn  Zn111  1  0.68754502  0.18468776  0.19010543  1
  Zn  Zn112  1  0.68833441  0.18862659  0.68974978  1
  Zn  Zn113  1  0.68572074  0.68716136  0.18570019  1
  Zn  Zn114  1  0.69127510  0.68669579  0.68810855  1
  Zn  Zn115  1  0.31236474  0.31275746  0.31440124  1
  Zn  Zn116  1  0.30919834  0.31332903  0.81092905  1
  Zn  Zn117  1  0.30944040  0.81152926  0.31108101  1
  Zn  Zn118  1  0.31576880  0.81621438  0.80182292  1
  Zn  Zn119  1  0.81298908  0.31220698  0.31637674  1
  Zn  Zn120  1  0.81146539  0.30942071  0.80964792  1
  Zn  Zn121  1  0.81320610  0.81526468  0.31174496  1
  Zn  Zn122  1  0.81651946  0.81361315  0.81073360  1
  Zn  Zn123  1  0.18474781  0.43869947  0.43776162  1
  Zn  Zn124  1  0.18643040  0.44092996  0.93832172  1
  Zn  Zn125  1  0.18803344  0.93424487  0.43825669  1
  Zn  Zn126  1  0.17265586  0.95075552  0.92604607  1
  Zn  Zn127  1  0.68841718  0.43451686  0.43761370  1
  Zn  Zn128  1  0.68351064  0.44169920  0.93749123  1
  Zn  Zn129  1  0.68823009  0.93814537  0.43808767  1
  Zn  Zn130  1  0.67988918  0.93592431  0.93899213  1
  Zn  Zn131  1  0.30927398  0.06434238  0.06441662  1
  Zn  Zn132  1  0.31870755  0.06447728  0.56722002  1
  Zn  Zn133  1  0.31257275  0.56418283  0.06325795  1
  Zn  Zn134  1  0.31394984  0.56640989  0.55715068  1
  Zn  Zn135  1  0.80848460  0.06318580  0.06466858  1
  Zn  Zn136  1  0.81648647  0.05901563  0.55679979  1
  Zn  Zn137  1  0.80802919  0.56590845  0.06338882  1
  Zn  Zn138  1  0.81885767  0.55931376  0.56052310  1
  Zn  Zn139  1  0.43501690  0.43842512  0.18663195  1
  Zn  Zn140  1  0.43927393  0.43457047  0.68732781  1
  Zn  Zn141  1  0.43501332  0.93333774  0.18712380  1
  Zn  Zn142  1  0.43543432  0.94487054  0.69238994  1
  Zn  Zn143  1  0.93680399  0.43809406  0.19096748  1
  Zn  Zn144  1  0.93542773  0.43744902  0.68921761  1
  Zn  Zn145  1  0.93775383  0.93301574  0.18797603  1
  Zn  Zn146  1  0.93758077  0.94023050  0.69347586  1
  Zn  Zn147  1  0.06745914  0.06194761  0.31487920  1
  Zn  Zn148  1  0.06121394  0.06137939  0.80954531  1
  Zn  Zn149  1  0.06494712  0.56364873  0.31015780  1
  Zn  Zn150  1  0.06141988  0.56336771  0.81110515  1
  Zn  Zn151  1  0.56524066  0.06135142  0.31390029  1
  Zn  Zn152  1  0.56191740  0.06061483  0.81265249  1
  Zn  Zn153  1  0.56223071  0.56152027  0.31337689  1
  Zn  Zn154  1  0.56540655  0.56077523  0.81589808  1
  Zn  Zn155  1  0.43843416  0.18682597  0.43942629  1
  Zn  Zn156  1  0.43640584  0.18794726  0.93915748  1
  Zn  Zn157  1  0.43832526  0.68486551  0.43781520  1
  Zn  Zn158  1  0.44097125  0.68495541  0.93514992  1
  Zn  Zn159  1  0.93829053  0.18676295  0.44174421  1
  Zn  Zn160  1  0.93549781  0.18910809  0.93949834  1
  Zn  Zn161  1  0.93922650  0.68713759  0.43585758  1
  Zn  Zn162  1  0.93659285  0.68560294  0.93558129  1
  Zn  Zn163  1  0.06135031  0.31303823  0.06455491  1
  Zn  Zn164  1  0.06824259  0.31472642  0.56092854  1
  Zn  Zn165  1  0.05390227  0.81388384  0.06335954  1
  Zn  Zn166  1  0.06184967  0.80960739  0.56084784  1
  Zn  Zn167  1  0.56112956  0.31513468  0.05827835  1
  Zn  Zn168  1  0.56930920  0.31321601  0.55570468  1
  Zn  Zn169  1  0.55813674  0.81214328  0.06407928  1
  Zn  Zn170  1  0.56492759  0.81222510  0.56336137  1
  O  O171  1  0.11519644  0.12092790  0.12108118  1
  O  O172  1  0.11912562  0.12967022  0.61250612  1
  O  O173  1  0.11450481  0.62337538  0.12003993  1
  O  O174  1  0.12968772  0.61643698  0.61215403  1
  O  O175  1  0.62190802  0.11623483  0.12255107  1
  O  O176  1  0.62285296  0.11649486  0.62214469  1
  O  O177  1  0.61625708  0.62491204  0.11646023  1
  O  O178  1  0.61530454  0.62922019  0.62083474  1
  O  O179  1  0.38224177  0.37480538  0.38648158  1
  O  O180  1  0.38131599  0.38079741  0.87335703  1
  O  O181  1  0.38910086  0.87083001  0.37488710  1
  O  O182  1  0.39044078  0.87834219  0.86729557  1
  O  O183  1  0.87360862  0.38729819  0.38000909  1
  O  O184  1  0.87228733  0.38328952  0.88465429  1
  O  O185  1  0.89048112  0.87845370  0.37051405  1
  O  O186  1  0.88803095  0.88070353  0.86861014  1
  O  O187  1  0.24484335  0.00860837  0.36585952  1
  O  O188  1  0.25233638  0.02096217  0.87920610  1
  O  O189  1  0.24940591  0.49711093  0.36131061  1
  O  O190  1  0.25665159  0.50418204  0.86547146  1
  O  O191  1  0.76118919  0.00569847  0.37768387  1
  O  O192  1  0.73974938  0.01475094  0.87863493  1
  O  O193  1  0.75566155  0.50430279  0.36908193  1
  O  O194  1  0.75806998  0.50727287  0.87207217  1
  O  O195  1  0.24942552  0.49167548  0.13477680  1
  O  O196  1  0.25005288  0.49350049  0.62969918  1
  O  O197  1  0.24185398  0.99586920  0.13026610  1
  O  O198  1  0.24365523  1.00164277  0.61587267  1
  O  O199  1  0.75136057  0.49183812  0.13478808  1
  O  O200  1  0.75054232  0.50501614  0.63944354  1
  O  O201  1  0.74163018  0.99159465  0.12759008  1
  O  O202  1  0.74262941  0.99142607  0.61757437  1
  O  O203  1  0.01324227  0.36602164  0.24330241  1
  O  O204  1  0.00292337  0.37522736  0.75432429  1
  O  O205  1  0.01451787  0.88068330  0.25808183  1
  O  O206  1  0.00155716  0.86606963  0.75740940  1
  O  O207  1  0.49879807  0.37816828  0.26333132  1
  O  O208  1  0.50907886  0.38033105  0.76191322  1
  O  O209  1  0.50900680  0.86887499  0.25625930  1
  O  O210  1  0.50745170  0.86834476  0.75329349  1
  O  O211  1  0.48416834  0.11741250  0.25270463  1
  O  O212  1  0.49103764  0.12386506  0.74395030  1
  O  O213  1  0.50795666  0.63413081  0.24025577  1
  O  O214  1  0.50070853  0.63008401  0.74519606  1
  O  O215  1  1.00779323  0.13340803  0.24188492  1
  O  O216  1  1.00265955  0.12543058  0.73036999  1
  O  O217  1  0.99102664  0.61815947  0.23763248  1
  O  O218  1  0.98035250  0.62672508  0.75913868  1
  O  O219  1  0.36601196  0.25132505  0.00958367  1
  O  O220  1  0.36332037  0.25619751  0.49757980  1
  O  O221  1  0.38008290  0.74915456  0.00972097  1
  O  O222  1  0.38325603  0.75398807  0.51284329  1
  O  O223  1  0.86794261  0.25687539  0.00904500  1
  O  O224  1  0.86560897  0.26326426  0.49230376  1
  O  O225  1  0.87080333  0.74377823  0.01274087  1
  O  O226  1  0.86605033  0.74273018  0.50689198  1
  O  O227  1  0.13615200  0.24383322  0.49371376  1
  O  O228  1  0.12916900  0.24639918  0.99590335  1
  O  O229  1  0.12559402  0.73709953  0.49155796  1
  O  O230  1  0.11357910  0.73311066  1.00226636  1
  O  O231  1  0.63943681  0.24633450  0.49022057  1
  O  O232  1  0.62953032  0.24434936  0.99513055  1
  O  O233  1  0.63409537  0.74281087  0.49603080  1
  O  O234  1  0.62065180  0.73569396  1.00442886  1
  O  O235  1  0.48651029  0.25105698  0.12239381  1
  O  O236  1  0.50990919  0.23621678  0.61695381  1
  O  O237  1  0.49044297  0.74494037  0.13283219  1
  O  O238  1  0.49536101  0.74261384  0.63062865  1
  O  O239  1  0.99538650  0.24186807  0.13243828  1
  O  O240  1  1.00529714  0.23744932  0.62058885  1
  O  O241  1  0.98344265  0.74235767  0.12383064  1
  O  O242  1  0.98570600  0.75309565  0.63283650  1
  O  O243  1  0.01073039  0.24024250  0.36794759  1
  O  O244  1  0.01119970  0.25238790  0.88067244  1
  O  O245  1  0.01058715  0.75842583  0.37846396  1
  O  O246  1  -0.01192018  0.76163992  0.86865443  1
  O  O247  1  0.51131732  0.25854839  0.38553783  1
  O  O248  1  0.51201223  0.25672131  0.88060391  1
  O  O249  1  0.50776566  0.75593130  0.36912642  1
  O  O250  1  0.49851803  0.75589600  0.86393205  1
  O  O251  1  0.24794832  0.13142815  0.49450030  1
  O  O252  1  0.24266788  0.13344520  0.99468267  1
  O  O253  1  0.23992369  0.62735071  0.49449252  1
  O  O254  1  0.23940033  0.61786016  0.98996311  1
  O  O255  1  0.74824314  0.13222355  0.49051625  1
  O  O256  1  0.74047273  0.12924719  0.99438711  1
  O  O257  1  0.74687098  0.63033568  0.49640167  1
  O  O258  1  0.73660258  0.62444620  0.99411474  1
  O  O259  1  0.25005057  0.37147480  0.01052566  1
  O  O260  1  0.25776247  0.37122642  0.50402454  1
  O  O261  1  0.23440348  0.87493567  -0.01413013  1
  O  O262  1  0.25300166  0.86676221  0.50257479  1
  O  O263  1  0.75213396  0.37168252  0.00868498  1
  O  O264  1  0.75659435  0.36245410  0.49646963  1
  O  O265  1  0.74194283  0.87468653  0.01235774  1
  O  O266  1  0.74459223  0.86252837  0.50765593  1
  O  O267  1  0.13166321  0.48968465  0.24846807  1
  O  O268  1  0.13235914  0.50383715  0.73642370  1
  O  O269  1  0.13411408  0.99524815  0.24280806  1
  O  O270  1  0.13521679  0.99938120  0.75685377  1
  O  O271  1  0.63782591  0.49759975  0.24889756  1
  O  O272  1  0.63777321  0.49328202  0.75541389  1
  O  O273  1  0.62387631  0.99199215  0.23922468  1
  O  O274  1  0.62906300  0.99320243  0.73989686  1
  O  O275  1  0.36098108  0.00571416  0.24310935  1
  O  O276  1  0.37025920  0.01648726  0.75293207  1
  O  O277  1  0.35790615  0.49237882  0.25275111  1
  O  O278  1  0.36952644  0.50411529  0.75663679  1
  O  O279  1  0.87583688  -0.00467599  0.26358759  1
  O  O280  1  0.86819216  0.01302909  0.73988901  1
  O  O281  1  0.86633050  0.50436473  0.25970936  1
  O  O282  1  0.86371248  0.50408750  0.75685308  1
  O  O283  1  0.12935785  0.36145056  0.36934944  1
  O  O284  1  0.12338162  0.36857127  0.87436864  1
  O  O285  1  0.11718930  0.86712215  0.36786555  1
  O  O286  1  0.10832903  0.86848262  0.86992362  1
  O  O287  1  0.61748860  0.36606633  0.37389743  1
  O  O288  1  0.61882928  0.36852136  0.86992098  1
  O  O289  1  0.62062460  0.86939725  0.36779231  1
  O  O290  1  0.61656031  0.87960736  0.86033570  1
  O  O291  1  0.37431672  0.13320410  0.13494764  1
  O  O292  1  0.38675793  0.12824278  0.63655979  1
  O  O293  1  0.38675145  0.63449026  0.12019438  1
  O  O294  1  0.39008151  0.62956925  0.62857715  1
  O  O295  1  0.88475427  0.12999449  0.12541287  1
  O  O296  1  0.89166085  0.12696760  0.61329479  1
  O  O297  1  0.87701695  0.63354034  0.13213446  1
  O  O298  1  0.86818096  0.63277762  0.63437703  1
  O  O299  1  0.25460944  0.25684892  0.12255526  1
  O  O300  1  0.24197150  0.26588940  0.61702621  1
  O  O301  1  0.26575478  0.74828002  0.12480931  1
  O  O302  1  0.27565096  0.73980620  0.62405557  1
  O  O303  1  0.75439783  0.25490282  0.12345109  1
  O  O304  1  0.74850650  0.24357402  0.60754622  1
  O  O305  1  0.76195266  0.75576240  0.13111679  1
  O  O306  1  0.75750724  0.75580574  0.61834942  1
  O  O307  1  0.24374911  0.24315990  0.38215026  1
  O  O308  1  0.24052939  0.24561604  0.88071377  1
  O  O309  1  0.23646477  0.74915911  0.37399480  1
  O  O310  1  0.25588502  0.73408286  0.86443091  1
  O  O311  1  0.74571944  0.24258230  0.38081585  1
  O  O312  1  0.73843728  0.24275734  0.88364606  1
  O  O313  1  0.74797347  0.74564454  0.38272073  1
  O  O314  1  0.75202910  0.73758262  0.86747359  1
  O  O315  1  0.00214509  0.12049016  0.00894656  1
  O  O316  1  0.00987409  0.11698760  0.50697007  1
  O  O317  1  0.00077545  0.61559477  0.00781564  1
  O  O318  1  0.01529365  0.62334913  0.49528026  1
  O  O319  1  0.50510620  0.11702817  0.00394004  1
  O  O320  1  0.50858775  0.11837122  0.50570163  1
  O  O321  1  0.50926824  0.62269351  0.00627412  1
  O  O322  1  0.50805128  0.61657519  0.50774527  1
  O  O323  1  0.49549557  0.38056608  0.49529959  1
  O  O324  1  0.49708916  0.37899824  0.98650001  1
  O  O325  1  0.50389714  0.88238225  0.49174787  1
  O  O326  1  0.50759215  0.88375728  0.99015707  1
  O  O327  1  0.98749425  0.36872301  0.49875756  1
  O  O328  1  0.99331732  0.38741873  1.00270054  1
  O  O329  1  1.00861982  0.88611996  0.49235673  1
  O  O330  1  0.99960658  0.88348383  0.98805372  1
  O  O331  1  0.50167918  0.48995654  0.38320127  1
  O  O332  1  0.49018658  0.49348023  0.87468175  1
  O  O333  1  0.50969200  0.98953993  0.38530248  1
  O  O334  1  0.49988490  0.99263029  0.88454013  1
  O  O335  1  0.98703870  0.49939691  0.36766549  1
  O  O336  1  0.98559544  0.50211486  0.88379937  1
  O  O337  1  0.99737190  0.99464879  0.38087440  1
  O  O338  1  1.00122674  0.99187687  0.88432338  1
  O  O339  1  0.00321462  0.00569355  0.12162430  1
  O  O340  1  -0.00035754  0.00418461  0.61086366  1
  O  O341  1  -0.00306314  0.50839379  0.11815626  1
  O  O342  1  0.01351915  0.50248631  0.62841574  1
  O  O343  1  0.50563085  -0.00171098  0.11961147  1
  O  O344  1  0.51058111  0.00578476  0.61964601  1
  O  O345  1  0.49995748  0.50847992  0.12452715  1
  O  O346  1  0.49848171  0.50734107  0.61730351  1
  O  O347  1  0.23993259  0.37888956  0.24507574  1
  O  O348  1  0.24841823  0.38622608  0.74133856  1
  O  O349  1  0.23938897  0.88271770  0.25078674  1
  O  O350  1  0.24954868  0.88113227  0.74114178  1
  O  O351  1  0.74929858  0.38101108  0.24392880  1
  O  O352  1  0.74268858  0.38892765  0.75585571  1
  O  O353  1  0.73782658  0.87650192  0.24588191  1
  O  O354  1  0.74277862  0.87525291  0.74253254  1
  O  O355  1  0.25534051  0.11741128  0.25763185  1
  O  O356  1  0.26048927  0.13112443  0.75579403  1
  O  O357  1  0.24130164  0.60808406  0.24948055  1
  O  O358  1  0.25568568  0.61405846  0.75340757  1
  O  O359  1  0.74661076  0.12002877  0.26527987  1
  O  O360  1  0.74475763  0.12424816  0.76766425  1
  O  O361  1  0.75625367  0.61747387  0.25478030  1
  O  O362  1  0.75330338  0.61471627  0.75794068  1
  O  O363  1  0.36319949  0.13014000  0.36982686  1
  O  O364  1  0.36841535  0.12833928  0.86592198  1
  O  O365  1  0.37419277  0.62283316  0.37334062  1
  O  O366  1  0.37063113  0.61670012  0.86774073  1
  O  O367  1  0.86937423  0.11594242  0.38013332  1
  O  O368  1  0.85617955  0.12691228  0.88375822  1
  O  O369  1  0.87162799  0.61518638  0.36982370  1
  O  O370  1  0.86418808  0.61801147  0.87094063  1
  O  O371  1  0.13465255  0.37448187  0.13311540  1
  O  O372  1  0.13345404  0.39087216  0.62177139  1
  O  O373  1  0.12428008  0.87870888  0.13112519  1
  O  O374  1  0.13616433  0.82706135  0.64291055  1
  O  O375  1  0.63534129  0.37447537  0.12734600  1
  O  O376  1  0.62000832  0.37238905  0.63876839  1
  O  O377  1  0.62967181  0.87825474  0.13214866  1
  O  O378  1  0.63261674  0.88067479  0.63320690  1
  O  O379  1  0.11869097  0.25454997  0.25790007  1
  O  O380  1  0.12070775  0.25449756  0.75938968  1
  O  O381  1  0.12693479  0.75740872  0.25511698  1
  O  O382  1  0.10272379  0.72266657  0.76046015  1
  O  O383  1  0.62713756  0.24987565  0.26374767  1
  O  O384  1  0.63189931  0.26065441  0.76008021  1
  O  O385  1  0.61813760  0.75695964  0.25412112  1
  O  O386  1  0.61609437  0.75776379  0.74275726  1
  O  O387  1  0.36694988  0.23925644  0.24244203  1
  O  O388  1  0.37506559  0.23836332  0.75304347  1
  O  O389  1  0.38596014  0.75308182  0.24557716  1
  O  O390  1  0.38878386  0.74324995  0.73988318  1
  O  O391  1  0.88884502  0.25577435  0.24813909  1
  O  O392  1  0.87820266  0.23995981  0.75630106  1
  O  O393  1  0.87187107  0.73648394  0.24913463  1
  O  O394  1  0.87793801  0.74066617  0.74154275  1
  O  O395  1  0.38733126  0.49257795  0.49780807  1
  O  O396  1  0.37404982  0.49831200  0.98687405  1
  O  O397  1  0.39234571  1.00006923  0.50274809  1
  O  O398  1  0.38554991  1.00595999  0.99891859  1
  O  O399  1  0.87209316  0.48924487  0.48617310  1
  O  O400  1  0.87751411  0.49814582  0.99532072  1
  O  O401  1  0.89291267  0.99970446  0.48858175  1
  O  O402  1  0.88594094  1.00264462  1.00714700  1
  O  O403  1  0.11268791  0.01139518  0.00780809  1
  O  O404  1  0.11275903  0.00854845  0.48979117  1
  O  O405  1  0.11397912  0.50745726  0.00417101  1
  O  O406  1  0.12792939  0.50834882  0.51052446  1
  O  O407  1  0.61619459  0.00432812  0.01205016  1
  O  O408  1  0.61982824  0.00430078  0.50929999  1
  O  O409  1  0.62278951  0.51113279  0.00449056  1
  O  O410  1  0.61589753  0.50320308  0.49721360  1
  O  O411  1  0.36454937  0.36764423  0.12589499  1
  O  O412  1  0.36929452  0.37771724  0.61262684  1
  O  O413  1  0.37160804  0.85975086  0.12480975  1
  O  O414  1  0.38479931  0.86285130  0.62418346  1
  O  O415  1  0.86465137  0.37029816  0.12289192  1
  O  O416  1  0.87475875  0.38483967  0.60756776  1
  O  O417  1  0.86699902  0.86046924  0.13071484  1
  O  O418  1  0.86309900  0.86657944  0.62888863  1
  O  O419  1  0.13649568  0.13309510  0.38263881  1
  O  O420  1  0.12992906  0.13552899  0.88036570  1
  O  O421  1  0.12616150  0.63011098  0.38088097  1
  O  O422  1  0.13486004  0.61490827  0.88422689  1
  O  O423  1  0.63181380  0.12995537  0.38187751  1
  O  O424  1  0.62766242  0.13253638  0.88038001  1
  O  O425  1  0.63229509  0.63034933  0.38136437  1
  O  O426  1  0.63057846  0.62323657  0.88835368  1
