# generated using pymatgen
data_V85Zn86O256
_symmetry_space_group_name_H-M   'P 1'
_cell_length_a   16.92324275
_cell_length_b   16.91853914
_cell_length_c   16.92748394
_cell_angle_alpha   89.96791260
_cell_angle_beta   90.04176458
_cell_angle_gamma   90.04804416
_symmetry_Int_Tables_number   1
_chemical_formula_structural   V85Zn86O256
_chemical_formula_sum   'V85 Zn86 O256'
_cell_volume   4846.61496555
_cell_formula_units_Z   1
loop_
 _symmetry_equiv_pos_site_id
 _symmetry_equiv_pos_as_xyz
  1  'x, y, z'
loop_
 _atom_site_type_symbol
 _atom_site_label
 _atom_site_symmetry_multiplicity
 _atom_site_fract_x
 _atom_site_fract_y
 _atom_site_fract_z
 _atom_site_occupancy
  V  V0  1  0.12401341  0.38228185  0.74824814  1
  V  V1  1  0.49197201  0.74499749  0.24869232  1
  V  V2  1  0.62757100  0.49973490  0.12528890  1
  V  V3  1  0.12368480  -0.00307431  0.63365449  1
  V  V4  1  0.62471038  0.74328383  0.86721561  1
  V  V5  1  0.36989190  0.36174399  0.50210072  1
  V  V6  1  0.13035957  0.76060913  0.38649901  1
  V  V7  1  0.36069537  0.86981467  0.00015442  1
  V  V8  1  0.75271008  0.24887194  0.49901034  1
  V  V9  1  0.49576647  0.49508657  0.00036717  1
  V  V10  1  0.49756806  0.12518653  0.12410778  1
  V  V11  1  0.36294231  0.00084055  0.37549128  1
  V  V12  1  0.37280534  0.50753035  0.37303115  1
  V  V13  1  0.75377369  0.36213289  0.12343330  1
  V  V14  1  0.75822727  0.49955458  0.24896624  1
  V  V15  1  -0.00728512  0.12218294  0.12388720  1
  V  V16  1  0.74990752  0.50502905  0.75884614  1
  V  V17  1  0.12643818  0.37985255  0.24539484  1
  V  V18  1  0.74911377  0.11726354  0.87082975  1
  V  V19  1  0.13380225  0.75508324  0.87768344  1
  V  V20  1  0.63049388  0.87682300  0.75013630  1
  V  V21  1  0.62388729  0.12258650  0.49865094  1
  V  V22  1  0.75213550  0.00035097  0.25134028  1
  V  V23  1  0.49755281  0.86782847  0.86802800  1
  V  V24  1  0.49656995  0.49956340  0.50118361  1
  V  V25  1  0.00224118  0.75312534  0.25013583  1
  V  V26  1  0.63018644  0.24991602  0.87809122  1
  V  V27  1  0.62434577  0.62469910  0.50059808  1
  V  V28  1  0.49502815  0.37249369  0.87755385  1
  V  V29  1  0.25013719  0.36464369  0.62107853  1
  V  V30  1  0.87612028  0.74936386  0.62571365  1
  V  V31  1  0.00284331  0.37202226  0.38051539  1
  V  V32  1  0.12369717  0.25019573  0.87810971  1
  V  V33  1  -0.00050351  0.50011747  0.01184402  1
  V  V34  1  0.25007647  0.86805613  0.62708531  1
  V  V35  1  0.13259615  0.62125299  0.00313967  1
  V  V36  1  0.87223741  0.11241936  0.74893326  1
  V  V37  1  0.75367360  0.75568933  -0.00451752  1
  V  V38  1  0.49738913  0.37580770  0.37588406  1
  V  V39  1  0.87750022  0.62553737  0.75538374  1
  V  V40  1  0.62331408  0.24979971  0.37455879  1
  V  V41  1  0.87281792  0.36238540  0.00349353  1
  V  V42  1  0.93282884  0.54958553  0.43316076  1
  V  V43  1  0.62559311  0.87282195  0.24428814  1
  V  V44  1  0.24779915  0.12610921  0.87569667  1
  V  V45  1  0.49782878  0.25013811  0.24992488  1
  V  V46  1  0.36510233  0.12574498  0.25170644  1
  V  V47  1  0.62486426  0.37399238  0.75005280  1
  V  V48  1  0.63082314  0.00111705  0.62974698  1
  V  V49  1  0.49666587  0.62438602  0.12637763  1
  V  V50  1  0.25003659  0.51144225  0.24647950  1
  V  V51  1  0.87805030  0.37462401  0.49667782  1
  V  V52  1  0.00128412  -0.00376716  0.49056604  1
  V  V53  1  0.24833083  0.63219228  0.39228653  1
  V  V54  1  0.63313175  0.62424244  -0.00349003  1
  V  V55  1  0.37341144  -0.00041097  0.87444664  1
  V  V56  1  0.62265968  0.49954086  0.62623670  1
  V  V57  1  0.62520450  0.74875884  0.37233974  1
  V  V58  1  0.49685409  0.87761055  0.37438365  1
  V  V59  1  0.49842641  -0.00335747  -0.00104952  1
  V  V60  1  0.13627777  0.12786476  0.49815870  1
  V  V61  1  -0.00410255  0.24992501  0.24689356  1
  V  V62  1  0.37361043  0.25574274  0.11705136  1
  V  V63  1  0.87657308  0.75225873  0.12156155  1
  V  V64  1  0.12393802  0.11549479  0.00742132  1
  V  V65  1  0.12602669  0.87526919  0.23207156  1
  V  V66  1  0.49748321  0.24998268  0.74763283  1
  V  V67  1  0.13909878  0.24751692  0.37715871  1
  V  V68  1  0.37098986  0.49627867  0.87465305  1
  V  V69  1  -0.00385324  0.37999187  0.87653642  1
  V  V70  1  -0.00520589  0.24973377  0.74973695  1
  V  V71  1  0.49463372  0.12747602  0.62374504  1
  V  V72  1  0.36575592  0.75053749  0.12017386  1
  V  V73  1  -0.00910995  0.87166913  0.87987335  1
  V  V74  1  0.24607066  -0.00446319  0.23256367  1
  V  V75  1  0.62340742  -0.00113199  0.12414032  1
  V  V76  1  0.25016338  0.38049530  0.12009243  1
  V  V77  1  0.75075232  0.37650660  0.62486022  1
  V  V78  1  0.11917513  0.51159538  0.60453683  1
  V  V79  1  0.00729016  0.74969556  0.74687627  1
  V  V80  1  0.63159186  0.12762652  0.00118214  1
  V  V81  1  0.74903815  0.62035740  0.37567248  1
  V  V82  1  0.49944538  0.63445076  0.62887615  1
  V  V83  1  0.37047394  0.12902122  0.74597930  1
  V  V84  1  0.37688385  0.63307886  0.75155130  1
  Zn  Zn85  1  0.49627542  -0.00029856  0.49933551  1
  Zn  Zn86  1  0.87207974  0.87828788  0.49653667  1
  Zn  Zn87  1  0.87352891  0.12824455  0.25016903  1
  Zn  Zn88  1  0.62594614  0.37532089  0.25054786  1
  Zn  Zn89  1  0.24541730  -0.00186672  0.75227359  1
  Zn  Zn90  1  0.75326346  0.87784642  0.62626997  1
  Zn  Zn91  1  0.88145251  0.62355534  0.25114826  1
  Zn  Zn92  1  -0.00618291  -0.01305425  0.01023071  1
  Zn  Zn93  1  0.76138537  0.87944769  0.11977538  1
  Zn  Zn94  1  0.25250291  0.62796828  0.87529078  1
  Zn  Zn95  1  0.25185711  0.25496072  -0.00140021  1
  Zn  Zn96  1  0.25019340  0.50227476  0.74473589  1
  Zn  Zn97  1  0.87608791  0.24878900  0.62594026  1
  Zn  Zn98  1  -0.00134631  0.12393219  0.62288941  1
  Zn  Zn99  1  0.36523720  0.87009297  0.49706122  1
  Zn  Zn100  1  0.00383349  0.62225066  0.12819729  1
  Zn  Zn101  1  0.37134092  0.74899337  0.62042896  1
  Zn  Zn102  1  0.75673583  0.12297024  0.37486216  1
  Zn  Zn103  1  0.88456459  -0.00600578  0.36710811  1
  Zn  Zn104  1  0.86808089  -0.00852884  0.88202749  1
  Zn  Zn105  1  0.75041789  0.75422638  0.50082671  1
  Zn  Zn106  1  0.86853391  0.50438083  0.88228109  1
  Zn  Zn107  1  0.18541232  0.19035263  0.18790452  1
  Zn  Zn108  1  0.18246802  0.18689786  0.68768439  1
  Zn  Zn109  1  0.18551585  0.68750634  0.18743808  1
  Zn  Zn110  1  0.18659631  0.68372150  0.68980097  1
  Zn  Zn111  1  0.68565139  0.18527891  0.18989762  1
  Zn  Zn112  1  0.68813818  0.18697329  0.68724610  1
  Zn  Zn113  1  0.68996381  0.68692794  0.18504390  1
  Zn  Zn114  1  0.69000635  0.68819212  0.68847978  1
  Zn  Zn115  1  0.31356925  0.31777418  0.30832642  1
  Zn  Zn116  1  0.31026581  0.31286163  0.80941810  1
  Zn  Zn117  1  0.30956222  0.81364293  0.30920045  1
  Zn  Zn118  1  0.31054775  0.81451036  0.80530573  1
  Zn  Zn119  1  0.81454048  0.31495613  0.31485558  1
  Zn  Zn120  1  0.81189900  0.31090361  0.81509463  1
  Zn  Zn121  1  0.81521499  0.81478475  0.31358061  1
  Zn  Zn122  1  0.81013574  0.80755973  0.81120623  1
  Zn  Zn123  1  0.18900984  0.43774431  0.43656179  1
  Zn  Zn124  1  0.18524938  0.43988628  0.93823521  1
  Zn  Zn125  1  0.18651812  0.93863442  0.43976377  1
  Zn  Zn126  1  0.18272121  0.93740033  0.93522742  1
  Zn  Zn127  1  0.68778713  0.43819905  0.43687233  1
  Zn  Zn128  1  0.68680594  0.43377280  0.94138531  1
  Zn  Zn129  1  0.68922927  0.93571775  0.43693314  1
  Zn  Zn130  1  0.68518224  0.93529654  0.93662811  1
  Zn  Zn131  1  0.31249249  0.06505360  0.05919163  1
  Zn  Zn132  1  0.31081971  0.05738198  0.56318281  1
  Zn  Zn133  1  0.31459943  0.56285556  0.06181167  1
  Zn  Zn134  1  0.31034773  0.55592948  0.56685373  1
  Zn  Zn135  1  0.81518722  0.06229871  0.06210980  1
  Zn  Zn136  1  0.81481640  0.06249502  0.56229091  1
  Zn  Zn137  1  0.81693416  0.56389559  0.06551165  1
  Zn  Zn138  1  0.80979408  0.56924306  0.57278165  1
  Zn  Zn139  1  0.43433359  0.43810442  0.18959803  1
  Zn  Zn140  1  0.43414236  0.43917686  0.68816332  1
  Zn  Zn141  1  0.43364455  0.93471658  0.18635599  1
  Zn  Zn142  1  0.43709457  0.94041181  0.68725348  1
  Zn  Zn143  1  0.93595824  0.43350805  0.18980584  1
  Zn  Zn144  1  0.93829539  0.44140356  0.68402442  1
  Zn  Zn145  1  0.94095025  0.93629094  0.18709337  1
  Zn  Zn146  1  0.94345283  0.93193939  0.68964013  1
  Zn  Zn147  1  0.07016636  0.06404456  0.31060143  1
  Zn  Zn148  1  0.05685716  0.06215388  0.81656822  1
  Zn  Zn149  1  0.07289716  0.56888427  0.31261634  1
  Zn  Zn150  1  0.06054056  0.56669741  0.81600327  1
  Zn  Zn151  1  0.55989253  0.06176536  0.31152143  1
  Zn  Zn152  1  0.56019019  0.06031818  0.81127095  1
  Zn  Zn153  1  0.56419763  0.56046031  0.30971428  1
  Zn  Zn154  1  0.55996820  0.56181061  0.81282913  1
  Zn  Zn155  1  0.43409170  0.18398123  0.43491938  1
  Zn  Zn156  1  0.43948724  0.18612062  0.93640448  1
  Zn  Zn157  1  0.43325256  0.68895506  0.43952338  1
  Zn  Zn158  1  0.43962585  0.68512017  0.93933416  1
  Zn  Zn159  1  0.94248550  0.18078728  0.43407909  1
  Zn  Zn160  1  0.93560529  0.18273550  0.93753877  1
  Zn  Zn161  1  0.94541495  0.71714641  0.43638731  1
  Zn  Zn162  1  0.93886559  0.68560498  0.93629422  1
  Zn  Zn163  1  0.06203020  0.31002258  0.06426985  1
  Zn  Zn164  1  0.06566852  0.31174187  0.56322012  1
  Zn  Zn165  1  0.06453944  0.80560855  0.05922389  1
  Zn  Zn166  1  0.06208173  0.81667644  0.56818618  1
  Zn  Zn167  1  0.56504988  0.31329263  0.06370142  1
  Zn  Zn168  1  0.56014992  0.31059982  0.56194852  1
  Zn  Zn169  1  0.55919267  0.80975914  0.05747276  1
  Zn  Zn170  1  0.56226931  0.81322818  0.55921370  1
  O  O171  1  0.11708289  0.13286819  0.11409535  1
  O  O172  1  0.12290352  0.11774489  0.61556355  1
  O  O173  1  0.12320433  0.63145195  0.10743466  1
  O  O174  1  0.12940110  0.61001020  0.62505416  1
  O  O175  1  0.61801268  0.12174915  0.11738704  1
  O  O176  1  0.61886512  0.12078174  0.61824373  1
  O  O177  1  0.61642874  0.62003623  0.11781370  1
  O  O178  1  0.61840475  0.61896249  0.62214865  1
  O  O179  1  0.37822736  0.38229116  0.38269607  1
  O  O180  1  0.38358549  0.38124177  0.86944369  1
  O  O181  1  0.38063905  0.88247216  0.37246703  1
  O  O182  1  0.38074705  0.87742771  0.87798075  1
  O  O183  1  0.88289115  0.37617815  0.38791006  1
  O  O184  1  0.88098773  0.37731210  0.88287045  1
  O  O185  1  0.87399666  0.88035156  0.38059286  1
  O  O186  1  0.88652276  0.87116335  0.87177742  1
  O  O187  1  0.26005010  -0.00420291  0.36415363  1
  O  O188  1  0.25398747  0.00725368  0.87269321  1
  O  O189  1  0.25483009  0.51189231  0.37148231  1
  O  O190  1  0.26282890  0.49690175  0.87400886  1
  O  O191  1  0.74272221  0.00167491  0.35884746  1
  O  O192  1  0.74634178  0.01273822  0.87667660  1
  O  O193  1  0.74394285  0.51118671  0.36656318  1
  O  O194  1  0.74898825  0.49126450  0.86277189  1
  O  O195  1  0.25973723  0.49387130  0.13509516  1
  O  O196  1  0.23612422  0.48904174  0.62612435  1
  O  O197  1  0.25265753  1.00053887  0.13396031  1
  O  O198  1  0.23720686  0.99744174  0.62956781  1
  O  O199  1  0.74598215  0.49542814  0.13223016  1
  O  O200  1  0.74220253  0.49396241  0.63380226  1
  O  O201  1  0.74162338  0.99868513  0.13238996  1
  O  O202  1  0.73470760  1.00185023  0.62144250  1
  O  O203  1  0.00724977  0.37096611  0.25870312  1
  O  O204  1  0.00345288  0.37040012  0.75801042  1
  O  O205  1  0.01814795  0.87133925  0.24665415  1
  O  O206  1  0.00019430  0.85901611  0.76243501  1
  O  O207  1  0.50094664  0.36913724  0.25740684  1
  O  O208  1  0.50530120  0.36964016  0.75388645  1
  O  O209  1  0.50491460  0.86877009  0.25709565  1
  O  O210  1  0.50590650  0.87991187  0.76267851  1
  O  O211  1  0.49136518  0.13008773  0.24214577  1
  O  O212  1  0.49284403  0.12990681  0.74332092  1
  O  O213  1  0.50535656  0.63310655  0.24008250  1
  O  O214  1  0.49183292  0.61712834  0.73917300  1
  O  O215  1  1.00501049  0.13225003  0.23972587  1
  O  O216  1  0.99035669  0.13403178  0.75228190  1
  O  O217  1  1.00373942  0.63518582  0.24815982  1
  O  O218  1  0.99204936  0.63699972  0.75535982  1
  O  O219  1  0.37461288  0.24477341  0.01287471  1
  O  O220  1  0.37827194  0.26230209  0.49606439  1
  O  O221  1  0.38016147  0.75759792  0.00672268  1
  O  O222  1  0.38199894  0.75821140  0.50743501  1
  O  O223  1  0.87822535  0.26309754  -0.00312129  1
  O  O224  1  0.86823575  0.25579816  0.49979038  1
  O  O225  1  0.86363775  0.74091284  0.00582442  1
  O  O226  1  0.87360514  0.75365932  0.51147315  1
  O  O227  1  0.12167672  0.23653932  0.49385336  1
  O  O228  1  0.12354515  0.24582697  0.98728809  1
  O  O229  1  0.11940767  0.75899450  0.48510785  1
  O  O230  1  0.12171173  0.73605762  0.98640086  1
  O  O231  1  0.63049285  0.24114086  0.49576729  1
  O  O232  1  0.61563736  0.23946583  0.99028103  1
  O  O233  1  0.62516379  0.74211378  0.49008321  1
  O  O234  1  0.63026340  0.74135084  0.99233088  1
  O  O235  1  0.49292737  0.24767421  0.13066920  1
  O  O236  1  0.50491178  0.23661805  0.63195350  1
  O  O237  1  0.49725238  0.74121224  0.13036300  1
  O  O238  1  0.50360002  0.73662296  0.62438112  1
  O  O239  1  1.00477784  0.24138213  0.13647125  1
  O  O240  1  1.00116133  0.25043484  0.63952570  1
  O  O241  1  0.99599176  0.74823134  0.13366586  1
  O  O242  1  0.99488274  0.75423928  0.63670290  1
  O  O243  1  0.00990706  0.25776294  0.36944708  1
  O  O244  1  0.00383309  0.25925934  0.86820429  1
  O  O245  1  0.01983440  0.75074831  0.36104226  1
  O  O246  1  0.00703448  0.75646138  0.87095502  1
  O  O247  1  0.50323363  0.25462525  0.36965932  1
  O  O248  1  0.50789110  0.25342793  0.86870072  1
  O  O249  1  0.50483093  0.75405357  0.36488299  1
  O  O250  1  0.51030884  0.75773880  0.88066824  1
  O  O251  1  0.23565198  0.12088290  0.50211740  1
  O  O252  1  0.24053583  0.12910058  0.99420447  1
  O  O253  1  0.25328266  0.62422151  0.49036459  1
  O  O254  1  0.23681440  0.61764169  0.99540162  1
  O  O255  1  0.74276765  0.13268368  0.49822183  1
  O  O256  1  0.73622536  0.12399476  0.99491849  1
  O  O257  1  0.74267344  0.62424357  0.49260146  1
  O  O258  1  0.73735439  0.62929114  1.00538470  1
  O  O259  1  0.24220797  0.37548957  0.01550676  1
  O  O260  1  0.25512855  0.37600606  0.51124471  1
  O  O261  1  0.26168156  0.87868634  -0.00528530  1
  O  O262  1  0.24904462  0.88547645  0.52016941  1
  O  O263  1  0.75700778  0.37768875  0.01430224  1
  O  O264  1  0.75738845  0.36957724  0.50254707  1
  O  O265  1  0.74156720  0.86072741  0.00365924  1
  O  O266  1  0.74975460  0.87281056  0.50671953  1
  O  O267  1  0.13564830  0.48993971  0.25606497  1
  O  O268  1  0.12519706  0.48704292  0.75789860  1
  O  O269  1  0.13717123  0.98903091  0.25126235  1
  O  O270  1  0.12281993  1.01049287  0.73608484  1
  O  O271  1  0.63516539  0.49708421  0.24239924  1
  O  O272  1  0.63070467  0.49369197  0.74674019  1
  O  O273  1  0.62730912  0.99256002  0.24258037  1
  O  O274  1  0.61989272  0.99158017  0.74144381  1
  O  O275  1  0.36359314  0.00522260  0.25053248  1
  O  O276  1  0.37551907  0.01348629  0.75786319  1
  O  O277  1  0.36636997  0.49440473  0.26548459  1
  O  O278  1  0.37450326  0.50762603  0.75973298  1
  O  O279  1  0.86451356  0.00005973  0.24600551  1
  O  O280  1  0.88051528  0.00995792  0.75535454  1
  O  O281  1  0.86322699  0.50189671  0.24789326  1
  O  O282  1  0.86695971  0.50665559  0.74907012  1
  O  O283  1  0.11925861  0.36951662  0.36996313  1
  O  O284  1  0.11763619  0.36893111  0.87009582  1
  O  O285  1  0.13874917  0.86279413  0.36497922  1
  O  O286  1  0.11772027  0.85948321  0.87818845  1
  O  O287  1  0.61690838  0.36680141  0.37658366  1
  O  O288  1  0.61830354  0.36675565  0.87175966  1
  O  O289  1  0.61814850  0.87109396  0.36161894  1
  O  O290  1  0.61728271  0.86818044  0.86795533  1
  O  O291  1  0.37836535  0.13200249  0.13287618  1
  O  O292  1  0.38220145  0.11961447  0.63288077  1
  O  O293  1  0.39027646  0.63181852  0.11710551  1
  O  O294  1  0.38251685  0.62174102  0.63270787  1
  O  O295  1  0.88897923  0.12967244  0.12829414  1
  O  O296  1  0.87673665  0.12861786  0.63470008  1
  O  O297  1  0.88027166  0.63640821  0.12961636  1
  O  O298  1  0.87347327  0.63793704  0.63782109  1
  O  O299  1  0.25777016  0.25925673  0.12507105  1
  O  O300  1  0.24433242  0.26526605  0.62898568  1
  O  O301  1  0.26709119  0.74253375  0.12970268  1
  O  O302  1  0.24594165  0.76457971  0.63082441  1
  O  O303  1  0.74475118  0.26365051  0.12924705  1
  O  O304  1  0.74877609  0.25667817  0.61218894  1
  O  O305  1  0.75777457  0.75127279  0.11670644  1
  O  O306  1  0.75973294  0.75221433  0.62413630  1
  O  O307  1  0.23834439  0.25614181  0.36895262  1
  O  O308  1  0.24054827  0.24671409  0.87696361  1
  O  O309  1  0.24505089  0.74044446  0.37168599  1
  O  O310  1  0.23708319  0.75075562  0.87066905  1
  O  O311  1  0.74334283  0.25094740  0.38519495  1
  O  O312  1  0.73529936  0.24194415  0.87238560  1
  O  O313  1  0.74384940  0.73561665  0.37169749  1
  O  O314  1  0.73863723  0.75102556  0.88334612  1
  O  O315  1  0.00622987  0.13015869  0.01258690  1
  O  O316  1  0.00957922  0.11480116  0.50387251  1
  O  O317  1  0.00706725  0.61467272  0.00057064  1
  O  O318  1  -0.01265189  0.61411742  0.48311519  1
  O  O319  1  0.50679007  0.11651047  0.00452274  1
  O  O320  1  0.50612156  0.12568294  0.50661461  1
  O  O321  1  0.51083263  0.61440418  0.00603753  1
  O  O322  1  0.50485259  0.61671938  0.50622185  1
  O  O323  1  0.49235811  0.38076184  0.49658759  1
  O  O324  1  0.50587818  0.38738140  0.99568394  1
  O  O325  1  0.50497443  0.87898228  0.48227545  1
  O  O326  1  0.49691936  0.88145169  0.98748444  1
  O  O327  1  0.99512916  0.36968568  0.48907945  1
  O  O328  1  0.99508204  0.37989770  0.99547308  1
  O  O329  1  1.00228644  0.89294161  0.50426572  1
  O  O330  1  1.00359061  0.87037294  0.98548655  1
  O  O331  1  0.49219648  0.49730919  0.37933970  1
  O  O332  1  0.49331132  0.49310887  0.88233196  1
  O  O333  1  0.48791765  0.99188532  0.36991793  1
  O  O334  1  0.49262971  0.99411926  0.88070490  1
  O  O335  1  0.99780342  0.49494897  0.37191631  1
  O  O336  1  0.99794637  0.48825691  0.88197168  1
  O  O337  1  1.00728059  1.00229302  0.38725590  1
  O  O338  1  1.00213146  0.97874503  0.87240904  1
  O  O339  1  0.00163500  0.01689596  0.12701296  1
  O  O340  1  0.01173409  0.00056748  0.62020757  1
  O  O341  1  -0.00124877  0.49760937  0.11569118  1
  O  O342  1  0.02145071  0.49148254  0.62763120  1
  O  O343  1  0.50335294  0.00478069  0.12008341  1
  O  O344  1  0.50846904  0.01195655  0.62245612  1
  O  O345  1  0.50336952  0.50426033  0.11992848  1
  O  O346  1  0.50478727  0.50425588  0.61880162  1
  O  O347  1  0.24319706  0.38442300  0.24264529  1
  O  O348  1  0.24175806  0.37705583  0.74002709  1
  O  O349  1  0.24332786  0.88665067  0.24536623  1
  O  O350  1  0.25162575  0.88290324  0.73557261  1
  O  O351  1  0.75035285  0.38063407  0.24167481  1
  O  O352  1  0.74459521  0.37858696  0.74370614  1
  O  O353  1  0.73991398  0.87983953  0.24420603  1
  O  O354  1  0.73473687  0.87360318  0.74988982  1
  O  O355  1  0.25476833  0.11279524  0.24458971  1
  O  O356  1  0.25585679  0.12619781  0.75605045  1
  O  O357  1  0.24582051  0.61387096  0.25465077  1
  O  O358  1  0.26089557  0.62020973  0.75423184  1
  O  O359  1  0.75101481  0.11615001  0.25117378  1
  O  O360  1  0.75874277  0.13033332  0.75841983  1
  O  O361  1  0.75252470  0.61765150  0.25753433  1
  O  O362  1  0.75702419  0.61328085  0.74651892  1
  O  O363  1  0.37844354  0.11700376  0.35959374  1
  O  O364  1  0.36792367  0.12088747  0.87033487  1
  O  O365  1  0.36273309  0.61931475  0.37588381  1
  O  O366  1  0.37688230  0.61742367  0.86852743  1
  O  O367  1  0.87439030  0.11513208  0.36918603  1
  O  O368  1  0.86379900  0.12685441  0.86727277  1
  O  O369  1  0.87143900  0.61900381  0.37804335  1
  O  O370  1  0.87507911  0.62189070  0.86221225  1
  O  O371  1  0.13223350  0.36978785  0.13764991  1
  O  O372  1  0.13325278  0.37871767  0.63105044  1
  O  O373  1  0.12762395  0.87073533  0.13285736  1
  O  O374  1  0.13285091  0.88939926  0.62550192  1
  O  O375  1  0.63694259  0.38118277  0.12548547  1
  O  O376  1  0.62905026  0.37947095  0.62949063  1
  O  O377  1  0.61915315  0.87763503  0.13446251  1
  O  O378  1  0.61956057  0.88343165  0.63357077  1
  O  O379  1  0.11832024  0.25831209  0.25874789  1
  O  O380  1  0.11702967  0.25845584  0.76027115  1
  O  O381  1  0.12427568  0.76220464  0.25186610  1
  O  O382  1  0.11703620  0.74094147  0.76475528  1
  O  O383  1  0.61755969  0.25121503  0.25818289  1
  O  O384  1  0.61842337  0.25435272  0.75667836  1
  O  O385  1  0.61737001  0.75623509  0.25138275  1
  O  O386  1  0.62642455  0.75514327  0.76083166  1
  O  O387  1  0.37687596  0.24220891  0.24277401  1
  O  O388  1  0.38160542  0.23726682  0.75546578  1
  O  O389  1  0.38771634  0.75663735  0.24163846  1
  O  O390  1  0.37503812  0.73710143  0.74581023  1
  O  O391  1  0.89166253  0.25135198  0.25820713  1
  O  O392  1  0.88214695  0.24565370  0.74957865  1
  O  O393  1  0.88691367  0.74760905  0.24621759  1
  O  O394  1  0.88135886  0.74277075  0.74630968  1
  O  O395  1  0.37831051  0.49300684  0.49009171  1
  O  O396  1  0.38603693  0.50496194  0.99013318  1
  O  O397  1  0.37729557  0.99797468  0.48856400  1
  O  O398  1  0.37992733  0.99374499  0.99406547  1
  O  O399  1  0.87407667  0.49597174  0.50175922  1
  O  O400  1  0.88282869  0.49239932  0.99981496  1
  O  O401  1  0.89197376  1.00205881  0.50255834  1
  O  O402  1  0.88227970  1.00648817  0.99399830  1
  O  O403  1  0.11667207  0.01267969  -0.00610364  1
  O  O404  1  0.11866974  0.00904103  0.50665351  1
  O  O405  1  0.11537818  0.51269508  -0.00615776  1
  O  O406  1  0.12380597  0.50091034  0.50444352  1
  O  O407  1  0.61860323  0.00573402  0.00520641  1
  O  O408  1  0.62171830  0.01230937  0.50276518  1
  O  O409  1  0.61998508  0.50603685  0.00505241  1
  O  O410  1  0.61821823  0.50429360  0.50550296  1
  O  O411  1  0.36539509  0.36614084  0.13072663  1
  O  O412  1  0.35999301  0.38091185  0.61799417  1
  O  O413  1  0.38342725  0.86365428  0.11162924  1
  O  O414  1  0.36326975  0.87729543  0.62510013  1
  O  O415  1  0.86204231  0.37550396  0.12008826  1
  O  O416  1  0.87090263  0.37351821  0.61300091  1
  O  O417  1  0.87749272  0.85892775  0.12863154  1
  O  O418  1  0.87330825  0.86400705  0.62819168  1
  O  O419  1  0.12417542  0.13299014  0.38723287  1
  O  O420  1  0.12685835  0.13288030  0.88063692  1
  O  O421  1  0.14125190  0.63965485  0.37395676  1
  O  O422  1  0.12708333  0.63374721  0.88418495  1
  O  O423  1  0.62315089  0.13226320  0.38301379  1
  O  O424  1  0.62791115  0.13015679  0.87994339  1
  O  O425  1  0.63122902  0.62797052  0.37882829  1
  O  O426  1  0.61888226  0.63215543  0.88277549  1
