# generated using pymatgen
data_V85Zn86O256
_symmetry_space_group_name_H-M   'P 1'
_cell_length_a   16.93368548
_cell_length_b   16.94706133
_cell_length_c   16.94104381
_cell_angle_alpha   89.98819524
_cell_angle_beta   90.01034444
_cell_angle_gamma   90.03687770
_symmetry_Int_Tables_number   1
_chemical_formula_structural   V85Zn86O256
_chemical_formula_sum   'V85 Zn86 O256'
_cell_volume   4861.67529452
_cell_formula_units_Z   1
loop_
 _symmetry_equiv_pos_site_id
 _symmetry_equiv_pos_as_xyz
  1  'x, y, z'
loop_
 _atom_site_type_symbol
 _atom_site_label
 _atom_site_symmetry_multiplicity
 _atom_site_fract_x
 _atom_site_fract_y
 _atom_site_fract_z
 _atom_site_occupancy
  V  V0  1  0.25147034  0.74282362  -0.01611309  1
  V  V1  1  0.26046049  0.37614757  0.61908818  1
  V  V2  1  0.75132494  0.87559269  0.61577183  1
  V  V3  1  0.75410342  0.12897138  0.37630173  1
  V  V4  1  0.62859603  0.51081405  0.61760355  1
  V  V5  1  0.62609930  0.62490002  0.00303161  1
  V  V6  1  0.25020643  0.37491655  0.12443897  1
  V  V7  1  0.74979353  0.37110352  0.12561117  1
  V  V8  1  0.37777892  0.74984183  0.62553785  1
  V  V9  1  0.24866703  0.62505890  0.37357171  1
  V  V10  1  0.87580145  0.50176796  0.37204403  1
  V  V11  1  0.87592362  0.63175803  0.23739372  1
  V  V12  1  0.50454904  0.62690292  0.61416228  1
  V  V13  1  0.61435180  0.36950434  0.25021126  1
  V  V14  1  0.87435436  0.86773232  0.01004484  1
  V  V15  1  0.11100929  0.86452637  0.76629103  1
  V  V16  1  0.12482023  0.37328351  0.75208317  1
  V  V17  1  0.24881141  0.74893135  0.50065629  1
  V  V18  1  0.50720237  0.74691181  0.74916840  1
  V  V19  1  0.24911118  0.50399345  0.24389297  1
  V  V20  1  0.00098753  0.74818563  0.24108757  1
  V  V21  1  0.37211813  -0.00257232  0.36079106  1
  V  V22  1  0.62630021  0.12404620  0.00387914  1
  V  V23  1  0.12305863  0.38163844  0.24539509  1
  V  V24  1  0.63269247  0.75175036  0.87972504  1
  V  V25  1  0.50693040  0.87167958  0.35996563  1
  V  V26  1  0.37368115  0.49532668  0.38167797  1
  V  V27  1  0.12366226  0.24960600  0.37216505  1
  V  V28  1  0.49559693  0.00673088  0.50476254  1
  V  V29  1  0.37342766  0.13997999  0.24380820  1
  V  V30  1  0.00173366  0.49826846  0.49827986  1
  V  V31  1  0.62233765  0.12965498  0.50507122  1
  V  V32  1  -0.00454219  0.24971592  0.24814584  1
  V  V33  1  0.62882466  0.87628005  0.74834760  1
  V  V34  1  0.87290851  0.36899513  0.49711608  1
  V  V35  1  0.76642795  0.00189210  0.25215981  1
  V  V36  1  0.62326043  0.73754845  0.36869145  1
  V  V37  1  0.25865978  0.12377835  0.87310243  1
  V  V38  1  0.49145368  0.23712831  0.74562321  1
  V  V39  1  0.74873097  0.36973748  0.62001046  1
  V  V40  1  0.75593631  0.49998200  0.75128886  1
  V  V41  1  0.01040813  0.49259789  0.00610576  1
  V  V42  1  0.87840291  0.37343219  -0.00918180  1
  V  V43  1  0.37413146  0.75163403  0.13050706  1
  V  V44  1  0.11671297  0.63388789  0.00089354  1
  V  V45  1  0.00529154  0.25099387  0.75123543  1
  V  V46  1  0.49914283  0.37712767  0.87365358  1
  V  V47  1  0.88131288  -0.00135457  0.39222827  1
  V  V48  1  0.24698382  0.11794564  0.36782868  1
  V  V49  1  0.37568317  0.87712168  0.49903132  1
  V  V50  1  0.13062584  0.88070452  0.25143671  1
  V  V51  1  0.37317299  0.87612326  -0.00297480  1
  V  V52  1  0.87636683  0.24965104  0.62249055  1
  V  V53  1  0.25543740  -0.00293946  0.75045502  1
  V  V54  1  0.75653334  0.62039908  0.87717019  1
  V  V55  1  0.87725750  0.12569983  0.75005511  1
  V  V56  1  0.12582035  0.12330687  0.00013927  1
  V  V57  1  0.74883069  0.00183159  0.75020411  1
  V  V58  1  0.50003348  0.63106830  0.13234857  1
  V  V59  1  0.87419385  0.24552991  0.12509184  1
  V  V60  1  0.62354558  0.49948136  0.12633652  1
  V  V61  1  0.25580223  0.25569347  0.49558145  1
  V  V62  1  0.49897897  0.50108699  0.00071737  1
  V  V63  1  0.74809474  0.86804453  0.13481413  1
  V  V64  1  0.12412598  -0.00869086  0.62415245  1
  V  V65  1  0.00187562  -0.00719873  0.00020695  1
  V  V66  1  0.12632314  0.50026282  0.62472384  1
  V  V67  1  0.12323082  0.25143587  0.87343727  1
  V  V68  1  0.62524077  0.24930396  0.87528689  1
  V  V69  1  0.25058604  0.50862766  0.75266079  1
  V  V70  1  0.62181780  0.37510809  0.74664039  1
  V  V71  1  0.12289679  0.11891102  0.49856734  1
  V  V72  1  0.49448858  0.36809485  0.38363182  1
  V  V73  1  0.88014136  0.00028127  0.87783223  1
  V  V74  1  0.37473131  0.37318056  0.00361338  1
  V  V75  1  0.49754270  0.13814737  0.13034057  1
  V  V76  1  -0.00139163  0.12215545  0.12752144  1
  V  V77  1  0.62428818  -0.00140729  0.14069086  1
  V  V78  1  -0.00932151  0.62701679  0.62900915  1
  V  V79  1  0.00409944  0.12148668  0.62239221  1
  V  V80  1  0.75023476  0.49844512  0.24981138  1
  V  V81  1  0.50187526  -0.00158329  0.00208630  1
  V  V82  1  0.37239794  0.50805392  0.87531512  1
  V  V83  1  0.62433516  0.24837433  0.37565851  1
  V  V84  1  0.25258060  0.24932923  0.00433775  1
  Zn  Zn85  1  0.38493981  0.23980643  0.61420207  1
  Zn  Zn86  1  0.61633992  0.00782568  0.62750763  1
  Zn  Zn87  1  0.75151686  0.24832761  -0.00046608  1
  Zn  Zn88  1  0.12211640  0.74844350  0.37349670  1
  Zn  Zn89  1  0.37725265  0.62874864  0.25196434  1
  Zn  Zn90  1  0.74376105  0.73061890  0.50306057  1
  Zn  Zn91  1  0.00007710  0.86934579  0.38098316  1
  Zn  Zn92  1  0.74498418  0.61982557  0.38151624  1
  Zn  Zn93  1  0.13235239  0.00198458  0.12951612  1
  Zn  Zn94  1  0.75035147  0.12548890  0.87648069  1
  Zn  Zn95  1  0.75306416  0.74522880  0.01278954  1
  Zn  Zn96  1  0.38087914  0.00377570  0.87071999  1
  Zn  Zn97  1  0.24763853  0.87049145  0.62960685  1
  Zn  Zn98  1  0.49879455  0.49777090  0.50034083  1
  Zn  Zn99  1  0.00029059  0.37415356  0.37267928  1
  Zn  Zn100  1  0.24863802  0.87735273  0.12372402  1
  Zn  Zn101  1  0.88632596  0.49634074  0.87099566  1
  Zn  Zn102  1  0.92877028  0.68494737  0.77301399  1
  Zn  Zn103  1  0.88551442  0.85957337  0.50856277  1
  Zn  Zn104  1  0.37287094  0.63073778  0.75417546  1
  Zn  Zn105  1  0.12335599  0.62520754  0.49950986  1
  Zn  Zn106  1  0.50434347  0.87546896  0.87635745  1
  Zn  Zn107  1  0.18638478  0.18872319  0.18618890  1
  Zn  Zn108  1  0.22290476  0.17108876  0.67072448  1
  Zn  Zn109  1  0.18591791  0.69063172  0.17893382  1
  Zn  Zn110  1  0.18218215  0.68847112  0.68766757  1
  Zn  Zn111  1  0.68848381  0.18497032  0.19346145  1
  Zn  Zn112  1  0.68731026  0.18896178  0.68767208  1
  Zn  Zn113  1  0.68293837  0.68887954  0.20057015  1
  Zn  Zn114  1  0.73313602  0.70968000  0.71035924  1
  Zn  Zn115  1  0.31075801  0.31344649  0.31241982  1
  Zn  Zn116  1  0.30993274  0.31759696  0.81383336  1
  Zn  Zn117  1  0.31179786  0.81185149  0.31294322  1
  Zn  Zn118  1  0.31511599  0.81857138  0.81041513  1
  Zn  Zn119  1  0.81015157  0.31146274  0.31218288  1
  Zn  Zn120  1  0.81049211  0.31073960  0.80906240  1
  Zn  Zn121  1  0.80958274  0.81245069  0.31869874  1
  Zn  Zn122  1  0.85225167  0.80847608  0.82574883  1
  Zn  Zn123  1  0.18651727  0.43712988  0.43381153  1
  Zn  Zn124  1  0.18474700  0.44161806  0.93512712  1
  Zn  Zn125  1  0.18511310  0.93524007  0.43651838  1
  Zn  Zn126  1  0.18806740  0.93589572  0.93753320  1
  Zn  Zn127  1  0.68717334  0.43727236  0.43822697  1
  Zn  Zn128  1  0.68941016  0.43515933  0.93927017  1
  Zn  Zn129  1  0.68208411  0.94409284  0.43377435  1
  Zn  Zn130  1  0.69287999  0.93719478  0.94090262  1
  Zn  Zn131  1  0.31213432  0.05999313  0.06556863  1
  Zn  Zn132  1  0.31047547  0.06212466  0.55943556  1
  Zn  Zn133  1  0.30870341  0.56584272  0.06387701  1
  Zn  Zn134  1  0.31551607  0.56604318  0.56366348  1
  Zn  Zn135  1  0.81180069  0.06046048  0.06556852  1
  Zn  Zn136  1  0.80677731  0.06490178  0.56263844  1
  Zn  Zn137  1  0.81519500  0.55571652  0.06067395  1
  Zn  Zn138  1  0.81278222  0.56096310  0.55860072  1
  Zn  Zn139  1  0.43357440  0.43930726  0.18954298  1
  Zn  Zn140  1  0.43765813  0.43830424  0.68614039  1
  Zn  Zn141  1  0.43308398  0.94222099  0.18200740  1
  Zn  Zn142  1  0.43815208  0.93507290  0.68662857  1
  Zn  Zn143  1  0.93683614  0.43708784  0.18162085  1
  Zn  Zn144  1  0.94012080  0.43735084  0.68654999  1
  Zn  Zn145  1  0.94113321  0.93342923  0.19038124  1
  Zn  Zn146  1  0.93715464  0.93721279  0.68491453  1
  Zn  Zn147  1  0.05705575  0.06214482  0.31051526  1
  Zn  Zn148  1  0.06799622  0.05887448  0.81179921  1
  Zn  Zn149  1  0.06041036  0.56554466  0.30904493  1
  Zn  Zn150  1  0.06752793  0.56203197  0.82303951  1
  Zn  Zn151  1  0.55708815  0.06448654  0.31650476  1
  Zn  Zn152  1  0.56300022  0.06344171  0.81606169  1
  Zn  Zn153  1  0.55840913  0.55637456  0.31193973  1
  Zn  Zn154  1  0.56809307  0.56433152  0.81015940  1
  Zn  Zn155  1  0.43699337  0.18689636  0.43021585  1
  Zn  Zn156  1  0.43998700  0.18915718  0.93842251  1
  Zn  Zn157  1  0.43661093  0.69026581  0.43388037  1
  Zn  Zn158  1  0.44146720  0.69013877  0.93991616  1
  Zn  Zn159  1  0.93762251  0.18469625  0.43587457  1
  Zn  Zn160  1  0.94029048  0.18500364  0.93884120  1
  Zn  Zn161  1  0.93349994  0.69071159  0.43611761  1
  Zn  Zn162  1  0.94319596  0.68928413  0.94792690  1
  Zn  Zn163  1  0.06426696  0.31418966  0.06210432  1
  Zn  Zn164  1  0.06760445  0.31159347  0.56204512  1
  Zn  Zn165  1  0.06501458  0.81076762  0.06424486  1
  Zn  Zn166  1  0.05896093  0.80895992  0.56190780  1
  Zn  Zn167  1  0.56204622  0.31291506  0.06179113  1
  Zn  Zn168  1  0.56261450  0.31029436  0.56149341  1
  Zn  Zn169  1  0.56444520  0.81434383  0.06805683  1
  Zn  Zn170  1  0.56821860  0.81550054  0.55727647  1
  O  O171  1  0.11685239  0.12566893  0.11770016  1
  O  O172  1  0.12338707  0.11670603  0.61620996  1
  O  O173  1  0.14574462  0.61903646  0.09883235  1
  O  O174  1  0.12128962  0.61042438  0.62256001  1
  O  O175  1  0.61813125  0.12069331  0.12152499  1
  O  O176  1  0.62870916  0.12787773  0.60991956  1
  O  O177  1  0.61956310  0.62098434  0.12296412  1
  O  O178  1  0.61834615  0.61307381  0.63115608  1
  O  O179  1  0.38340892  0.38177854  0.36767777  1
  O  O180  1  0.38096012  0.38527460  0.88180986  1
  O  O181  1  0.37907441  0.88136078  0.37906083  1
  O  O182  1  0.38296275  0.87764297  0.88625962  1
  O  O183  1  0.87656707  0.38220408  0.38000396  1
  O  O184  1  0.86978549  0.37034595  0.88771104  1
  O  O185  1  0.87242689  0.89155027  0.37695573  1
  O  O186  1  0.86261497  0.89487084  0.89426718  1
  O  O187  1  0.25614509  0.01118381  0.37813850  1
  O  O188  1  0.25311489  0.00739210  0.87041671  1
  O  O189  1  0.25465012  0.50441773  0.36547526  1
  O  O190  1  0.26070639  0.49270213  0.86443384  1
  O  O191  1  0.75836893  0.00632770  0.36939068  1
  O  O192  1  0.75371401  0.00440852  0.86447607  1
  O  O193  1  0.75694487  0.49472070  0.36474620  1
  O  O194  1  0.74762158  0.50374762  0.86771349  1
  O  O195  1  0.25634573  0.49286684  0.13758523  1
  O  O196  1  0.24607356  0.49455861  0.62877368  1
  O  O197  1  0.24505508  0.99156122  0.11916314  1
  O  O198  1  0.24060582  0.99558084  0.63327306  1
  O  O199  1  0.74365643  0.49192570  0.13153504  1
  O  O200  1  0.74433799  0.48961560  0.63294277  1
  O  O201  1  0.74216865  0.99919920  0.13642648  1
  O  O202  1  0.74514374  0.99899996  0.63828228  1
  O  O203  1  0.00768411  0.36953394  0.24648782  1
  O  O204  1  0.01606559  0.36867119  0.74280156  1
  O  O205  1  0.00682246  0.86417124  0.25603136  1
  O  O206  1  0.01216956  0.87987326  0.74615556  1
  O  O207  1  0.51080032  0.38062593  0.25562704  1
  O  O208  1  0.51034767  0.37238517  0.75334796  1
  O  O209  1  0.49187048  0.88220765  0.26239564  1
  O  O210  1  0.51219702  0.86614186  0.75053464  1
  O  O211  1  0.48418849  0.12099702  0.24393552  1
  O  O212  1  0.50117303  0.13827371  0.75395336  1
  O  O213  1  0.49681536  0.61809806  0.23581746  1
  O  O214  1  0.50423778  0.63792042  0.74307995  1
  O  O215  1  1.00523393  0.13473848  0.23599797  1
  O  O216  1  0.99728797  0.13025317  0.74286670  1
  O  O217  1  0.98576918  0.62991307  0.24923092  1
  O  O218  1  1.00412466  0.61058146  0.73679104  1
  O  O219  1  0.36803024  0.26468631  -0.00798215  1
  O  O220  1  0.36008187  0.24584292  0.49510327  1
  O  O221  1  0.36936629  0.75677366  0.00340220  1
  O  O222  1  0.36782419  0.75741761  0.50300797  1
  O  O223  1  0.87505877  0.25480148  0.00640627  1
  O  O224  1  0.88309893  0.26246897  0.50415851  1
  O  O225  1  0.87221018  0.76447351  0.00863603  1
  O  O226  1  0.85665881  0.75164460  0.48771189  1
  O  O227  1  0.13082586  0.24383250  0.48912670  1
  O  O228  1  0.13266698  0.24638245  0.99257913  1
  O  O229  1  0.13953544  0.74705663  0.49940453  1
  O  O230  1  0.13578682  0.74336637  0.99919063  1
  O  O231  1  0.62095426  0.24409303  0.48681202  1
  O  O232  1  0.62501428  0.24357493  0.99205663  1
  O  O233  1  0.62696517  0.76280043  0.47608284  1
  O  O234  1  0.62703374  0.74435134  0.99521271  1
  O  O235  1  0.50249042  0.23745320  0.12284079  1
  O  O236  1  0.49816917  0.25347934  0.63964862  1
  O  O237  1  0.49043286  0.74086862  0.11696479  1
  O  O238  1  0.50135857  0.74546350  0.62969263  1
  O  O239  1  0.99440355  0.24450999  0.12884480  1
  O  O240  1  0.99982877  0.24010827  0.63024281  1
  O  O241  1  0.99958357  0.75192327  0.14031438  1
  O  O242  1  1.00532358  0.72599269  0.62218495  1
  O  O243  1  0.00378821  0.24986797  0.36372073  1
  O  O244  1  0.01538386  0.24257365  0.86969896  1
  O  O245  1  0.00413472  0.74548365  0.36194412  1
  O  O246  1  -0.04663035  0.75342188  0.85954347  1
  O  O247  1  0.50756743  0.25763198  0.37237924  1
  O  O248  1  0.50930919  0.25571273  0.86819417  1
  O  O249  1  0.50371304  0.76475891  0.37656289  1
  O  O250  1  0.51492037  0.74952101  0.86762291  1
  O  O251  1  0.23795456  0.13263625  0.48627186  1
  O  O252  1  0.24719653  0.13366748  0.99546723  1
  O  O253  1  0.25074331  0.63212105  0.49229542  1
  O  O254  1  0.25684758  0.64064267  0.99517962  1
  O  O255  1  0.73706868  0.11931119  0.48691680  1
  O  O256  1  0.73715961  0.12630920  1.00157995  1
  O  O257  1  0.74180571  0.61527063  0.49570921  1
  O  O258  1  0.74309958  0.62349008  0.99724860  1
  O  O259  1  0.25486540  0.37112699  0.00573763  1
  O  O260  1  0.24597876  0.36823727  0.50447585  1
  O  O261  1  0.25875412  0.86505409  -0.00253925  1
  O  O262  1  0.26061016  0.86744779  0.49873666  1
  O  O263  1  0.75711138  0.37047155  0.00844588  1
  O  O264  1  0.75995405  0.37869566  0.50885708  1
  O  O265  1  0.75676781  0.87524387  0.01475197  1
  O  O266  1  0.74459253  0.89150449  0.51494506  1
  O  O267  1  0.13129577  0.48890426  0.25374595  1
  O  O268  1  0.13270371  0.49321221  0.74554355  1
  O  O269  1  0.11724906  0.98437599  0.25050657  1
  O  O270  1  0.13250912  0.99078686  0.74236747  1
  O  O271  1  0.63086646  0.49120472  0.24537361  1
  O  O272  1  0.63015230  0.48976909  0.74140914  1
  O  O273  1  0.62828551  1.00814360  0.24257694  1
  O  O274  1  0.63020788  0.99591647  0.75100578  1
  O  O275  1  0.37327070  0.00680827  0.25846685  1
  O  O276  1  0.36145422  -0.00913854  0.75218594  1
  O  O277  1  0.36508434  0.50302784  0.26034553  1
  O  O278  1  0.36830755  0.50014740  0.75762896  1
  O  O279  1  0.86838077  0.00335233  0.25441268  1
  O  O280  1  0.86913201  0.00496954  0.75811226  1
  O  O281  1  0.87089121  0.50322690  0.25437547  1
  O  O282  1  0.86103760  0.48643014  0.75393737  1
  O  O283  1  0.12301627  0.36803654  0.36344918  1
  O  O284  1  0.13367343  0.36437545  0.86437309  1
  O  O285  1  0.12385396  0.87105624  0.36406804  1
  O  O286  1  0.12064607  0.87802724  0.86542754  1
  O  O287  1  0.61792663  0.36816102  0.36949890  1
  O  O288  1  0.61994893  0.36838736  0.86858988  1
  O  O289  1  0.60794137  0.88214048  0.37134311  1
  O  O290  1  0.62806238  0.86775605  0.86979631  1
  O  O291  1  0.38095309  0.12331564  0.13669050  1
  O  O292  1  0.33162257  0.14248254  0.63229313  1
  O  O293  1  0.38282403  0.63375075  0.12444198  1
  O  O294  1  0.38627685  0.63210238  0.63050562  1
  O  O295  1  0.88218091  0.13747317  0.11970739  1
  O  O296  1  0.88378784  0.13016397  0.62664867  1
  O  O297  1  0.86661119  0.62321874  0.13922013  1
  O  O298  1  0.89112194  0.61128121  0.62520974  1
  O  O299  1  0.24816882  0.25622241  0.11130370  1
  O  O300  1  0.23476216  0.26657379  0.60834569  1
  O  O301  1  0.26077684  0.75565291  0.11262364  1
  O  O302  1  0.25803066  0.74853725  0.61729513  1
  O  O303  1  0.75808599  0.25175680  0.12625216  1
  O  O304  1  0.75750054  0.26284704  0.63097990  1
  O  O305  1  0.74021424  0.76432674  0.13194051  1
  O  O306  1  0.73149343  0.77307545  0.61496005  1
  O  O307  1  0.24307159  0.24256126  0.37728904  1
  O  O308  1  0.24350459  0.24439805  0.88194932  1
  O  O309  1  0.25032999  0.74038340  0.38205123  1
  O  O310  1  0.25889045  0.75094596  0.88545523  1
  O  O311  1  0.74257127  0.24020640  0.37168289  1
  O  O312  1  0.73632164  0.24792241  0.87432019  1
  O  O313  1  0.73317812  0.74414321  0.36995135  1
  O  O314  1  0.74079754  0.73963910  0.88217159  1
  O  O315  1  0.00514385  0.11778833  0.01049317  1
  O  O316  1  0.01456446  0.13141519  0.50656054  1
  O  O317  1  0.01081759  0.61999040  0.00561572  1
  O  O318  1  0.00101841  0.61098836  0.50632909  1
  O  O319  1  0.50823451  0.12054664  0.00715639  1
  O  O320  1  0.50579557  0.11826527  0.49211667  1
  O  O321  1  0.50692526  0.61893820  0.00871946  1
  O  O322  1  0.49625177  0.62538457  0.51126731  1
  O  O323  1  0.49907633  0.37400433  0.48764092  1
  O  O324  1  0.49227994  0.38030029  0.99618942  1
  O  O325  1  0.48716141  0.88241206  0.49249540  1
  O  O326  1  0.49576567  0.88381369  1.00070315  1
  O  O327  1  0.99506390  0.38370248  0.49940413  1
  O  O328  1  0.99346417  0.38195379  1.00248425  1
  O  O329  1  0.99773525  0.87189026  0.49536924  1
  O  O330  1  0.99214214  0.88634168  1.01063949  1
  O  O331  1  0.49087608  0.49068060  0.37745878  1
  O  O332  1  0.49697060  0.49482599  0.87975399  1
  O  O333  1  0.48886153  0.99269814  0.38255050  1
  O  O334  1  0.50116960  0.99984123  0.88911493  1
  O  O335  1  0.99433089  0.49691577  0.38109590  1
  O  O336  1  0.99807024  0.50384883  0.89484620  1
  O  O337  1  0.98227114  1.00347549  0.37331232  1
  O  O338  1  0.99114962  1.00846965  0.88612347  1
  O  O339  1  0.00193003  0.00870131  0.12008651  1
  O  O340  1  0.00805477  0.01448464  0.63016628  1
  O  O341  1  -0.00923587  0.50107036  0.10577842  1
  O  O342  1  0.00914893  0.50066132  0.61660761  1
  O  O343  1  0.50690321  0.00819229  0.11744749  1
  O  O344  1  0.49499016  -0.00043878  0.60994269  1
  O  O345  1  0.50385886  0.50528604  0.11913181  1
  O  O346  1  0.50660558  0.50866003  0.62411125  1
  O  O347  1  0.24408406  0.38022717  0.24256649  1
  O  O348  1  0.24197341  0.38163549  0.73986527  1
  O  O349  1  0.23381325  0.86786997  0.24949073  1
  O  O350  1  0.24014069  0.88261959  0.75032433  1
  O  O351  1  0.74124944  0.37923323  0.24392454  1
  O  O352  1  0.73803334  0.37869745  0.74466592  1
  O  O353  1  0.75393824  0.88759181  0.24513374  1
  O  O354  1  0.73855438  0.88484392  0.74106817  1
  O  O355  1  0.25928891  0.13038865  0.25542820  1
  O  O356  1  0.23716761  0.11014276  0.76538333  1
  O  O357  1  0.24941907  0.61843284  0.25484793  1
  O  O358  1  0.25182213  0.61214596  0.74390812  1
  O  O359  1  0.74646834  0.11567175  0.26498370  1
  O  O360  1  0.75784681  0.11955383  0.75024263  1
  O  O361  1  0.75933757  0.61617443  0.25519151  1
  O  O362  1  0.73694831  0.60820544  0.76338392  1
  O  O363  1  0.36728945  0.11919967  0.36263018  1
  O  O364  1  0.36315743  0.12479571  0.88124597  1
  O  O365  1  0.36519056  0.61935788  0.37189298  1
  O  O366  1  0.38545861  0.61172285  0.87363487  1
  O  O367  1  0.86525492  0.11434552  0.38212593  1
  O  O368  1  0.87208192  0.11748681  0.87122505  1
  O  O369  1  0.87445102  0.60824837  0.36754879  1
  O  O370  1  0.86025133  0.61690209  0.88193121  1
  O  O371  1  0.13950516  0.37097963  0.13151653  1
  O  O372  1  0.13169749  0.38626622  0.62977309  1
  O  O373  1  0.12414468  0.87553410  0.13921375  1
  O  O374  1  0.12548971  0.88476263  0.62494239  1
  O  O375  1  0.62799694  0.37740645  0.13247986  1
  O  O376  1  0.63130433  0.37706279  0.63097261  1
  O  O377  1  0.63330688  0.88910968  0.12257667  1
  O  O378  1  0.62785417  0.88607797  0.63263699  1
  O  O379  1  0.11599085  0.25949593  0.25164315  1
  O  O380  1  0.12582595  0.25662126  0.75676817  1
  O  O381  1  0.11703039  0.75407227  0.24930561  1
  O  O382  1  0.12774314  0.76594004  0.74795381  1
  O  O383  1  0.62803850  0.25818494  0.26143347  1
  O  O384  1  0.61635864  0.25555042  0.75589320  1
  O  O385  1  0.61701985  0.75443956  0.26766199  1
  O  O386  1  0.62678788  0.75853800  0.75810074  1
  O  O387  1  0.37408166  0.23843634  0.25076904  1
  O  O388  1  0.39155149  0.25686051  0.75698006  1
  O  O389  1  0.37050689  0.74984130  0.23503015  1
  O  O390  1  0.38830544  0.75225035  0.74506023  1
  O  O391  1  0.88762435  0.25702774  0.24172250  1
  O  O392  1  0.88308883  0.24548397  0.74415110  1
  O  O393  1  0.87911863  0.73659440  0.25626107  1
  O  O394  1  0.83904389  0.74316664  0.73830279  1
  O  O395  1  0.37416725  0.50268695  0.48609854  1
  O  O396  1  0.37672242  0.49221544  0.99420999  1
  O  O397  1  0.37575867  0.99527001  0.49029632  1
  O  O398  1  0.38533731  0.99303287  0.99979766  1
  O  O399  1  0.88256948  0.48815741  0.49187711  1
  O  O400  1  0.88021524  0.48704409  0.99661554  1
  O  O401  1  0.87322518  0.99976020  0.49293077  1
  O  O402  1  0.88248150  0.99935067  0.99567285  1
  O  O403  1  0.11602515  0.00544956  -0.00032749  1
  O  O404  1  0.13190321  0.00844123  0.50892419  1
  O  O405  1  0.11452915  0.49727590  0.00523659  1
  O  O406  1  0.11834102  0.49858233  0.50656967  1
  O  O407  1  0.62059463  0.00810777  0.00784989  1
  O  O408  1  0.61151110  0.01142992  0.49873365  1
  O  O409  1  0.61987723  0.50299579  0.00763459  1
  O  O410  1  0.61961687  0.49018827  0.51432433  1
  O  O411  1  0.36386376  0.37826090  0.11705309  1
  O  O412  1  0.36290738  0.36838326  0.62792710  1
  O  O413  1  0.37768602  0.86825654  0.11263776  1
  O  O414  1  0.37324985  0.86755052  0.61557360  1
  O  O415  1  0.87034287  0.36233351  0.11642379  1
  O  O416  1  0.86911570  0.37058633  0.61720467  1
  O  O417  1  0.86191778  0.88728709  0.11991313  1
  O  O418  1  0.85598928  0.88410281  0.62344581  1
  O  O419  1  0.12992490  0.12673488  0.37649822  1
  O  O420  1  0.13409563  0.13105120  0.88301559  1
  O  O421  1  0.13778572  0.62241912  0.37718674  1
  O  O422  1  0.13476811  0.61261139  0.90137867  1
  O  O423  1  0.62831541  0.13238314  0.38036810  1
  O  O424  1  0.62526744  0.13309842  0.88566498  1
  O  O425  1  0.61834531  0.63344790  0.37101146  1
  O  O426  1  0.63136774  0.63020085  0.88434477  1
