# generated using pymatgen
data_V85Zn86O256
_symmetry_space_group_name_H-M   'P 1'
_cell_length_a   16.94163222
_cell_length_b   16.94303678
_cell_length_c   16.93023848
_cell_angle_alpha   90.09763387
_cell_angle_beta   90.04679861
_cell_angle_gamma   89.98894049
_symmetry_Int_Tables_number   1
_chemical_formula_structural   V85Zn86O256
_chemical_formula_sum   'V85 Zn86 O256'
_cell_volume   4859.69256066
_cell_formula_units_Z   1
loop_
 _symmetry_equiv_pos_site_id
 _symmetry_equiv_pos_as_xyz
  1  'x, y, z'
loop_
 _atom_site_type_symbol
 _atom_site_label
 _atom_site_symmetry_multiplicity
 _atom_site_fract_x
 _atom_site_fract_y
 _atom_site_fract_z
 _atom_site_occupancy
  V  V0  1  -0.00295891  0.50306216  0.50340091  1
  V  V1  1  0.49824575  0.87261091  0.38059143  1
  V  V2  1  0.24683638  0.62553947  0.37547287  1
  V  V3  1  0.75569959  0.74470817  0.49904342  1
  V  V4  1  0.74846300  0.87856270  0.12542849  1
  V  V5  1  -0.00603235  -0.00042278  0.48824841  1
  V  V6  1  0.38052845  0.38395851  -0.00666841  1
  V  V7  1  0.62568034  0.00167297  0.12614733  1
  V  V8  1  0.37374305  -0.00278836  0.37154173  1
  V  V9  1  0.24305523  0.88307259  0.13653064  1
  V  V10  1  0.00694877  -0.00463389  0.00369425  1
  V  V11  1  0.62910538  0.36735744  0.75538421  1
  V  V12  1  -0.00225306  0.12995658  0.63343339  1
  V  V13  1  0.86930803  0.37599217  0.50395225  1
  V  V14  1  0.87526054  0.50491220  0.87474112  1
  V  V15  1  0.49983325  0.24040364  0.75090065  1
  V  V16  1  0.06851105  0.69216227  0.81578208  1
  V  V17  1  0.12568256  0.50086744  0.12779553  1
  V  V18  1  0.25115341  0.01211068  0.74735712  1
  V  V19  1  0.86274560  0.50349493  0.37244876  1
  V  V20  1  0.12054870  0.00085366  0.62450464  1
  V  V21  1  0.12504493  0.62968431  0.00089559  1
  V  V22  1  0.62570195  0.87601440  0.25192271  1
  V  V23  1  0.00054458  0.37547975  0.37445398  1
  V  V24  1  0.12697401  0.12387450  -0.00122878  1
  V  V25  1  0.87432392  0.87584915  0.00227657  1
  V  V26  1  0.62875461  0.74042066  0.37534022  1
  V  V27  1  0.12307200  0.12711993  0.50270010  1
  V  V28  1  0.12583668  0.25510812  0.37277893  1
  V  V29  1  0.11808186  0.62823826  0.50044304  1
  V  V30  1  0.86390853  0.62350551  0.25498536  1
  V  V31  1  0.49585216  0.00458777  0.51217116  1
  V  V32  1  0.62502738  0.62607661  0.50769132  1
  V  V33  1  0.24681630  0.87282046  0.62779666  1
  V  V34  1  0.00085776  0.62757717  0.13373449  1
  V  V35  1  0.50036871  0.50448119  0.50470510  1
  V  V36  1  0.74630566  0.25811288  -0.00616276  1
  V  V37  1  0.11714324  0.87581559  0.75609026  1
  V  V38  1  0.62110281  0.50665651  0.12553022  1
  V  V39  1  0.49804383  0.74883873  0.25067507  1
  V  V40  1  0.87599918  0.87865388  0.48704185  1
  V  V41  1  0.25513466  0.24367660  0.49679446  1
  V  V42  1  0.12790676  0.37185965  0.75375637  1
  V  V43  1  0.75448801  0.38513847  0.12762924  1
  V  V44  1  0.24966195  0.49965372  0.25314712  1
  V  V45  1  0.37654062  0.49898469  0.37561806  1
  V  V46  1  0.74774930  0.62417239  0.87107882  1
  V  V47  1  0.51019011  0.37348967  0.37408303  1
  V  V48  1  0.24528335  0.75609587  -0.01023457  1
  V  V49  1  0.74913318  0.00234574  0.74724980  1
  V  V50  1  0.87468857  -0.00317543  0.87347816  1
  V  V51  1  0.25029381  0.25098728  -0.00379205  1
  V  V52  1  0.87482917  0.75131984  0.12788483  1
  V  V53  1  0.87899150  0.25566598  0.12816059  1
  V  V54  1  0.74850080  0.24473409  0.48652770  1
  V  V55  1  0.88127543  0.74969481  0.64140020  1
  V  V56  1  0.38228504  0.12066179  0.24978894  1
  V  V57  1  0.37877820  0.60730207  0.74622734  1
  V  V58  1  0.62762611  0.49380842  0.62553595  1
  V  V59  1  0.25223393  0.37462185  0.12769386  1
  V  V60  1  0.74232562  0.74505784  0.00112706  1
  V  V61  1  0.38092738  0.36656322  0.50157396  1
  V  V62  1  0.86856727  0.12790498  0.26126422  1
  V  V63  1  0.37142452  0.75268000  0.12187638  1
  V  V64  1  -0.00546380  0.50149640  0.00338756  1
  V  V65  1  0.37542712  0.25037735  0.12566103  1
  V  V66  1  0.37490123  0.62530483  0.24974476  1
  V  V67  1  0.61942233  0.74447501  0.87627072  1
  V  V68  1  0.23647478  0.11158745  0.35404997  1
  V  V69  1  0.12085084  0.76483939  0.37201063  1
  V  V70  1  -0.00203880  0.12748065  0.13127194  1
  V  V71  1  0.37743995  0.00702347  0.87110055  1
  V  V72  1  0.86958792  0.25452698  0.63237848  1
  V  V73  1  0.93258634  0.33411932  -0.05444252  1
  V  V74  1  0.62681961  0.12896541  -0.00715922  1
  V  V75  1  0.62289790  0.87114601  0.74810486  1
  V  V76  1  0.38051804  0.74498631  0.62841412  1
  V  V77  1  0.12513229  0.37502622  0.25575401  1
  V  V78  1  0.25642959  0.61480881  0.86975330  1
  V  V79  1  0.75531904  0.49982499  0.74290216  1
  V  V80  1  0.38116528  0.23177341  0.62522252  1
  V  V81  1  0.00293006  0.76817020  0.25360449  1
  V  V82  1  0.50243499  0.12566245  0.12170703  1
  V  V83  1  0.51320430  0.25307484  0.24945393  1
  V  V84  1  0.24729199  0.74970994  0.50041538  1
  Zn  Zn85  1  0.75112927  0.87453224  0.62480354  1
  Zn  Zn86  1  0.49974714  -0.00254904  -0.00295679  1
  Zn  Zn87  1  0.87578445  0.12880625  0.75278700  1
  Zn  Zn88  1  0.00316781  0.86753148  0.87503791  1
  Zn  Zn89  1  0.25372028  0.37758856  0.63215391  1
  Zn  Zn90  1  0.76450607  -0.00325248  0.27313792  1
  Zn  Zn91  1  0.50533721  0.62983283  0.11991398  1
  Zn  Zn92  1  0.24896646  0.12844250  0.87060638  1
  Zn  Zn93  1  0.13246428  0.00487414  0.15813251  1
  Zn  Zn94  1  0.10572621  0.25341134  0.87195948  1
  Zn  Zn95  1  0.49958254  0.37661972  0.87082459  1
  Zn  Zn96  1  0.12960754  0.49728203  0.62952749  1
  Zn  Zn97  1  0.49497022  0.87129549  0.87563922  1
  Zn  Zn98  1  0.61747598  0.00517589  0.62860989  1
  Zn  Zn99  1  0.63603436  0.38016273  0.25483729  1
  Zn  Zn100  1  0.50849863  0.51454957  -0.01305359  1
  Zn  Zn101  1  -0.00215468  0.62702580  0.63611497  1
  Zn  Zn102  1  0.37295191  0.87041663  0.50308596  1
  Zn  Zn103  1  0.63049563  0.12824176  0.49718254  1
  Zn  Zn104  1  0.37348668  0.87803311  -0.00296458  1
  Zn  Zn105  1  0.49908725  0.74257508  0.74798744  1
  Zn  Zn106  1  0.74688824  0.13053298  0.87153230  1
  Zn  Zn107  1  0.18270439  0.17518318  0.19389110  1
  Zn  Zn108  1  0.18481330  0.19949905  0.68623842  1
  Zn  Zn109  1  0.18805392  0.69312259  0.18819364  1
  Zn  Zn110  1  0.19389028  0.68113407  0.68376787  1
  Zn  Zn111  1  0.69388443  0.19000589  0.18267970  1
  Zn  Zn112  1  0.68682803  0.18328161  0.67795377  1
  Zn  Zn113  1  0.68603121  0.68776153  0.18727725  1
  Zn  Zn114  1  0.69209075  0.68632107  0.68661894  1
  Zn  Zn115  1  0.31715898  0.30841689  0.31485116  1
  Zn  Zn116  1  0.31353729  0.31079678  0.81016555  1
  Zn  Zn117  1  0.30999065  0.81206553  0.31266019  1
  Zn  Zn118  1  0.31153307  0.81382538  0.80971424  1
  Zn  Zn119  1  0.81849898  0.31293418  0.30994213  1
  Zn  Zn120  1  0.80615201  0.31483541  0.80683577  1
  Zn  Zn121  1  0.81018644  0.80892512  0.31230123  1
  Zn  Zn122  1  0.80823812  0.81630652  0.81560545  1
  Zn  Zn123  1  0.19638799  0.44337756  0.46028043  1
  Zn  Zn124  1  0.18442973  0.43543050  0.93834727  1
  Zn  Zn125  1  0.18745071  0.93975312  0.44051602  1
  Zn  Zn126  1  0.19067358  0.93786241  0.93462413  1
  Zn  Zn127  1  0.68941809  0.43495741  0.44177280  1
  Zn  Zn128  1  0.68589976  0.43884350  0.93911843  1
  Zn  Zn129  1  0.68551361  0.93173740  0.44286649  1
  Zn  Zn130  1  0.68533663  0.93575264  0.93585062  1
  Zn  Zn131  1  0.31365985  0.06144314  0.06009722  1
  Zn  Zn132  1  0.31201197  0.05939782  0.55592787  1
  Zn  Zn133  1  0.31321807  0.56680859  0.06051250  1
  Zn  Zn134  1  0.30992998  0.55928130  0.56389322  1
  Zn  Zn135  1  0.81058716  0.06484942  0.06399597  1
  Zn  Zn136  1  0.81012977  0.06630842  0.56237395  1
  Zn  Zn137  1  0.81211065  0.56441370  0.06181001  1
  Zn  Zn138  1  0.81427173  0.56926009  0.56438377  1
  Zn  Zn139  1  0.44105742  0.43746896  0.18608142  1
  Zn  Zn140  1  0.44346489  0.43239162  0.68414250  1
  Zn  Zn141  1  0.43961421  0.93639887  0.18596648  1
  Zn  Zn142  1  0.43231626  0.93067076  0.69465735  1
  Zn  Zn143  1  0.93677983  0.43791166  0.19220291  1
  Zn  Zn144  1  0.94044649  0.43516458  0.68745047  1
  Zn  Zn145  1  0.93614797  0.94509253  0.18787713  1
  Zn  Zn146  1  0.93586662  0.93623645  0.68205720  1
  Zn  Zn147  1  0.05707358  0.06955707  0.31363190  1
  Zn  Zn148  1  0.06234433  0.06071547  0.81517424  1
  Zn  Zn149  1  0.05853608  0.56360630  0.31727549  1
  Zn  Zn150  1  0.05279889  0.51102672  0.79970774  1
  Zn  Zn151  1  0.60064439  0.05290863  0.33397289  1
  Zn  Zn152  1  0.56291352  0.06115847  0.81090595  1
  Zn  Zn153  1  0.56581232  0.56031809  0.30930072  1
  Zn  Zn154  1  0.56105382  0.55898183  0.81191343  1
  Zn  Zn155  1  0.46873855  0.16942177  0.41933265  1
  Zn  Zn156  1  0.43851715  0.18919089  0.93412219  1
  Zn  Zn157  1  0.43703110  0.68593052  0.44029799  1
  Zn  Zn158  1  0.43369587  0.68573096  0.93564473  1
  Zn  Zn159  1  0.93998728  0.19202016  0.44327256  1
  Zn  Zn160  1  0.93162050  0.17058466  0.94451366  1
  Zn  Zn161  1  0.93693860  0.69091939  0.43449266  1
  Zn  Zn162  1  0.92897350  0.68226502  0.94416345  1
  Zn  Zn163  1  0.07011638  0.30816165  0.07000896  1
  Zn  Zn164  1  0.06084798  0.31335907  0.56588130  1
  Zn  Zn165  1  0.06773157  0.81600066  0.06867749  1
  Zn  Zn166  1  0.05587739  0.81398774  0.56336739  1
  Zn  Zn167  1  0.56689662  0.31720256  0.06405271  1
  Zn  Zn168  1  0.56538284  0.31055252  0.56707377  1
  Zn  Zn169  1  0.55856824  0.81398736  0.05943627  1
  Zn  Zn170  1  0.56296838  0.81368577  0.56491704  1
  O  O171  1  0.11541443  0.12857087  0.11178295  1
  O  O172  1  0.11779326  0.12397359  0.62000595  1
  O  O173  1  0.11874692  0.62043371  0.12329957  1
  O  O174  1  0.12357708  0.62399558  0.61117448  1
  O  O175  1  0.62267683  0.11832405  0.11816681  1
  O  O176  1  0.62986152  0.11640780  0.61059927  1
  O  O177  1  0.62685700  0.61197453  0.12682479  1
  O  O178  1  0.62828524  0.61672474  0.61396949  1
  O  O179  1  0.38346561  0.38101291  0.38372407  1
  O  O180  1  0.37193947  0.37143667  0.89154600  1
  O  O181  1  0.38152031  0.87804131  0.37489057  1
  O  O182  1  0.37203865  0.88862649  0.87351609  1
  O  O183  1  0.88396889  0.38150050  0.38122305  1
  O  O184  1  0.86981194  0.38592399  0.87836168  1
  O  O185  1  0.86908039  0.87560521  0.38751227  1
  O  O186  1  0.87973579  0.88154263  0.88273392  1
  O  O187  1  0.26470193  0.00070350  0.37949153  1
  O  O188  1  0.25673763  0.00493983  0.86463021  1
  O  O189  1  0.25660026  0.50577951  0.37443305  1
  O  O190  1  0.24704927  0.51804181  0.88643570  1
  O  O191  1  0.70427097  0.00804585  0.36559489  1
  O  O192  1  0.75774835  -0.00257289  0.86578039  1
  O  O193  1  0.76356165  0.49567801  0.37890342  1
  O  O194  1  0.75385227  0.50664909  0.87036896  1
  O  O195  1  0.24362838  0.49631564  0.13136909  1
  O  O196  1  0.23383330  0.47853103  0.57618565  1
  O  O197  1  0.25144511  0.98713740  0.12273243  1
  O  O198  1  0.24376989  0.99272734  0.62869990  1
  O  O199  1  0.74682697  0.48998171  0.12123955  1
  O  O200  1  0.74555432  0.50791405  0.63549421  1
  O  O201  1  0.74167002  0.99295282  0.12596513  1
  O  O202  1  0.75479010  0.99676047  0.63875637  1
  O  O203  1  0.01039923  0.38116859  0.26246981  1
  O  O204  1  0.02191981  0.39654578  0.75560943  1
  O  O205  1  -0.00199194  0.86733231  0.24429636  1
  O  O206  1  0.01310441  0.87996090  0.74997898  1
  O  O207  1  0.50381925  0.36997613  0.25671198  1
  O  O208  1  0.51385268  0.36698538  0.74682635  1
  O  O209  1  0.50507375  0.86851484  0.26020146  1
  O  O210  1  0.51176911  0.86955654  0.75335146  1
  O  O211  1  0.49312992  0.13653564  0.23983696  1
  O  O212  1  0.51009260  0.14162445  0.74912647  1
  O  O213  1  0.49272772  0.63145594  0.24582438  1
  O  O214  1  0.48225813  0.62302114  0.75018261  1
  O  O215  1  0.98965943  0.12534632  0.23574480  1
  O  O216  1  0.99775155  0.11838089  0.73768647  1
  O  O217  1  0.99513860  0.62910450  0.24134020  1
  O  O218  1  1.02008413  0.62250764  0.75871606  1
  O  O219  1  0.37085226  0.25528553  0.01025512  1
  O  O220  1  0.37604691  0.25036897  0.50752449  1
  O  O221  1  0.36293612  0.75294852  0.00787136  1
  O  O222  1  0.36478142  0.74740701  0.50781737  1
  O  O223  1  0.87316908  0.26037024  0.00342655  1
  O  O224  1  0.86820165  0.25897230  0.50639711  1
  O  O225  1  0.86649776  0.75624116  0.00830058  1
  O  O226  1  0.86959580  0.76017650  0.49966999  1
  O  O227  1  0.13660454  0.24862573  0.49412640  1
  O  O228  1  0.13388168  0.24469188  0.99682908  1
  O  O229  1  0.12523722  0.74573290  0.49394958  1
  O  O230  1  0.13344801  0.74232318  1.00811547  1
  O  O231  1  0.64747220  0.25866384  0.50732049  1
  O  O232  1  0.63499352  0.24253692  1.00678381  1
  O  O233  1  0.63080527  0.74285845  0.49715728  1
  O  O234  1  0.63484943  0.75360526  0.99311322  1
  O  O235  1  0.49426116  0.24718921  0.12925734  1
  O  O236  1  0.48787841  0.25136514  0.63006772  1
  O  O237  1  0.48995135  0.75266098  0.13318375  1
  O  O238  1  0.48385693  0.75101303  0.62380180  1
  O  O239  1  0.98869168  0.24294212  0.11698034  1
  O  O240  1  0.98595347  0.23924053  0.61442845  1
  O  O241  1  0.99650243  0.74474699  0.13255433  1
  O  O242  1  0.98681424  0.74727500  0.62667898  1
  O  O243  1  0.01053913  0.26694167  0.38627864  1
  O  O244  1  -0.01343233  0.26110850  0.89354647  1
  O  O245  1  0.00825767  0.74981935  0.36483945  1
  O  O246  1  0.00098575  0.74392290  0.87411001  1
  O  O247  1  0.48610583  0.26581417  0.35937102  1
  O  O248  1  0.49251818  0.25628248  0.85581813  1
  O  O249  1  0.50287221  0.75397573  0.37007434  1
  O  O250  1  0.50672059  0.74924652  0.87131448  1
  O  O251  1  0.24428242  0.12999661  0.48884803  1
  O  O252  1  0.24102223  0.13208464  1.00115126  1
  O  O253  1  0.24010472  0.63181689  0.49349132  1
  O  O254  1  0.24520991  0.63342561  0.99087447  1
  O  O255  1  0.75488575  0.13981482  0.49307945  1
  O  O256  1  0.74342785  0.13551893  0.99996743  1
  O  O257  1  0.74286191  0.63683865  0.50022344  1
  O  O258  1  0.75502265  0.63563516  0.98939050  1
  O  O259  1  0.25711490  0.36879580  0.00740625  1
  O  O260  1  0.26583103  0.35229849  0.48535185  1
  O  O261  1  0.24934976  0.86810590  0.00803751  1
  O  O262  1  0.24823167  0.86932903  0.51324337  1
  O  O263  1  0.74671460  0.36854889  0.01292096  1
  O  O264  1  0.76526151  0.37137486  0.50116506  1
  O  O265  1  0.75465038  0.86723348  0.00496704  1
  O  O266  1  0.75862015  0.86638271  0.50309913  1
  O  O267  1  0.13133475  0.49678897  0.24893053  1
  O  O268  1  0.14523215  0.48552811  0.74467559  1
  O  O269  1  0.15371373  1.06291993  0.25699380  1
  O  O270  1  0.13090485  0.99304894  0.74471742  1
  O  O271  1  0.62599042  0.49736870  0.23509830  1
  O  O272  1  0.63262532  0.49304007  0.74200415  1
  O  O273  1  0.61436374  0.99282233  0.23422236  1
  O  O274  1  0.63178890  0.99120122  0.75018309  1
  O  O275  1  0.38384965  0.00849250  0.25798537  1
  O  O276  1  0.36400635  -0.00228361  0.75859152  1
  O  O277  1  0.36958431  0.50474549  0.25381600  1
  O  O278  1  0.37285941  0.50828321  0.73752475  1
  O  O279  1  0.87446508  0.01972860  0.24726276  1
  O  O280  1  0.86888859  -0.00346811  0.75860202  1
  O  O281  1  0.87834084  0.51088399  0.25980825  1
  O  O282  1  0.86568447  0.49316003  0.75946408  1
  O  O283  1  0.12205041  0.37234902  0.37732382  1
  O  O284  1  0.13079036  0.36977876  0.86464857  1
  O  O285  1  0.13011517  0.86408700  0.37759505  1
  O  O286  1  0.12251762  0.87550754  0.86494116  1
  O  O287  1  0.61480548  0.38036670  0.37336860  1
  O  O288  1  0.62967845  0.37401537  0.85802072  1
  O  O289  1  0.61379694  0.85922954  0.37401749  1
  O  O290  1  0.62529475  0.86095301  0.86820340  1
  O  O291  1  0.38290343  0.13125552  0.12658384  1
  O  O292  1  0.36929529  0.13423051  0.62526274  1
  O  O293  1  0.36592214  0.64013220  0.13436213  1
  O  O294  1  0.36061842  0.63046163  0.63824915  1
  O  O295  1  0.88175304  0.13567064  0.12465685  1
  O  O296  1  0.88113091  0.13598773  0.62700506  1
  O  O297  1  0.88223334  0.63164863  0.13169694  1
  O  O298  1  0.87840373  0.64345525  0.62395486  1
  O  O299  1  0.25697634  0.25338834  0.11729018  1
  O  O300  1  0.26372009  0.25008162  0.61365709  1
  O  O301  1  0.25337523  0.76038574  0.11787717  1
  O  O302  1  0.25373098  0.75669775  0.62019058  1
  O  O303  1  0.76278706  0.25801839  0.11399340  1
  O  O304  1  0.76759971  0.24808368  0.61696631  1
  O  O305  1  0.75228551  0.75645787  0.11780111  1
  O  O306  1  0.76121564  0.75056341  0.61681906  1
  O  O307  1  0.24454371  0.23855578  0.37758479  1
  O  O308  1  0.25698039  0.24539688  0.88959513  1
  O  O309  1  0.24211277  0.74476742  0.37996095  1
  O  O310  1  0.25381008  0.74367727  0.88635562  1
  O  O311  1  0.75455435  0.25880599  0.38800468  1
  O  O312  1  0.75834457  0.24976364  0.88886175  1
  O  O313  1  0.73915687  0.75325473  0.38453395  1
  O  O314  1  0.74513769  0.74248911  0.88184814  1
  O  O315  1  0.00493838  0.11265774  0.01029203  1
  O  O316  1  0.00304247  0.11826575  0.50888172  1
  O  O317  1  0.00313889  0.62121844  0.01440928  1
  O  O318  1  0.00401267  0.62088633  0.49977440  1
  O  O319  1  0.50867553  0.12723935  0.00569032  1
  O  O320  1  0.48072847  0.10329326  0.51384780  1
  O  O321  1  0.48367253  0.62241700  0.01024082  1
  O  O322  1  0.50932169  0.61443439  0.49606924  1
  O  O323  1  0.49773067  0.37859846  0.49288781  1
  O  O324  1  0.48612975  0.37155840  1.00036764  1
  O  O325  1  0.49481884  0.87234144  0.49015762  1
  O  O326  1  0.49340321  0.87898889  0.99452814  1
  O  O327  1  0.99170695  0.38505283  0.49636149  1
  O  O328  1  1.00212428  0.38419922  1.00832946  1
  O  O329  1  0.98527171  0.88342290  0.50144820  1
  O  O330  1  0.99689299  0.88310877  1.00285260  1
  O  O331  1  0.49592429  0.49331464  0.38197232  1
  O  O332  1  0.50595077  0.48951659  0.87748985  1
  O  O333  1  0.49038509  0.98759105  0.38580813  1
  O  O334  1  0.48755852  0.99856670  0.87212425  1
  O  O335  1  0.99175171  0.49191219  0.38292593  1
  O  O336  1  0.98823406  0.50549011  0.89030249  1
  O  O337  1  1.00224339  1.00525069  0.38862810  1
  O  O338  1  0.99223299  0.99736473  0.88575081  1
  O  O339  1  0.00990014  0.00732624  0.12106586  1
  O  O340  1  0.00424368  0.00794578  0.61693230  1
  O  O341  1  0.00466787  0.50775224  0.12299811  1
  O  O342  1  0.00221443  0.50776779  0.61687502  1
  O  O343  1  0.50556912  0.00837834  0.11988735  1
  O  O344  1  0.49341940  -0.01538495  0.61393716  1
  O  O345  1  0.51285800  0.50085180  0.12300507  1
  O  O346  1  0.50967356  0.49678297  0.61176882  1
  O  O347  1  0.24689775  0.37974323  0.24821032  1
  O  O348  1  0.24030410  0.36482969  0.74535714  1
  O  O349  1  0.25122256  0.87200527  0.23525541  1
  O  O350  1  0.23872811  0.88010541  0.74083744  1
  O  O351  1  0.75226191  0.36806282  0.23247235  1
  O  O352  1  0.73813207  0.38370197  0.74609137  1
  O  O353  1  0.74368783  0.87791435  0.24444936  1
  O  O354  1  0.73859486  0.88117708  0.75025035  1
  O  O355  1  0.27854865  0.14390166  0.24999402  1
  O  O356  1  0.24024583  0.11465858  0.74753693  1
  O  O357  1  0.25372563  0.62061553  0.25696320  1
  O  O358  1  0.25577040  0.62584855  0.76325455  1
  O  O359  1  0.76511312  0.12659607  0.24645495  1
  O  O360  1  0.75200160  0.11724667  0.75360640  1
  O  O361  1  0.76492685  0.63419877  0.24908537  1
  O  O362  1  0.74707716  0.61563967  0.76243778  1
  O  O363  1  0.37462481  0.11364177  0.36552607  1
  O  O364  1  0.37144250  0.11191021  0.87623024  1
  O  O365  1  0.36938910  0.61931074  0.36894746  1
  O  O366  1  0.36370609  0.62504208  0.86077497  1
  O  O367  1  0.88328193  0.13670425  0.35923475  1
  O  O368  1  0.87065608  0.10905425  0.87285643  1
  O  O369  1  0.88071921  0.61619886  0.36652927  1
  O  O370  1  0.86586532  0.61283228  0.87694092  1
  O  O371  1  0.13266037  0.38032714  0.13472313  1
  O  O372  1  0.12798820  0.37086948  0.63537106  1
  O  O373  1  0.13734758  0.88537784  0.12954258  1
  O  O374  1  0.12901690  0.87937117  0.63021331  1
  O  O375  1  0.63845826  0.38294259  0.12973154  1
  O  O376  1  0.62523257  0.38861264  0.63128641  1
  O  O377  1  0.62899942  0.88134525  0.12914985  1
  O  O378  1  0.62951556  0.87669809  0.63420798  1
  O  O379  1  0.12973680  0.25559189  0.26546585  1
  O  O380  1  0.11947111  0.26119604  0.75510982  1
  O  O381  1  0.11442194  0.74598744  0.25951902  1
  O  O382  1  0.12392235  0.75224282  0.75209594  1
  O  O383  1  0.61607301  0.25302237  0.24214581  1
  O  O384  1  0.61827647  0.26187531  0.73743408  1
  O  O385  1  0.62004182  0.75431924  0.25778419  1
  O  O386  1  0.62413900  0.75359300  0.75537443  1
  O  O387  1  0.38581639  0.25072099  0.23650187  1
  O  O388  1  0.38697801  0.25396778  0.73487351  1
  O  O389  1  0.37821029  0.74511513  0.24455438  1
  O  O390  1  0.37316199  0.74087345  0.74191302  1
  O  O391  1  0.87590896  0.24182265  0.23815894  1
  O  O392  1  0.87361340  0.25138947  0.73723329  1
  O  O393  1  0.88381617  0.74541284  0.24640550  1
  O  O394  1  0.87193557  0.75604911  0.74030971  1
  O  O395  1  0.38583100  0.49283732  0.49574622  1
  O  O396  1  0.37434798  0.48416899  1.00976930  1
  O  O397  1  0.37992053  0.98979530  0.49246174  1
  O  O398  1  0.37450202  0.99924284  0.98484615  1
  O  O399  1  0.88090373  0.49674589  0.49694797  1
  O  O400  1  0.88615890  0.50209481  0.99628291  1
  O  O401  1  0.87827598  0.98707332  0.50552972  1
  O  O402  1  0.88227111  0.99482431  0.99668283  1
  O  O403  1  0.11815607  0.00789032  -0.00358881  1
  O  O404  1  0.11740956  0.00647965  0.50619406  1
  O  O405  1  0.11416492  0.50736263  0.00623814  1
  O  O406  1  0.10628923  0.51139248  0.49136667  1
  O  O407  1  0.62517191  0.00652926  0.00978860  1
  O  O408  1  0.60320881  -0.00636382  0.50332048  1
  O  O409  1  0.62434596  0.49320219  0.01829393  1
  O  O410  1  0.62224319  0.50635983  0.50557317  1
  O  O411  1  0.37033355  0.36751017  0.11995812  1
  O  O412  1  0.37517044  0.37043250  0.60986268  1
  O  O413  1  0.36652460  0.86578294  0.12498132  1
  O  O414  1  0.36253653  0.86347550  0.62794381  1
  O  O415  1  0.86682970  0.37103518  0.12809112  1
  O  O416  1  0.88335886  0.36303022  0.61816221  1
  O  O417  1  0.86830929  0.87145023  0.12224360  1
  O  O418  1  0.87332824  0.86198660  0.61671024  1
  O  O419  1  0.12193041  0.13912271  0.38702769  1
  O  O420  1  0.12192593  0.13211418  0.88631533  1
  O  O421  1  0.12706659  0.63258687  0.38479432  1
  O  O422  1  0.13196023  0.63538401  0.87674830  1
  O  O423  1  0.57961633  0.14070609  0.39596737  1
  O  O424  1  0.62715868  0.11858621  0.88944911  1
  O  O425  1  0.61886319  0.63513636  0.38388775  1
  O  O426  1  0.63158055  0.63660348  0.87019931  1
