# generated using pymatgen
data_V85Zn86O256
_symmetry_space_group_name_H-M   'P 1'
_cell_length_a   16.90730298
_cell_length_b   16.90983904
_cell_length_c   16.89947767
_cell_angle_alpha   90.03405208
_cell_angle_beta   90.01199540
_cell_angle_gamma   89.97001662
_symmetry_Int_Tables_number   1
_chemical_formula_structural   V85Zn86O256
_chemical_formula_sum   'V85 Zn86 O256'
_cell_volume   4831.55519008
_cell_formula_units_Z   1
loop_
 _symmetry_equiv_pos_site_id
 _symmetry_equiv_pos_as_xyz
  1  'x, y, z'
loop_
 _atom_site_type_symbol
 _atom_site_label
 _atom_site_symmetry_multiplicity
 _atom_site_fract_x
 _atom_site_fract_y
 _atom_site_fract_z
 _atom_site_occupancy
  V  V0  1  -0.00322537  0.13980831  0.13292790  1
  V  V1  1  0.25005290  0.24911770  0.00032176  1
  V  V2  1  0.50164437  0.37061683  0.87473882  1
  V  V3  1  0.74483502  0.23780598  0.49702625  1
  V  V4  1  0.61970910  -0.00931498  0.62161729  1
  V  V5  1  0.24683250  0.38190419  0.12555773  1
  V  V6  1  0.76581741  0.87309625  0.12757796  1
  V  V7  1  0.62938693  0.62314817  0.00469306  1
  V  V8  1  0.25307436  0.75002613  -0.00192018  1
  V  V9  1  0.37774454  0.24851181  0.62563327  1
  V  V10  1  0.37096383  0.49910065  0.37367335  1
  V  V11  1  0.62925322  0.37756124  0.75168076  1
  V  V12  1  0.00460568  0.49993208  0.00236620  1
  V  V13  1  0.12497924  0.11947162  0.50530384  1
  V  V14  1  0.37777212  0.87217273  -0.00141097  1
  V  V15  1  0.00209347  0.62669764  0.61552197  1
  V  V16  1  0.87394984  0.37557362  0.49830286  1
  V  V17  1  0.38528165  0.87490595  0.49604879  1
  V  V18  1  0.12215975  0.37488278  0.74434361  1
  V  V19  1  0.12507477  0.50147244  0.61402247  1
  V  V20  1  0.75593351  0.87250815  0.63626799  1
  V  V21  1  -0.00067275  0.36996637  0.87132467  1
  V  V22  1  0.37618792  0.37354607  0.00164402  1
  V  V23  1  0.24622132  0.73767967  0.49797954  1
  V  V24  1  0.62256689  0.87800378  0.25215773  1
  V  V25  1  0.74646277  0.37374541  0.12450459  1
  V  V26  1  0.86379777  0.12715564  0.75458135  1
  V  V27  1  0.11747447  0.36825267  0.24748104  1
  V  V28  1  0.87367375  0.49840512  0.86839524  1
  V  V29  1  0.24356109  0.87506642  0.12608558  1
  V  V30  1  0.24894339  0.25034448  0.49926168  1
  V  V31  1  0.38754413  -0.00462124  0.37633696  1
  V  V32  1  0.24325566  0.87690404  0.61706784  1
  V  V33  1  0.87144215  0.13938731  0.25454341  1
  V  V34  1  0.62240790  0.23784467  0.37253731  1
  V  V35  1  0.37071204  0.62658448  0.25273595  1
  V  V36  1  0.87419253  0.62476921  0.74207212  1
  V  V37  1  0.86824028  0.00226045  0.87806404  1
  V  V38  1  0.12630582  0.62308797  0.00629057  1
  V  V39  1  0.62175554  0.50556749  0.62900224  1
  V  V40  1  0.75614324  0.75254343  0.50364602  1
  V  V41  1  0.76586936  0.75153473  0.00618644  1
  V  V42  1  0.50594324  0.87945597  0.86474472  1
  V  V43  1  0.12173637  0.24750615  0.86742654  1
  V  V44  1  -0.00379825  0.62823567  0.12405919  1
  V  V45  1  0.37662360  0.24999194  0.12925670  1
  V  V46  1  0.61829564  0.62893152  0.50252204  1
  V  V47  1  0.12392499  0.75079585  0.87230639  1
  V  V48  1  0.49782385  0.49877299  0.50269982  1
  V  V49  1  0.62875545  0.75854044  0.87338789  1
  V  V50  1  0.12239644  0.12403407  0.00270290  1
  V  V51  1  0.74578362  0.62902376  0.37489883  1
  V  V52  1  0.75490509  0.24581019  -0.00265294  1
  V  V53  1  0.00915165  0.87831995  0.37562202  1
  V  V54  1  0.00245369  0.12529824  0.63498327  1
  V  V55  1  0.86803219  0.00177813  0.37512261  1
  V  V56  1  0.00181914  0.75832275  0.24712692  1
  V  V57  1  0.24687711  0.62377720  0.86957132  1
  V  V58  1  0.50496997  0.50022510  0.00367247  1
  V  V59  1  0.74960699  0.38069189  0.62781031  1
  V  V60  1  0.24955098  0.12270311  0.37526886  1
  V  V61  1  0.24498110  -0.00109052  0.74262423  1
  V  V62  1  0.12731984  0.73337662  0.37359674  1
  V  V63  1  0.24251404  -0.00346076  0.25202454  1
  V  V64  1  0.87125764  0.63363034  0.24417925  1
  V  V65  1  0.74130483  0.50257640  0.24296279  1
  V  V66  1  0.87723540  0.24956889  0.63004518  1
  V  V67  1  0.61754173  0.37383688  0.25004622  1
  V  V68  1  0.24092266  0.50520338  0.25033731  1
  V  V69  1  0.50402629  0.62466102  0.12594616  1
  V  V70  1  -0.00472076  0.87511191  0.87882629  1
  V  V71  1  0.00022687  0.00010230  0.50752216  1
  V  V72  1  0.75110002  0.62352600  0.87062199  1
  V  V73  1  -0.00245149  0.75136454  0.74233471  1
  V  V74  1  0.50098621  -0.00033560  0.00278429  1
  V  V75  1  0.87212354  0.50168858  0.37368917  1
  V  V76  1  0.37203559  0.49817260  0.87406989  1
  V  V77  1  0.63038796  0.12479671  -0.00792139  1
  V  V78  1  0.50439648  0.13040445  0.12805154  1
  V  V79  1  0.37786348  0.12796475  0.25141119  1
  V  V80  1  0.25200959  0.12169491  0.87369336  1
  V  V81  1  -0.00515948  -0.00322527  0.00560148  1
  V  V82  1  0.49839617  0.75522419  0.25830910  1
  V  V83  1  0.50737119  0.12069617  0.61283420  1
  V  V84  1  0.87705391  0.37140879  0.00770550  1
  Zn  Zn85  1  0.50285471  0.24642282  0.74787318  1
  Zn  Zn86  1  0.38777707  0.62390277  0.74224962  1
  Zn  Zn87  1  0.11995820  -0.00224355  0.13152400  1
  Zn  Zn88  1  0.63194850  0.24554604  0.87076847  1
  Zn  Zn89  1  0.63092746  -0.00031804  0.12609202  1
  Zn  Zn90  1  0.37559525  0.00104170  0.87323694  1
  Zn  Zn91  1  0.74999523  0.00473417  0.25265043  1
  Zn  Zn92  1  0.37676143  0.75040771  0.12369164  1
  Zn  Zn93  1  0.25080865  0.37392003  0.62368941  1
  Zn  Zn94  1  0.37885977  0.12114553  0.74803896  1
  Zn  Zn95  1  0.25049138  0.49930873  0.74416277  1
  Zn  Zn96  1  0.49911274  0.37051305  0.37182879  1
  Zn  Zn97  1  0.37548150  0.37346265  0.49823700  1
  Zn  Zn98  1  0.00233171  0.50274453  0.49322158  1
  Zn  Zn99  1  0.38478803  0.74332634  0.62532655  1
  Zn  Zn100  1  0.74133506  -0.00055092  0.75797735  1
  Zn  Zn101  1  0.12143787  0.87980204  0.74412942  1
  Zn  Zn102  1  0.62085771  0.76085782  0.38040078  1
  Zn  Zn103  1  -0.00799183  0.36844969  0.36517182  1
  Zn  Zn104  1  0.11625687  0.24618686  0.37237040  1
  Zn  Zn105  1  0.50350319  0.74489580  0.74419327  1
  Zn  Zn106  1  0.87598635  0.87309301  0.50243061  1
  Zn  Zn107  1  0.18878216  0.18678461  0.18660520  1
  Zn  Zn108  1  0.18848655  0.18619684  0.68668003  1
  Zn  Zn109  1  0.18577567  0.69090362  0.18672186  1
  Zn  Zn110  1  0.18779190  0.68760869  0.68288067  1
  Zn  Zn111  1  0.69078379  0.19136238  0.18517586  1
  Zn  Zn112  1  0.68468205  0.18903678  0.68325902  1
  Zn  Zn113  1  0.68455985  0.69450653  0.18680007  1
  Zn  Zn114  1  0.68576717  0.69021502  0.68872875  1
  Zn  Zn115  1  0.30914287  0.31301848  0.31368473  1
  Zn  Zn116  1  0.31043844  0.31041663  0.80887093  1
  Zn  Zn117  1  0.30977482  0.81252004  0.31393597  1
  Zn  Zn118  1  0.31604439  0.81403504  0.80830713  1
  Zn  Zn119  1  0.80455226  0.31296834  0.31453067  1
  Zn  Zn120  1  0.81153795  0.31227468  0.81246780  1
  Zn  Zn121  1  0.81312080  0.81647184  0.31634996  1
  Zn  Zn122  1  0.81689605  0.81013651  0.81506460  1
  Zn  Zn123  1  0.18787892  0.43572591  0.43239611  1
  Zn  Zn124  1  0.18574733  0.43641816  0.93704308  1
  Zn  Zn125  1  0.18852576  0.93675910  0.43714758  1
  Zn  Zn126  1  0.18280438  0.93800006  0.93735600  1
  Zn  Zn127  1  0.68660879  0.43632794  0.43658332  1
  Zn  Zn128  1  0.68952521  0.43939438  0.93778148  1
  Zn  Zn129  1  0.68424133  0.93892719  0.44204397  1
  Zn  Zn130  1  0.69018782  0.93568977  0.94664706  1
  Zn  Zn131  1  0.31341851  0.05965502  0.06365244  1
  Zn  Zn132  1  0.31750704  0.06060187  0.56162418  1
  Zn  Zn133  1  0.31574279  0.56350037  0.06333332  1
  Zn  Zn134  1  0.31208754  0.56196680  0.56291823  1
  Zn  Zn135  1  0.81594074  0.06329400  0.06894729  1
  Zn  Zn136  1  0.81147225  0.05718977  0.56684908  1
  Zn  Zn137  1  0.81479083  0.55984659  0.06129107  1
  Zn  Zn138  1  0.80829828  0.56263799  0.56178073  1
  Zn  Zn139  1  0.43643196  0.44175013  0.18712292  1
  Zn  Zn140  1  0.43852771  0.43554814  0.68701613  1
  Zn  Zn141  1  0.43472111  0.93929653  0.18647841  1
  Zn  Zn142  1  0.43078885  0.93652536  0.68282704  1
  Zn  Zn143  1  0.93519181  0.44494483  0.18521642  1
  Zn  Zn144  1  0.94071746  0.43846583  0.68605429  1
  Zn  Zn145  1  0.93746919  0.94237595  0.19196105  1
  Zn  Zn146  1  0.93296271  0.93971397  0.69032769  1
  Zn  Zn147  1  0.05926249  0.06520407  0.31577113  1
  Zn  Zn148  1  0.06050350  0.05985795  0.81296993  1
  Zn  Zn149  1  0.05762222  0.55922512  0.30798465  1
  Zn  Zn150  1  0.06215225  0.56029657  0.80803440  1
  Zn  Zn151  1  0.56386374  0.06164657  0.31000191  1
  Zn  Zn152  1  0.56248491  0.06215365  0.80602107  1
  Zn  Zn153  1  0.55955865  0.56384502  0.31584556  1
  Zn  Zn154  1  0.56577660  0.56022388  0.81575100  1
  Zn  Zn155  1  0.43905436  0.18640628  0.43698153  1
  Zn  Zn156  1  0.43881811  0.18647473  0.93869307  1
  Zn  Zn157  1  0.43406305  0.68582771  0.43890936  1
  Zn  Zn158  1  0.44731753  0.68043367  0.91437827  1
  Zn  Zn159  1  0.93712083  0.18807182  0.43854356  1
  Zn  Zn160  1  0.93697455  0.18600918  0.94015225  1
  Zn  Zn161  1  0.93576563  0.68956018  0.43335897  1
  Zn  Zn162  1  0.93883489  0.68643174  0.93279839  1
  Zn  Zn163  1  0.06628531  0.31348386  0.06184520  1
  Zn  Zn164  1  0.05851549  0.30939376  0.55685234  1
  Zn  Zn165  1  0.06118684  0.81165921  0.06090531  1
  Zn  Zn166  1  0.06498681  0.81079902  0.55935921  1
  Zn  Zn167  1  0.56665831  0.31004800  0.06376637  1
  Zn  Zn168  1  0.56331254  0.31312749  0.56000336  1
  Zn  Zn169  1  0.56850727  0.80999763  0.06528080  1
  Zn  Zn170  1  0.56443733  0.81187855  0.56839601  1
  O  O171  1  0.11450370  0.12346273  0.12242697  1
  O  O172  1  0.11472776  0.12908493  0.61898822  1
  O  O173  1  0.11860379  0.62834717  0.11196908  1
  O  O174  1  0.11494394  0.61418406  0.62774942  1
  O  O175  1  0.61797084  0.12622719  0.11811354  1
  O  O176  1  0.61251804  0.12048760  0.62405019  1
  O  O177  1  0.61797719  0.62885760  0.11710849  1
  O  O178  1  0.63212922  0.61285944  0.61969491  1
  O  O179  1  0.37864414  0.38243086  0.37476394  1
  O  O180  1  0.37967115  0.37806843  0.87970489  1
  O  O181  1  0.37032094  0.88129413  0.38567178  1
  O  O182  1  0.38383402  0.87782001  0.88607102  1
  O  O183  1  0.86989053  0.38350872  0.38109239  1
  O  O184  1  0.88181937  0.38053572  0.88058640  1
  O  O185  1  0.88812387  0.88283460  0.37827647  1
  O  O186  1  0.88797689  0.88378098  0.87062264  1
  O  O187  1  0.25710243  0.00432379  0.36831866  1
  O  O188  1  0.24862981  0.01135586  0.87232574  1
  O  O189  1  0.26105618  0.49735982  0.36586265  1
  O  O190  1  0.25563777  0.50445627  0.87438113  1
  O  O191  1  0.76466307  -0.00543187  0.37687158  1
  O  O192  1  0.76397574  -0.00620079  0.87896676  1
  O  O193  1  0.75647188  0.50684596  0.36738686  1
  O  O194  1  0.76175980  0.51084764  0.88079184  1
  O  O195  1  0.25667438  0.48868003  0.13163187  1
  O  O196  1  0.24002550  0.49412269  0.62461973  1
  O  O197  1  0.24765980  0.99376541  0.13316602  1
  O  O198  1  0.25405014  0.99152073  0.63068047  1
  O  O199  1  0.75356331  0.49000130  0.13167135  1
  O  O200  1  0.74033542  0.48765626  0.62023128  1
  O  O201  1  0.75227872  0.98546346  0.12623675  1
  O  O202  1  0.74442964  0.98702558  0.62965134  1
  O  O203  1  0.01435155  0.38382888  0.24310027  1
  O  O204  1  0.00976946  0.37648885  0.75877102  1
  O  O205  1  -0.00279455  0.86433958  0.25613993  1
  O  O206  1  0.00050147  0.86784342  0.75374373  1
  O  O207  1  0.51386441  0.38127652  0.24772173  1
  O  O208  1  0.50749216  0.37184715  0.75914105  1
  O  O209  1  0.50600390  0.86604744  0.24111731  1
  O  O210  1  0.49538233  0.87831137  0.76329932  1
  O  O211  1  0.49080802  0.12116560  0.23965957  1
  O  O212  1  0.49663178  0.12891720  0.73923845  1
  O  O213  1  0.49455639  0.63009270  0.24236544  1
  O  O214  1  0.48863207  0.63847357  0.80025861  1
  O  O215  1  0.99360631  0.12405897  0.23964626  1
  O  O216  1  0.99242769  0.11909689  0.73887057  1
  O  O217  1  0.99205046  0.63097331  0.24147857  1
  O  O218  1  0.99362757  0.63091791  0.74176603  1
  O  O219  1  0.36858642  0.25535737  0.00580390  1
  O  O220  1  0.36738997  0.24875282  0.50760421  1
  O  O221  1  0.37022183  0.75678509  -0.00237774  1
  O  O222  1  0.36103151  0.75836328  0.49284088  1
  O  O223  1  0.87043564  0.26079206  -0.00240759  1
  O  O224  1  0.86321451  0.25633090  0.50810725  1
  O  O225  1  0.86520828  0.74441134  -0.00262478  1
  O  O226  1  0.86056902  0.74894450  0.49782258  1
  O  O227  1  0.13335771  0.23830781  0.50130768  1
  O  O228  1  0.13112454  0.24577209  0.98900899  1
  O  O229  1  0.13538719  0.75056630  0.48683637  1
  O  O230  1  0.13058860  0.74186913  0.99227102  1
  O  O231  1  0.63715123  0.25487766  0.49016270  1
  O  O232  1  0.63476205  0.24192776  0.99777687  1
  O  O233  1  0.63226654  0.74297761  0.49879953  1
  O  O234  1  0.63528994  0.73985310  0.99357746  1
  O  O235  1  0.49272567  0.23849586  0.11931972  1
  O  O236  1  0.49554614  0.24048929  0.62163713  1
  O  O237  1  0.49854781  0.73924835  0.13149811  1
  O  O238  1  0.50178304  0.74619428  0.63024577  1
  O  O239  1  1.00201301  0.23826733  0.12142310  1
  O  O240  1  0.98694301  0.23979296  0.61859904  1
  O  O241  1  1.00589043  0.74028427  0.13335547  1
  O  O242  1  1.00492705  0.74228558  0.63146199  1
  O  O243  1  0.00372913  0.25788463  0.38431161  1
  O  O244  1  0.00712626  0.26166113  0.88175003  1
  O  O245  1  0.00946856  0.75552729  0.37018953  1
  O  O246  1  0.00407867  0.75700951  0.86846969  1
  O  O247  1  0.51705282  0.25196008  0.38188781  1
  O  O248  1  0.50243358  0.26168620  0.87680185  1
  O  O249  1  0.50029878  0.74456223  0.36194354  1
  O  O250  1  0.51453937  0.76914104  0.88770274  1
  O  O251  1  0.24369409  0.12929794  0.49757908  1
  O  O252  1  0.24372291  0.12790120  0.99457957  1
  O  O253  1  0.25187867  0.63930344  0.49583503  1
  O  O254  1  0.24179765  0.62698733  0.99497869  1
  O  O255  1  0.75384594  0.13996280  0.50796736  1
  O  O256  1  0.74370895  0.13364879  1.00991734  1
  O  O257  1  0.73916418  0.63140562  0.49740556  1
  O  O258  1  0.74739683  0.62992558  0.99528396  1
  O  O259  1  0.25386073  0.37108594  0.00694878  1
  O  O260  1  0.24945485  0.36058333  0.49898933  1
  O  O261  1  0.25780303  0.87211732  0.00200842  1
  O  O262  1  0.25415849  0.86784440  0.50322457  1
  O  O263  1  0.75787049  0.37305897  0.00611231  1
  O  O264  1  0.75814057  0.37057794  0.50677738  1
  O  O265  1  0.74969726  0.86515015  0.01671265  1
  O  O266  1  0.75099415  0.86700861  0.50938489  1
  O  O267  1  0.13634378  0.49389260  0.25242591  1
  O  O268  1  0.12451513  0.49049377  0.73884801  1
  O  O269  1  0.13813172  1.00383465  0.25238650  1
  O  O270  1  0.13897074  0.99891342  0.75513727  1
  O  O271  1  0.63661941  0.49572483  0.25595252  1
  O  O272  1  0.61982285  0.49061619  0.74268561  1
  O  O273  1  0.63008917  0.99455461  0.24521227  1
  O  O274  1  0.63007733  1.00722911  0.73238225  1
  O  O275  1  0.36664059  0.00900130  0.25476816  1
  O  O276  1  0.36124292  0.00000043  0.75389755  1
  O  O277  1  0.36605600  0.50623113  0.25496637  1
  O  O278  1  0.37367545  0.49932961  0.76332237  1
  O  O279  1  0.87473522  0.00936981  0.26072389  1
  O  O280  1  0.86986033  0.00944472  0.75971127  1
  O  O281  1  0.86410460  0.50994625  0.25467454  1
  O  O282  1  0.88138311  0.50578903  0.76160290  1
  O  O283  1  0.12304332  0.37453595  0.35785711  1
  O  O284  1  0.11803833  0.36804053  0.86922775  1
  O  O285  1  0.11262840  0.86913908  0.37769067  1
  O  O286  1  0.11365514  0.86925014  0.87184757  1
  O  O287  1  0.62506392  0.36868117  0.36552408  1
  O  O288  1  0.61872235  0.37667722  0.86869325  1
  O  O289  1  0.63057306  0.87783930  0.35941182  1
  O  O290  1  0.62029167  0.87056545  0.88156541  1
  O  O291  1  0.38030676  0.12939459  0.13184628  1
  O  O292  1  0.38559212  0.13033515  0.62484541  1
  O  O293  1  0.38250634  0.62714559  0.13468926  1
  O  O294  1  0.36640107  0.62850424  0.63168818  1
  O  O295  1  0.88865068  0.12422140  0.13842039  1
  O  O296  1  0.87951298  0.13163685  0.63291619  1
  O  O297  1  0.88146612  0.62397242  0.13297119  1
  O  O298  1  0.87927601  0.61640443  0.63709872  1
  O  O299  1  0.25591495  0.25878532  0.11943106  1
  O  O300  1  0.25836037  0.24857175  0.61673505  1
  O  O301  1  0.25260058  0.75752147  0.11722952  1
  O  O302  1  0.24714559  0.75561407  0.60886851  1
  O  O303  1  0.75025324  0.26513447  0.11443537  1
  O  O304  1  0.75266626  0.26067914  0.61532902  1
  O  O305  1  0.75061271  0.76022447  0.11918750  1
  O  O306  1  0.74244806  0.76397034  0.62003319  1
  O  O307  1  0.24743539  0.24108315  0.38343717  1
  O  O308  1  0.24329951  0.23946583  0.87825791  1
  O  O309  1  0.23474649  0.75205682  0.37974216  1
  O  O310  1  0.24447807  0.74255347  0.87889910  1
  O  O311  1  0.74142257  0.25190766  0.38971333  1
  O  O312  1  0.74945755  0.25612007  0.89119656  1
  O  O313  1  0.74632809  0.74548722  0.38336113  1
  O  O314  1  0.74825936  0.74476071  0.88455343  1
  O  O315  1  0.00278847  0.11999427  0.01280163  1
  O  O316  1  0.00598478  0.11823628  0.50967290  1
  O  O317  1  0.00516386  0.62036049  0.00352299  1
  O  O318  1  -0.00924892  0.62453533  0.51190046  1
  O  O319  1  0.50704758  0.11846140  0.00601573  1
  O  O320  1  0.49628817  0.12215794  0.51376190  1
  O  O321  1  0.50929048  0.62231147  0.00435905  1
  O  O322  1  0.51104920  0.61585874  0.49437555  1
  O  O323  1  0.50012822  0.38830835  0.49654065  1
  O  O324  1  0.49731544  0.37904040  0.99623671  1
  O  O325  1  0.48395952  0.86680564  0.49988139  1
  O  O326  1  0.49540322  0.88361688  1.00181341  1
  O  O327  1  0.98196814  0.37932721  0.50272167  1
  O  O328  1  0.99602303  0.38198171  0.99619434  1
  O  O329  1  0.99854732  0.88269303  0.49603191  1
  O  O330  1  1.00244981  0.88318695  0.99227666  1
  O  O331  1  0.48851779  0.49811686  0.38101855  1
  O  O332  1  0.49228803  0.48693387  0.88320252  1
  O  O333  1  0.48670107  1.00223218  0.36970894  1
  O  O334  1  0.50171900  0.99545079  0.88651127  1
  O  O335  1  0.98466163  0.49617419  0.37307964  1
  O  O336  1  0.99578471  0.49024162  0.88042019  1
  O  O337  1  0.99528120  0.99457980  0.38491826  1
  O  O338  1  0.99321776  0.99310506  0.88234181  1
  O  O339  1  0.00161837  0.00538982  0.11950978  1
  O  O340  1  -0.00612599  0.00697918  0.61507534  1
  O  O341  1  -0.00312244  0.51539578  0.11532177  1
  O  O342  1  0.00638343  0.50861733  0.62157165  1
  O  O343  1  0.49892674  0.01080141  0.11534594  1
  O  O344  1  0.50861038  0.00676726  0.62759542  1
  O  O345  1  0.49502047  0.51452057  0.11812171  1
  O  O346  1  0.50914034  0.49739182  0.61676127  1
  O  O347  1  0.24206068  0.38230318  0.24285731  1
  O  O348  1  0.23488133  0.37572070  0.74927641  1
  O  O349  1  0.25777384  0.88365361  0.23853285  1
  O  O350  1  0.24780544  0.88124754  0.73995893  1
  O  O351  1  0.74429720  0.38364411  0.24247707  1
  O  O352  1  0.74221327  0.37379141  0.74192985  1
  O  O353  1  0.74508942  0.87353901  0.24039179  1
  O  O354  1  0.75421092  0.87305301  0.73996579  1
  O  O355  1  0.25670561  0.11745984  0.25374575  1
  O  O356  1  0.25194460  0.11888743  0.75734545  1
  O  O357  1  0.25711996  0.61672046  0.24071186  1
  O  O358  1  0.24364564  0.62169204  0.76355533  1
  O  O359  1  0.76736806  0.12366015  0.24061795  1
  O  O360  1  0.76034921  0.12635237  0.74703633  1
  O  O361  1  0.75366248  0.62184961  0.25086793  1
  O  O362  1  0.75929312  0.63161110  0.76118627  1
  O  O363  1  0.37034170  0.11899890  0.36902557  1
  O  O364  1  0.36517125  0.12440904  0.87416762  1
  O  O365  1  0.37845400  0.61717475  0.36030809  1
  O  O366  1  0.35830153  0.61184607  0.88546376  1
  O  O367  1  0.88219707  0.11762598  0.36248797  1
  O  O368  1  0.88411014  0.11662816  0.86529970  1
  O  O369  1  0.86792340  0.61921856  0.36664386  1
  O  O370  1  0.87205131  0.61690186  0.86598574  1
  O  O371  1  0.13447104  0.37375177  0.13361580  1
  O  O372  1  0.12148823  0.37800264  0.63068616  1
  O  O373  1  0.13899846  0.87732529  0.11762795  1
  O  O374  1  0.13795802  0.87296932  0.62406416  1
  O  O375  1  0.63377653  0.37198666  0.13446039  1
  O  O376  1  0.63041303  0.38229722  0.63145166  1
  O  O377  1  0.63382168  0.87540139  0.13640301  1
  O  O378  1  0.63475111  0.88460494  0.62515843  1
  O  O379  1  0.13033676  0.26483979  0.24976067  1
  O  O380  1  0.12693836  0.25451549  0.76119526  1
  O  O381  1  0.11646155  0.74617842  0.26221625  1
  O  O382  1  0.11402601  0.74951159  0.75535803  1
  O  O383  1  0.63515713  0.25893689  0.26390436  1
  O  O384  1  0.62458000  0.26259679  0.75195043  1
  O  O385  1  0.61492025  0.75786060  0.25353493  1
  O  O386  1  0.62515332  0.74567637  0.76950434  1
  O  O387  1  0.36826441  0.23647275  0.24662949  1
  O  O388  1  0.37589518  0.24850733  0.73622203  1
  O  O389  1  0.37938256  0.74361695  0.24853739  1
  O  O390  1  0.38037529  0.74574112  0.74890280  1
  O  O391  1  0.87246147  0.23898117  0.25705840  1
  O  O392  1  0.87107761  0.24533443  0.73889320  1
  O  O393  1  0.88449454  0.73927149  0.25894688  1
  O  O394  1  0.88859446  0.73910964  0.75516741  1
  O  O395  1  0.38052506  0.49937741  0.49139488  1
  O  O396  1  0.38028234  0.49260040  0.99159708  1
  O  O397  1  0.37143493  0.98487429  0.49096865  1
  O  O398  1  0.38364428  0.99321217  0.99749907  1
  O  O399  1  0.87119197  0.49424203  0.49006696  1
  O  O400  1  0.88642705  0.49504090  0.98920957  1
  O  O401  1  0.88399572  1.00179797  0.49337371  1
  O  O402  1  0.88728016  1.00793741  0.99428256  1
  O  O403  1  0.11228532  0.00809035  0.00046439  1
  O  O404  1  0.11794307  0.01168844  0.49640446  1
  O  O405  1  0.11266105  0.50628760  -0.00513263  1
  O  O406  1  0.12124533  0.49169884  0.50884553  1
  O  O407  1  0.61910412  0.00736387  0.00585596  1
  O  O408  1  0.63172116  0.00321657  0.52073084  1
  O  O409  1  0.62113692  0.51413115  -0.00488345  1
  O  O410  1  0.61848228  0.50627897  0.50652443  1
  O  O411  1  0.36948108  0.36963127  0.12213948  1
  O  O412  1  0.37375522  0.36496673  0.62086648  1
  O  O413  1  0.36645338  0.87497809  0.11245892  1
  O  O414  1  0.36480040  0.87037860  0.61056733  1
  O  O415  1  0.87047621  0.38192066  0.11286635  1
  O  O416  1  0.86818468  0.37007970  0.62182301  1
  O  O417  1  0.86495879  0.87283656  0.13320225  1
  O  O418  1  0.86031960  0.87825331  0.62254979  1
  O  O419  1  0.13169055  0.12581747  0.38379242  1
  O  O420  1  0.12794441  0.13200536  0.87963031  1
  O  O421  1  0.11726321  0.63469923  0.37444453  1
  O  O422  1  0.12814385  0.62749346  0.88407001  1
  O  O423  1  0.62664685  0.13844321  0.36846532  1
  O  O424  1  0.62041921  0.12531412  0.88812202  1
  O  O425  1  0.63042291  0.62620566  0.38515116  1
  O  O426  1  0.63848382  0.63008493  0.88338512  1
