# generated using pymatgen
data_V85Zn86O256
_symmetry_space_group_name_H-M   'P 1'
_cell_length_a   16.93676523
_cell_length_b   16.93552016
_cell_length_c   16.94574070
_cell_angle_alpha   90.08458425
_cell_angle_beta   89.97511872
_cell_angle_gamma   89.97256079
_symmetry_Int_Tables_number   1
_chemical_formula_structural   V85Zn86O256
_chemical_formula_sum   'V85 Zn86 O256'
_cell_volume   4860.59012665
_cell_formula_units_Z   1
loop_
 _symmetry_equiv_pos_site_id
 _symmetry_equiv_pos_as_xyz
  1  'x, y, z'
loop_
 _atom_site_type_symbol
 _atom_site_label
 _atom_site_symmetry_multiplicity
 _atom_site_fract_x
 _atom_site_fract_y
 _atom_site_fract_z
 _atom_site_occupancy
  V  V0  1  0.62908972  0.62525568  0.49406067  1
  V  V1  1  0.24992609  0.25609730  0.50257559  1
  V  V2  1  -0.00463373  -0.00925624  0.50117887  1
  V  V3  1  0.25491318  0.75533553  0.50602314  1
  V  V4  1  0.13085608  0.63421177  -0.00139676  1
  V  V5  1  -0.00003642  0.24952170  0.75056682  1
  V  V6  1  0.13304766  0.49266905  0.62799951  1
  V  V7  1  0.87943735  -0.00062462  0.88023534  1
  V  V8  1  0.56672454  0.57132249  0.08255078  1
  V  V9  1  0.37630541  0.38746415  -0.00275055  1
  V  V10  1  0.50765386  0.25562431  0.26052397  1
  V  V11  1  0.75045039  -0.00490231  0.74967203  1
  V  V12  1  0.49974533  0.24893747  0.75349847  1
  V  V13  1  0.00248719  0.12098593  0.62667031  1
  V  V14  1  0.36989420  0.25571765  0.62827189  1
  V  V15  1  0.74972911  0.24461311  0.50036564  1
  V  V16  1  -0.00058073  0.50073081  0.00060325  1
  V  V17  1  0.36286038  0.76471088  0.14712020  1
  V  V18  1  0.12573551  0.12274660  0.50077486  1
  V  V19  1  0.62451380  0.25192541  0.87780020  1
  V  V20  1  0.25224093  0.12568587  0.37326351  1
  V  V21  1  0.74661110  0.74679132  -0.00153237  1
  V  V22  1  0.00935339  0.75133162  0.74896942  1
  V  V23  1  0.74815999  0.25099085  0.00215435  1
  V  V24  1  0.75355609  0.37686370  0.62584001  1
  V  V25  1  0.12493425  0.75143188  0.37835983  1
  V  V26  1  0.74055625  0.38567527  0.14091174  1
  V  V27  1  0.38536372  0.00426466  0.37494619  1
  V  V28  1  0.37885007  0.61267634  0.75741193  1
  V  V29  1  0.12418364  0.25112762  0.37480126  1
  V  V30  1  0.12452755  -0.00722761  0.12262115  1
  V  V31  1  0.37144379  0.85371417  -0.01804328  1
  V  V32  1  0.74965622  0.12346061  0.87759733  1
  V  V33  1  0.12710210  0.87385921  0.25154595  1
  V  V34  1  0.75292005  0.75700185  0.49526419  1
  V  V35  1  0.37796045  0.49503222  0.37852488  1
  V  V36  1  0.87709840  0.24948108  0.62513890  1
  V  V37  1  0.50400853  0.86970937  0.37467786  1
  V  V38  1  0.88037123  0.87859389  0.00233327  1
  V  V39  1  0.36820473  0.12224131  0.75061995  1
  V  V40  1  -0.00145794  0.62402220  0.12655950  1
  V  V41  1  0.87307923  0.24913721  0.12715350  1
  V  V42  1  -0.00122453  0.11752970  0.12499113  1
  V  V43  1  0.54613195  0.44158346  0.43891541  1
  V  V44  1  0.62700623  0.37612559  0.75306013  1
  V  V45  1  0.38333230  0.62472095  0.24894193  1
  V  V46  1  0.00948189  0.87717005  0.87467377  1
  V  V47  1  0.61943446  0.86640556  0.24401998  1
  V  V48  1  0.86269604  0.62505773  0.25664163  1
  V  V49  1  0.87424295  0.75609904  0.62373009  1
  V  V50  1  0.61994662  0.75574012  0.87622969  1
  V  V51  1  0.38178179  0.00067992  0.87872727  1
  V  V52  1  0.61948124  0.11783772  0.49662925  1
  V  V53  1  0.62526923  0.74186498  0.36870543  1
  V  V54  1  0.24600857  0.11702739  0.87341552  1
  V  V55  1  0.12395014  0.24756568  0.87829940  1
  V  V56  1  0.12085288  0.37563315  0.25498950  1
  V  V57  1  0.25123727  0.62291264  0.37637301  1
  V  V58  1  0.49534496  0.62844621  0.61838096  1
  V  V59  1  0.00174093  0.37607170  0.87449317  1
  V  V60  1  0.37840404  0.87971134  0.49596457  1
  V  V61  1  0.37598634  0.37769367  0.50090254  1
  V  V62  1  0.00011995  0.74905733  0.25234758  1
  V  V63  1  0.49880989  0.11538906  0.62448151  1
  V  V64  1  -0.00154082  0.25095460  0.25750993  1
  V  V65  1  0.25086462  -0.00122056  0.24804743  1
  V  V66  1  0.61340564  0.00062875  0.12503452  1
  V  V67  1  0.14097077  -0.01229668  0.63501553  1
  V  V68  1  0.38665366  0.24392612  0.12246041  1
  V  V69  1  0.74814782  0.62418071  0.87386694  1
  V  V70  1  0.62053367  0.50074728  0.62301512  1
  V  V71  1  0.12297235  0.49842081  0.12613237  1
  V  V72  1  0.87191455  0.12099606  0.25380269  1
  V  V73  1  0.00018307  0.49367022  0.49518798  1
  V  V74  1  0.87081572  0.37711172  0.00228959  1
  V  V75  1  0.49836282  0.39100461  0.87941951  1
  V  V76  1  0.24980287  0.37168628  0.12502842  1
  V  V77  1  0.36812765  0.77299760  0.64344036  1
  V  V78  1  0.61309114  0.12445538  0.00381685  1
  V  V79  1  0.61254564  0.87765784  0.75005103  1
  V  V80  1  0.86985844  0.49723423  0.37102373  1
  V  V81  1  0.11991459  0.11962165  0.00132073  1
  V  V82  1  0.87099032  0.74900074  0.12483820  1
  V  V83  1  0.74561798  -0.00177993  0.24843282  1
  V  V84  1  0.12372756  0.62600078  0.50509437  1
  Zn  Zn85  1  0.13310487  0.37099529  0.74619138  1
  Zn  Zn86  1  0.74451640  0.87315154  0.12218182  1
  Zn  Zn87  1  0.49843130  -0.01426750  0.00044813  1
  Zn  Zn88  1  0.50386471  0.74692108  0.75296615  1
  Zn  Zn89  1  -0.00813165  0.87055617  0.37997919  1
  Zn  Zn90  1  0.38053019  0.12451442  0.24240048  1
  Zn  Zn91  1  0.75043202  0.87797579  0.62008045  1
  Zn  Zn92  1  0.24974168  0.49869185  0.25186240  1
  Zn  Zn93  1  0.25869823  0.62569043  0.87838785  1
  Zn  Zn94  1  0.74375710  0.12634090  0.37274285  1
  Zn  Zn95  1  0.26291324  0.48560420  0.75875371  1
  Zn  Zn96  1  0.87521342  0.62566149  0.74932234  1
  Zn  Zn97  1  0.62217176  -0.00385458  0.62102028  1
  Zn  Zn98  1  0.13347814  0.75757651  0.87505756  1
  Zn  Zn99  1  -0.00309670  0.62280832  0.62747613  1
  Zn  Zn100  1  0.87333590  0.50246624  0.87164383  1
  Zn  Zn101  1  0.62362287  0.26303669  0.37676329  1
  Zn  Zn102  1  0.86638305  -0.00949058  0.38204088  1
  Zn  Zn103  1  0.88211087  0.36912725  0.49403292  1
  Zn  Zn104  1  0.87441491  0.12289859  0.75198430  1
  Zn  Zn105  1  0.75374957  0.50334204  0.74841478  1
  Zn  Zn106  1  0.25031887  0.24799810  0.00148044  1
  Zn  Zn107  1  0.18882421  0.18648667  0.18685706  1
  Zn  Zn108  1  0.18586214  0.18685616  0.68831861  1
  Zn  Zn109  1  0.19173673  0.68789419  0.18551878  1
  Zn  Zn110  1  0.19335990  0.68319875  0.69090558  1
  Zn  Zn111  1  0.68286566  0.19050509  0.18584215  1
  Zn  Zn112  1  0.68667098  0.18320112  0.68752959  1
  Zn  Zn113  1  0.67310186  0.66843611  0.18501440  1
  Zn  Zn114  1  0.68932723  0.68947675  0.68650464  1
  Zn  Zn115  1  0.31518265  0.31310847  0.30950707  1
  Zn  Zn116  1  0.30906667  0.31151780  0.81825171  1
  Zn  Zn117  1  0.30791143  0.81506757  0.31815357  1
  Zn  Zn118  1  0.31263781  0.80526599  0.81063266  1
  Zn  Zn119  1  0.81210455  0.31296586  0.31520322  1
  Zn  Zn120  1  0.81450507  0.31284938  0.81330086  1
  Zn  Zn121  1  0.80736997  0.81279635  0.31389353  1
  Zn  Zn122  1  0.81557980  0.81253395  0.81125319  1
  Zn  Zn123  1  0.18773518  0.43688685  0.43818127  1
  Zn  Zn124  1  0.19073959  0.44250057  0.93635511  1
  Zn  Zn125  1  0.18739099  0.93841508  0.43987180  1
  Zn  Zn126  1  0.19695631  0.93512646  0.94389000  1
  Zn  Zn127  1  0.70907010  0.43940988  0.43988686  1
  Zn  Zn128  1  0.68044160  0.44824304  0.94936710  1
  Zn  Zn129  1  0.68441672  0.93662153  0.43352928  1
  Zn  Zn130  1  0.68859430  0.93314674  0.93859396  1
  Zn  Zn131  1  0.30816468  0.05812633  0.06015781  1
  Zn  Zn132  1  0.31455996  0.06546606  0.55923120  1
  Zn  Zn133  1  0.31116381  0.56294937  0.06702903  1
  Zn  Zn134  1  0.31463167  0.56340285  0.56340280  1
  Zn  Zn135  1  0.80630807  0.06054937  0.06437338  1
  Zn  Zn136  1  0.81314398  0.06253104  0.56508054  1
  Zn  Zn137  1  0.80766436  0.56287526  0.06135568  1
  Zn  Zn138  1  0.81382988  0.56832097  0.56089617  1
  Zn  Zn139  1  0.43859274  0.43772477  0.18839810  1
  Zn  Zn140  1  0.44464805  0.43457785  0.68341787  1
  Zn  Zn141  1  0.43854723  0.93496467  0.18853673  1
  Zn  Zn142  1  0.42077054  0.93274251  0.69711906  1
  Zn  Zn143  1  0.93372742  0.43637339  0.18924588  1
  Zn  Zn144  1  0.94038460  0.44051091  0.68700757  1
  Zn  Zn145  1  0.93728313  0.93469866  0.19257610  1
  Zn  Zn146  1  0.93860949  0.93444508  0.68968874  1
  Zn  Zn147  1  0.06172764  0.06133922  0.31510453  1
  Zn  Zn148  1  0.06218896  0.05786768  0.80984992  1
  Zn  Zn149  1  0.06003606  0.56377050  0.31509604  1
  Zn  Zn150  1  0.06430637  0.56347716  0.81335332  1
  Zn  Zn151  1  0.56014846  0.07090614  0.30682632  1
  Zn  Zn152  1  0.56263407  0.06227566  0.81319115  1
  Zn  Zn153  1  0.57061057  0.56559747  0.29083017  1
  Zn  Zn154  1  0.57009995  0.56811062  0.81000163  1
  Zn  Zn155  1  0.43938905  0.18892107  0.43716279  1
  Zn  Zn156  1  0.43473882  0.19087002  0.93819395  1
  Zn  Zn157  1  0.44044791  0.68797679  0.43753431  1
  Zn  Zn158  1  0.44695854  0.67562888  0.94416930  1
  Zn  Zn159  1  0.93622449  0.18010100  0.43749568  1
  Zn  Zn160  1  0.93724914  0.18623908  0.94006262  1
  Zn  Zn161  1  0.93682217  0.68635890  0.43944576  1
  Zn  Zn162  1  0.93827043  0.68895907  0.93528765  1
  Zn  Zn163  1  0.05962907  0.30878137  0.06539110  1
  Zn  Zn164  1  0.06244857  0.31325017  0.56152393  1
  Zn  Zn165  1  0.05944976  0.81375129  0.06461027  1
  Zn  Zn166  1  0.06616895  0.81373941  0.56976336  1
  Zn  Zn167  1  0.56112430  0.32074775  0.06406261  1
  Zn  Zn168  1  0.56535365  0.30369037  0.56863528  1
  Zn  Zn169  1  0.55495850  0.78488436  0.06940985  1
  Zn  Zn170  1  0.55989262  0.81293331  0.56179493  1
  O  O171  1  0.11744441  0.11800440  0.12071421  1
  O  O172  1  0.11461207  0.12195623  0.62002443  1
  O  O173  1  0.11822366  0.61988200  0.11879217  1
  O  O174  1  0.12555982  0.61698678  0.61515022  1
  O  O175  1  0.63128901  0.11435841  0.11428731  1
  O  O176  1  0.61461157  0.12309158  0.61931190  1
  O  O177  1  0.60460001  0.67644216  0.09575149  1
  O  O178  1  0.62068494  0.61777894  0.61751099  1
  O  O179  1  0.37228508  0.38813435  0.37946910  1
  O  O180  1  0.38255084  0.36905888  0.88974242  1
  O  O181  1  0.38387135  0.88089077  0.37795384  1
  O  O182  1  0.37186484  0.88458156  0.87772335  1
  O  O183  1  0.87330790  0.39127798  0.37581501  1
  O  O184  1  0.88566844  0.37381423  0.88400144  1
  O  O185  1  0.88008709  0.87967718  0.36428748  1
  O  O186  1  0.88295000  0.88144030  0.88286249  1
  O  O187  1  0.25486062  0.00626819  0.36618288  1
  O  O188  1  0.25777951  0.01207893  0.87839065  1
  O  O189  1  0.25881285  0.50693439  0.37727616  1
  O  O190  1  0.23728852  0.51350066  0.86697110  1
  O  O191  1  0.74682980  0.00310697  0.36053729  1
  O  O192  1  0.75922993  0.00348418  0.87073094  1
  O  O193  1  0.77091059  0.51072348  0.37941837  1
  O  O194  1  0.74821835  0.51043395  0.87643846  1
  O  O195  1  0.24183891  0.48701397  0.12881891  1
  O  O196  1  0.23446231  0.50167716  0.62148838  1
  O  O197  1  0.23910766  1.00754287  0.14048250  1
  O  O198  1  0.23902888  1.00890483  0.62191226  1
  O  O199  1  0.76375529  0.48294404  0.12727454  1
  O  O200  1  0.74130937  0.49149842  0.61939308  1
  O  O201  1  0.73886947  0.99558776  0.13460040  1
  O  O202  1  0.74888590  0.99885569  0.63529960  1
  O  O203  1  0.00768426  0.36223283  0.24345179  1
  O  O204  1  0.00380281  0.36847521  0.75947856  1
  O  O205  1  0.01209584  0.86768912  0.25161263  1
  O  O206  1  -0.00265237  0.86325843  0.76064173  1
  O  O207  1  0.49260768  0.35484631  0.24383022  1
  O  O208  1  0.50688118  0.36707268  0.75723395  1
  O  O209  1  0.51180485  0.87696903  0.25805641  1
  O  O210  1  0.50998011  0.87469799  0.74883587  1
  O  O211  1  0.49457564  0.14498601  0.24912433  1
  O  O212  1  0.49335323  0.13338126  0.74669926  1
  O  O213  1  0.47995881  0.63332657  0.25940134  1
  O  O214  1  0.49677564  0.62140084  0.73615666  1
  O  O215  1  0.99233849  0.12846641  0.24533433  1
  O  O216  1  0.99820088  0.13044717  0.74235481  1
  O  O217  1  0.99704439  0.63228945  0.24348219  1
  O  O218  1  0.99806854  0.63811331  0.75058163  1
  O  O219  1  0.37232166  0.25677874  0.01085502  1
  O  O220  1  0.36874929  0.25512251  0.50765801  1
  O  O221  1  0.36881700  0.75331066  -0.02060270  1
  O  O222  1  0.36911218  0.75834368  0.50369833  1
  O  O223  1  0.87011960  0.25663362  0.00646930  1
  O  O224  1  0.86950603  0.24797848  0.50563030  1
  O  O225  1  0.87112692  0.75611870  0.00793869  1
  O  O226  1  0.86354983  0.74358877  0.50614883  1
  O  O227  1  0.13128064  0.24531831  0.49536956  1
  O  O228  1  0.12302378  0.23949509  0.99557684  1
  O  O229  1  0.13211265  0.74320635  0.50055927  1
  O  O230  1  0.11984754  0.73683158  1.00407396  1
  O  O231  1  0.63393659  0.24022630  0.50081725  1
  O  O232  1  0.62829331  0.24368488  0.99728393  1
  O  O233  1  0.63005673  0.74225968  0.49248319  1
  O  O234  1  0.63977660  0.77515211  0.98596454  1
  O  O235  1  0.48851873  0.25157668  0.12570086  1
  O  O236  1  0.49350498  0.24298976  0.63877521  1
  O  O237  1  0.45756314  0.74509144  0.11584439  1
  O  O238  1  0.48979788  0.74412581  0.62804195  1
  O  O239  1  0.99423048  0.23701876  0.13581894  1
  O  O240  1  0.99837910  0.24269444  0.63004217  1
  O  O241  1  0.98840742  0.74521079  0.13141282  1
  O  O242  1  0.99534979  0.74982579  0.63402769  1
  O  O243  1  0.00447572  0.24246559  0.36447436  1
  O  O244  1  0.00294378  0.25447049  0.87034223  1
  O  O245  1  0.00847677  0.74806257  0.37065828  1
  O  O246  1  0.00462065  0.75870014  0.86537486  1
  O  O247  1  0.50054132  0.25540127  0.36572102  1
  O  O248  1  0.50419784  0.25447492  0.86566452  1
  O  O249  1  0.51236033  0.75700147  0.37660733  1
  O  O250  1  0.51709792  0.74272921  0.87611827  1
  O  O251  1  0.24614906  0.13529531  0.49179450  1
  O  O252  1  0.23499958  0.12575584  0.99535064  1
  O  O253  1  0.24527444  0.63092468  0.49253268  1
  O  O254  1  0.23282802  0.61830101  1.00201722  1
  O  O255  1  0.74347261  0.13072751  0.49992923  1
  O  O256  1  0.74294450  0.13111256  0.99460749  1
  O  O257  1  0.73467667  0.63381963  0.50402588  1
  O  O258  1  0.75621701  0.64018211  0.99358549  1
  O  O259  1  0.25764294  0.37178573  0.00603105  1
  O  O260  1  0.25534175  0.36223953  0.49638974  1
  O  O261  1  0.27620709  0.88352946  0.00649514  1
  O  O262  1  0.26273680  0.86581697  0.49252152  1
  O  O263  1  0.76088294  0.37127667  0.00052992  1
  O  O264  1  0.75626080  0.36455685  0.51278341  1
  O  O265  1  0.76442700  0.86706359  0.00138106  1
  O  O266  1  0.74214935  0.86176156  0.50025341  1
  O  O267  1  0.12257573  0.49127929  0.24621881  1
  O  O268  1  0.11929230  0.50047404  0.73306400  1
  O  O269  1  0.12914250  0.99320504  0.24647123  1
  O  O270  1  0.12440412  1.00230999  0.73396527  1
  O  O271  1  0.62036870  0.56530557  0.19205830  1
  O  O272  1  0.63114723  0.49310782  0.73917942  1
  O  O273  1  0.62813112  0.99564733  0.24262130  1
  O  O274  1  0.63194196  0.99389968  0.74963010  1
  O  O275  1  0.36624349  0.00320714  0.25567368  1
  O  O276  1  0.37485892  0.01704547  0.75898680  1
  O  O277  1  0.37166235  0.50835065  0.26102437  1
  O  O278  1  0.37955968  0.50827638  0.73928316  1
  O  O279  1  0.86398239  0.00703460  0.24573658  1
  O  O280  1  0.86773724  0.00044781  0.75877654  1
  O  O281  1  0.88433771  0.51045345  0.26325496  1
  O  O282  1  0.87217045  0.50352435  0.75253865  1
  O  O283  1  0.12914259  0.36871328  0.36258672  1
  O  O284  1  0.11155169  0.36742155  0.88229685  1
  O  O285  1  0.12108249  0.86797290  0.37018512  1
  O  O286  1  0.11342834  0.87876069  0.88632959  1
  O  O287  1  0.62101364  0.38437598  0.38923766  1
  O  O288  1  0.61937075  0.37068176  0.87640005  1
  O  O289  1  0.61947803  0.86723160  0.36543680  1
  O  O290  1  0.63139834  0.86879794  0.86169307  1
  O  O291  1  0.36574005  0.14158742  0.12205775  1
  O  O292  1  0.37954157  0.13454680  0.63153605  1
  O  O293  1  0.36367195  0.62113703  0.14877691  1
  O  O294  1  0.38455809  0.63049924  0.62705851  1
  O  O295  1  0.88019558  0.12703608  0.13318608  1
  O  O296  1  0.88762854  0.13009873  0.62730139  1
  O  O297  1  0.87934530  0.62986564  0.13424650  1
  O  O298  1  0.87757822  0.63800199  0.62667342  1
  O  O299  1  0.25386813  0.26078024  0.12464253  1
  O  O300  1  0.25849794  0.24230132  0.61513334  1
  O  O301  1  0.26636321  0.74051672  0.11977227  1
  O  O302  1  0.26084316  0.74198802  0.61434793  1
  O  O303  1  0.75645058  0.25678662  0.11954710  1
  O  O304  1  0.75453758  0.25375714  0.61823635  1
  O  O305  1  0.76151991  0.75011846  0.11825990  1
  O  O306  1  0.75683946  0.75327341  0.61622619  1
  O  O307  1  0.24671859  0.24443961  0.38021870  1
  O  O308  1  0.24089813  0.23651655  0.88079842  1
  O  O309  1  0.24470824  0.74286867  0.38755037  1
  O  O310  1  0.24238353  0.73839300  0.86174942  1
  O  O311  1  0.74818693  0.25024297  0.38908446  1
  O  O312  1  0.74486354  0.24557913  0.88144114  1
  O  O313  1  0.73659998  0.74998673  0.38175987  1
  O  O314  1  0.74654845  0.74645136  0.88134994  1
  O  O315  1  0.00969264  0.12670188  0.01031824  1
  O  O316  1  0.00640584  0.11769237  0.50853359  1
  O  O317  1  0.00231310  0.61948950  0.00866876  1
  O  O318  1  0.01006959  0.61764488  0.50221290  1
  O  O319  1  0.51181930  0.12464009  -0.00544154  1
  O  O320  1  0.50741300  0.13277120  0.51163490  1
  O  O321  1  0.50062209  0.60732980  0.01080792  1
  O  O322  1  0.51130698  0.62999993  0.51071508  1
  O  O323  1  0.49622372  0.37385073  0.50324925  1
  O  O324  1  0.48677587  0.37334532  0.99322266  1
  O  O325  1  0.50138322  0.87620104  0.48046692  1
  O  O326  1  0.47278000  0.87178500  1.01298283  1
  O  O327  1  0.99961985  0.38836052  0.49980367  1
  O  O328  1  0.98945203  0.37766650  0.99725209  1
  O  O329  1  1.00527282  0.88820868  0.50210568  1
  O  O330  1  0.98757325  0.86996562  0.99263822  1
  O  O331  1  0.49773509  0.50240165  0.36734304  1
  O  O332  1  0.50902309  0.48891515  0.86817096  1
  O  O333  1  0.48894334  0.99556203  0.36563533  1
  O  O334  1  0.48629176  1.00477325  0.87621191  1
  O  O335  1  0.99351356  0.50496712  0.38874642  1
  O  O336  1  0.99951980  0.49094319  0.88197119  1
  O  O337  1  1.00229150  1.00083620  0.39290237  1
  O  O338  1  0.98742413  0.99347514  0.87030091  1
  O  O339  1  0.00755693  0.01093397  0.13354802  1
  O  O340  1  0.00497940  0.00469705  0.61803104  1
  O  O341  1  0.00261097  0.50396497  0.12067315  1
  O  O342  1  0.00766401  0.50309495  0.61210480  1
  O  O343  1  0.50990618  0.00099499  0.12590181  1
  O  O344  1  0.49564360  0.01411672  0.63393650  1
  O  O345  1  0.49716020  0.50694528  0.12628653  1
  O  O346  1  0.51474303  0.50578817  0.62307086  1
  O  O347  1  0.24098091  0.37554517  0.24237191  1
  O  O348  1  0.24614901  0.37346583  0.75231522  1
  O  O349  1  0.23560366  0.88391972  0.25896465  1
  O  O350  1  0.32809705  0.85279594  0.70770174  1
  O  O351  1  0.75101259  0.37142180  0.24024898  1
  O  O352  1  0.74598387  0.37317743  0.73894938  1
  O  O353  1  0.73659724  0.88214699  0.24592257  1
  O  O354  1  0.74563770  0.88666819  0.75021556  1
  O  O355  1  0.25113189  0.11867117  0.25863688  1
  O  O356  1  0.25725107  0.13232492  0.76021386  1
  O  O357  1  0.24823466  0.62204309  0.26761019  1
  O  O358  1  0.27184669  0.61677166  0.74307402  1
  O  O359  1  0.75595430  0.11940834  0.24842622  1
  O  O360  1  0.74993771  0.11402200  0.75835612  1
  O  O361  1  0.76534326  0.63023615  0.24815741  1
  O  O362  1  0.75217220  0.62474006  0.75859241  1
  O  O363  1  0.36957793  0.11877694  0.37433012  1
  O  O364  1  0.36619684  0.12287210  0.86976623  1
  O  O365  1  0.36865166  0.61650763  0.37452061  1
  O  O366  1  0.38371498  0.61941963  0.85954850  1
  O  O367  1  0.87118770  0.11795309  0.36260256  1
  O  O368  1  0.86947390  0.11650751  0.87680948  1
  O  O369  1  0.88168738  0.61912652  0.36176687  1
  O  O370  1  0.86298454  0.62589348  0.87436796  1
  O  O371  1  0.12980134  0.37585246  0.13338081  1
  O  O372  1  0.12203710  0.38898091  0.62397622  1
  O  O373  1  0.11987376  0.88515344  0.13319218  1
  O  O374  1  0.13318346  0.88795860  0.62257524  1
  O  O375  1  0.64217447  0.37363883  0.12111939  1
  O  O376  1  0.63251708  0.38055614  0.62941768  1
  O  O377  1  0.62112300  0.87748048  0.13025230  1
  O  O378  1  0.62657523  0.87745214  0.63372145  1
  O  O379  1  0.11735007  0.25431729  0.25407251  1
  O  O380  1  0.11528480  0.24918801  0.75844877  1
  O  O381  1  0.12315435  0.75620771  0.25473024  1
  O  O382  1  0.11296371  0.74689381  0.74583513  1
  O  O383  1  0.61371289  0.25020077  0.25542665  1
  O  O384  1  0.61865926  0.25491360  0.75543450  1
  O  O385  1  0.63169858  0.75625114  0.25679489  1
  O  O386  1  0.62515231  0.76039181  0.75566123  1
  O  O387  1  0.37803043  0.24919717  0.23596755  1
  O  O388  1  0.38079382  0.24302216  0.74609033  1
  O  O389  1  0.36325836  0.73849895  0.25375780  1
  O  O390  1  0.38673569  0.72827353  0.74676495  1
  O  O391  1  0.88069811  0.24193140  0.24888342  1
  O  O392  1  0.88303179  0.24708162  0.74440432  1
  O  O393  1  0.87808020  0.74089914  0.24459243  1
  O  O394  1  0.88477677  0.74918410  0.74225602  1
  O  O395  1  0.37629060  0.49196895  0.49414521  1
  O  O396  1  0.36826761  0.48582456  1.00331319  1
  O  O397  1  0.36900845  0.99417088  0.48574435  1
  O  O398  1  0.38012847  1.00576822  0.99036069  1
  O  O399  1  0.88519319  0.50258902  0.49091999  1
  O  O400  1  0.88150479  0.49180520  0.99796972  1
  O  O401  1  0.89070677  1.00552199  0.50062240  1
  O  O402  1  0.86972660  0.99228057  0.99312362  1
  O  O403  1  0.12885658  0.00495704  0.01308383  1
  O  O404  1  0.11800849  0.00642370  0.50859670  1
  O  O405  1  0.11489175  0.50517561  0.00904800  1
  O  O406  1  0.11849647  0.50526365  0.50491469  1
  O  O407  1  0.62172915  0.00408575  0.00640197  1
  O  O408  1  0.62904315  0.01309478  0.50173638  1
  O  O409  1  0.63111830  0.51640228  0.02409056  1
  O  O410  1  0.62128595  0.50283991  0.49965282  1
  O  O411  1  0.36766502  0.36746041  0.11650441  1
  O  O412  1  0.38110873  0.36110729  0.62057041  1
  O  O413  1  0.36159402  0.86686319  0.14201902  1
  O  O414  1  0.40774185  0.87439555  0.59593857  1
  O  O415  1  0.87148032  0.36641622  0.11863369  1
  O  O416  1  0.86916064  0.36858484  0.62309369  1
  O  O417  1  0.87505406  0.86690640  0.11993500  1
  O  O418  1  0.87316624  0.86185849  0.62710012  1
  O  O419  1  0.13173879  0.13078800  0.38059997  1
  O  O420  1  0.12667304  0.12392218  0.88286548  1
  O  O421  1  0.13170416  0.62859438  0.38698856  1
  O  O422  1  0.11450733  0.62861179  0.89444689  1
  O  O423  1  0.62398390  0.13059635  0.38394753  1
  O  O424  1  0.63122106  0.13109535  0.88177738  1
  O  O425  1  0.61752640  0.63044174  0.38056547  1
  O  O426  1  0.63912116  0.63829980  0.87067641  1
