# generated using pymatgen
data_V85Zn86O256
_symmetry_space_group_name_H-M   'P 1'
_cell_length_a   16.95219205
_cell_length_b   16.92788809
_cell_length_c   16.94052718
_cell_angle_alpha   90.01348279
_cell_angle_beta   89.88167516
_cell_angle_gamma   90.05409260
_symmetry_Int_Tables_number   1
_chemical_formula_structural   V85Zn86O256
_chemical_formula_sum   'V85 Zn86 O256'
_cell_volume   4861.32249865
_cell_formula_units_Z   1
loop_
 _symmetry_equiv_pos_site_id
 _symmetry_equiv_pos_as_xyz
  1  'x, y, z'
loop_
 _atom_site_type_symbol
 _atom_site_label
 _atom_site_symmetry_multiplicity
 _atom_site_fract_x
 _atom_site_fract_y
 _atom_site_fract_z
 _atom_site_occupancy
  V  V0  1  0.12299226  0.24691941  0.36837507  1
  V  V1  1  0.61425504  0.87558765  0.24358767  1
  V  V2  1  0.37603730  0.62490171  0.75019232  1
  V  V3  1  0.49919270  0.36531506  0.87633969  1
  V  V4  1  0.62524418  0.75372061  0.87744536  1
  V  V5  1  0.88289222  0.25718926  0.13016716  1
  V  V6  1  0.37377554  0.60980296  0.26015544  1
  V  V7  1  0.25668764  0.37574167  0.11558285  1
  V  V8  1  0.62826780  0.36932890  0.24650036  1
  V  V9  1  0.62337708  0.01171481  0.12548842  1
  V  V10  1  0.00170441  0.49823971  0.49697617  1
  V  V11  1  0.74848869  0.74530210  0.49843433  1
  V  V12  1  0.25416717  0.11946932  0.35705243  1
  V  V13  1  -0.00080910  0.36930021  0.87691671  1
  V  V14  1  0.74205547  0.13291581  0.87044361  1
  V  V15  1  0.87602745  0.62577157  0.75026041  1
  V  V16  1  0.13090643  0.73594188  0.37410140  1
  V  V17  1  0.74885657  0.76208325  0.00514864  1
  V  V18  1  0.75005634  0.62766977  0.87693470  1
  V  V19  1  0.75088131  -0.00593622  0.24507840  1
  V  V20  1  0.00292420  0.62441675  0.61809911  1
  V  V21  1  0.87716216  0.87421399  0.50014344  1
  V  V22  1  0.62482776  0.87945057  0.75220391  1
  V  V23  1  0.24969386  0.49744160  0.75108725  1
  V  V24  1  0.12594765  0.50136813  0.62187090  1
  V  V25  1  0.61550410  0.24494635  0.38543798  1
  V  V26  1  0.37615522  0.49438405  0.87917623  1
  V  V27  1  0.00175439  -0.00173657  0.49870630  1
  V  V28  1  0.49916972  0.75034301  0.75191656  1
  V  V29  1  0.25299226  -0.00200826  0.74855689  1
  V  V30  1  0.87612304  0.74974231  0.62569377  1
  V  V31  1  0.87844617  0.00860842  0.87056798  1
  V  V32  1  0.73868596  0.25286544  0.01414644  1
  V  V33  1  0.62708525  0.37123529  0.75333828  1
  V  V34  1  0.25029031  0.62383529  0.87642263  1
  V  V35  1  0.74982442  0.87513870  0.62660755  1
  V  V36  1  0.88129872  0.88675581  0.00575203  1
  V  V37  1  -0.00254106  0.24025040  0.75656231  1
  V  V38  1  0.38874433  0.00782585  0.37553776  1
  V  V39  1  0.11914465  0.37096011  0.24264710  1
  V  V40  1  -0.00385360  0.50042930  -0.00145184  1
  V  V41  1  0.25318728  0.87467982  0.61193513  1
  V  V42  1  0.12357305  0.36695036  0.75214370  1
  V  V43  1  0.49067481  0.87719492  0.88366789  1
  V  V44  1  0.25058211  0.73466109  0.49135362  1
  V  V45  1  0.25146527  0.37133632  0.62339046  1
  V  V46  1  0.49650969  0.87235094  0.39279052  1
  V  V47  1  0.50010552  0.49397869  0.00110882  1
  V  V48  1  0.75760330  0.62370938  0.37050267  1
  V  V49  1  0.37642880  0.75256473  0.61877606  1
  V  V50  1  -0.00632533  0.62725274  0.12790323  1
  V  V51  1  0.12495889  0.74984042  0.87507764  1
  V  V52  1  0.87458948  0.50033704  0.87497856  1
  V  V53  1  0.25317229  0.24929245  -0.01050720  1
  V  V54  1  0.12581473  -0.00063948  0.62298048  1
  V  V55  1  0.62340911  -0.00021476  0.60993224  1
  V  V56  1  0.50605130  0.24324729  0.75104778  1
  V  V57  1  0.38276291  0.38917215  0.49898380  1
  V  V58  1  0.12869431  0.12592656  0.49837394  1
  V  V59  1  0.62069992  0.50194707  0.62116665  1
  V  V60  1  0.25878738  0.24790333  0.49710001  1
  V  V61  1  0.62524996  0.62645004  0.00143130  1
  V  V62  1  0.12353894  0.62709152  0.00044014  1
  V  V63  1  -0.00596668  0.12385978  0.62570159  1
  V  V64  1  0.75030560  0.49871360  0.75028459  1
  V  V65  1  0.37696551  0.75589435  0.12530314  1
  V  V66  1  0.74947372  0.12591960  0.38253344  1
  V  V67  1  0.25542448  0.88242851  0.12512229  1
  V  V68  1  0.50476298  0.11948698  0.60723691  1
  V  V69  1  0.87360372  0.24882852  0.62643474  1
  V  V70  1  0.50972132  0.39807453  0.38621205  1
  V  V71  1  0.37905531  0.12166647  0.74872584  1
  V  V72  1  0.87776603  -0.00039928  0.37114846  1
  V  V73  1  0.12106463  0.00348023  0.11155013  1
  V  V74  1  0.00144217  0.74868516  0.25166993  1
  V  V75  1  0.12399212  0.50133034  0.12553455  1
  V  V76  1  0.75646841  0.50177955  0.24085880  1
  V  V77  1  0.13302834  0.88217295  0.25178419  1
  V  V78  1  0.12598807  0.87258417  0.74789386  1
  V  V79  1  0.49749018  0.62027585  0.12641491  1
  V  V80  1  0.00148319  0.74950648  0.75040845  1
  V  V81  1  0.25605388  0.75423724  0.00061415  1
  V  V82  1  0.87034550  0.75487517  0.13051312  1
  V  V83  1  0.48691308  0.00571885  0.01084640  1
  V  V84  1  -0.00248098  0.36898479  0.37103528  1
  Zn  Zn85  1  0.75134461  0.37320856  0.62316679  1
  Zn  Zn86  1  0.62850709  0.49409832  0.12312746  1
  Zn  Zn87  1  0.24584235  0.50523722  0.26933947  1
  Zn  Zn88  1  0.24531469  0.13149381  0.86709501  1
  Zn  Zn89  1  0.61700128  0.61443233  0.48712122  1
  Zn  Zn90  1  0.37297682  -0.00179307  0.87789989  1
  Zn  Zn91  1  0.49764430  0.62044044  0.61923833  1
  Zn  Zn92  1  0.38274350  0.23477320  0.14436281  1
  Zn  Zn93  1  0.00187651  0.87988307  0.87903603  1
  Zn  Zn94  1  0.61656219  0.12897108  -0.00081992  1
  Zn  Zn95  1  0.87806826  0.50239265  0.37061574  1
  Zn  Zn96  1  0.74935632  0.24913207  0.50237327  1
  Zn  Zn97  1  0.49806647  0.74834446  0.25219781  1
  Zn  Zn98  1  0.00676576  0.87310831  0.37574695  1
  Zn  Zn99  1  0.75128045  0.00598641  0.74961540  1
  Zn  Zn100  1  0.86379132  0.37643755  0.00300739  1
  Zn  Zn101  1  0.87553129  0.37253464  0.50052626  1
  Zn  Zn102  1  -0.00258189  0.12306731  0.12410006  1
  Zn  Zn103  1  0.37966396  0.24882777  0.62148316  1
  Zn  Zn104  1  0.11377789  0.13596724  0.97888738  1
  Zn  Zn105  1  0.87920631  0.13110670  0.24910318  1
  Zn  Zn106  1  0.62631570  0.75098242  0.37171829  1
  Zn  Zn107  1  0.19169477  0.19266182  0.18072865  1
  Zn  Zn108  1  0.18579938  0.18536484  0.68723965  1
  Zn  Zn109  1  0.19141619  0.68636999  0.19054014  1
  Zn  Zn110  1  0.18994925  0.68563268  0.68448080  1
  Zn  Zn111  1  0.68907986  0.18433776  0.19689487  1
  Zn  Zn112  1  0.68579420  0.18374063  0.68703124  1
  Zn  Zn113  1  0.68663463  0.68575969  0.18844492  1
  Zn  Zn114  1  0.68744828  0.68753351  0.68847284  1
  Zn  Zn115  1  0.30961841  0.35014167  0.31730317  1
  Zn  Zn116  1  0.31847262  0.31083484  0.80848124  1
  Zn  Zn117  1  0.32110677  0.81409577  0.30900675  1
  Zn  Zn118  1  0.31100764  0.81287172  0.80901218  1
  Zn  Zn119  1  0.80802253  0.31349572  0.31272410  1
  Zn  Zn120  1  0.81521961  0.30824001  0.81286744  1
  Zn  Zn121  1  0.81163997  0.81674836  0.31167948  1
  Zn  Zn122  1  0.81361367  0.81817489  0.81669372  1
  Zn  Zn123  1  0.18469842  0.43529581  0.43820828  1
  Zn  Zn124  1  0.18253954  0.43525797  0.93759884  1
  Zn  Zn125  1  0.19236226  0.93661358  0.43369753  1
  Zn  Zn126  1  0.19039015  0.93550875  0.93626729  1
  Zn  Zn127  1  0.69583979  0.43447071  0.43750222  1
  Zn  Zn128  1  0.68336149  0.43490025  0.93614136  1
  Zn  Zn129  1  0.69028146  0.93179218  0.43158975  1
  Zn  Zn130  1  0.68708526  0.94476376  0.94056487  1
  Zn  Zn131  1  0.30616663  0.07022109  0.05950866  1
  Zn  Zn132  1  0.32040337  0.06144713  0.55583321  1
  Zn  Zn133  1  0.31456560  0.56131273  0.06427788  1
  Zn  Zn134  1  0.31222148  0.56488303  0.56381854  1
  Zn  Zn135  1  0.80789257  0.07044372  0.06394869  1
  Zn  Zn136  1  0.81239885  0.05993000  0.56286152  1
  Zn  Zn137  1  0.81291442  0.56772200  0.06254532  1
  Zn  Zn138  1  0.81259877  0.55977484  0.56084684  1
  Zn  Zn139  1  0.44731820  0.40652118  0.18464252  1
  Zn  Zn140  1  0.43843587  0.43423732  0.68834989  1
  Zn  Zn141  1  0.42798647  1.05350828  0.19671332  1
  Zn  Zn142  1  0.44054840  0.93581000  0.68320445  1
  Zn  Zn143  1  0.93496021  0.43286505  0.18472545  1
  Zn  Zn144  1  0.93797701  0.43392657  0.68816975  1
  Zn  Zn145  1  0.94327010  0.93679403  0.18887507  1
  Zn  Zn146  1  0.93759943  0.93764553  0.69104954  1
  Zn  Zn147  1  0.06154614  0.06450671  0.30509544  1
  Zn  Zn148  1  0.06286920  0.05971162  0.81337470  1
  Zn  Zn149  1  0.05937036  0.56172030  0.30945860  1
  Zn  Zn150  1  0.06266588  0.56045564  0.81020647  1
  Zn  Zn151  1  0.56550197  0.06074018  0.32098704  1
  Zn  Zn152  1  0.56309444  0.05841029  0.81533342  1
  Zn  Zn153  1  0.57073455  0.56383756  0.30722490  1
  Zn  Zn154  1  0.56243054  0.56167328  0.81147374  1
  Zn  Zn155  1  0.43283740  0.20202041  0.30895362  1
  Zn  Zn156  1  0.42722106  0.18555103  0.94045280  1
  Zn  Zn157  1  0.43963459  0.68508980  0.43691043  1
  Zn  Zn158  1  0.43785403  0.68456920  0.93905278  1
  Zn  Zn159  1  0.93808590  0.18510800  0.43777069  1
  Zn  Zn160  1  0.93189068  0.18584500  0.94923039  1
  Zn  Zn161  1  0.93828744  0.68653634  0.43628950  1
  Zn  Zn162  1  0.93566467  0.69275428  0.94049740  1
  Zn  Zn163  1  0.06222236  0.30858131  0.05593933  1
  Zn  Zn164  1  0.06296200  0.31049601  0.56057225  1
  Zn  Zn165  1  0.06429280  0.81557417  0.06447092  1
  Zn  Zn166  1  0.06813227  0.80964426  0.55776623  1
  Zn  Zn167  1  0.55612861  0.30536711  0.06802735  1
  Zn  Zn168  1  0.56385471  0.31076695  0.56421904  1
  Zn  Zn169  1  0.55867921  0.81849087  0.06636713  1
  Zn  Zn170  1  0.56492897  0.80547308  0.56499324  1
  O  O171  1  0.13346358  0.10600627  0.12758604  1
  O  O172  1  0.11581623  0.11809090  0.61944191  1
  O  O173  1  0.11407283  0.62114542  0.12151589  1
  O  O174  1  0.11791417  0.61001699  0.63196971  1
  O  O175  1  0.62380186  0.11529627  0.12911312  1
  O  O176  1  0.61388708  0.11380318  0.62787660  1
  O  O177  1  0.61255042  0.62446453  0.11944596  1
  O  O178  1  0.62598605  0.60910284  0.63162828  1
  O  O179  1  0.40496781  0.37615996  0.38668349  1
  O  O180  1  0.38512143  0.38590200  0.86726662  1
  O  O181  1  0.39284226  0.87843129  0.37392191  1
  O  O182  1  0.38808783  0.87306696  0.87001100  1
  O  O183  1  0.88920920  0.37205405  0.37426962  1
  O  O184  1  0.88454257  0.38246773  0.87406610  1
  O  O185  1  0.87901038  0.88439204  0.38135014  1
  O  O186  1  0.87536144  0.88579968  0.88837896  1
  O  O187  1  0.24261600  0.01890722  0.37290520  1
  O  O188  1  0.25401315  -0.00800809  0.85734763  1
  O  O189  1  0.26435478  0.44731576  0.36374181  1
  O  O190  1  0.25689284  0.50135118  0.87155534  1
  O  O191  1  0.75961803  0.00373688  0.37080409  1
  O  O192  1  0.75836403  0.01039329  0.87540820  1
  O  O193  1  0.75476965  0.50812347  0.36759374  1
  O  O194  1  0.75412986  0.50598286  0.86888638  1
  O  O195  1  0.22980804  0.49805128  0.11243912  1
  O  O196  1  0.24237980  0.49433253  0.63074740  1
  O  O197  1  0.24461137  0.98530752  0.11732018  1
  O  O198  1  0.24959801  0.99154264  0.63007330  1
  O  O199  1  0.74935979  0.50598827  0.13618093  1
  O  O200  1  0.74463737  0.49894254  0.63672535  1
  O  O201  1  0.74055085  1.00444939  0.13466624  1
  O  O202  1  0.74406533  0.99359376  0.62942567  1
  O  O203  1  0.01024491  0.38110981  0.25630169  1
  O  O204  1  0.00628701  0.36546774  0.75575434  1
  O  O205  1  0.01242632  0.86256976  0.25002978  1
  O  O206  1  0.00874986  0.86659578  0.75003328  1
  O  O207  1  0.52256058  0.38958439  0.27243007  1
  O  O208  1  0.50584704  0.36428251  0.75544459  1
  O  O209  1  0.51364646  0.87405213  0.25669855  1
  O  O210  1  0.50756294  0.87004485  0.75786658  1
  O  O211  1  0.49354866  0.12024697  0.26161791  1
  O  O212  1  0.49563526  0.12897149  0.75063853  1
  O  O213  1  0.49539107  0.62500748  0.24127451  1
  O  O214  1  0.49294559  0.63242113  0.74953580  1
  O  O215  1  0.99176868  0.11663576  0.23824298  1
  O  O216  1  1.00461270  0.13428383  0.74150708  1
  O  O217  1  1.00167580  0.63808854  0.24160359  1
  O  O218  1  0.99530828  0.62835796  0.73956094  1
  O  O219  1  0.35747078  0.24934398  0.00453566  1
  O  O220  1  0.36111803  0.26127133  0.50089210  1
  O  O221  1  0.36500767  0.74046715  0.00823185  1
  O  O222  1  0.36214449  0.74599920  0.50720974  1
  O  O223  1  0.85928754  0.25366265  0.01262880  1
  O  O224  1  0.87930064  0.24832811  0.51479942  1
  O  O225  1  0.86755873  0.76075232  0.00826660  1
  O  O226  1  0.86869738  0.75334623  0.50643347  1
  O  O227  1  0.13294495  0.24479712  0.49291969  1
  O  O228  1  0.14446320  0.24867297  1.00857769  1
  O  O229  1  0.13909177  0.75053730  0.48921084  1
  O  O230  1  0.13121484  0.74507245  0.99511642  1
  O  O231  1  0.62928031  0.25132195  0.48926818  1
  O  O232  1  0.63179169  0.24741882  1.00700185  1
  O  O233  1  0.64219136  0.75064719  0.50005056  1
  O  O234  1  0.63180307  0.74965990  0.99883980  1
  O  O235  1  0.47449398  0.30145462  0.13907650  1
  O  O236  1  0.50246816  0.23560543  0.63239655  1
  O  O237  1  0.49215680  0.74097794  0.12334235  1
  O  O238  1  0.49042348  0.75187472  0.63473218  1
  O  O239  1  0.98499996  0.25636049  0.12473206  1
  O  O240  1  0.99683067  0.24129484  0.63165046  1
  O  O241  1  0.99502539  0.74535690  0.13119477  1
  O  O242  1  0.99936316  0.74106296  0.62799143  1
  O  O243  1  0.01308351  0.25436659  0.38031780  1
  O  O244  1  -0.01156274  0.25729386  0.86730693  1
  O  O245  1  0.00858156  0.74967224  0.36794114  1
  O  O246  1  0.00682164  0.75004744  0.86771953  1
  O  O247  1  0.51590237  0.25356137  0.37889218  1
  O  O248  1  0.49222592  0.25884910  0.86974724  1
  O  O249  1  0.50362739  0.76169143  0.37211645  1
  O  O250  1  0.50630757  0.75654651  0.87391756  1
  O  O251  1  0.24419689  0.13305572  0.49968407  1
  O  O252  1  0.24464482  0.13756524  0.99016454  1
  O  O253  1  0.24717686  0.63573417  0.50171734  1
  O  O254  1  0.24340670  0.63209621  0.99477240  1
  O  O255  1  0.75610176  0.12372491  0.48661384  1
  O  O256  1  0.74312632  0.13795508  0.99234341  1
  O  O257  1  0.74882084  0.63043222  0.49287962  1
  O  O258  1  0.74470520  0.63613911  0.99487174  1
  O  O259  1  0.24148384  0.36896504  0.00812864  1
  O  O260  1  0.25375254  0.36813273  0.51009032  1
  O  O261  1  0.24731775  0.86109210  0.00676522  1
  O  O262  1  0.24530884  0.86594180  0.50994423  1
  O  O263  1  0.74627523  0.35656056  -0.01045150  1
  O  O264  1  0.75854786  0.36954054  0.50504010  1
  O  O265  1  0.75767893  0.86624148  -0.00277515  1
  O  O266  1  0.75847450  0.86657993  0.50559524  1
  O  O267  1  0.12574095  0.49592625  0.24032835  1
  O  O268  1  0.12899833  0.48853447  0.74336045  1
  O  O269  1  0.12550878  0.98442659  0.24341009  1
  O  O270  1  0.13265251  0.99209915  0.74082081  1
  O  O271  1  0.63849521  0.49258534  0.24639008  1
  O  O272  1  0.63284714  0.49306444  0.74606678  1
  O  O273  1  0.63013409  0.99230839  0.24597258  1
  O  O274  1  0.62607355  0.98768913  0.74522881  1
  O  O275  1  0.36926887  -0.00835164  0.27636461  1
  O  O276  1  0.36939521  0.00428864  0.74746712  1
  O  O277  1  0.37895051  0.50955746  0.24447659  1
  O  O278  1  0.36966875  0.50492566  0.75634001  1
  O  O279  1  0.86830439  -0.00754194  0.25744876  1
  O  O280  1  0.86953682  -0.00676487  0.76680082  1
  O  O281  1  0.86095069  0.49391882  0.25037121  1
  O  O282  1  0.86993648  0.50570099  0.75400419  1
  O  O283  1  0.11395947  0.36596196  0.36564989  1
  O  O284  1  0.10969836  0.38066726  0.86478813  1
  O  O285  1  0.12806069  0.86592359  0.36542337  1
  O  O286  1  0.12332084  0.86797994  0.86740858  1
  O  O287  1  0.62136345  0.36645950  0.37731575  1
  O  O288  1  0.61347234  0.38003062  0.86074163  1
  O  O289  1  0.61375467  0.87511114  0.36695469  1
  O  O290  1  0.61910503  0.87231295  0.86965247  1
  O  O291  1  0.37121667  0.12359242  0.13003135  1
  O  O292  1  0.38811957  0.12236595  0.63152386  1
  O  O293  1  0.38669590  0.62834915  0.12709053  1
  O  O294  1  0.37387102  0.63540768  0.63310414  1
  O  O295  1  0.87229966  0.14108142  0.12594786  1
  O  O296  1  0.88838748  0.12651405  0.62266447  1
  O  O297  1  0.88739852  0.63753902  0.11889602  1
  O  O298  1  0.88290680  0.62994434  0.63010018  1
  O  O299  1  0.25600988  0.26598925  0.11758412  1
  O  O300  1  0.25014234  0.25518602  0.61787920  1
  O  O301  1  0.25545716  0.75211745  0.11616273  1
  O  O302  1  0.25465316  0.75416533  0.61491359  1
  O  O303  1  0.74932036  0.24704561  0.11602277  1
  O  O304  1  0.76017024  0.24641306  0.62570936  1
  O  O305  1  0.76036966  0.74430352  0.11827385  1
  O  O306  1  0.75615737  0.75348055  0.61922240  1
  O  O307  1  0.23798747  0.24085564  0.38280251  1
  O  O308  1  0.25389805  0.25671465  0.88484778  1
  O  O309  1  0.24879240  0.75334329  0.38607797  1
  O  O310  1  0.24601888  0.74561756  0.88147140  1
  O  O311  1  0.74580193  0.24069772  0.37859125  1
  O  O312  1  0.75710594  0.23578027  0.88189103  1
  O  O313  1  0.75274715  0.74484991  0.38231629  1
  O  O314  1  0.74524207  0.74766587  0.88391690  1
  O  O315  1  0.00620032  0.13245243  0.01085647  1
  O  O316  1  0.00847978  0.11810622  0.50687049  1
  O  O317  1  0.00422775  0.62270097  0.00667979  1
  O  O318  1  -0.00098883  0.61889158  0.51166513  1
  O  O319  1  0.49975415  0.10976308  -0.00934581  1
  O  O320  1  0.49733393  0.12539352  0.51290228  1
  O  O321  1  0.50610811  0.61469340  0.00406355  1
  O  O322  1  0.50904672  0.63742874  0.50833384  1
  O  O323  1  0.49746047  0.37610758  0.49655704  1
  O  O324  1  0.50950127  0.38701622  0.98826828  1
  O  O325  1  0.50373391  0.86945511  0.49140429  1
  O  O326  1  0.50364815  0.88917837  0.99292135  1
  O  O327  1  1.00074555  0.38111575  0.49047956  1
  O  O328  1  0.99692501  0.38087681  0.99016379  1
  O  O329  1  0.99544512  0.87953360  0.49995484  1
  O  O330  1  0.98461182  0.86999422  0.99799589  1
  O  O331  1  0.51875932  0.49647313  0.38823426  1
  O  O332  1  0.49324358  0.49291081  0.87852946  1
  O  O333  1  0.49501926  0.98967716  0.38242134  1
  O  O334  1  0.49742307  0.99097437  0.88405532  1
  O  O335  1  1.00002424  0.49282496  0.38157031  1
  O  O336  1  0.99295583  0.49513709  0.87822934  1
  O  O337  1  0.99427652  0.99676089  0.38005208  1
  O  O338  1  0.98352176  0.99840326  0.87125939  1
  O  O339  1  0.01896986  -0.00765894  0.12229741  1
  O  O340  1  0.00382224  0.00593247  0.62172202  1
  O  O341  1  0.00345282  0.50886071  0.12074204  1
  O  O342  1  0.00674742  0.50427042  0.62018109  1
  O  O343  1  0.50308323  -0.00051983  0.11407367  1
  O  O344  1  0.50795212  0.00978328  0.62586133  1
  O  O345  1  0.50199588  0.50256969  0.11510519  1
  O  O346  1  0.51676117  0.50058841  0.63485150  1
  O  O347  1  0.23118641  0.38174523  0.22560471  1
  O  O348  1  0.24281919  0.37698911  0.74417162  1
  O  O349  1  0.24254956  0.86319883  0.23784299  1
  O  O350  1  0.24449140  0.87798519  0.73769592  1
  O  O351  1  0.73795198  0.38991362  0.26061021  1
  O  O352  1  0.74260681  0.37922269  0.75177633  1
  O  O353  1  0.73642935  0.88791983  0.25969790  1
  O  O354  1  0.74103935  0.87361722  0.74463192  1
  O  O355  1  0.24773211  0.12946323  0.25950813  1
  O  O356  1  0.26020219  0.11432281  0.74185178  1
  O  O357  1  0.26628946  0.61682882  0.24270715  1
  O  O358  1  0.25479061  0.61758347  0.75646022  1
  O  O359  1  0.75445823  0.11136466  0.26311128  1
  O  O360  1  0.74809246  0.12515177  0.76531583  1
  O  O361  1  0.74823815  0.61194381  0.25504125  1
  O  O362  1  0.75686831  0.62109808  0.75769461  1
  O  O363  1  0.36229184  0.11878859  0.37515352  1
  O  O364  1  0.36820635  0.12099888  0.85925191  1
  O  O365  1  0.38080665  0.62425597  0.35868043  1
  O  O366  1  0.36984797  0.61721293  0.86851007  1
  O  O367  1  0.87196769  0.11306668  0.37332629  1
  O  O368  1  0.86485288  0.11201203  0.88341791  1
  O  O369  1  0.86369637  0.62406707  0.37655900  1
  O  O370  1  0.87036740  0.62163793  0.87094415  1
  O  O371  1  0.12001432  0.38465034  0.12727741  1
  O  O372  1  0.12844842  0.38325174  0.63138767  1
  O  O373  1  0.13496918  0.88055181  0.12992072  1
  O  O374  1  0.13292458  0.87928909  0.62811827  1
  O  O375  1  0.62545460  0.37361530  0.14411581  1
  O  O376  1  0.62637884  0.38361982  0.63734965  1
  O  O377  1  0.62006100  0.88693964  0.13835455  1
  O  O378  1  0.62899034  0.87908692  0.63355992  1
  O  O379  1  0.12890710  0.25865063  0.25611311  1
  O  O380  1  0.11642894  0.26126954  0.74383941  1
  O  O381  1  0.12035503  0.75492443  0.25472712  1
  O  O382  1  0.12246057  0.75286749  0.75358133  1
  O  O383  1  0.63556194  0.26433911  0.26444727  1
  O  O384  1  0.61414583  0.25576752  0.74715893  1
  O  O385  1  0.62554948  0.76442902  0.24789262  1
  O  O386  1  0.62030264  0.75959721  0.75524293  1
  O  O387  1  0.36511480  0.27342271  0.25734098  1
  O  O388  1  0.38691598  0.24058006  0.74402586  1
  O  O389  1  0.37758180  0.73769631  0.23930606  1
  O  O390  1  0.37801575  0.74324090  0.74355933  1
  O  O391  1  0.86314564  0.25131457  0.23385465  1
  O  O392  1  0.88664894  0.25117504  0.73886599  1
  O  O393  1  0.88342614  0.76081927  0.23824593  1
  O  O394  1  0.88092228  0.74665280  0.74589712  1
  O  O395  1  0.37224042  0.48820098  0.50787886  1
  O  O396  1  0.38470818  0.50755582  0.98678854  1
  O  O397  1  0.35699475  0.99325697  0.47355849  1
  O  O398  1  0.38391855  1.00065046  0.99806151  1
  O  O399  1  0.89023739  0.49723426  0.49969923  1
  O  O400  1  0.87782084  0.49852454  0.99407628  1
  O  O401  1  0.88201772  0.99389074  0.49296618  1
  O  O402  1  0.86682165  0.98960262  0.99619031  1
  O  O403  1  0.12893375  -0.00065354  0.00950088  1
  O  O404  1  0.12131310  0.00368167  0.50448300  1
  O  O405  1  0.11383476  0.50741189  0.00359625  1
  O  O406  1  0.11415866  0.49439988  0.50832597  1
  O  O407  1  0.61637577  0.00316276  0.01120870  1
  O  O408  1  0.63245122  -0.00836558  0.51140186  1
  O  O409  1  0.61925072  0.50707949  0.00128532  1
  O  O410  1  0.63606077  0.49876898  0.51900897  1
  O  O411  1  0.35058163  0.40403112  0.11831686  1
  O  O412  1  0.36962215  0.37110328  0.62078315  1
  O  O413  1  0.36711305  0.85805759  0.12706833  1
  O  O414  1  0.36725166  0.86136748  0.63016245  1
  O  O415  1  0.87074274  0.36372767  0.12092708  1
  O  O416  1  0.87508944  0.36317605  0.62510126  1
  O  O417  1  0.87753731  0.87043100  0.11407342  1
  O  O418  1  0.87052813  0.86890239  0.62185802  1
  O  O419  1  0.13055778  0.13049523  0.37763859  1
  O  O420  1  0.13298645  0.12424810  0.86663594  1
  O  O421  1  0.12695011  0.63609811  0.36630503  1
  O  O422  1  0.13090220  0.62920066  0.87840014  1
  O  O423  1  0.63435710  0.13788339  0.37318282  1
  O  O424  1  0.63897616  0.11967638  0.87801740  1
  O  O425  1  0.64038325  0.63142886  0.37265369  1
  O  O426  1  0.62966953  0.63331175  0.88022663  1
