# generated using pymatgen
data_V85Zn86O256
_symmetry_space_group_name_H-M   'P 1'
_cell_length_a   16.91596806
_cell_length_b   16.90891753
_cell_length_c   16.91519782
_cell_angle_alpha   89.99841787
_cell_angle_beta   89.96844055
_cell_angle_gamma   90.00381575
_symmetry_Int_Tables_number   1
_chemical_formula_structural   V85Zn86O256
_chemical_formula_sum   'V85 Zn86 O256'
_cell_volume   4838.26527560
_cell_formula_units_Z   1
loop_
 _symmetry_equiv_pos_site_id
 _symmetry_equiv_pos_as_xyz
  1  'x, y, z'
loop_
 _atom_site_type_symbol
 _atom_site_label
 _atom_site_symmetry_multiplicity
 _atom_site_fract_x
 _atom_site_fract_y
 _atom_site_fract_z
 _atom_site_occupancy
  V  V0  1  0.11581918  0.24900423  0.87029496  1
  V  V1  1  0.37898827  0.73543777  0.62952668  1
  V  V2  1  -0.00158272  0.87365432  0.87790805  1
  V  V3  1  0.48793426  0.88255225  0.86539479  1
  V  V4  1  0.25373079  0.75402403  -0.00231194  1
  V  V5  1  0.62811448  0.25110844  0.87736397  1
  V  V6  1  0.49931084  0.50716945  -0.00171847  1
  V  V7  1  0.12520154  0.37188833  0.74447997  1
  V  V8  1  0.62653886  0.76071700  0.87940522  1
  V  V9  1  0.61161012  0.62584317  0.50547124  1
  V  V10  1  0.12391403  0.23330590  0.37228791  1
  V  V11  1  0.50160152  0.48620718  0.49841898  1
  V  V12  1  0.25552583  0.87526511  0.62586334  1
  V  V13  1  0.36859940  0.25416844  0.62396174  1
  V  V14  1  0.50027077  0.37640862  0.87365452  1
  V  V15  1  0.62213826  0.37635906  0.25520840  1
  V  V16  1  0.87515986  0.74379894  0.62951402  1
  V  V17  1  0.24694644  0.00171624  0.25352638  1
  V  V18  1  0.74303077  0.62802265  0.88662778  1
  V  V19  1  0.24593484  0.74980433  0.49655734  1
  V  V20  1  0.74936230  0.62176906  0.37855099  1
  V  V21  1  0.62518723  -0.00256293  0.62855649  1
  V  V22  1  0.38398179  0.87191115  0.49275887  1
  V  V23  1  0.37414128  0.37764119  -0.00303123  1
  V  V24  1  0.74705793  0.12402459  0.37878098  1
  V  V25  1  0.49696756  0.76491970  0.25340591  1
  V  V26  1  0.37097295  0.12511707  0.25899105  1
  V  V27  1  0.87329393  -0.00018255  0.87673712  1
  V  V28  1  0.74616793  0.00365579  0.24542941  1
  V  V29  1  0.62678973  0.37753918  0.75022223  1
  V  V30  1  0.88692418  0.25194684  0.62993909  1
  V  V31  1  0.49892207  0.25326427  0.25425044  1
  V  V32  1  0.87631792  0.37490209  0.49996607  1
  V  V33  1  0.12871103  0.86126795  0.25281658  1
  V  V34  1  0.68033589  0.82789140  0.19184096  1
  V  V35  1  0.75272845  0.13173763  0.87684011  1
  V  V36  1  -0.00787690  0.62349694  0.11624615  1
  V  V37  1  0.00182656  0.38130004  0.87635283  1
  V  V38  1  0.50720668  0.00005470  0.49182783  1
  V  V39  1  0.75472138  0.51031812  0.75091630  1
  V  V40  1  0.37528772  0.75755256  0.12068341  1
  V  V41  1  0.24544147  0.62700365  0.37213394  1
  V  V42  1  0.86419835  0.87161819  0.01526017  1
  V  V43  1  0.00059995  0.50045680  0.49937359  1
  V  V44  1  0.12388760  0.74765179  0.87785366  1
  V  V45  1  0.25711747  0.62479183  0.86932102  1
  V  V46  1  0.48710824  -0.00199570  -0.00351212  1
  V  V47  1  0.87279683  0.37398982  -0.00328839  1
  V  V48  1  0.88581085  0.12799610  0.75363014  1
  V  V49  1  -0.01187743  0.74764733  0.25285135  1
  V  V50  1  0.49870508  0.62635584  0.12601300  1
  V  V51  1  0.74845041  0.24565796  0.50415000  1
  V  V52  1  0.50430705  0.73741478  0.74812289  1
  V  V53  1  -0.00356194  0.74815176  0.75005571  1
  V  V54  1  0.51006992  0.12639674  0.61975152  1
  V  V55  1  0.74761464  0.87422483  0.63664340  1
  V  V56  1  0.74731087  0.36634970  0.11978808  1
  V  V57  1  0.50046527  0.12559118  0.12384339  1
  V  V58  1  0.25141503  0.50006991  0.24703220  1
  V  V59  1  0.36053779  0.37389826  0.49241947  1
  V  V60  1  0.12438150  0.37232037  0.24997750  1
  V  V61  1  0.88094146  0.51179517  0.87666230  1
  V  V62  1  0.62183132  0.25075266  0.38157805  1
  V  V63  1  0.75132371  0.37691337  0.62806530  1
  V  V64  1  0.37648859  0.12123967  0.75035555  1
  V  V65  1  0.25396390  0.12135893  0.87510700  1
  V  V66  1  0.25594870  0.50019885  0.74485685  1
  V  V67  1  0.25027635  0.24983257  -0.00201820  1
  V  V68  1  0.62137192  0.76439489  0.38006007  1
  V  V69  1  0.12346520  0.12397133  0.00153837  1
  V  V70  1  0.13048238  0.49819935  0.62209197  1
  V  V71  1  0.62878549  0.12651121  0.00018970  1
  V  V72  1  0.49960061  0.25147185  0.74823738  1
  V  V73  1  0.74689371  0.74799794  0.50455739  1
  V  V74  1  0.00000893  0.62529088  0.62919263  1
  V  V75  1  0.88339980  0.25156785  0.12916008  1
  V  V76  1  0.00086244  0.37222924  0.36979829  1
  V  V77  1  0.24341752  0.22841079  0.49804887  1
  V  V78  1  0.87822622  0.87749010  0.50341618  1
  V  V79  1  0.88225981  0.00012982  0.37890375  1
  V  V80  1  0.62497176  0.49899615  0.11930789  1
  V  V81  1  0.25012226  -0.00029356  0.75105236  1
  V  V82  1  0.00131656  0.11395159  0.61142048  1
  V  V83  1  -0.00147425  -0.00194338  0.00492413  1
  V  V84  1  0.37380149  0.25050072  0.12490034  1
  Zn  Zn85  1  0.74504635  0.75206654  0.01496711  1
  Zn  Zn86  1  0.87498125  0.50120383  0.37403067  1
  Zn  Zn87  1  0.87022293  0.62341553  0.24443766  1
  Zn  Zn88  1  0.61774881  0.50757114  0.63090152  1
  Zn  Zn89  1  0.12424683  0.87819927  0.75155432  1
  Zn  Zn90  1  0.13461100  0.01339789  0.60740227  1
  Zn  Zn91  1  0.00692192  0.87157740  0.37967603  1
  Zn  Zn92  1  0.74621213  0.00010371  0.75368748  1
  Zn  Zn93  1  0.37894936  0.50592761  0.86520913  1
  Zn  Zn94  1  0.12570310  -0.00414963  0.12634764  1
  Zn  Zn95  1  0.38064526  0.49680360  0.36993724  1
  Zn  Zn96  1  0.00450511  0.13014595  0.13225085  1
  Zn  Zn97  1  0.25036104  0.87615287  0.11964117  1
  Zn  Zn98  1  0.11774813  0.49916839  0.12107819  1
  Zn  Zn99  1  0.75152355  0.49714497  0.25125075  1
  Zn  Zn100  1  0.87990889  0.13092375  0.25488064  1
  Zn  Zn101  1  0.37915158  -0.00282081  0.37346634  1
  Zn  Zn102  1  0.12058642  0.63333456  0.49506414  1
  Zn  Zn103  1  0.12222450  0.61200577  -0.00208875  1
  Zn  Zn104  1  0.62698966  -0.00063448  0.12485210  1
  Zn  Zn105  1  0.37725830  0.62505694  0.25216212  1
  Zn  Zn106  1  0.24623732  0.37777789  0.12132100  1
  Zn  Zn107  1  0.18858844  0.18766347  0.18778407  1
  Zn  Zn108  1  0.18491977  0.18800286  0.68506508  1
  Zn  Zn109  1  0.18404516  0.68396170  0.18249260  1
  Zn  Zn110  1  0.18553983  0.68760410  0.68657372  1
  Zn  Zn111  1  0.68982258  0.18762054  0.18889303  1
  Zn  Zn112  1  0.69197561  0.18693293  0.69179624  1
  Zn  Zn113  1  0.67788285  0.66669032  0.19257990  1
  Zn  Zn114  1  0.68413539  0.68691241  0.69259769  1
  Zn  Zn115  1  0.30634845  0.31004609  0.31575168  1
  Zn  Zn116  1  0.30754721  0.31303022  0.81147495  1
  Zn  Zn117  1  0.31222049  0.81199911  0.31194376  1
  Zn  Zn118  1  0.31645473  0.80928215  0.81032614  1
  Zn  Zn119  1  0.81002573  0.31505013  0.31127130  1
  Zn  Zn120  1  0.81492271  0.31407787  0.81174117  1
  Zn  Zn121  1  0.81421436  0.81010185  0.32028467  1
  Zn  Zn122  1  0.81503474  0.81220640  0.81626988  1
  Zn  Zn123  1  0.18593649  0.43947707  0.43234773  1
  Zn  Zn124  1  0.18841049  0.44070200  0.93459041  1
  Zn  Zn125  1  0.19268645  0.94099285  0.43260348  1
  Zn  Zn126  1  0.18766492  0.93674445  0.93606531  1
  Zn  Zn127  1  0.68595376  0.43558912  0.44001597  1
  Zn  Zn128  1  0.69014277  0.43906123  0.93837808  1
  Zn  Zn129  1  0.69327357  0.94130032  0.44677533  1
  Zn  Zn130  1  0.68419177  0.94066669  0.93842061  1
  Zn  Zn131  1  0.31119297  0.06291817  0.06891431  1
  Zn  Zn132  1  0.32315460  0.05916512  0.56423333  1
  Zn  Zn133  1  0.31006703  0.56666722  0.06066502  1
  Zn  Zn134  1  0.31220907  0.56144019  0.55806990  1
  Zn  Zn135  1  0.81145262  0.06506119  0.06231429  1
  Zn  Zn136  1  0.81365050  0.06296864  0.56482991  1
  Zn  Zn137  1  0.81457836  0.55913143  0.06174444  1
  Zn  Zn138  1  0.81143376  0.56321908  0.56174812  1
  Zn  Zn139  1  0.43606236  0.43594927  0.18589377  1
  Zn  Zn140  1  0.43749720  0.43690827  0.67863881  1
  Zn  Zn141  1  0.43710321  0.94019998  0.18393041  1
  Zn  Zn142  1  0.43832847  0.93620382  0.68513154  1
  Zn  Zn143  1  0.93505107  0.44069545  0.18946999  1
  Zn  Zn144  1  0.94044219  0.43877563  0.69285993  1
  Zn  Zn145  1  0.93817327  0.94022971  0.19344621  1
  Zn  Zn146  1  0.93581751  0.93648317  0.69080221  1
  Zn  Zn147  1  0.05904626  0.05808270  0.30734275  1
  Zn  Zn148  1  0.06410360  0.05995372  0.81208945  1
  Zn  Zn149  1  0.06313443  0.56291785  0.30974459  1
  Zn  Zn150  1  0.06697796  0.56301123  0.81062036  1
  Zn  Zn151  1  0.56615289  0.06611795  0.31184574  1
  Zn  Zn152  1  0.56310764  0.06193324  0.81185520  1
  Zn  Zn153  1  0.56171161  0.56551286  0.31579534  1
  Zn  Zn154  1  0.56832221  0.56558919  0.81686657  1
  Zn  Zn155  1  0.43862506  0.18840240  0.43924824  1
  Zn  Zn156  1  0.43913096  0.18683606  0.93579061  1
  Zn  Zn157  1  0.43458116  0.68523651  0.43415467  1
  Zn  Zn158  1  0.43776858  0.68985336  0.93486484  1
  Zn  Zn159  1  0.93732466  0.18896338  0.43660318  1
  Zn  Zn160  1  0.93726553  0.19152984  0.94407462  1
  Zn  Zn161  1  0.93717089  0.69084165  0.43909605  1
  Zn  Zn162  1  0.93106951  0.69192185  0.94198085  1
  Zn  Zn163  1  0.06219726  0.31864441  0.05719248  1
  Zn  Zn164  1  0.06534682  0.31074281  0.55924614  1
  Zn  Zn165  1  0.06040451  0.80811232  0.06772351  1
  Zn  Zn166  1  0.08396285  0.85181604  0.54380394  1
  Zn  Zn167  1  0.56090896  0.31208246  0.06177837  1
  Zn  Zn168  1  0.56242813  0.31597196  0.56424087  1
  Zn  Zn169  1  0.55288078  0.81323301  0.05317523  1
  Zn  Zn170  1  0.56227254  0.81460995  0.56803368  1
  O  O171  1  0.12553987  0.12540220  0.11119275  1
  O  O172  1  0.10680442  0.12600455  0.62715144  1
  O  O173  1  0.11058978  0.62314882  0.12087773  1
  O  O174  1  0.11681294  0.61754946  0.62031533  1
  O  O175  1  0.61904283  0.12789918  0.11655400  1
  O  O176  1  0.61477292  0.12453515  0.62892317  1
  O  O177  1  0.61067369  0.61294632  0.12091270  1
  O  O178  1  0.63045128  0.62408408  0.61219017  1
  O  O179  1  0.37347734  0.37237188  0.38874857  1
  O  O180  1  0.38110755  0.37498665  0.88283872  1
  O  O181  1  0.37781714  0.87132504  0.38899909  1
  O  O182  1  0.38974346  0.87150492  0.87522297  1
  O  O183  1  0.88373660  0.37196154  0.38137485  1
  O  O184  1  0.88227637  0.38068561  0.87915545  1
  O  O185  1  0.87072389  0.88315079  0.38701952  1
  O  O186  1  0.88016489  0.88277432  0.88311337  1
  O  O187  1  0.25924930  -0.00538788  0.35950693  1
  O  O188  1  0.24679712  0.01302856  0.86858375  1
  O  O189  1  0.25326543  0.50445989  0.36296705  1
  O  O190  1  0.25345000  0.50773605  0.86331443  1
  O  O191  1  0.75366641  0.00940384  0.37270635  1
  O  O192  1  0.75471362  0.01168311  0.87497644  1
  O  O193  1  0.74875771  0.50795712  0.37732681  1
  O  O194  1  0.75391826  0.51074872  0.87149662  1
  O  O195  1  0.25084104  0.49909037  0.13638657  1
  O  O196  1  0.23839646  0.50432974  0.62757727  1
  O  O197  1  0.24943909  0.99506890  0.13592235  1
  O  O198  1  0.25246453  0.99319765  0.63114688  1
  O  O199  1  0.73944778  0.49136826  0.12464973  1
  O  O200  1  0.75179998  0.49466254  0.63497914  1
  O  O201  1  0.74824362  1.00674362  0.13763216  1
  O  O202  1  0.74363379  0.99288234  0.62632348  1
  O  O203  1  0.00586485  0.37798777  0.26267344  1
  O  O204  1  0.01225270  0.37808753  0.76222520  1
  O  O205  1  0.00777047  0.86260412  0.24936838  1
  O  O206  1  0.00127664  0.86667467  0.75817770  1
  O  O207  1  0.50598038  0.36164234  0.24446391  1
  O  O208  1  0.50532617  0.37155692  0.75245355  1
  O  O209  1  0.49831687  0.86508771  0.24737264  1
  O  O210  1  0.49688329  0.87012355  0.76132478  1
  O  O211  1  0.49619582  0.13568062  0.24463169  1
  O  O212  1  0.49244355  0.13155381  0.74520923  1
  O  O213  1  0.50214317  0.63459098  0.24065972  1
  O  O214  1  0.49970223  0.63844921  0.75665730  1
  O  O215  1  0.99173522  0.11987361  0.24376335  1
  O  O216  1  0.98916180  0.12329189  0.74925276  1
  O  O217  1  0.99697090  0.63566235  0.24697648  1
  O  O218  1  1.00362638  0.63026040  0.73750274  1
  O  O219  1  0.37158765  0.25667599  0.00221231  1
  O  O220  1  0.36247273  0.25490975  0.50146181  1
  O  O221  1  0.36762110  0.74580844  0.00711292  1
  O  O222  1  0.37633663  0.75461735  0.51194974  1
  O  O223  1  0.87499617  0.26498760  0.00846495  1
  O  O224  1  0.86802148  0.25600884  0.50869946  1
  O  O225  1  0.86580687  0.76674438  0.00020584  1
  O  O226  1  0.86473797  0.75283371  0.51088997  1
  O  O227  1  0.13750935  0.24925305  0.49197234  1
  O  O228  1  0.12976646  0.24413791  0.99187899  1
  O  O229  1  0.14293414  0.75446265  0.50648307  1
  O  O230  1  0.12842426  0.74834049  0.98770352  1
  O  O231  1  0.63301234  0.25884518  0.49094152  1
  O  O232  1  0.61572682  0.23769549  0.99100532  1
  O  O233  1  0.62496608  0.74296292  0.49752831  1
  O  O234  1  0.62643663  0.75502137  0.98509645  1
  O  O235  1  0.49406462  0.24514637  0.13217793  1
  O  O236  1  0.49397445  0.24418602  0.62837312  1
  O  O237  1  0.49582867  0.74431278  0.12842976  1
  O  O238  1  0.49340719  0.75224525  0.63898612  1
  O  O239  1  0.98649621  0.25375891  0.11975310  1
  O  O240  1  0.99045917  0.24153003  0.61984403  1
  O  O241  1  1.00165427  0.73725902  0.13933900  1
  O  O242  1  0.99326822  0.74311343  0.63383062  1
  O  O243  1  0.01529015  0.25742904  0.38413906  1
  O  O244  1  0.01114072  0.25588592  0.87796397  1
  O  O245  1  -0.00187009  0.74996239  0.35979862  1
  O  O246  1  0.00426320  0.75132801  0.87028371  1
  O  O247  1  0.51167938  0.24505300  0.36909371  1
  O  O248  1  0.50589674  0.25656036  0.86687226  1
  O  O249  1  0.50947842  0.74340988  0.36468798  1
  O  O250  1  0.50629925  0.75919150  0.86780330  1
  O  O251  1  0.25314777  0.12975617  0.50099817  1
  O  O252  1  0.24472923  0.12731227  0.99262770  1
  O  O253  1  0.24882094  0.63288384  0.49265264  1
  O  O254  1  0.24691813  0.63578314  0.98980107  1
  O  O255  1  0.75349454  0.13853123  0.49720583  1
  O  O256  1  0.74066276  0.12362811  0.99062911  1
  O  O257  1  0.73993042  0.62984443  0.49675112  1
  O  O258  1  0.75342614  0.63141179  0.99096957  1
  O  O259  1  0.25936140  0.36848921  -0.00329882  1
  O  O260  1  0.25893074  0.37142401  0.49805497  1
  O  O261  1  0.24586901  0.85995749  -0.00171669  1
  O  O262  1  0.26430303  0.86707585  0.50754887  1
  O  O263  1  0.75735447  0.37662810  0.00747107  1
  O  O264  1  0.75583800  0.36691674  0.50718102  1
  O  O265  1  0.75993808  0.87773562  0.00062573  1
  O  O266  1  0.75807875  0.86664175  0.51405982  1
  O  O267  1  0.13273720  0.48960309  0.24756659  1
  O  O268  1  0.13247394  0.49323362  0.74066672  1
  O  O269  1  0.13215703  0.98982063  0.24714319  1
  O  O270  1  0.13936971  1.00026529  0.74550329  1
  O  O271  1  0.62046993  0.49134445  0.23980573  1
  O  O272  1  0.63306140  0.49544327  0.75036349  1
  O  O273  1  0.63788462  1.00315908  0.24881398  1
  O  O274  1  0.62727525  1.00676979  0.73535275  1
  O  O275  1  0.37167257  0.00849282  0.25062450  1
  O  O276  1  0.36722531  0.01349462  0.74276804  1
  O  O277  1  0.36825691  0.50035388  0.25094034  1
  O  O278  1  0.36061066  0.49050155  0.74476697  1
  O  O279  1  0.86237418  -0.00222611  0.26158555  1
  O  O280  1  0.87370326  0.00834552  0.76089519  1
  O  O281  1  0.86911828  0.50370510  0.25677738  1
  O  O282  1  0.86529307  0.49443562  0.76282927  1
  O  O283  1  0.11950146  0.36817330  0.36648231  1
  O  O284  1  0.11912045  0.36782277  0.86945100  1
  O  O285  1  0.12421509  0.87600507  0.35688769  1
  O  O286  1  0.11739423  0.86695919  0.87224533  1
  O  O287  1  0.62965584  0.36707428  0.36280179  1
  O  O288  1  0.62097133  0.37141926  0.86997628  1
  O  O289  1  0.63056224  0.86353162  0.38674919  1
  O  O290  1  0.61683826  0.86591916  0.87449250  1
  O  O291  1  0.38163927  0.13267516  0.13396434  1
  O  O292  1  0.38392176  0.13550246  0.63166905  1
  O  O293  1  0.38620601  0.63211250  0.12572858  1
  O  O294  1  0.37553731  0.63703260  0.62073615  1
  O  O295  1  0.87317720  0.14511974  0.11908322  1
  O  O296  1  0.88391726  0.13069820  0.63334643  1
  O  O297  1  0.88468805  0.62490742  0.12516737  1
  O  O298  1  0.88039236  0.63666309  0.62277300  1
  O  O299  1  0.25636965  0.25276391  0.11597870  1
  O  O300  1  0.25535211  0.24424281  0.61023792  1
  O  O301  1  0.25843090  0.74700676  0.11502620  1
  O  O302  1  0.26497363  0.75222409  0.62272837  1
  O  O303  1  0.75581548  0.26189219  0.12612644  1
  O  O304  1  0.75737872  0.25517352  0.61993448  1
  O  O305  1  0.73071712  0.75713776  0.13591406  1
  O  O306  1  0.75611646  0.75468625  0.62748126  1
  O  O307  1  0.23792632  0.24771686  0.38790203  1
  O  O308  1  0.24085544  0.23935322  0.87853818  1
  O  O309  1  0.25738512  0.74162252  0.38551989  1
  O  O310  1  0.24355147  0.74470005  0.87586194  1
  O  O311  1  0.74507993  0.24540617  0.38349159  1
  O  O312  1  0.74531748  0.23993669  0.87080593  1
  O  O313  1  0.74036030  0.74352217  0.38326766  1
  O  O314  1  0.73817419  0.74666299  0.87184486  1
  O  O315  1  0.00768669  0.11737428  0.00186911  1
  O  O316  1  -0.00788806  0.12083468  0.51291850  1
  O  O317  1  -0.00076905  0.63248947  0.01266735  1
  O  O318  1  0.00065005  0.62089196  0.50993539  1
  O  O319  1  0.50541424  0.11636969  0.00048755  1
  O  O320  1  0.49355865  0.11659332  0.51098590  1
  O  O321  1  0.49508434  0.61306020  0.00346505  1
  O  O322  1  0.50835129  0.61720126  0.49631103  1
  O  O323  1  0.49151693  0.38177916  0.49871934  1
  O  O324  1  0.49348523  0.38434754  0.99506155  1
  O  O325  1  0.49486321  0.88607735  0.50835413  1
  O  O326  1  0.50129125  0.89112792  0.98726692  1
  O  O327  1  0.99663800  0.37978445  0.49147351  1
  O  O328  1  0.99271010  0.37473922  0.98456769  1
  O  O329  1  0.98081928  0.85745048  0.49661247  1
  O  O330  1  0.99187122  0.87974677  0.99745461  1
  O  O331  1  0.49796465  0.50380664  0.39116506  1
  O  O332  1  0.49896674  0.49609479  0.88084896  1
  O  O333  1  0.50306827  1.00685213  0.38802915  1
  O  O334  1  0.50134192  0.99089103  0.87933269  1
  O  O335  1  1.00057486  0.49238386  0.38301731  1
  O  O336  1  0.99127570  0.49566074  0.86858180  1
  O  O337  1  0.98516455  0.99321831  0.37202376  1
  O  O338  1  0.99557265  0.99565399  0.88626645  1
  O  O339  1  0.00059480  0.00132884  0.11338357  1
  O  O340  1  -0.00114138  0.01187387  0.62960020  1
  O  O341  1  -0.00074050  0.51805393  0.13299264  1
  O  O342  1  0.00566133  0.50728445  0.62127727  1
  O  O343  1  0.50175278  0.00617496  0.11226803  1
  O  O344  1  0.50602432  0.00798929  0.61988070  1
  O  O345  1  0.50291861  0.50548122  0.11790315  1
  O  O346  1  0.50031671  0.49935449  0.60636140  1
  O  O347  1  0.24267379  0.38119690  0.24892861  1
  O  O348  1  0.23511891  0.38372044  0.75469894  1
  O  O349  1  0.24095197  0.87638610  0.24623687  1
  O  O350  1  0.25738966  0.88550569  0.74646302  1
  O  O351  1  0.73820550  0.37642535  0.24154338  1
  O  O352  1  0.74500040  0.38457530  0.74824152  1
  O  O353  1  0.74754220  0.88035850  0.25052347  1
  O  O354  1  0.75700929  0.87837540  0.74049774  1
  O  O355  1  0.25935926  0.11601056  0.24465199  1
  O  O356  1  0.25595444  0.12069879  0.75430338  1
  O  O357  1  0.25059047  0.61824515  0.25417824  1
  O  O358  1  0.24314465  0.61420019  0.75621279  1
  O  O359  1  0.75618314  0.12074091  0.26001601  1
  O  O360  1  0.76334183  0.12338837  0.75851175  1
  O  O361  1  0.74966948  0.61957393  0.26273515  1
  O  O362  1  0.74670802  0.61503207  0.76072927  1
  O  O363  1  0.37952544  0.12578907  0.36184997  1
  O  O364  1  0.36587987  0.13398118  0.86240095  1
  O  O365  1  0.36262218  0.61931620  0.37261422  1
  O  O366  1  0.36226026  0.62579940  0.87378105  1
  O  O367  1  0.86491316  0.11940585  0.37819189  1
  O  O368  1  0.87066401  0.12353424  0.87332500  1
  O  O369  1  0.85888464  0.62663032  0.38018618  1
  O  O370  1  0.86793843  0.61666969  0.87896363  1
  O  O371  1  0.12390557  0.37087600  0.13887846  1
  O  O372  1  0.11685309  0.38379456  0.63303355  1
  O  O373  1  0.12693006  0.87457994  0.13660220  1
  O  O374  1  0.14951987  0.86196471  0.63842807  1
  O  O375  1  0.62927954  0.37721921  0.13173852  1
  O  O376  1  0.63216833  0.37816054  0.63435406  1
  O  O377  1  0.62078512  0.87822153  0.12494147  1
  O  O378  1  0.63556969  0.88323352  0.62457994  1
  O  O379  1  0.13297277  0.25478127  0.26510469  1
  O  O380  1  0.13079627  0.25804714  0.75851445  1
  O  O381  1  0.11953704  0.75837216  0.24821045  1
  O  O382  1  0.11429500  0.74844406  0.76116437  1
  O  O383  1  0.61836154  0.25581049  0.25756534  1
  O  O384  1  0.62072632  0.25639416  0.75645579  1
  O  O385  1  0.62258254  0.75918254  0.25449889  1
  O  O386  1  0.61112510  0.75069871  0.75834413  1
  O  O387  1  0.38011484  0.24673794  0.24772875  1
  O  O388  1  0.37618668  0.24599253  0.74056137  1
  O  O389  1  0.38214325  0.74733176  0.24248274  1
  O  O390  1  0.38614092  0.75057984  0.73770485  1
  O  O391  1  0.87071853  0.25387682  0.23334016  1
  O  O392  1  0.87223715  0.24306875  0.74027922  1
  O  O393  1  0.88425903  0.74911765  0.25051796  1
  O  O394  1  0.88747759  0.75176621  0.74632111  1
  O  O395  1  0.38020502  0.48556257  0.49997779  1
  O  O396  1  0.38062032  0.49292219  0.99651452  1
  O  O397  1  0.38621312  0.99009515  0.49785790  1
  O  O398  1  0.38818257  1.00997398  0.99931894  1
  O  O399  1  0.88312529  0.49253896  0.50005399  1
  O  O400  1  0.87079402  0.48784391  0.98802099  1
  O  O401  1  0.86690498  0.98920388  0.49372333  1
  O  O402  1  0.88051549  0.99435885  0.99611077  1
  O  O403  1  0.11763548  0.00686032  0.00036561  1
  O  O404  1  0.11826977  -0.04133664  0.51121972  1
  O  O405  1  0.12832037  0.49743613  0.00690879  1
  O  O406  1  0.11768779  0.49869811  0.50725368  1
  O  O407  1  0.61578925  0.01298188  0.00034908  1
  O  O408  1  0.61890139  0.00071406  0.51385803  1
  O  O409  1  0.61452748  0.49128492  0.01136920  1
  O  O410  1  0.61350666  0.50297437  0.50194513  1
  O  O411  1  0.37459632  0.36933909  0.11083883  1
  O  O412  1  0.37880508  0.35993782  0.61090859  1
  O  O413  1  0.37434555  0.86178599  0.12501009  1
  O  O414  1  0.37026812  0.86677541  0.61896938  1
  O  O415  1  0.86883486  0.37008746  0.11861975  1
  O  O416  1  0.87366827  0.36795755  0.62325309  1
  O  O417  1  0.87613948  0.88071262  0.11316547  1
  O  O418  1  0.87042475  0.86503085  0.62254522  1
  O  O419  1  0.11967264  0.13470162  0.37327797  1
  O  O420  1  0.12930846  0.13080393  0.88277169  1
  O  O421  1  0.13910916  0.61931362  0.37811136  1
  O  O422  1  0.13381006  0.63148922  0.87678726  1
  O  O423  1  0.63865106  0.13635174  0.37328745  1
  O  O424  1  0.63278706  0.13004845  0.87872276  1
  O  O425  1  0.63313939  0.63267784  0.38451021  1
  O  O426  1  0.63252800  0.64095744  0.87492092  1
