# generated using pymatgen
data_V85Zn86O256
_symmetry_space_group_name_H-M   'P 1'
_cell_length_a   16.93219072
_cell_length_b   16.93780771
_cell_length_c   16.94111389
_cell_angle_alpha   89.95060757
_cell_angle_beta   90.03316161
_cell_angle_gamma   89.99556840
_symmetry_Int_Tables_number   1
_chemical_formula_structural   V85Zn86O256
_chemical_formula_sum   'V85 Zn86 O256'
_cell_volume   4858.61041075
_cell_formula_units_Z   1
loop_
 _symmetry_equiv_pos_site_id
 _symmetry_equiv_pos_as_xyz
  1  'x, y, z'
loop_
 _atom_site_type_symbol
 _atom_site_label
 _atom_site_symmetry_multiplicity
 _atom_site_fract_x
 _atom_site_fract_y
 _atom_site_fract_z
 _atom_site_occupancy
  V  V0  1  0.37598522  0.50424043  0.86000114  1
  V  V1  1  0.37376885  0.74377407  0.12665906  1
  V  V2  1  0.49524507  0.88263393  0.87795454  1
  V  V3  1  -0.00159898  0.75007818  0.75150471  1
  V  V4  1  0.11989768  0.25258286  0.37599822  1
  V  V5  1  0.00275376  0.00423307  0.00062731  1
  V  V6  1  0.12569201  0.74958560  0.87609297  1
  V  V7  1  0.12411289  0.62461747  0.49862085  1
  V  V8  1  0.75178008  0.50190120  0.76619685  1
  V  V9  1  -0.00077480  0.13098999  0.63011294  1
  V  V10  1  0.37842768  0.25178933  0.63040069  1
  V  V11  1  0.37714362  0.12381949  0.75525459  1
  V  V12  1  0.87123619  0.37241125  0.01976450  1
  V  V13  1  0.75072072  0.75166547  0.49708006  1
  V  V14  1  0.50477459  0.62139291  0.12328178  1
  V  V15  1  -0.00236002  0.62456856  0.62732029  1
  V  V16  1  0.49653945  0.62375504  0.62874053  1
  V  V17  1  0.75544506  0.61391621  0.37843490  1
  V  V18  1  0.38495220  0.13801120  0.24950837  1
  V  V19  1  0.25036081  0.74326274  -0.00002306  1
  V  V20  1  0.74844344  0.87372134  0.11673566  1
  V  V21  1  0.87478435  0.75208599  0.62526231  1
  V  V22  1  0.63009230  0.49879285  0.62728213  1
  V  V23  1  0.63797849  0.74727418  0.88095456  1
  V  V24  1  0.37449606  0.38006430  0.50113202  1
  V  V25  1  0.36951972  0.37506105  0.00043443  1
  V  V26  1  0.87430310  0.37761199  0.50056343  1
  V  V27  1  0.87665907  0.13506282  0.75504991  1
  V  V28  1  -0.00662046  0.13125010  0.12329957  1
  V  V29  1  0.60836861  0.01309721  0.11447408  1
  V  V30  1  0.24877000  0.50254547  0.24847218  1
  V  V31  1  0.25496742  0.88387417  0.11239522  1
  V  V32  1  0.87205948  0.12788497  0.25318878  1
  V  V33  1  0.25338580  0.61978112  0.85825998  1
  V  V34  1  0.74858942  0.00088711  0.24854652  1
  V  V35  1  0.11764841  0.00083690  0.12857954  1
  V  V36  1  0.12265133  0.12497303  0.50144022  1
  V  V37  1  0.49829937  0.74349775  0.75496628  1
  V  V38  1  0.62476710  -0.00018930  0.62080064  1
  V  V39  1  -0.00100210  0.62270138  0.12414792  1
  V  V40  1  0.62269585  0.87534963  0.24579370  1
  V  V41  1  0.49952686  0.87476086  0.37405254  1
  V  V42  1  0.62374919  0.36207480  0.75346808  1
  V  V43  1  0.74116061  0.23979292  0.00371695  1
  V  V44  1  -0.00349694  0.38231331  0.37421900  1
  V  V45  1  0.25282023  0.13600858  0.87965139  1
  V  V46  1  0.12268199  0.75460743  0.37376993  1
  V  V47  1  0.12327639  0.00110568  0.62534507  1
  V  V48  1  0.00277706  0.87912718  0.87692308  1
  V  V49  1  0.24913516  0.12668205  0.37470660  1
  V  V50  1  0.24856998  0.25288746  0.50180934  1
  V  V51  1  0.50378434  0.35840831  0.87376480  1
  V  V52  1  0.25420681  0.00162463  0.75598239  1
  V  V53  1  0.25023361  0.00140437  0.25191569  1
  V  V54  1  0.63938773  0.62552598  -0.00021409  1
  V  V55  1  0.75648590  0.87761344  0.62186304  1
  V  V56  1  0.62796437  0.87234971  0.74991351  1
  V  V57  1  0.24980909  0.74839388  0.49834832  1
  V  V58  1  -0.01915706  0.37411565  0.86493552  1
  V  V59  1  0.12339984  0.61830515  -0.00260610  1
  V  V60  1  0.26265747  0.62194075  0.37085829  1
  V  V61  1  0.87100105  0.62254544  0.76482530  1
  V  V62  1  0.74945417  0.12265975  0.37506380  1
  V  V63  1  0.75014771  0.24992988  0.49959496  1
  V  V64  1  -0.00741988  0.25431711  0.24607810  1
  V  V65  1  0.50024029  0.12921707  0.62507584  1
  V  V66  1  0.42422737  0.19915267  0.06626954  1
  V  V67  1  -0.00022617  0.75159915  0.25122401  1
  V  V68  1  0.50056384  0.49659464  0.50087904  1
  V  V69  1  0.50579847  0.50374617  -0.00666944  1
  V  V70  1  0.87163204  0.00468062  0.87693809  1
  V  V71  1  0.37466368  0.87577580  0.49972438  1
  V  V72  1  0.43096759  0.44506744  0.32840321  1
  V  V73  1  0.49570534  0.74357036  0.24950587  1
  V  V74  1  0.12558196  0.87680291  0.75305359  1
  V  V75  1  -0.00486116  0.50360649  0.49737079  1
  V  V76  1  0.37585745  0.74719678  0.62946780  1
  V  V77  1  0.24912595  0.38494296  0.63098643  1
  V  V78  1  0.25058913  0.87544815  0.62711022  1
  V  V79  1  0.61156516  0.25419148  0.36892367  1
  V  V80  1  0.24829360  0.36090947  0.12223680  1
  V  V81  1  -0.00782336  -0.00447733  0.48869943  1
  V  V82  1  0.86788998  0.74918091  0.12085503  1
  V  V83  1  0.74996603  0.49541847  0.24008936  1
  V  V84  1  0.12742417  0.37414753  0.75673959  1
  Zn  Zn85  1  0.75177692  0.00299675  0.75073037  1
  Zn  Zn86  1  0.37613836  0.00210109  0.37297981  1
  Zn  Zn87  1  0.38701253  0.87776982  0.00023101  1
  Zn  Zn88  1  0.87776054  0.25270228  0.62824604  1
  Zn  Zn89  1  0.11887243  0.25108341  0.87894944  1
  Zn  Zn90  1  0.73533267  0.13255013  0.87341534  1
  Zn  Zn91  1  -0.01189221  0.49912042  -0.00639868  1
  Zn  Zn92  1  0.49851343  -0.00010057  0.49925102  1
  Zn  Zn93  1  0.62640689  0.62491388  0.50137757  1
  Zn  Zn94  1  0.73194923  0.37052160  0.12695774  1
  Zn  Zn95  1  0.62265497  0.12614847  0.49801936  1
  Zn  Zn96  1  0.87459487  0.87658669  0.00353610  1
  Zn  Zn97  1  0.75121647  0.37386911  0.62736341  1
  Zn  Zn98  1  0.12483088  0.49830016  0.12349510  1
  Zn  Zn99  1  0.12667519  0.50262333  0.63010651  1
  Zn  Zn100  1  0.87723287  0.62016850  0.25436699  1
  Zn  Zn101  1  0.12756240  0.87511818  0.25094208  1
  Zn  Zn102  1  0.13607704  0.13459433  0.00774752  1
  Zn  Zn103  1  0.12180245  0.37762834  0.24530312  1
  Zn  Zn104  1  0.62573098  0.74816335  0.37457463  1
  Zn  Zn105  1  0.87888352  0.87852343  0.46343340  1
  Zn  Zn106  1  0.61465295  0.37786474  0.25362800  1
  Zn  Zn107  1  0.18196161  0.18747844  0.19153569  1
  Zn  Zn108  1  0.18723543  0.19387671  0.69053483  1
  Zn  Zn109  1  0.18788290  0.68385679  0.18741263  1
  Zn  Zn110  1  0.18417436  0.68928687  0.68533141  1
  Zn  Zn111  1  0.68049175  0.19128350  0.18393677  1
  Zn  Zn112  1  0.69252278  0.18402710  0.68589857  1
  Zn  Zn113  1  0.68580294  0.68453867  0.18901523  1
  Zn  Zn114  1  0.68771874  0.68522673  0.68848806  1
  Zn  Zn115  1  0.30420437  0.31128388  0.30799144  1
  Zn  Zn116  1  0.31757724  0.31526030  0.81089417  1
  Zn  Zn117  1  0.31146501  0.81229198  0.30872373  1
  Zn  Zn118  1  0.31430793  0.80938171  0.81384200  1
  Zn  Zn119  1  0.81180425  0.31352607  0.31562876  1
  Zn  Zn120  1  0.80267147  0.30946812  0.81604355  1
  Zn  Zn121  1  0.80652392  0.80185753  0.30717516  1
  Zn  Zn122  1  0.81628173  0.81720389  0.81307257  1
  Zn  Zn123  1  0.18555725  0.44096928  0.43592029  1
  Zn  Zn124  1  0.18927605  0.43910676  0.93479270  1
  Zn  Zn125  1  0.18525394  0.93783062  0.43819676  1
  Zn  Zn126  1  0.20426537  0.94772687  0.94783462  1
  Zn  Zn127  1  0.68450687  0.43477581  0.43644943  1
  Zn  Zn128  1  0.68723828  0.43252938  0.94173830  1
  Zn  Zn129  1  0.68799452  0.93677764  0.43517075  1
  Zn  Zn130  1  0.68226784  0.94375980  0.93795308  1
  Zn  Zn131  1  0.31433083  0.05988293  0.06416629  1
  Zn  Zn132  1  0.31222967  0.06227749  0.56438832  1
  Zn  Zn133  1  0.31667084  0.55835706  0.05996904  1
  Zn  Zn134  1  0.31466932  0.56345850  0.56194068  1
  Zn  Zn135  1  0.81247580  0.06050391  0.06712030  1
  Zn  Zn136  1  0.81594187  0.06351998  0.56215580  1
  Zn  Zn137  1  0.81563928  0.55799820  0.06186400  1
  Zn  Zn138  1  0.81463724  0.56349680  0.56559220  1
  Zn  Zn139  1  0.45223833  0.42380478  0.16299367  1
  Zn  Zn140  1  0.44302483  0.43402456  0.68938424  1
  Zn  Zn141  1  0.43338686  0.93685351  0.18937389  1
  Zn  Zn142  1  0.44030999  0.93699960  0.68977748  1
  Zn  Zn143  1  0.93214919  0.44391914  0.19095362  1
  Zn  Zn144  1  0.93733357  0.43923964  0.68845724  1
  Zn  Zn145  1  0.91372180  0.91448888  0.24861372  1
  Zn  Zn146  1  0.93873237  0.94479684  0.68921322  1
  Zn  Zn147  1  0.06138275  0.06580959  0.31156320  1
  Zn  Zn148  1  0.06496779  0.06672661  0.81312269  1
  Zn  Zn149  1  0.06738075  0.56552013  0.31245605  1
  Zn  Zn150  1  0.06119484  0.55460973  0.81322476  1
  Zn  Zn151  1  0.56440992  0.06235652  0.31118865  1
  Zn  Zn152  1  0.56126790  0.06024247  0.80328552  1
  Zn  Zn153  1  0.57260285  0.56916059  0.31106811  1
  Zn  Zn154  1  0.56787829  0.56249359  0.81468867  1
  Zn  Zn155  1  0.43455305  0.18690704  0.44089853  1
  Zn  Zn156  1  0.56457871  0.17263661  0.94541721  1
  Zn  Zn157  1  0.44033400  0.68728845  0.44060106  1
  Zn  Zn158  1  0.43747680  0.68739233  0.93595611  1
  Zn  Zn159  1  0.93541804  0.18712384  0.43734772  1
  Zn  Zn160  1  0.93425549  0.19619647  0.94027702  1
  Zn  Zn161  1  0.93514704  0.69157143  0.43676948  1
  Zn  Zn162  1  0.93760715  0.69109246  0.94163687  1
  Zn  Zn163  1  0.06300326  0.31264822  0.05628696  1
  Zn  Zn164  1  0.06304387  0.31492191  0.56546357  1
  Zn  Zn165  1  0.06397880  0.81294855  0.06505884  1
  Zn  Zn166  1  0.06125479  0.81489722  0.56137108  1
  Zn  Zn167  1  0.56859727  0.31947700  0.06369316  1
  Zn  Zn168  1  0.56431754  0.31304805  0.56049085  1
  Zn  Zn169  1  0.56406701  0.81171393  0.06106676  1
  Zn  Zn170  1  0.56430117  0.81167356  0.56321575  1
  O  O171  1  0.11132424  0.11964828  0.12882664  1
  O  O172  1  0.11964722  0.12159809  0.62139020  1
  O  O173  1  0.11735048  0.62430623  0.11475270  1
  O  O174  1  0.11652193  0.62617671  0.61619614  1
  O  O175  1  0.61898396  0.11205943  0.12994821  1
  O  O176  1  0.61833641  0.11678953  0.62400772  1
  O  O177  1  0.61484884  0.63355292  0.11302725  1
  O  O178  1  0.61514016  0.61753342  0.62359469  1
  O  O179  1  0.37226965  0.37659517  0.38222618  1
  O  O180  1  0.38611101  0.38127056  0.87754806  1
  O  O181  1  0.38117418  0.87475396  0.38208783  1
  O  O182  1  0.39052154  0.86904490  0.87587558  1
  O  O183  1  0.88747091  0.37167020  0.38749113  1
  O  O184  1  0.88048239  0.37612667  0.87099897  1
  O  O185  1  0.87653712  0.87602150  0.35119968  1
  O  O186  1  0.88521286  0.88448120  0.87730883  1
  O  O187  1  0.24791096  0.00452164  0.36547375  1
  O  O188  1  0.24742771  0.00952813  0.85970955  1
  O  O189  1  0.24569501  0.50826625  0.36288709  1
  O  O190  1  0.26206519  0.50951973  0.87743884  1
  O  O191  1  0.73958628  0.01454414  0.36612567  1
  O  O192  1  0.76374313  -0.00198251  0.87641602  1
  O  O193  1  0.75272576  0.51241240  0.38302737  1
  O  O194  1  0.74554789  0.49974655  0.86401223  1
  O  O195  1  0.25281188  0.50157531  0.13849804  1
  O  O196  1  0.24925849  0.48828851  0.61987926  1
  O  O197  1  0.23414132  1.00714507  0.14061822  1
  O  O198  1  0.24237935  0.99466746  0.63142048  1
  O  O199  1  0.74744911  0.50106387  0.13877797  1
  O  O200  1  0.73804121  0.49891052  0.62517270  1
  O  O201  1  0.74002010  0.99317183  0.13248548  1
  O  O202  1  0.74482398  0.99272379  0.62430306  1
  O  O203  1  -0.00274811  0.37168137  0.25749417  1
  O  O204  1  0.00494107  0.37636671  0.75908618  1
  O  O205  1  0.00990156  0.85558965  0.23850980  1
  O  O206  1  0.00550676  0.87172220  0.75550208  1
  O  O207  1  0.49045500  0.38924973  0.26603440  1
  O  O208  1  0.50799009  0.37466329  0.76410687  1
  O  O209  1  0.50350041  0.86811030  0.25707100  1
  O  O210  1  0.51087848  0.86404118  0.75319345  1
  O  O211  1  0.48269656  0.12134418  0.25541252  1
  O  O212  1  0.49042907  0.11961401  0.73431000  1
  O  O213  1  0.50765017  0.63242628  0.23938582  1
  O  O214  1  0.50712878  0.63538198  0.74382344  1
  O  O215  1  0.99063563  0.13289075  0.24649308  1
  O  O216  1  0.99204459  0.12081280  0.74147994  1
  O  O217  1  1.00101798  0.63173182  0.24167173  1
  O  O218  1  0.99373944  0.62844842  0.74637732  1
  O  O219  1  0.37458840  0.26629004  0.00188134  1
  O  O220  1  0.37004358  0.26169682  0.50750959  1
  O  O221  1  0.36488379  0.75296299  0.00534969  1
  O  O222  1  0.37144501  0.75923659  0.50754521  1
  O  O223  1  0.86299827  0.26578026  -0.00076979  1
  O  O224  1  0.86773934  0.25800202  0.50070232  1
  O  O225  1  0.88171729  0.75814123  0.01587132  1
  O  O226  1  0.86681878  0.75888817  0.50487396  1
  O  O227  1  0.12810350  0.24495837  0.49583353  1
  O  O228  1  0.12419500  0.24451168  0.99382608  1
  O  O229  1  0.12855444  0.74498623  0.49415293  1
  O  O230  1  0.12313734  0.73360659  0.99347349  1
  O  O231  1  0.63417079  0.24874598  0.49235970  1
  O  O232  1  0.63389647  0.24875802  1.00073906  1
  O  O233  1  0.63962116  0.75043322  0.50087832  1
  O  O234  1  0.62396161  0.74393585  0.98727880  1
  O  O235  1  0.48932811  0.25303173  0.11897042  1
  O  O236  1  0.49119132  0.24218545  0.61776276  1
  O  O237  1  0.49425033  0.74370060  0.13036239  1
  O  O238  1  0.49821835  0.74228215  0.63169078  1
  O  O239  1  1.00277215  0.24394329  0.13550274  1
  O  O240  1  0.99812884  0.23496856  0.61692099  1
  O  O241  1  0.99645385  0.73919079  0.12923579  1
  O  O242  1  0.99509755  0.74574135  0.63107201  1
  O  O243  1  0.00338525  0.25768671  0.37050238  1
  O  O244  1  -0.00060818  0.26929486  0.87783118  1
  O  O245  1  0.01003291  0.74189790  0.36488332  1
  O  O246  1  0.00625427  0.75785455  0.87123085  1
  O  O247  1  0.51353535  0.24617785  0.38304307  1
  O  O248  1  0.50120695  0.26128415  0.88140388  1
  O  O249  1  0.50125477  0.75695402  0.36855991  1
  O  O250  1  0.50858626  0.75538974  0.86722869  1
  O  O251  1  0.24452672  0.13085660  0.49525651  1
  O  O252  1  0.25720148  0.12157253  0.98212272  1
  O  O253  1  0.24371232  0.63011458  0.49608765  1
  O  O254  1  0.24251510  0.63001581  0.99590105  1
  O  O255  1  0.75056130  0.13074124  0.49180178  1
  O  O256  1  0.75842941  0.13725306  1.00055125  1
  O  O257  1  0.75238678  0.63293305  0.49424370  1
  O  O258  1  0.73867764  0.62081561  1.00516517  1
  O  O259  1  0.25876187  0.38448056  0.00868569  1
  O  O260  1  0.25580598  0.37292077  0.50535010  1
  O  O261  1  0.22218579  0.84493284  0.00089544  1
  O  O262  1  0.25648001  0.86903542  0.50488951  1
  O  O263  1  0.75572618  0.36860869  0.00617288  1
  O  O264  1  0.75899085  0.36889953  0.49976146  1
  O  O265  1  0.75034963  0.87985742  0.01394397  1
  O  O266  1  0.75661828  0.87055373  0.50406877  1
  O  O267  1  0.13436858  0.49866449  0.24594050  1
  O  O268  1  0.12101880  0.48292452  0.74529194  1
  O  O269  1  0.12782171  0.99815567  0.24591950  1
  O  O270  1  0.13134875  0.99573449  0.74331359  1
  O  O271  1  0.64571936  0.49511508  0.26678509  1
  O  O272  1  0.63550988  0.49604845  0.74484791  1
  O  O273  1  0.63033244  0.99324580  0.24285022  1
  O  O274  1  0.62803273  0.98829575  0.73625192  1
  O  O275  1  0.36411465  0.01000805  0.25001638  1
  O  O276  1  0.36454618  0.00951953  0.73777948  1
  O  O277  1  0.37335777  0.49269272  0.26085580  1
  O  O278  1  0.37958711  0.49728054  0.76035870  1
  O  O279  1  0.85609265  0.01187049  0.24458324  1
  O  O280  1  0.87476797  0.00948756  0.76133125  1
  O  O281  1  0.85812408  0.50489271  0.25399259  1
  O  O282  1  0.85950209  0.50743587  0.74442501  1
  O  O283  1  0.11251869  0.36980622  0.37528402  1
  O  O284  1  0.12514000  0.37394923  0.86512032  1
  O  O285  1  0.13249819  0.85904574  0.37339377  1
  O  O286  1  0.12188455  0.87238565  0.86974928  1
  O  O287  1  0.62657728  0.35914534  0.37404214  1
  O  O288  1  0.61098771  0.37989090  0.86871683  1
  O  O289  1  0.61826449  0.87287160  0.36366583  1
  O  O290  1  0.61957675  0.86757936  0.86785545  1
  O  O291  1  0.36887922  0.13290256  0.13307216  1
  O  O292  1  0.38002333  0.13371842  0.62752818  1
  O  O293  1  0.38526311  0.63703405  0.11675721  1
  O  O294  1  0.38842285  0.62948061  0.62200045  1
  O  O295  1  0.88630374  0.12178888  0.13649903  1
  O  O296  1  0.88295722  0.12469258  0.63504770  1
  O  O297  1  0.88158814  0.63122419  0.12500336  1
  O  O298  1  0.88118159  0.63360928  0.63190999  1
  O  O299  1  0.24607915  0.26154177  0.13213738  1
  O  O300  1  0.25743127  0.26038701  0.61856524  1
  O  O301  1  0.25772434  0.75142283  0.11911675  1
  O  O302  1  0.25521257  0.75523393  0.61932330  1
  O  O303  1  0.74515731  0.25251126  0.11214207  1
  O  O304  1  0.75225251  0.25095711  0.61078357  1
  O  O305  1  0.75718251  0.75863124  0.13483159  1
  O  O306  1  0.75417313  0.75678922  0.61809347  1
  O  O307  1  0.23988540  0.24786693  0.38197083  1
  O  O308  1  0.25315998  0.23723632  0.86733321  1
  O  O309  1  0.24544566  0.74296998  0.37907482  1
  O  O310  1  0.24538069  0.73994350  0.88000128  1
  O  O311  1  0.74587970  0.24061110  0.38298519  1
  O  O312  1  0.74828632  0.24884933  0.89402761  1
  O  O313  1  0.74634346  0.74100940  0.38276804  1
  O  O314  1  0.73632951  0.75730072  0.87129680  1
  O  O315  1  -0.00452003  0.11815324  0.00809753  1
  O  O316  1  0.00309586  0.11532125  0.50540936  1
  O  O317  1  0.00508420  0.62000714  0.00503279  1
  O  O318  1  0.00215019  0.62061869  0.50395346  1
  O  O319  1  0.47408346  0.13608513  0.00681806  1
  O  O320  1  0.49928445  0.11960926  0.51115868  1
  O  O321  1  0.50697399  0.62089294  0.00384524  1
  O  O322  1  0.50183318  0.61463750  0.50849503  1
  O  O323  1  0.49242405  0.38814574  0.50440859  1
  O  O324  1  0.49596096  0.38486432  0.98821580  1
  O  O325  1  0.49257112  0.87257541  0.49235374  1
  O  O326  1  0.50273743  0.87232772  0.98342470  1
  O  O327  1  0.99563002  0.38387319  0.49528647  1
  O  O328  1  0.98195797  0.37531905  0.99592390  1
  O  O329  1  0.99683073  0.89042577  0.50420597  1
  O  O330  1  1.00342831  0.88998949  0.99725946  1
  O  O331  1  0.49617308  0.50814661  0.38195355  1
  O  O332  1  0.49262715  0.50163150  0.87897714  1
  O  O333  1  0.49919511  0.98655792  0.37640709  1
  O  O334  1  0.49971267  0.98009203  0.86194954  1
  O  O335  1  1.00476554  0.49375440  0.38278016  1
  O  O336  1  1.00378592  0.47943614  0.87904247  1
  O  O337  1  1.00554090  1.00302464  0.38979865  1
  O  O338  1  0.99528627  1.00006353  0.88321545  1
  O  O339  1  0.00892849  0.00845781  0.11859749  1
  O  O340  1  0.00668550  0.00965756  0.61809690  1
  O  O341  1  -0.00059942  0.51253853  0.12394763  1
  O  O342  1  0.00079845  0.50936754  0.61733664  1
  O  O343  1  0.50966434  -0.00687065  0.12765007  1
  O  O344  1  0.50895343  0.00371338  0.62211992  1
  O  O345  1  0.49606088  0.51383113  0.11125739  1
  O  O346  1  0.50806202  0.50555462  0.62114851  1
  O  O347  1  0.24653368  0.38363865  0.24124782  1
  O  O348  1  0.24098708  0.37302045  0.74300672  1
  O  O349  1  0.25152358  0.88572662  0.23936146  1
  O  O350  1  0.24733823  0.88183479  0.74731659  1
  O  O351  1  0.75357971  0.38699737  0.25097467  1
  O  O352  1  0.74386929  0.38649469  0.74848191  1
  O  O353  1  0.73790324  0.88277915  0.24452543  1
  O  O354  1  0.74078918  0.87587573  0.74239989  1
  O  O355  1  0.25383486  0.12086163  0.25784994  1
  O  O356  1  0.25642445  0.11894244  0.74953896  1
  O  O357  1  0.25011465  0.61744157  0.25867874  1
  O  O358  1  0.24596743  0.62799812  0.75905025  1
  O  O359  1  0.75343771  0.12204071  0.25385420  1
  O  O360  1  0.76001404  0.12106168  0.75419559  1
  O  O361  1  0.74798120  0.61575234  0.26283093  1
  O  O362  1  0.75600922  0.61192234  0.74691345  1
  O  O363  1  0.36754418  0.12365603  0.36804802  1
  O  O364  1  0.36396704  0.12423579  0.85680864  1
  O  O365  1  0.36169723  0.62801790  0.38312678  1
  O  O366  1  0.36549474  0.61762497  0.87743901  1
  O  O367  1  0.86665671  0.12794259  0.36236369  1
  O  O368  1  0.87761627  0.11951471  0.86967951  1
  O  O369  1  0.85939602  0.63218399  0.37391269  1
  O  O370  1  0.87886782  0.63067910  0.86407132  1
  O  O371  1  0.13337231  0.37986310  0.12389926  1
  O  O372  1  0.13325109  0.37584350  0.63328866  1
  O  O373  1  0.13263167  0.88645645  0.12544817  1
  O  O374  1  0.13159808  0.87923081  0.63208818  1
  O  O375  1  0.61729032  0.38218149  0.13971875  1
  O  O376  1  0.62378258  0.38345157  0.63434437  1
  O  O377  1  0.62860318  0.87628696  0.13423713  1
  O  O378  1  0.63523618  0.87817153  0.62976113  1
  O  O379  1  0.11063713  0.25299984  0.25910638  1
  O  O380  1  0.12400034  0.26724054  0.75219573  1
  O  O381  1  0.12036573  0.74814027  0.25766895  1
  O  O382  1  0.11826923  0.75608268  0.75641925  1
  O  O383  1  0.62513564  0.25172268  0.26541812  1
  O  O384  1  0.63449429  0.26328634  0.74545277  1
  O  O385  1  0.61302644  0.75802184  0.25005554  1
  O  O386  1  0.62107494  0.75473292  0.75752890  1
  O  O387  1  0.37337049  0.23706661  0.25589876  1
  O  O388  1  0.37227304  0.24311325  0.73619413  1
  O  O389  1  0.38722215  0.75094854  0.24327737  1
  O  O390  1  0.38646525  0.75377177  0.74204926  1
  O  O391  1  0.88456524  0.24477301  0.25493939  1
  O  O392  1  0.86827816  0.23914917  0.74824069  1
  O  O393  1  0.88383751  0.74171244  0.23843573  1
  O  O394  1  0.87949904  0.74380981  0.74575461  1
  O  O395  1  0.38168019  0.48814599  0.50370609  1
  O  O396  1  0.38585478  0.49240254  0.99015039  1
  O  O397  1  0.37399743  0.98666749  0.49770272  1
  O  O398  1  0.30837447  0.95755941  1.02028527  1
  O  O399  1  0.88687069  0.49432212  0.50413371  1
  O  O400  1  0.87017455  0.47977464  1.00086478  1
  O  O401  1  0.88796303  0.99733167  0.49995029  1
  O  O402  1  0.88444982  0.99833420  0.99521647  1
  O  O403  1  0.12093545  0.01109741  0.00900993  1
  O  O404  1  0.11861030  0.00535762  0.50650034  1
  O  O405  1  0.12355118  0.51049690  0.00049781  1
  O  O406  1  0.11405251  0.50765534  0.50288716  1
  O  O407  1  0.62282297  -0.00076779  0.01548650  1
  O  O408  1  0.62423729  -0.00081991  0.51067134  1
  O  O409  1  0.61393330  0.51046235  -0.01072143  1
  O  O410  1  0.61715741  0.49866349  0.50867145  1
  O  O411  1  0.36362654  0.37976553  0.11257501  1
  O  O412  1  0.37006700  0.37028636  0.62103771  1
  O  O413  1  0.37354594  0.85948840  0.12413673  1
  O  O414  1  0.37100818  0.86977481  0.61853414  1
  O  O415  1  0.87094516  0.37381839  0.12048597  1
  O  O416  1  0.87549391  0.37285379  0.61382804  1
  O  O417  1  0.86249959  0.86784113  0.13407534  1
  O  O418  1  0.86325439  0.87212964  0.63390490  1
  O  O419  1  0.12866897  0.13292536  0.38141576  1
  O  O420  1  0.14269754  0.12858903  0.87024330  1
  O  O421  1  0.13362562  0.63434721  0.38331841  1
  O  O422  1  0.13112179  0.62688052  0.87916672  1
  O  O423  1  0.63121956  0.13395690  0.37669759  1
  O  O424  1  0.62427039  0.11086676  0.87673119  1
  O  O425  1  0.63914201  0.62955547  0.38295337  1
  O  O426  1  0.62412024  0.64015139  0.88156875  1
