# generated using pymatgen
data_V85Zn86O256
_symmetry_space_group_name_H-M   'P 1'
_cell_length_a   16.96070839
_cell_length_b   16.95852298
_cell_length_c   16.96063579
_cell_angle_alpha   89.97021599
_cell_angle_beta   89.96442820
_cell_angle_gamma   90.06152074
_symmetry_Int_Tables_number   1
_chemical_formula_structural   V85Zn86O256
_chemical_formula_sum   'V85 Zn86 O256'
_cell_volume   4878.35888933
_cell_formula_units_Z   1
loop_
 _symmetry_equiv_pos_site_id
 _symmetry_equiv_pos_as_xyz
  1  'x, y, z'
loop_
 _atom_site_type_symbol
 _atom_site_label
 _atom_site_symmetry_multiplicity
 _atom_site_fract_x
 _atom_site_fract_y
 _atom_site_fract_z
 _atom_site_occupancy
  V  V0  1  0.12517662  0.25020176  0.37564748  1
  V  V1  1  0.62309541  0.61247418  0.50514610  1
  V  V2  1  0.00061527  0.12323573  0.12621420  1
  V  V3  1  -0.00062861  0.12294695  0.62348338  1
  V  V4  1  0.73554899  0.50078616  0.74864772  1
  V  V5  1  0.37302743  0.87681047  0.50083770  1
  V  V6  1  0.12721923  0.12134221  0.49942599  1
  V  V7  1  0.87298396  -0.00334036  0.38191525  1
  V  V8  1  0.12942831  0.38505185  0.25144491  1
  V  V9  1  0.74862221  0.00208531  0.25210819  1
  V  V10  1  0.50984082  0.25284777  0.75050278  1
  V  V11  1  0.25143879  0.60921507  0.37252043  1
  V  V12  1  -0.00112517  0.50392064  0.00332008  1
  V  V13  1  0.74972182  0.00230904  0.75061711  1
  V  V14  1  0.12552342  0.25005053  0.87383424  1
  V  V15  1  0.12862306  0.74634448  0.37608091  1
  V  V16  1  0.24918297  0.74593639  -0.00357561  1
  V  V17  1  0.12729954  0.75807802  0.86610916  1
  V  V18  1  0.49131284  0.38572553  0.37735721  1
  V  V19  1  0.88145832  0.75368093  0.62203195  1
  V  V20  1  0.25318663  0.38274428  0.12926103  1
  V  V21  1  0.62801745  0.12959099  0.48223885  1
  V  V22  1  0.12367660  0.12390013  -0.00073024  1
  V  V23  1  0.49802148  0.74941079  0.25075804  1
  V  V24  1  0.74479104  0.23322719  -0.00518879  1
  V  V25  1  0.62478789  0.36847514  0.25776161  1
  V  V26  1  0.50210359  0.12142583  0.12813722  1
  V  V27  1  0.87760243  0.50113717  0.37495950  1
  V  V28  1  0.25320216  0.25569270  0.50481059  1
  V  V29  1  0.49943124  0.24491361  0.25931733  1
  V  V30  1  0.86831805  0.12851256  0.75487211  1
  V  V31  1  -0.00428172  0.37594100  0.37414412  1
  V  V32  1  0.49446501  0.74664395  0.74448615  1
  V  V33  1  0.37242382  0.12697834  0.74667839  1
  V  V34  1  0.51043851  0.37836484  0.87262822  1
  V  V35  1  0.49887960  0.62514951  0.12359201  1
  V  V36  1  0.11588593  0.61694202  0.51605905  1
  V  V37  1  0.12928638  0.39229060  0.74641441  1
  V  V38  1  0.12936053  -0.00551322  0.12434764  1
  V  V39  1  0.87124268  0.12362784  0.25621711  1
  V  V40  1  0.87379168  0.24806558  0.12407916  1
  V  V41  1  0.49975952  0.00201154  0.49895841  1
  V  V42  1  -0.00203637  0.37649084  0.87961352  1
  V  V43  1  0.37200350  0.87917542  0.00368544  1
  V  V44  1  0.62357221  0.49940771  0.12251744  1
  V  V45  1  0.74649547  0.37217815  0.11874411  1
  V  V46  1  0.37551068  0.00138033  0.87883144  1
  V  V47  1  0.24849178  0.12300492  0.87523566  1
  V  V48  1  0.25692007  0.74562219  0.49911889  1
  V  V49  1  0.72884267  0.37858870  0.62676535  1
  V  V50  1  0.87512323  0.86911469  -0.00630792  1
  V  V51  1  0.00029760  -0.00614353  -0.00316808  1
  V  V52  1  0.31687074  0.56403897  0.82309071  1
  V  V53  1  0.49619709  0.60750629  0.62351298  1
  V  V54  1  0.62271875  0.74801977  0.37798338  1
  V  V55  1  0.24329676  0.87062931  0.62571280  1
  V  V56  1  0.25319457  0.00760434  0.25134539  1
  V  V57  1  0.50144014  0.87503728  0.87914638  1
  V  V58  1  -0.00086987  0.24918338  0.75136985  1
  V  V59  1  0.63365105  0.62904284  0.00060559  1
  V  V60  1  0.36661837  0.75331478  0.12722180  1
  V  V61  1  0.93112547  0.43304575  0.54684948  1
  V  V62  1  0.50220071  0.12810027  0.61986687  1
  V  V63  1  0.62543010  0.87230740  0.74358591  1
  V  V64  1  0.00329261  0.77327449  0.75492610  1
  V  V65  1  0.63136322  0.74983074  0.87727974  1
  V  V66  1  0.88718364  0.62411768  0.74828796  1
  V  V67  1  0.62493535  0.87381407  0.24807254  1
  V  V68  1  0.37037965  0.61001131  0.25256175  1
  V  V69  1  0.37498373  0.24546513  0.12962137  1
  V  V70  1  0.74705192  0.25272189  0.48845536  1
  V  V71  1  0.75200768  0.75676845  0.50165619  1
  V  V72  1  0.75152832  0.50075360  0.24813085  1
  V  V73  1  0.87180734  0.25086930  0.61807122  1
  V  V74  1  0.87251780  0.74842682  0.12123320  1
  V  V75  1  0.13337248  0.87228870  0.24739186  1
  V  V76  1  0.00128088  0.24875508  0.24957954  1
  V  V77  1  0.37341912  0.37860509  -0.00848606  1
  V  V78  1  0.87634727  0.00045175  0.87422208  1
  V  V79  1  0.55838744  0.06078667  -0.04436319  1
  V  V80  1  0.24163095  -0.00502348  0.74843657  1
  V  V81  1  0.74957821  0.87288289  0.12019589  1
  V  V82  1  -0.00328620  0.87228000  0.38450459  1
  V  V83  1  0.49848134  0.87449072  0.37549017  1
  V  V84  1  -0.00175823  0.75077468  0.24887199  1
  Zn  Zn85  1  0.37797870  0.00805220  0.37037685  1
  Zn  Zn86  1  0.12054717  -0.00586053  0.62756056  1
  Zn  Zn87  1  0.75432366  0.87710571  0.62044406  1
  Zn  Zn88  1  0.37353379  0.74280017  0.62853700  1
  Zn  Zn89  1  0.12754972  0.50511527  0.12564723  1
  Zn  Zn90  1  0.13035735  0.62510172  -0.00099199  1
  Zn  Zn91  1  0.87263205  0.37409073  -0.00101368  1
  Zn  Zn92  1  0.87478674  0.62649253  0.24972909  1
  Zn  Zn93  1  0.38023442  0.38894556  0.50654861  1
  Zn  Zn94  1  -0.00345816  -0.00632933  0.50273028  1
  Zn  Zn95  1  0.24905450  0.25037535  0.00275886  1
  Zn  Zn96  1  0.25880378  0.13142923  0.37241339  1
  Zn  Zn97  1  0.62866716  0.00052886  0.61942601  1
  Zn  Zn98  1  0.62733164  0.23917091  0.87787185  1
  Zn  Zn99  1  0.37381131  0.25637728  0.62554191  1
  Zn  Zn100  1  0.62299899  0.00187082  0.12095200  1
  Zn  Zn101  1  0.75034361  0.62466052  0.37738139  1
  Zn  Zn102  1  0.00220371  0.62486333  0.12500081  1
  Zn  Zn103  1  0.75036036  0.62639906  0.87326099  1
  Zn  Zn104  1  0.87029103  0.50358975  0.87789977  1
  Zn  Zn105  1  0.49609926  0.50672028  -0.00980050  1
  Zn  Zn106  1  0.25313144  0.39037569  0.62943854  1
  Zn  Zn107  1  0.18694073  0.19107402  0.18621562  1
  Zn  Zn108  1  0.18632931  0.18826014  0.68651612  1
  Zn  Zn109  1  0.18840209  0.68445075  0.18522017  1
  Zn  Zn110  1  0.18906112  0.57479426  0.69229388  1
  Zn  Zn111  1  0.68298777  0.18489241  0.18524508  1
  Zn  Zn112  1  0.68730782  0.18822804  0.68140124  1
  Zn  Zn113  1  0.68933650  0.68785707  0.18717868  1
  Zn  Zn114  1  0.68735685  0.68533468  0.68518495  1
  Zn  Zn115  1  0.31294495  0.31181473  0.31280624  1
  Zn  Zn116  1  0.31142944  0.31306399  0.81213625  1
  Zn  Zn117  1  0.31328577  0.81238940  0.31422517  1
  Zn  Zn118  1  0.31064901  0.80989840  0.81228953  1
  Zn  Zn119  1  0.81493648  0.31577581  0.30936419  1
  Zn  Zn120  1  0.80719084  0.31498696  0.81222813  1
  Zn  Zn121  1  0.81129466  0.81395635  0.31237581  1
  Zn  Zn122  1  0.81367836  0.81236957  0.80928176  1
  Zn  Zn123  1  0.18425545  0.44037301  0.44473050  1
  Zn  Zn124  1  0.18695508  0.43910224  0.93863788  1
  Zn  Zn125  1  0.18596578  0.93671817  0.43563628  1
  Zn  Zn126  1  0.18962538  0.93060767  0.93676613  1
  Zn  Zn127  1  0.69171942  0.43139468  0.43645287  1
  Zn  Zn128  1  0.68472133  0.44044070  0.93631787  1
  Zn  Zn129  1  0.68547639  0.93891337  0.43529569  1
  Zn  Zn130  1  0.69595167  0.93245405  0.93170191  1
  Zn  Zn131  1  0.31235790  0.06378624  0.06455167  1
  Zn  Zn132  1  0.31198349  0.06288431  0.56150892  1
  Zn  Zn133  1  0.31427173  0.56164924  0.05824299  1
  Zn  Zn134  1  0.31068376  0.55896089  0.56324783  1
  Zn  Zn135  1  0.81374436  0.05875699  0.06678386  1
  Zn  Zn136  1  0.80868265  0.06669118  0.56297703  1
  Zn  Zn137  1  0.81577404  0.56237317  0.06201064  1
  Zn  Zn138  1  0.80376991  0.57116865  0.57069737  1
  Zn  Zn139  1  0.43987926  0.43373595  0.18475864  1
  Zn  Zn140  1  0.43006576  0.43809800  0.69384415  1
  Zn  Zn141  1  0.43709506  0.93762840  0.18588390  1
  Zn  Zn142  1  0.43487865  0.93885809  0.68578361  1
  Zn  Zn143  1  0.93690777  0.43556535  0.18631637  1
  Zn  Zn144  1  0.93442257  0.43685387  0.70791378  1
  Zn  Zn145  1  0.93941537  0.93440483  0.18904354  1
  Zn  Zn146  1  0.93278144  0.93820553  0.68324102  1
  Zn  Zn147  1  0.06269226  0.06052552  0.31483320  1
  Zn  Zn148  1  0.05890443  0.06009015  0.81196853  1
  Zn  Zn149  1  0.06033199  0.56485422  0.31651714  1
  Zn  Zn150  1  0.06251565  0.56978212  0.82545603  1
  Zn  Zn151  1  0.56072599  0.06102686  0.30936091  1
  Zn  Zn152  1  0.56108316  0.06148400  0.79363952  1
  Zn  Zn153  1  0.56827666  0.56388366  0.30762559  1
  Zn  Zn154  1  0.55561852  0.56556885  0.81089706  1
  Zn  Zn155  1  0.43333584  0.19050319  0.43506810  1
  Zn  Zn156  1  0.43112721  0.19694837  0.93530856  1
  Zn  Zn157  1  0.43959517  0.56413131  0.43563730  1
  Zn  Zn158  1  0.44131236  0.69256777  0.93894829  1
  Zn  Zn159  1  0.93609982  0.18664720  0.43780105  1
  Zn  Zn160  1  0.93469437  0.18680393  0.93912683  1
  Zn  Zn161  1  0.93616253  0.68558137  0.43733735  1
  Zn  Zn162  1  0.94004462  0.68849158  0.93201254  1
  Zn  Zn163  1  0.06436239  0.31539959  0.06347553  1
  Zn  Zn164  1  0.06819339  0.30747027  0.56673818  1
  Zn  Zn165  1  0.06274954  0.81239247  0.06109506  1
  Zn  Zn166  1  0.06644459  0.80092545  0.56569405  1
  Zn  Zn167  1  0.56148701  0.30812178  0.06146373  1
  Zn  Zn168  1  0.56125555  0.31023589  0.55719847  1
  Zn  Zn169  1  0.56053488  0.81172531  0.06098904  1
  Zn  Zn170  1  0.56118006  0.80919989  0.56076585  1
  O  O171  1  0.11924184  0.11900279  0.11794328  1
  O  O172  1  0.11497327  0.12327993  0.61887080  1
  O  O173  1  0.12116279  0.62306934  0.11923063  1
  O  O174  1  0.12316281  0.63052367  0.61500723  1
  O  O175  1  0.61113783  0.12167660  0.12145576  1
  O  O176  1  0.61141124  0.12311858  0.62121479  1
  O  O177  1  0.61831613  0.62322240  0.11989940  1
  O  O178  1  0.61578956  0.62953632  0.61085485  1
  O  O179  1  0.39006491  0.37600073  0.37134327  1
  O  O180  1  0.38159649  0.36553238  0.88849791  1
  O  O181  1  0.37981394  0.87889141  0.38481602  1
  O  O182  1  0.38428082  0.88215942  0.87905728  1
  O  O183  1  0.88790373  0.38092490  0.37262364  1
  O  O184  1  0.88883120  0.37343700  0.87351010  1
  O  O185  1  0.88510854  0.88344218  0.36895865  1
  O  O186  1  0.86834727  0.88202506  0.88666799  1
  O  O187  1  0.24548934  0.00189581  0.35956791  1
  O  O188  1  0.25378507  0.00315479  0.86734500  1
  O  O189  1  0.23942575  0.51083781  0.37040593  1
  O  O190  1  0.25721711  0.50382379  0.88139204  1
  O  O191  1  0.75820875  -0.00859895  0.36066323  1
  O  O192  1  0.76179067  -0.00173972  0.86169257  1
  O  O193  1  0.76177924  0.49492270  0.36590988  1
  O  O194  1  0.75080876  0.50018141  0.86302936  1
  O  O195  1  0.24960515  0.48628250  0.12109063  1
  O  O196  1  0.23966480  0.50187782  0.62500540  1
  O  O197  1  0.23677439  1.00462002  0.13432527  1
  O  O198  1  0.24892478  0.99334478  0.63279579  1
  O  O199  1  0.74669867  0.49159008  0.13065136  1
  O  O200  1  0.75252306  0.49179922  0.63730381  1
  O  O201  1  0.74967418  0.99087194  0.13534618  1
  O  O202  1  0.75131134  0.99661957  0.63577426  1
  O  O203  1  0.00499374  0.36728742  0.25664607  1
  O  O204  1  0.01014595  0.36910970  0.76035945  1
  O  O205  1  0.00912370  0.86597653  0.25760508  1
  O  O206  1  -0.00263011  0.87168724  0.75226411  1
  O  O207  1  0.50730648  0.36967031  0.25627729  1
  O  O208  1  0.49146039  0.36487092  0.76499049  1
  O  O209  1  0.50466528  0.86997116  0.25451318  1
  O  O210  1  0.50700939  0.87461258  0.75879556  1
  O  O211  1  0.50376029  0.13506919  0.24269536  1
  O  O212  1  0.49069446  0.13183002  0.74004614  1
  O  O213  1  0.49068260  0.63006902  0.24489682  1
  O  O214  1  0.50951160  0.63456228  0.73242212  1
  O  O215  1  0.99491389  0.12918320  0.24547838  1
  O  O216  1  0.99262810  0.12855256  0.73992237  1
  O  O217  1  0.99940597  0.64046958  0.25005659  1
  O  O218  1  0.98774401  0.62626231  0.75275314  1
  O  O219  1  0.37243680  0.26155206  0.01039175  1
  O  O220  1  0.36390301  0.25700200  0.50176816  1
  O  O221  1  0.37122568  0.75780323  0.00685657  1
  O  O222  1  0.36199404  0.76060547  0.49629528  1
  O  O223  1  0.86419603  0.25144532  0.00620012  1
  O  O224  1  0.86712227  0.24154052  0.51287294  1
  O  O225  1  0.88159294  0.75912333  0.00664467  1
  O  O226  1  0.86576730  0.74230297  0.50952810  1
  O  O227  1  0.12959234  0.23956775  0.49632344  1
  O  O228  1  0.12366156  0.24586375  0.98840070  1
  O  O229  1  0.13703760  0.74537764  0.49096001  1
  O  O230  1  0.13577263  0.75260764  0.99803323  1
  O  O231  1  0.63437270  0.24129482  0.50040003  1
  O  O232  1  0.64072592  0.24835265  1.00096457  1
  O  O233  1  0.62908187  0.74290000  0.49193169  1
  O  O234  1  0.62013574  0.74245748  0.99003627  1
  O  O235  1  0.49305268  0.24289939  0.13151849  1
  O  O236  1  0.49741233  0.24467749  0.63202903  1
  O  O237  1  0.49301454  0.73983936  0.12926273  1
  O  O238  1  0.49647774  0.74806810  0.63223272  1
  O  O239  1  0.99479986  0.24426814  0.12874044  1
  O  O240  1  0.99160226  0.24353346  0.63067646  1
  O  O241  1  0.98901707  0.75296834  0.13208745  1
  O  O242  1  0.99418457  0.75554789  0.64129875  1
  O  O243  1  0.00337181  0.25724119  0.37142660  1
  O  O244  1  0.00523529  0.25532193  0.87258138  1
  O  O245  1  0.00570128  0.75529816  0.36783899  1
  O  O246  1  0.00220548  0.75499326  0.86095925  1
  O  O247  1  0.49765387  0.26055973  0.36244861  1
  O  O248  1  0.50332681  0.25689782  0.86820711  1
  O  O249  1  0.51362671  0.75763828  0.36876976  1
  O  O250  1  0.50987381  0.75894892  0.86699315  1
  O  O251  1  0.24112399  0.13390973  0.50070738  1
  O  O252  1  0.24105756  0.12614854  0.99346501  1
  O  O253  1  0.24202846  0.63344575  0.48928289  1
  O  O254  1  0.25396298  0.64144086  1.00432843  1
  O  O255  1  0.73810303  0.13777033  0.50761414  1
  O  O256  1  0.75469227  0.13482762  1.00350312  1
  O  O257  1  0.73838183  0.63638461  0.49967297  1
  O  O258  1  0.73731910  0.62056340  0.99818271  1
  O  O259  1  0.25971137  0.37189028  0.00606997  1
  O  O260  1  0.24146940  0.36321827  0.50423900  1
  O  O261  1  0.26490644  0.86458040  -0.00316281  1
  O  O262  1  0.25602000  0.87186598  0.50313892  1
  O  O263  1  0.74873062  0.37308512  0.01083521  1
  O  O264  1  0.74453385  0.36547844  0.51284539  1
  O  O265  1  0.75934479  0.87921756  0.01240576  1
  O  O266  1  0.74151837  0.86136954  0.50047450  1
  O  O267  1  0.11608451  0.48725233  0.24857592  1
  O  O268  1  0.11844135  0.49505724  0.75526485  1
  O  O269  1  0.12948145  0.99236879  0.24324964  1
  O  O270  1  0.13795786  1.00440895  0.74936116  1
  O  O271  1  0.63418348  0.49249702  0.24242059  1
  O  O272  1  0.63716517  0.50416140  0.75247668  1
  O  O273  1  0.63351081  0.99253673  0.24743953  1
  O  O274  1  0.63419031  0.99130254  0.74564538  1
  O  O275  1  0.35496469  -0.00864216  0.24713870  1
  O  O276  1  0.37029733  0.01174540  0.75607990  1
  O  O277  1  0.37614338  0.51231642  0.24242049  1
  O  O278  1  0.37187177  0.50649311  0.76009215  1
  O  O279  1  0.86988666  0.00525799  0.25591664  1
  O  O280  1  0.87018089  0.00708383  0.75564899  1
  O  O281  1  0.86728059  0.49981267  0.25572290  1
  O  O282  1  0.86892628  0.51423215  0.75509502  1
  O  O283  1  0.11392645  0.37213611  0.37039700  1
  O  O284  1  0.11629061  0.36860801  0.86885740  1
  O  O285  1  0.11947607  0.86385313  0.36833297  1
  O  O286  1  0.11897164  0.85837147  0.88441793  1
  O  O287  1  0.61817260  0.37984999  0.36127439  1
  O  O288  1  0.61195803  0.36733896  0.87999191  1
  O  O289  1  0.61982414  0.86809731  0.36777740  1
  O  O290  1  0.61965209  0.87046223  0.86618094  1
  O  O291  1  0.38094047  0.13790358  0.12052846  1
  O  O292  1  0.38443328  0.12697324  0.63073322  1
  O  O293  1  0.38079225  0.63156426  0.13290204  1
  O  O294  1  0.39391182  0.62703967  0.61440681  1
  O  O295  1  0.88179669  0.12704740  0.13547697  1
  O  O296  1  0.88007357  0.13228053  0.63321227  1
  O  O297  1  0.87667911  0.63519871  0.12831114  1
  O  O298  1  0.87026002  0.63782056  0.64067209  1
  O  O299  1  0.25831578  0.25778669  0.12452081  1
  O  O300  1  0.25054935  0.25207683  0.61700846  1
  O  O301  1  0.26267878  0.75062938  0.12046062  1
  O  O302  1  0.25721347  0.75963020  0.61365576  1
  O  O303  1  0.75265952  0.25467824  0.11643033  1
  O  O304  1  0.75765672  0.26178997  0.62482395  1
  O  O305  1  0.76316058  0.75824720  0.13069080  1
  O  O306  1  0.75659893  0.75236266  0.61779250  1
  O  O307  1  0.24135627  0.25085953  0.38311654  1
  O  O308  1  0.24070439  0.24219329  0.87632728  1
  O  O309  1  0.24283514  0.74603510  0.37941023  1
  O  O310  1  0.23747053  0.75636195  0.88091368  1
  O  O311  1  0.75871051  0.25821514  0.38937689  1
  O  O312  1  0.74843523  0.25194613  0.88975152  1
  O  O313  1  0.73956746  0.74940145  0.37894256  1
  O  O314  1  0.73499052  0.74964349  0.86746187  1
  O  O315  1  0.00308533  0.11318807  0.00467316  1
  O  O316  1  0.00521769  0.12506048  0.51101260  1
  O  O317  1  -0.00502987  0.61233926  0.00051653  1
  O  O318  1  0.01837149  0.63654144  0.49630274  1
  O  O319  1  0.49404339  0.12569139  0.00639274  1
  O  O320  1  0.50697998  0.12516090  0.50444841  1
  O  O321  1  0.50798035  0.62515496  0.00984498  1
  O  O322  1  0.51350271  0.62045532  0.50853930  1
  O  O323  1  0.50147540  0.37096075  0.48010920  1
  O  O324  1  0.49213284  0.37239570  0.98854282  1
  O  O325  1  0.49306580  0.87943213  0.49514454  1
  O  O326  1  0.49140785  0.86963768  0.98628799  1
  O  O327  1  0.99967828  0.37289636  0.49448612  1
  O  O328  1  0.99851095  0.38207893  0.99442341  1
  O  O329  1  1.00822849  0.87237473  0.48763705  1
  O  O330  1  0.99001704  0.88784378  1.00698412  1
  O  O331  1  0.50312177  0.48996259  0.36777931  1
  O  O332  1  0.50562887  0.48335943  0.87401575  1
  O  O333  1  0.49979085  0.99069411  0.37966461  1
  O  O334  1  0.50015796  0.99852059  0.88133833  1
  O  O335  1  0.98628666  0.49364265  0.37086599  1
  O  O336  1  0.99715859  0.49164960  0.88405318  1
  O  O337  1  0.99228057  0.98982292  0.37649638  1
  O  O338  1  0.98719753  1.00236142  0.88248997  1
  O  O339  1  0.00895361  0.00419366  0.12049962  1
  O  O340  1  -0.00014089  0.00759041  0.62127542  1
  O  O341  1  0.00037978  0.49988866  0.11677876  1
  O  O342  1  -0.01731862  0.48608917  0.61124865  1
  O  O343  1  0.49890693  0.01477863  0.12972074  1
  O  O344  1  0.50093763  0.00940697  0.61735719  1
  O  O345  1  0.50606565  0.51260505  0.12748990  1
  O  O346  1  0.50089418  0.50938469  0.63181859  1
  O  O347  1  0.24039484  0.37016950  0.24334718  1
  O  O348  1  0.23099793  0.37126923  0.75375944  1
  O  O349  1  0.23732325  0.88223384  0.25424238  1
  O  O350  1  0.26000375  0.88455446  0.73873009  1
  O  O351  1  0.74332409  0.37976879  0.24026306  1
  O  O352  1  0.75639420  0.38962050  0.74085727  1
  O  O353  1  0.74583565  0.88029037  0.23905139  1
  O  O354  1  0.74118228  0.88202238  0.74820104  1
  O  O355  1  0.24039625  0.11090586  0.25066944  1
  O  O356  1  0.25613282  0.11860940  0.75350106  1
  O  O357  1  0.26406136  0.63037206  0.25577268  1
  O  O358  1  0.25659967  0.62575068  0.76643408  1
  O  O359  1  0.75878075  0.11519900  0.24314190  1
  O  O360  1  0.75818656  0.11820214  0.74393436  1
  O  O361  1  0.74903722  0.61071889  0.25158421  1
  O  O362  1  0.75394124  0.61384922  0.74929740  1
  O  O363  1  0.37175802  0.12096184  0.37463304  1
  O  O364  1  0.36887854  0.12079419  0.86853100  1
  O  O365  1  0.36910066  0.62383093  0.35978216  1
  O  O366  1  0.38255063  0.61841246  0.88080301  1
  O  O367  1  0.88176719  0.11635275  0.36183136  1
  O  O368  1  0.87968582  0.11917276  0.86188089  1
  O  O369  1  0.87050475  0.61604073  0.37115611  1
  O  O370  1  0.86906471  0.62875030  0.86129910  1
  O  O371  1  0.13505051  0.37383365  0.13456273  1
  O  O372  1  0.12075856  0.37129732  0.64621041  1
  O  O373  1  0.11977175  0.88415011  0.13415000  1
  O  O374  1  0.13935443  0.87662895  0.61780113  1
  O  O375  1  0.62953349  0.37906459  0.13125840  1
  O  O376  1  0.63010032  0.36999959  0.62798804  1
  O  O377  1  0.63222481  0.87446853  0.12863833  1
  O  O378  1  0.62427638  0.87617480  0.63536529  1
  O  O379  1  0.11841290  0.25682177  0.25643289  1
  O  O380  1  0.11689940  0.24813784  0.76206220  1
  O  O381  1  0.12066361  0.75637119  0.25413102  1
  O  O382  1  0.11020552  0.75489355  0.76047161  1
  O  O383  1  0.61509760  0.25921645  0.24283474  1
  O  O384  1  0.61264320  0.23947425  0.75503829  1
  O  O385  1  0.62019770  0.75327544  0.25592105  1
  O  O386  1  0.61694396  0.75711892  0.75360677  1
  O  O387  1  0.38522956  0.25637085  0.23935014  1
  O  O388  1  0.37987713  0.23744207  0.75150563  1
  O  O389  1  0.38096097  0.74878357  0.24266339  1
  O  O390  1  0.39140040  0.75718862  0.75035505  1
  O  O391  1  0.87907891  0.24137764  0.24479490  1
  O  O392  1  0.87775780  0.24487015  0.74252666  1
  O  O393  1  0.88279493  0.75205419  0.24282140  1
  O  O394  1  0.88555050  0.74512137  0.74656699  1
  O  O395  1  0.36763062  0.49928011  0.48860543  1
  O  O396  1  0.38215860  0.48227791  1.00989008  1
  O  O397  1  0.38126142  0.99337280  0.49782680  1
  O  O398  1  0.36789269  0.99145630  0.99322874  1
  O  O399  1  0.86953733  0.50033644  0.49488107  1
  O  O400  1  0.88128551  0.49397744  0.99690635  1
  O  O401  1  0.87288653  1.00768013  0.48516662  1
  O  O402  1  0.88043898  0.99530491  0.99291739  1
  O  O403  1  0.11917899  -0.00005670  0.00585989  1
  O  O404  1  0.12299584  0.01197050  0.49999769  1
  O  O405  1  0.11414844  0.50146713  0.00248031  1
  O  O406  1  0.12058244  0.51774690  0.49661161  1
  O  O407  1  0.62541737  -0.00458310  0.00036764  1
  O  O408  1  0.61921993  0.00891226  0.50010765  1
  O  O409  1  0.61925468  0.50842261  0.00628985  1
  O  O410  1  0.63581032  0.51498630  0.49450267  1
  O  O411  1  0.37080140  0.36636622  0.11915251  1
  O  O412  1  0.37066783  0.37300759  0.62351613  1
  O  O413  1  0.38443687  0.86541240  0.11416762  1
  O  O414  1  0.36879734  0.87610392  0.61191274  1
  O  O415  1  0.86331136  0.36544553  0.12646830  1
  O  O416  1  0.87840799  0.37147256  0.61664533  1
  O  O417  1  0.86872153  0.87058046  0.11713277  1
  O  O418  1  0.87157292  0.86002127  0.62728992  1
  O  O419  1  0.12402217  0.13186944  0.38403704  1
  O  O420  1  0.12654937  0.13045809  0.87982557  1
  O  O421  1  0.13326865  0.63647242  0.37078269  1
  O  O422  1  0.11528773  0.64972966  0.88498663  1
  O  O423  1  0.62381380  0.12298471  0.38320767  1
  O  O424  1  0.60982701  0.11729197  0.88436243  1
  O  O425  1  0.62583718  0.63198061  0.38362763  1
  O  O426  1  0.62219437  0.63337207  0.88337168  1
