# generated using pymatgen
data_V85Zn86O256
_symmetry_space_group_name_H-M   'P 1'
_cell_length_a   16.95880634
_cell_length_b   16.96990044
_cell_length_c   16.95931426
_cell_angle_alpha   90.03896122
_cell_angle_beta   89.98411884
_cell_angle_gamma   90.00555649
_symmetry_Int_Tables_number   1
_chemical_formula_structural   V85Zn86O256
_chemical_formula_sum   'V85 Zn86 O256'
_cell_volume   4880.70707964
_cell_formula_units_Z   1
loop_
 _symmetry_equiv_pos_site_id
 _symmetry_equiv_pos_as_xyz
  1  'x, y, z'
loop_
 _atom_site_type_symbol
 _atom_site_label
 _atom_site_symmetry_multiplicity
 _atom_site_fract_x
 _atom_site_fract_y
 _atom_site_fract_z
 _atom_site_occupancy
  V  V0  1  0.73992432  0.63418402  0.37420012  1
  V  V1  1  0.49776363  0.00268483  -0.00042294  1
  V  V2  1  0.25051346  0.49456981  0.24985490  1
  V  V3  1  0.87727610  0.87710243  0.00663989  1
  V  V4  1  0.36941578  0.75695227  0.12681247  1
  V  V5  1  0.75078744  0.50048920  0.25081009  1
  V  V6  1  0.62202032  0.12471950  0.00154933  1
  V  V7  1  0.37060568  0.25191978  0.61656899  1
  V  V8  1  -0.00257057  0.36378650  0.37726062  1
  V  V9  1  0.00126949  -0.00014560  0.50234370  1
  V  V10  1  0.61818645  0.37288715  0.26800309  1
  V  V11  1  0.49584818  0.88127094  0.87450410  1
  V  V12  1  0.87840015  0.74997961  0.12364909  1
  V  V13  1  0.50970388  0.75089742  0.25119686  1
  V  V14  1  0.37372355  0.74163962  0.62649692  1
  V  V15  1  0.14146060  0.74633403  0.87916008  1
  V  V16  1  0.62714354  0.38375070  0.74912852  1
  V  V17  1  0.74910214  -0.00577234  0.74708448  1
  V  V18  1  0.87448907  0.12295450  0.74697225  1
  V  V19  1  0.75196021  0.12780065  0.37105208  1
  V  V20  1  0.87502335  0.49741495  0.37692586  1
  V  V21  1  0.62679840  0.75053315  0.87498826  1
  V  V22  1  0.87073378  0.49830277  0.87336543  1
  V  V23  1  0.00130781  0.37479726  0.87662358  1
  V  V24  1  0.87316394  0.24619347  0.14161418  1
  V  V25  1  0.24956949  0.62052690  0.37143804  1
  V  V26  1  0.87650319  0.62440684  0.24931111  1
  V  V27  1  0.13460382  0.13927534  0.50312999  1
  V  V28  1  0.24868547  0.74430119  0.49949888  1
  V  V29  1  -0.00955877  0.49564424  0.50469451  1
  V  V30  1  0.00206752  0.74951924  0.24958473  1
  V  V31  1  0.87172563  0.87397901  0.50533388  1
  V  V32  1  0.50187476  0.25111151  0.27234061  1
  V  V33  1  0.12626407  -0.00161151  0.62132933  1
  V  V34  1  0.74730213  0.37496324  0.12646479  1
  V  V35  1  0.74702201  0.12340735  0.87322670  1
  V  V36  1  0.36698464  0.01127225  0.36329536  1
  V  V37  1  0.12167758  0.50627133  0.62779379  1
  V  V38  1  0.75138318  0.75201163  -0.00091642  1
  V  V39  1  0.11915182  0.49601301  0.12507526  1
  V  V40  1  0.37322363  0.12322935  0.74927729  1
  V  V41  1  0.62717834  0.61985237  -0.00018416  1
  V  V42  1  0.37656157  0.62545161  0.24551937  1
  V  V43  1  0.49978617  0.74431516  0.75010803  1
  V  V44  1  0.87342680  -0.00318370  0.87331726  1
  V  V45  1  0.75041533  0.62023221  0.86630487  1
  V  V46  1  0.87887057  0.61957271  0.73922576  1
  V  V47  1  0.12499419  0.74859961  0.36795526  1
  V  V48  1  0.38915699  0.25476217  0.12337478  1
  V  V49  1  0.50428950  0.61897539  0.61108897  1
  V  V50  1  0.00500668  0.01372421  -0.00373536  1
  V  V51  1  -0.00113359  0.13167155  0.14017955  1
  V  V52  1  0.50795539  0.87085112  0.37633482  1
  V  V53  1  0.61660380  0.49720851  0.12259828  1
  V  V54  1  0.13444711  0.23676496  0.88147605  1
  V  V55  1  0.49968569  -0.00026161  0.49988424  1
  V  V56  1  0.63092152  -0.00395582  0.62317675  1
  V  V57  1  0.62751802  0.87359313  0.74691746  1
  V  V58  1  0.11703307  0.62230701  0.50116791  1
  V  V59  1  -0.00125789  0.86695955  0.87528387  1
  V  V60  1  0.18699189  0.19400039  0.32931310  1
  V  V61  1  0.50016513  0.25089512  0.74930332  1
  V  V62  1  0.25364654  0.00188920  0.75213352  1
  V  V63  1  0.12430119  0.87335909  0.74765357  1
  V  V64  1  0.36587355  0.87746873  0.00003781  1
  V  V65  1  0.24994205  0.36875343  0.11756881  1
  V  V66  1  0.73983881  0.74975510  0.50203303  1
  V  V67  1  0.37551206  0.87275057  0.49607436  1
  V  V68  1  0.62798363  0.13165004  0.49632751  1
  V  V69  1  0.50108725  0.12531740  0.62281913  1
  V  V70  1  0.39448370  0.38748409  0.49729568  1
  V  V71  1  0.25089857  0.87186714  0.62391796  1
  V  V72  1  0.62315484  0.25105250  0.87389786  1
  V  V73  1  0.62621696  -0.00227577  0.12965044  1
  V  V74  1  0.75848776  0.38021037  0.63168749  1
  V  V75  1  0.25727566  0.50447649  0.76412736  1
  V  V76  1  0.87931766  0.74742118  0.62319668  1
  V  V77  1  0.12777101  0.37563713  0.75019401  1
  V  V78  1  0.00297987  0.24761411  0.75049379  1
  V  V79  1  0.48955232  0.37698746  0.88196067  1
  V  V80  1  0.12053950  0.36780857  0.25849235  1
  V  V81  1  0.75212991  0.24806611  0.00030210  1
  V  V82  1  0.75721766  0.25871810  0.50167884  1
  V  V83  1  0.24949390  0.37743303  0.61489770  1
  V  V84  1  0.87491108  0.00102989  0.36933096  1
  Zn  Zn85  1  0.00149933  0.12603960  0.62476170  1
  Zn  Zn86  1  0.25418865  0.89518444  0.14084989  1
  Zn  Zn87  1  0.75231067  0.87751376  0.13000743  1
  Zn  Zn88  1  0.13023701  0.00579423  0.12757937  1
  Zn  Zn89  1  0.12249926  0.62141340  -0.01257265  1
  Zn  Zn90  1  -0.00089430  0.62154608  0.12000881  1
  Zn  Zn91  1  0.39335238  0.49555046  0.36596320  1
  Zn  Zn92  1  0.13558039  0.88660526  0.25234784  1
  Zn  Zn93  1  0.26268472  0.24612912  -0.00713195  1
  Zn  Zn94  1  0.50087018  0.63054354  0.11951027  1
  Zn  Zn95  1  0.00331457  0.74443258  0.74508945  1
  Zn  Zn96  1  0.45298757  0.53131917  -0.04725807  1
  Zn  Zn97  1  0.75471924  0.00149440  0.24898058  1
  Zn  Zn98  1  0.87773557  0.25099281  0.62544260  1
  Zn  Zn99  1  0.50043069  0.12398046  0.14047431  1
  Zn  Zn100  1  0.32175232  0.05357381  0.91470772  1
  Zn  Zn101  1  0.63231470  0.87431171  0.25716331  1
  Zn  Zn102  1  0.00038191  0.87148884  0.37906756  1
  Zn  Zn103  1  -0.00216850  0.49953627  0.00041161  1
  Zn  Zn104  1  0.87557927  0.37451212  0.00165291  1
  Zn  Zn105  1  0.62250440  0.50125745  0.62147135  1
  Zn  Zn106  1  0.37165947  0.62259295  0.78427118  1
  Zn  Zn107  1  0.18811732  0.18313639  0.16845023  1
  Zn  Zn108  1  0.18917157  0.18816490  0.68567693  1
  Zn  Zn109  1  0.21495882  0.65850066  0.14385972  1
  Zn  Zn110  1  0.18779186  0.68304881  0.69312528  1
  Zn  Zn111  1  0.68120467  0.18777441  0.19128110  1
  Zn  Zn112  1  0.68718538  0.18870383  0.68472729  1
  Zn  Zn113  1  0.69089540  0.68991490  0.18454827  1
  Zn  Zn114  1  0.69048153  0.68638050  0.68293724  1
  Zn  Zn115  1  0.32193138  0.31758588  0.31126672  1
  Zn  Zn116  1  0.31250504  0.31434843  0.80511736  1
  Zn  Zn117  1  0.31377200  0.81238471  0.31087252  1
  Zn  Zn118  1  0.31539168  0.81588101  0.81100695  1
  Zn  Zn119  1  0.80602865  0.31549738  0.31916921  1
  Zn  Zn120  1  0.81277981  0.31115717  0.81121327  1
  Zn  Zn121  1  0.81478876  0.81573507  0.31377483  1
  Zn  Zn122  1  0.81341005  0.80952690  0.81005972  1
  Zn  Zn123  1  0.18572953  0.43581146  0.43565047  1
  Zn  Zn124  1  0.18366122  0.43142300  0.93978284  1
  Zn  Zn125  1  0.18882304  0.93547997  0.43323835  1
  Zn  Zn126  1  0.18048560  0.93437299  0.93857698  1
  Zn  Zn127  1  0.57628829  0.45582454  0.44339577  1
  Zn  Zn128  1  0.68621418  0.43591444  0.93658313  1
  Zn  Zn129  1  0.69108626  0.93789145  0.43943881  1
  Zn  Zn130  1  0.68562377  0.93698490  0.93835290  1
  Zn  Zn131  1  0.31411865  0.07840972  0.08113502  1
  Zn  Zn132  1  0.31167218  0.06089833  0.56018463  1
  Zn  Zn133  1  0.30604026  0.57883084  -0.00905912  1
  Zn  Zn134  1  0.30989616  0.56083161  0.56601726  1
  Zn  Zn135  1  0.81433765  0.06307838  0.06401238  1
  Zn  Zn136  1  0.81160217  0.06362053  0.56054296  1
  Zn  Zn137  1  0.81152852  0.56107063  0.05975351  1
  Zn  Zn138  1  0.76054678  0.52263748  0.51535813  1
  Zn  Zn139  1  0.40299525  0.46996010  0.13175313  1
  Zn  Zn140  1  0.43668380  0.43851480  0.69105377  1
  Zn  Zn141  1  0.43949146  0.93868543  0.18998856  1
  Zn  Zn142  1  0.43866099  0.93520665  0.68432857  1
  Zn  Zn143  1  0.93769540  0.43011106  0.19139847  1
  Zn  Zn144  1  0.93718488  0.43912686  0.69012919  1
  Zn  Zn145  1  0.96993684  0.95214159  0.20044207  1
  Zn  Zn146  1  0.93720284  0.93300506  0.68466493  1
  Zn  Zn147  1  0.05868254  0.06414472  0.31696713  1
  Zn  Zn148  1  0.06348446  0.05955322  0.81160953  1
  Zn  Zn149  1  0.06115574  0.55823551  0.31260677  1
  Zn  Zn150  1  0.06006267  0.56293974  0.81172855  1
  Zn  Zn151  1  0.56105030  0.06054620  0.31719053  1
  Zn  Zn152  1  0.56024756  0.06352310  0.81092840  1
  Zn  Zn153  1  0.56371645  0.56339756  0.30372464  1
  Zn  Zn154  1  0.56496455  0.56269659  0.80574059  1
  Zn  Zn155  1  0.43372507  0.18929481  0.44016557  1
  Zn  Zn156  1  0.42776680  0.18814995  0.94456457  1
  Zn  Zn157  1  0.43948029  0.68304480  0.43135174  1
  Zn  Zn158  1  0.43997401  0.70060511  0.94206472  1
  Zn  Zn159  1  0.93572363  0.18160410  0.44191997  1
  Zn  Zn160  1  0.93272565  0.19148675  0.93108909  1
  Zn  Zn161  1  0.93537793  0.68324661  0.43823495  1
  Zn  Zn162  1  0.93971609  0.68381293  0.93779383  1
  Zn  Zn163  1  0.06346023  0.30804367  0.06094952  1
  Zn  Zn164  1  0.05943925  0.31779852  0.56441984  1
  Zn  Zn165  1  0.06882098  0.81690027  0.06569496  1
  Zn  Zn166  1  0.06006586  0.80976434  0.56044182  1
  Zn  Zn167  1  0.56223669  0.31480408  0.06153210  1
  Zn  Zn168  1  0.56815620  0.31014141  0.56525570  1
  Zn  Zn169  1  0.56103019  0.81441298  0.06336696  1
  Zn  Zn170  1  0.56121753  0.81066548  0.56476823  1
  O  O171  1  0.10210145  0.12761631  0.11968172  1
  O  O172  1  0.12366612  0.11776205  0.61725649  1
  O  O173  1  0.11487614  0.59969203  0.14385809  1
  O  O174  1  0.12829930  0.61437316  0.61801829  1
  O  O175  1  0.62318976  0.11565688  0.11888360  1
  O  O176  1  0.62063197  0.11663839  0.61753131  1
  O  O177  1  0.63013039  0.61698717  0.11545290  1
  O  O178  1  0.60715963  0.62505353  0.63444565  1
  O  O179  1  0.37416061  0.38007350  0.39504580  1
  O  O180  1  0.39043500  0.36898319  0.87107921  1
  O  O181  1  0.38399064  0.87722119  0.38782731  1
  O  O182  1  0.38848873  0.86998440  0.88194580  1
  O  O183  1  0.88030678  0.39012805  0.36564455  1
  O  O184  1  0.88071784  0.38212750  0.87239143  1
  O  O185  1  0.87752640  0.88191068  0.38913577  1
  O  O186  1  0.88078304  0.87837707  0.88146422  1
  O  O187  1  0.26901344  -0.00440672  0.38291803  1
  O  O188  1  0.24472385  -0.00692592  0.85867965  1
  O  O189  1  0.25121461  0.50272141  0.36249447  1
  O  O190  1  0.24298637  0.49481390  0.86383033  1
  O  O191  1  0.75916763  0.00779233  0.37682619  1
  O  O192  1  0.75325724  0.00547928  0.86940126  1
  O  O193  1  0.76057014  0.51726353  0.36670944  1
  O  O194  1  0.75714685  0.50823868  0.87692649  1
  O  O195  1  0.23699088  0.48490910  0.13995441  1
  O  O196  1  0.24082639  0.49455213  0.63374453  1
  O  O197  1  0.24365980  1.00921349  0.12318077  1
  O  O198  1  0.24466376  0.99112238  0.63057861  1
  O  O199  1  0.74594465  0.49100218  0.13016868  1
  O  O200  1  0.75747520  0.48109544  0.62752008  1
  O  O201  1  0.74277628  1.00066266  0.12763957  1
  O  O202  1  0.73767737  1.00255497  0.62851458  1
  O  O203  1  0.01093581  0.37345047  0.26102790  1
  O  O204  1  0.00470787  0.36704178  0.75911972  1
  O  O205  1  -0.00596463  0.85414295  0.25719318  1
  O  O206  1  0.00587112  0.87429946  0.75801672  1
  O  O207  1  0.51683518  0.36698060  0.25618253  1
  O  O208  1  0.50837256  0.36870487  0.75400594  1
  O  O209  1  0.50251820  0.86786017  0.26036560  1
  O  O210  1  0.50289171  0.86538428  0.75568834  1
  O  O211  1  0.51717266  0.14677656  0.25526819  1
  O  O212  1  0.49688349  0.12935047  0.73842295  1
  O  O213  1  0.49393456  0.63481775  0.24572508  1
  O  O214  1  0.49197413  0.63616168  0.75268392  1
  O  O215  1  0.99499079  0.13046950  0.23819098  1
  O  O216  1  0.99298096  0.12992041  0.74959856  1
  O  O217  1  0.98905387  0.63125542  0.25126460  1
  O  O218  1  0.98273338  0.62745487  0.75425645  1
  O  O219  1  0.38832143  0.26690650  0.02065943  1
  O  O220  1  0.38221740  0.26472627  0.51195571  1
  O  O221  1  0.38290437  0.76586978  0.01457597  1
  O  O222  1  0.36994886  0.75316562  0.50527648  1
  O  O223  1  0.86061224  0.25173443  -0.00091823  1
  O  O224  1  0.86146428  0.24219434  0.50841324  1
  O  O225  1  0.87271634  0.75719102  0.00372674  1
  O  O226  1  0.87143240  0.75489253  0.50528443  1
  O  O227  1  0.12279276  0.23778523  0.51036441  1
  O  O228  1  0.12936609  0.24845259  0.98456167  1
  O  O229  1  0.12687814  0.73927351  0.49308461  1
  O  O230  1  0.11734638  0.75599713  0.97906129  1
  O  O231  1  0.63899803  0.23976892  0.50702420  1
  O  O232  1  0.63492778  0.24506619  0.99687306  1
  O  O233  1  0.64092354  0.75259421  0.50633926  1
  O  O234  1  0.63127264  0.74463992  0.99462436  1
  O  O235  1  0.49688309  0.25549723  0.13386550  1
  O  O236  1  0.49429066  0.24457126  0.63022551  1
  O  O237  1  0.49301850  0.75283682  0.13442851  1
  O  O238  1  0.49326825  0.74201386  0.63310576  1
  O  O239  1  0.98442759  0.24082352  0.11758944  1
  O  O240  1  0.99895016  0.25033108  0.63900741  1
  O  O241  1  0.99670924  0.74601278  0.13258311  1
  O  O242  1  0.98541644  0.74987347  0.62491877  1
  O  O243  1  -0.01222893  0.26508456  0.38563823  1
  O  O244  1  0.00798512  0.25402704  0.86610595  1
  O  O245  1  0.00738734  0.74566384  0.37076818  1
  O  O246  1  -0.00464371  0.76185951  0.86998160  1
  O  O247  1  0.50099121  0.25293844  0.37170702  1
  O  O248  1  0.50491869  0.25791768  0.86974138  1
  O  O249  1  0.49674371  0.75852476  0.36540566  1
  O  O250  1  0.50823045  0.75864018  0.86761585  1
  O  O251  1  0.23355228  0.12293926  0.50455612  1
  O  O252  1  0.30444824  0.13899530  0.98488487  1
  O  O253  1  0.23991384  0.62607153  0.49514587  1
  O  O254  1  0.22470873  0.63594320  1.03103268  1
  O  O255  1  0.74378214  0.13228266  0.49636364  1
  O  O256  1  0.74414001  0.13035105  0.99373979  1
  O  O257  1  0.75548858  0.63723575  0.48180511  1
  O  O258  1  0.74360299  0.63083340  0.98960026  1
  O  O259  1  0.24430443  0.36884878  0.01471548  1
  O  O260  1  0.25312600  0.38235993  0.51280424  1
  O  O261  1  0.26484577  0.88415831  -0.00335285  1
  O  O262  1  0.25719562  0.86471148  0.50484070  1
  O  O263  1  0.74898244  0.36644511  0.01117094  1
  O  O264  1  0.75143467  0.35966013  0.51634995  1
  O  O265  1  0.76053129  0.87020689  -0.00143975  1
  O  O266  1  0.75739816  0.85896958  0.49472349  1
  O  O267  1  0.12940919  0.48563412  0.24936130  1
  O  O268  1  0.13007180  0.49702301  0.74381173  1
  O  O269  1  0.08045736  0.98922073  0.23739985  1
  O  O270  1  0.13118372  0.99386715  0.74103844  1
  O  O271  1  0.63336319  0.49004771  0.24117800  1
  O  O272  1  0.62593639  0.48708372  0.74386931  1
  O  O273  1  0.62421360  0.99773905  0.24129135  1
  O  O274  1  0.62844327  0.99500921  0.74237399  1
  O  O275  1  0.38263254  0.00321671  0.26420015  1
  O  O276  1  0.36593212  0.00758789  0.73880059  1
  O  O277  1  0.36722833  0.50775773  0.24289164  1
  O  O278  1  0.36073018  0.50128513  0.75135359  1
  O  O279  1  0.88072793  -0.00561976  0.26672656  1
  O  O280  1  0.86996750  0.00255073  0.75342737  1
  O  O281  1  0.87032425  0.50710235  0.25234566  1
  O  O282  1  0.87661803  0.51105349  0.75959193  1
  O  O283  1  0.11304981  0.37635971  0.36982354  1
  O  O284  1  0.11634300  0.36716075  0.86800789  1
  O  O285  1  0.12048825  0.86248188  0.37575063  1
  O  O286  1  0.11716044  0.86593108  0.86741501  1
  O  O287  1  0.63364994  0.38109196  0.36488376  1
  O  O288  1  0.62506883  0.36715332  0.86524089  1
  O  O289  1  0.61175465  0.88087772  0.37821720  1
  O  O290  1  0.61633365  0.87009959  0.86808871  1
  O  O291  1  0.38555880  0.14979956  0.13660579  1
  O  O292  1  0.37995361  0.13363853  0.62652496  1
  O  O293  1  0.37912964  0.63856843  0.13729350  1
  O  O294  1  0.38369337  0.63454646  0.62199906  1
  O  O295  1  0.87983964  0.14006056  0.12071956  1
  O  O296  1  0.87730686  0.12297086  0.63788753  1
  O  O297  1  0.87525472  0.62895557  0.13221652  1
  O  O298  1  0.87075857  0.62783213  0.63957108  1
  O  O299  1  0.26210166  0.25331131  0.12049409  1
  O  O300  1  0.26023082  0.26344247  0.63263333  1
  O  O301  1  0.26818105  0.76128836  0.13792455  1
  O  O302  1  0.25690698  0.75011976  0.62139524  1
  O  O303  1  0.75652097  0.25265103  0.12024320  1
  O  O304  1  0.75401061  0.25335950  0.61806961  1
  O  O305  1  0.75991670  0.75450201  0.11658361  1
  O  O306  1  0.76095597  0.74128093  0.60875387  1
  O  O307  1  0.25363624  0.25064771  0.37708992  1
  O  O308  1  0.23766475  0.25696646  0.87228586  1
  O  O309  1  0.24341484  0.74027265  0.38106522  1
  O  O310  1  0.24025067  0.75388237  0.87284661  1
  O  O311  1  0.75510405  0.24356727  0.39153196  1
  O  O312  1  0.74447497  0.24387800  0.88171495  1
  O  O313  1  0.75719188  0.74102743  0.38327971  1
  O  O314  1  0.74525636  0.74226736  0.87942089  1
  O  O315  1  -0.00733570  0.11371209  -0.01058058  1
  O  O316  1  0.00940401  0.11628587  0.50520377  1
  O  O317  1  0.00599253  0.61901586  0.00236578  1
  O  O318  1  0.01052354  0.61302778  0.49572475  1
  O  O319  1  0.50548616  0.11727040  -0.00052419  1
  O  O320  1  0.50893532  0.12215975  0.50538321  1
  O  O321  1  0.51744648  0.62686629  -0.00085259  1
  O  O322  1  0.50092205  0.63047057  0.51268616  1
  O  O323  1  0.49774606  0.38033333  0.50535608  1
  O  O324  1  0.50936043  0.37598606  0.98097357  1
  O  O325  1  0.49316924  0.87589806  0.49615546  1
  O  O326  1  0.49702277  0.88394214  0.99140783  1
  O  O327  1  1.00114733  0.38850131  0.49452437  1
  O  O328  1  0.99671982  0.37053035  0.98617757  1
  O  O329  1  0.99179135  0.88207719  0.50048839  1
  O  O330  1  0.99291326  0.88412200  0.99233412  1
  O  O331  1  0.50399477  0.50749384  0.37715923  1
  O  O332  1  0.50710297  0.48350771  0.86666721  1
  O  O333  1  0.49132875  0.99112444  0.38388455  1
  O  O334  1  0.50692675  0.99027924  0.88202809  1
  O  O335  1  0.99186259  0.49421345  0.38345862  1
  O  O336  1  0.99285859  0.48982982  0.87460325  1
  O  O337  1  0.99215203  0.99984307  0.39047390  1
  O  O338  1  0.99523255  0.99108635  0.88084155  1
  O  O339  1  -0.01477223  0.02147484  0.10791004  1
  O  O340  1  0.00627866  -0.00068044  0.61641395  1
  O  O341  1  0.00467252  0.49237425  0.12264140  1
  O  O342  1  0.00833932  0.49399335  0.61794818  1
  O  O343  1  0.50700747  0.00371412  0.11749008  1
  O  O344  1  0.50898570  0.00511943  0.61995678  1
  O  O345  1  0.51486538  0.50596783  0.13081253  1
  O  O346  1  0.49763325  0.51630028  0.62985386  1
  O  O347  1  0.24079809  0.37838402  0.24983335  1
  O  O348  1  0.24608490  0.38686440  0.74124644  1
  O  O349  1  0.24858867  0.88073514  0.25649617  1
  O  O350  1  0.24715315  0.88039317  0.74132625  1
  O  O351  1  0.74256334  0.37744967  0.24065913  1
  O  O352  1  0.74104084  0.36435362  0.73960158  1
  O  O353  1  0.74873964  0.88018074  0.24870231  1
  O  O354  1  0.74076398  0.88170322  0.75592461  1
  O  O355  1  0.23301229  0.13420239  0.26470677  1
  O  O356  1  0.26053583  0.11492172  0.74182267  1
  O  O357  1  0.25747448  0.61507063  0.24812919  1
  O  O358  1  0.25554688  0.60956303  0.74985658  1
  O  O359  1  0.74282169  0.12545099  0.26749368  1
  O  O360  1  0.75579539  0.11778775  0.75348038  1
  O  O361  1  0.76055065  0.62586213  0.25532510  1
  O  O362  1  0.75952374  0.63042216  0.76029712  1
  O  O363  1  0.37803238  0.10914235  0.38524402  1
  O  O364  1  0.39078881  0.12564138  0.85142819  1
  O  O365  1  0.36810389  0.62132444  0.36179609  1
  O  O366  1  0.37903058  0.61519518  0.89971336  1
  O  O367  1  0.86474546  0.11281073  0.38447385  1
  O  O368  1  0.86853462  0.11773156  0.86340301  1
  O  O369  1  0.87225172  0.61770807  0.36447668  1
  O  O370  1  0.86782414  0.61804903  0.86859830  1
  O  O371  1  0.12778550  0.37349329  0.13609730  1
  O  O372  1  0.13167438  0.38423245  0.63070285  1
  O  O373  1  0.13073186  0.88280114  0.12960979  1
  O  O374  1  0.13068355  0.87681053  0.62784173  1
  O  O375  1  0.63273398  0.38202671  0.12735767  1
  O  O376  1  0.63627991  0.37237615  0.63526863  1
  O  O377  1  0.62746157  0.88913059  0.12211249  1
  O  O378  1  0.61761691  0.88405398  0.63487059  1
  O  O379  1  0.13305691  0.25285922  0.25898191  1
  O  O380  1  0.11955076  0.25471629  0.75527515  1
  O  O381  1  0.11738664  0.74322365  0.26374590  1
  O  O382  1  0.12337483  0.75585354  0.75739132  1
  O  O383  1  0.62007784  0.26569747  0.24975085  1
  O  O384  1  0.61755833  0.25351493  0.75458831  1
  O  O385  1  0.61391554  0.75360647  0.24195360  1
  O  O386  1  0.61841736  0.75383033  0.75325294  1
  O  O387  1  0.39850747  0.25946777  0.24875487  1
  O  O388  1  0.38077634  0.24411168  0.73769791  1
  O  O389  1  0.38631908  0.74484532  0.24743623  1
  O  O390  1  0.38113689  0.74522053  0.74390524  1
  O  O391  1  0.86701922  0.25206613  0.23928083  1
  O  O392  1  0.88448288  0.23822789  0.75349233  1
  O  O393  1  0.88034366  0.74201554  0.24430814  1
  O  O394  1  0.87445085  0.74072259  0.74038339  1
  O  O395  1  0.37478219  0.48771552  0.50357798  1
  O  O396  1  0.37592155  0.50065139  1.02598393  1
  O  O397  1  0.38296832  0.98738703  0.50526890  1
  O  O398  1  0.38866311  0.99500010  0.99738111  1
  O  O399  1  0.87746497  0.50515958  0.48857279  1
  O  O400  1  0.87503322  0.49585391  0.98679969  1
  O  O401  1  0.88082950  0.99139446  0.50016187  1
  O  O402  1  0.87938252  0.99340899  0.99145339  1
  O  O403  1  0.10669623  -0.00095936  -0.00092812  1
  O  O404  1  0.11819535  0.00126726  0.50429347  1
  O  O405  1  0.12048331  0.49519333  0.01222306  1
  O  O406  1  0.11753109  0.50542616  0.50767997  1
  O  O407  1  0.61628709  0.00449333  0.00525098  1
  O  O408  1  0.62063292  0.00406606  0.50831318  1
  O  O409  1  0.63356907  0.50875372  0.00873769  1
  O  O410  1  0.64949572  0.49953211  0.51214227  1
  O  O411  1  0.35961865  0.36369741  0.14110785  1
  O  O412  1  0.37107895  0.37201450  0.61656228  1
  O  O413  1  0.37613913  0.87463404  0.11705598  1
  O  O414  1  0.37380325  0.86092190  0.61628450  1
  O  O415  1  0.86722805  0.36196831  0.12381229  1
  O  O416  1  0.86278842  0.36845255  0.63811834  1
  O  O417  1  0.87984841  0.87291280  0.11264552  1
  O  O418  1  0.87392686  0.86572878  0.61388455  1
  O  O419  1  0.12129163  0.13063044  0.38776170  1
  O  O420  1  0.12568342  0.13873777  0.86767497  1
  O  O421  1  0.13039990  0.62643684  0.38188845  1
  O  O422  1  0.12131546  0.64227414  0.86940506  1
  O  O423  1  0.63438815  0.11473784  0.39124609  1
  O  O424  1  0.62843749  0.13117674  0.87977508  1
  O  O425  1  0.64259486  0.62877889  0.36202735  1
  O  O426  1  0.63288045  0.62810287  0.87788241  1
