# generated using pymatgen
data_V85Zn86O256
_symmetry_space_group_name_H-M   'P 1'
_cell_length_a   17.01194243
_cell_length_b   17.01635356
_cell_length_c   17.01515814
_cell_angle_alpha   90.08434783
_cell_angle_beta   90.01118423
_cell_angle_gamma   90.15535833
_symmetry_Int_Tables_number   1
_chemical_formula_structural   V85Zn86O256
_chemical_formula_sum   'V85 Zn86 O256'
_cell_volume   4925.54531571
_cell_formula_units_Z   1
loop_
 _symmetry_equiv_pos_site_id
 _symmetry_equiv_pos_as_xyz
  1  'x, y, z'
loop_
 _atom_site_type_symbol
 _atom_site_label
 _atom_site_symmetry_multiplicity
 _atom_site_fract_x
 _atom_site_fract_y
 _atom_site_fract_z
 _atom_site_occupancy
  V  V0  1  0.25257056  0.62407028  0.87864615  1
  V  V1  1  0.24698545  0.24956505  -0.00215966  1
  V  V2  1  0.12037988  0.24605626  0.86348225  1
  V  V3  1  0.38136997  0.50035796  0.38065574  1
  V  V4  1  0.74608407  0.25272713  0.00455074  1
  V  V5  1  0.24164333  0.00022341  0.74737177  1
  V  V6  1  0.50441644  0.87711664  0.37422381  1
  V  V7  1  0.61655766  0.49561031  0.61897163  1
  V  V8  1  0.88617920  0.25749346  0.13591186  1
  V  V9  1  0.88072263  0.87493241  0.00077452  1
  V  V10  1  0.24980262  0.37437892  0.12547862  1
  V  V11  1  0.11546893  0.11576634  0.49945949  1
  V  V12  1  0.06645187  0.81692124  0.70194946  1
  V  V13  1  0.38080675  0.24399760  0.62454264  1
  V  V14  1  -0.02886323  0.08816088  0.13059541  1
  V  V15  1  0.74849281  0.75151792  0.50392104  1
  V  V16  1  -0.00396412  0.36413995  0.87181090  1
  V  V17  1  0.11859294  0.25190897  0.37389268  1
  V  V18  1  0.49812880  0.74835458  0.74719371  1
  V  V19  1  0.24805407  0.62351228  0.37608896  1
  V  V20  1  0.74921078  0.87415056  0.62844178  1
  V  V21  1  0.25016797  0.12564403  0.36853445  1
  V  V22  1  0.37469351  0.00617440  0.37120629  1
  V  V23  1  0.75091747  0.62312241  0.37111015  1
  V  V24  1  0.48661173  0.24678202  0.25507914  1
  V  V25  1  0.25103764  0.87446655  0.62900183  1
  V  V26  1  0.49671952  0.87468738  0.87565927  1
  V  V27  1  0.37154803  -0.00357100  0.87562280  1
  V  V28  1  0.37604750  0.37702603  0.50241395  1
  V  V29  1  0.87428040  0.61539545  0.25021293  1
  V  V30  1  0.37524106  0.87884327  0.50049607  1
  V  V31  1  0.79603625  0.44347429  0.69143439  1
  V  V32  1  0.62607493  0.75358094  0.37292857  1
  V  V33  1  0.62497054  0.74927134  0.87660172  1
  V  V34  1  0.49859421  0.61893757  0.11782847  1
  V  V35  1  0.14110628  -0.01019889  0.11615918  1
  V  V36  1  0.50204067  0.75192797  0.24956645  1
  V  V37  1  0.38466482  0.49937563  0.88077643  1
  V  V38  1  0.75032285  0.12019026  0.88438875  1
  V  V39  1  0.25117160  0.49882089  0.24927112  1
  V  V40  1  0.61934161  0.12188557  0.00082355  1
  V  V41  1  0.74578630  0.61561230  0.86794728  1
  V  V42  1  0.37599270  0.62384738  0.24760632  1
  V  V43  1  0.87254489  0.74548842  0.12283792  1
  V  V44  1  0.68199743  0.19042493  0.32830191  1
  V  V45  1  0.50376000  0.00887874  0.51340297  1
  V  V46  1  0.63185111  0.12780445  0.52415485  1
  V  V47  1  0.00227332  0.88396691  0.37047491  1
  V  V48  1  0.62414772  0.88066770  0.74839696  1
  V  V49  1  0.12050772  0.12173906  0.00663868  1
  V  V50  1  0.74915730  0.00224016  0.75366721  1
  V  V51  1  0.88353874  0.00103268  0.88253686  1
  V  V52  1  0.61919605  -0.00758392  0.13105342  1
  V  V53  1  0.49216650  -0.00489691  0.00045306  1
  V  V54  1  0.25512806  0.76162761  0.00113695  1
  V  V55  1  0.25269883  0.74836929  0.49997756  1
  V  V56  1  0.11573776  0.61807103  0.51340012  1
  V  V57  1  0.24818417  0.24798878  0.50055467  1
  V  V58  1  0.00189659  0.38579495  0.39791863  1
  V  V59  1  0.62015632  0.37859727  0.74739755  1
  V  V60  1  0.75013784  0.26207430  0.50551307  1
  V  V61  1  0.13875911  0.87386022  0.24246993  1
  V  V62  1  0.24647161  0.37440161  0.62749042  1
  V  V63  1  0.49745307  0.62120767  0.61669566  1
  V  V64  1  0.86971587  0.37734845  -0.00042538  1
  V  V65  1  0.38087573  0.12199765  0.74542529  1
  V  V66  1  0.12577341  0.49895775  0.12239276  1
  V  V67  1  0.74464484  0.87177829  0.12903748  1
  V  V68  1  0.50372661  0.37499926  0.38119666  1
  V  V69  1  0.11000248  0.39232612  0.74290148  1
  V  V70  1  0.11375488  0.37398329  0.25053101  1
  V  V71  1  -0.00986475  0.12520476  0.62985120  1
  V  V72  1  0.37455626  0.76060502  0.12199551  1
  V  V73  1  0.37815445  0.37513448  0.00259876  1
  V  V74  1  -0.00063841  0.74851394  0.24938964  1
  V  V75  1  0.63030047  0.38403064  0.25666468  1
  V  V76  1  0.25590280  0.49586160  0.75232420  1
  V  V77  1  0.00070341  0.49919330  -0.00667181  1
  V  V78  1  0.62908924  0.50146075  0.12293185  1
  V  V79  1  0.88235176  0.63912205  0.74951816  1
  V  V80  1  -0.00027636  0.62222356  0.12294271  1
  V  V81  1  0.88037604  0.50272210  0.39465254  1
  V  V82  1  0.50011410  0.36955425  0.87849192  1
  V  V83  1  0.88105950  0.87728203  0.49776126  1
  V  V84  1  0.11754471  0.75067493  0.87693549  1
  Zn  Zn85  1  0.87344028  0.26073969  0.62724529  1
  Zn  Zn86  1  0.62145940  0.61917782  -0.00438984  1
  Zn  Zn87  1  0.62307833  0.25002013  0.87541278  1
  Zn  Zn88  1  0.36992821  0.24474298  0.12874502  1
  Zn  Zn89  1  0.37630685  0.74780867  0.62540532  1
  Zn  Zn90  1  -0.06929332  0.04211702  0.44044002  1
  Zn  Zn91  1  0.25701956  0.00213316  0.24191304  1
  Zn  Zn92  1  0.88383800  0.13529676  0.76250377  1
  Zn  Zn93  1  0.73187604  1.00746334  0.26262778  1
  Zn  Zn94  1  0.50731485  0.24218840  0.74553069  1
  Zn  Zn95  1  0.88707151  0.75169461  0.62840184  1
  Zn  Zn96  1  0.24776074  0.12447478  0.87225341  1
  Zn  Zn97  1  0.12693748  0.62274937  -0.00323339  1
  Zn  Zn98  1  0.75104799  0.38162113  0.13544417  1
  Zn  Zn99  1  0.62075199  0.62239916  0.49788046  1
  Zn  Zn100  1  0.11687004  -0.00121123  0.62404179  1
  Zn  Zn101  1  0.00509522  0.87841531  0.87613788  1
  Zn  Zn102  1  0.49096223  0.12234520  0.13174299  1
  Zn  Zn103  1  0.37832071  0.62287922  0.74980572  1
  Zn  Zn104  1  0.87108076  0.49727849  0.86850234  1
  Zn  Zn105  1  0.12764783  0.74837780  0.36955480  1
  Zn  Zn106  1  0.74870678  0.74676462  -0.00102337  1
  Zn  Zn107  1  0.18268009  0.18843398  0.18824043  1
  Zn  Zn108  1  0.18780564  0.18499288  0.68483877  1
  Zn  Zn109  1  0.18794796  0.68644990  0.18267408  1
  Zn  Zn110  1  0.19518768  0.68091352  0.68785185  1
  Zn  Zn111  1  0.68111906  0.18924061  0.16861748  1
  Zn  Zn112  1  0.70949887  0.19982755  0.69923418  1
  Zn  Zn113  1  0.68704770  0.68744050  0.19067235  1
  Zn  Zn114  1  0.68471823  0.68488245  0.68882598  1
  Zn  Zn115  1  0.30764504  0.31621485  0.31592919  1
  Zn  Zn116  1  0.31210221  0.30874105  0.81158423  1
  Zn  Zn117  1  0.31911745  0.81118806  0.31408678  1
  Zn  Zn118  1  0.31071445  0.81317685  0.81267808  1
  Zn  Zn119  1  0.81903187  0.32188038  0.31777166  1
  Zn  Zn120  1  0.81134824  0.30509290  0.81888903  1
  Zn  Zn121  1  0.78989254  0.85449876  0.33536186  1
  Zn  Zn122  1  0.81152870  0.81295253  0.81775360  1
  Zn  Zn123  1  0.18796258  0.44049446  0.44061835  1
  Zn  Zn124  1  0.18738882  0.43547810  0.92995738  1
  Zn  Zn125  1  0.18617768  0.93757286  0.43242674  1
  Zn  Zn126  1  0.18591565  0.93557968  0.93260325  1
  Zn  Zn127  1  0.68843747  0.44504590  0.43671020  1
  Zn  Zn128  1  0.68217111  0.43891230  0.93968577  1
  Zn  Zn129  1  0.68474322  0.94482665  0.44334031  1
  Zn  Zn130  1  0.68896114  0.93448313  0.94316797  1
  Zn  Zn131  1  0.31321152  0.06696256  0.06062188  1
  Zn  Zn132  1  0.30824897  0.06307032  0.55862207  1
  Zn  Zn133  1  0.31538080  0.56183090  0.06018919  1
  Zn  Zn134  1  0.31057036  0.56008970  0.56500457  1
  Zn  Zn135  1  0.81093454  0.05718634  0.07447614  1
  Zn  Zn136  1  0.80339580  0.06138394  0.56954189  1
  Zn  Zn137  1  0.80714061  0.56308505  0.05756405  1
  Zn  Zn138  1  0.81381604  0.57559702  0.56371549  1
  Zn  Zn139  1  0.44171171  0.43508600  0.18979572  1
  Zn  Zn140  1  0.43833167  0.43427380  0.68845454  1
  Zn  Zn141  1  0.43833038  0.93731576  0.19188371  1
  Zn  Zn142  1  0.43350410  0.93618844  0.68966685  1
  Zn  Zn143  1  0.93771634  0.43811546  0.18708251  1
  Zn  Zn144  1  0.95650715  0.43833178  0.68134622  1
  Zn  Zn145  1  0.94708504  0.92712796  0.17741293  1
  Zn  Zn146  1  0.92879030  0.94943187  0.68472025  1
  Zn  Zn147  1  0.02467972  0.09600201  0.31745646  1
  Zn  Zn148  1  0.06051025  0.06516223  0.81125306  1
  Zn  Zn149  1  0.06338770  0.56062037  0.31387232  1
  Zn  Zn150  1  0.06249937  0.55570298  0.80338519  1
  Zn  Zn151  1  0.55341983  0.06137198  0.31422320  1
  Zn  Zn152  1  0.56143551  0.06240592  0.81442278  1
  Zn  Zn153  1  0.56283239  0.56389016  0.30955010  1
  Zn  Zn154  1  0.56177976  0.55979573  0.80551321  1
  Zn  Zn155  1  0.44026991  0.18752178  0.43910014  1
  Zn  Zn156  1  0.43449561  0.18498781  0.93621642  1
  Zn  Zn157  1  0.43557391  0.68895343  0.43764250  1
  Zn  Zn158  1  0.43710364  0.68803165  0.93870533  1
  Zn  Zn159  1  0.93346902  0.20471154  0.43767950  1
  Zn  Zn160  1  0.93850359  0.18435401  0.95422533  1
  Zn  Zn161  1  0.93824270  0.69443698  0.43497483  1
  Zn  Zn162  1  0.93350738  0.68422239  0.93547066  1
  Zn  Zn163  1  0.06422299  0.31442932  0.05694348  1
  Zn  Zn164  1  0.06221956  0.30222493  0.56603744  1
  Zn  Zn165  1  0.06442157  0.80981949  0.06004328  1
  Zn  Zn166  1  0.06590575  0.80835311  0.53996192  1
  Zn  Zn167  1  0.56070936  0.31505471  0.06777931  1
  Zn  Zn168  1  0.56551550  0.30850469  0.56031792  1
  Zn  Zn169  1  0.55838623  0.81149808  0.05968412  1
  Zn  Zn170  1  0.56414811  0.81386492  0.56177077  1
  O  O171  1  0.14168244  0.11425386  0.11095402  1
  O  O172  1  0.11413411  0.12738819  0.61503636  1
  O  O173  1  0.11872179  0.61581659  0.11910487  1
  O  O174  1  0.12910812  0.62877303  0.61254392  1
  O  O175  1  0.61300045  0.11560142  0.11386486  1
  O  O176  1  0.63050076  0.13132932  0.62168836  1
  O  O177  1  0.61815394  0.61564575  0.12693761  1
  O  O178  1  0.61531627  0.61648859  0.62551966  1
  O  O179  1  0.37991191  0.38336955  0.38121431  1
  O  O180  1  0.38140019  0.37906115  0.88082066  1
  O  O181  1  0.38161235  0.88255945  0.38401661  1
  O  O182  1  0.38124475  0.88848361  0.86528211  1
  O  O183  1  0.88913369  0.39027574  0.37573817  1
  O  O184  1  0.87853260  0.37501127  0.88167339  1
  O  O185  1  0.89057529  0.86466365  0.38630353  1
  O  O186  1  0.87784332  0.88183149  0.88327090  1
  O  O187  1  0.25848787  0.00828262  0.37524041  1
  O  O188  1  0.25634592  -0.00078323  0.86493041  1
  O  O189  1  0.26037769  0.50619477  0.37002762  1
  O  O190  1  0.26925040  0.50611039  0.87827590  1
  O  O191  1  0.75681250  -0.03567800  0.36174116  1
  O  O192  1  0.75655049  0.00058247  0.87232018  1
  O  O193  1  0.76061949  0.51593856  0.38067912  1
  O  O194  1  0.74823709  0.51250020  0.87664725  1
  O  O195  1  0.24533563  0.49441868  0.12774417  1
  O  O196  1  0.25368737  0.48892443  0.64037689  1
  O  O197  1  0.24711641  0.99632487  0.12331586  1
  O  O198  1  0.24370419  0.99099802  0.62826621  1
  O  O199  1  0.73439959  0.50177892  0.12593650  1
  O  O200  1  0.74339038  0.50305623  0.62750525  1
  O  O201  1  0.73419875  0.99211923  0.13165587  1
  O  O202  1  0.75248913  0.98890905  0.64404944  1
  O  O203  1  0.01301090  0.38447526  0.25624148  1
  O  O204  1  -0.00021421  0.35877350  0.76554753  1
  O  O205  1  0.00768408  0.86498755  0.25147830  1
  O  O206  1  0.00251499  0.87857742  0.75095073  1
  O  O207  1  0.50994996  0.36598321  0.26002682  1
  O  O208  1  0.50465683  0.37045300  0.76120637  1
  O  O209  1  0.49529390  0.86807889  0.26647773  1
  O  O210  1  0.50710991  0.86929391  0.75304197  1
  O  O211  1  0.50011082  0.14356301  0.25436400  1
  O  O212  1  0.48627224  0.12312237  0.75226690  1
  O  O213  1  0.49375666  0.63276399  0.24298591  1
  O  O214  1  0.49917556  0.63367450  0.74019339  1
  O  O215  1  1.01633232  0.12932816  0.20861600  1
  O  O216  1  0.99822160  0.12679598  0.73702205  1
  O  O217  1  0.99721666  0.62932887  0.24383314  1
  O  O218  1  0.97926521  0.62138384  0.76074208  1
  O  O219  1  0.36479431  0.26063134  -0.00424139  1
  O  O220  1  0.36823126  0.25519724  0.50608215  1
  O  O221  1  0.36402460  0.74696562  0.00610567  1
  O  O222  1  0.36505332  0.75787815  0.50048840  1
  O  O223  1  0.86656893  0.26577190  0.00435886  1
  O  O224  1  0.85563202  0.25006907  0.50455168  1
  O  O225  1  0.87161573  0.75278947  0.00568497  1
  O  O226  1  0.86865988  0.75993471  0.50615450  1
  O  O227  1  0.13118417  0.24140786  0.49258125  1
  O  O228  1  0.13100848  0.24405779  0.99429774  1
  O  O229  1  0.14117126  0.73986941  0.49173473  1
  O  O230  1  0.13850926  0.74470038  0.99368872  1
  O  O231  1  0.63175031  0.23501626  0.50072001  1
  O  O232  1  0.62931170  0.24197724  1.00455099  1
  O  O233  1  0.63163365  0.74697418  0.49153571  1
  O  O234  1  0.62129761  0.74612084  0.98508712  1
  O  O235  1  0.50200222  0.25407605  0.14622181  1
  O  O236  1  0.48403872  0.25583449  0.62656983  1
  O  O237  1  0.49419007  0.74300587  0.12931991  1
  O  O238  1  0.49993760  0.74479608  0.63221070  1
  O  O239  1  0.98477495  0.26959382  0.12476914  1
  O  O240  1  0.98925036  0.23507189  0.62030762  1
  O  O241  1  0.99617299  0.73931979  0.12712047  1
  O  O242  1  1.00982110  0.76427108  0.63525712  1
  O  O243  1  0.01346164  0.26935045  0.38145524  1
  O  O244  1  0.00762821  0.25421764  0.88904784  1
  O  O245  1  0.00620318  0.75665562  0.36227713  1
  O  O246  1  0.01516282  0.74629472  0.88203127  1
  O  O247  1  0.49466234  0.26091684  0.36551802  1
  O  O248  1  0.50149772  0.25643302  0.87076571  1
  O  O249  1  0.50551979  0.75710131  0.37349317  1
  O  O250  1  0.50460633  0.75334669  0.86786456  1
  O  O251  1  0.23977838  0.13053169  0.48982251  1
  O  O252  1  0.24498224  0.13915716  0.99309564  1
  O  O253  1  0.24959153  0.63210532  0.49334303  1
  O  O254  1  0.25149370  0.62766417  0.98772896  1
  O  O255  1  0.73540264  0.12619100  0.50373353  1
  O  O256  1  0.73994816  0.13003476  1.00312005  1
  O  O257  1  0.75052763  0.64003306  0.49090325  1
  O  O258  1  0.74442716  0.62723704  0.98424462  1
  O  O259  1  0.25395137  0.36655089  0.00283167  1
  O  O260  1  0.25267919  0.36944681  0.50908577  1
  O  O261  1  0.25175327  0.85923323  -0.00612853  1
  O  O262  1  0.25113842  0.86869703  0.50882321  1
  O  O263  1  0.75423288  0.36969395  0.00070187  1
  O  O264  1  0.73920156  0.35920904  0.49140911  1
  O  O265  1  0.75884189  0.86960400  0.00991450  1
  O  O266  1  0.75316506  0.86701183  0.51102370  1
  O  O267  1  0.13288355  0.49439471  0.24367226  1
  O  O268  1  0.15620202  0.48676829  0.79229351  1
  O  O269  1  0.13544967  0.98447296  0.23330085  1
  O  O270  1  0.13858108  1.00632532  0.74844199  1
  O  O271  1  0.62145015  0.49324977  0.24024094  1
  O  O272  1  0.62216208  0.48748008  0.73924069  1
  O  O273  1  0.61462388  1.00390413  0.23552164  1
  O  O274  1  0.62949030  0.98547287  0.75974489  1
  O  O275  1  0.37404660  -0.00326025  0.26613807  1
  O  O276  1  0.36496405  0.00562770  0.75237868  1
  O  O277  1  0.36976055  0.50352960  0.25677460  1
  O  O278  1  0.36849746  0.49688429  0.76071426  1
  O  O279  1  0.89303073  0.02705737  0.17059775  1
  O  O280  1  0.86395148  0.00681011  0.76386999  1
  O  O281  1  0.88012751  0.51354617  0.25410386  1
  O  O282  1  0.86504658  0.50157784  0.74470070  1
  O  O283  1  0.12168102  0.37360359  0.36967082  1
  O  O284  1  0.11363792  0.36470258  0.86850696  1
  O  O285  1  0.11996883  0.87019118  0.36431567  1
  O  O286  1  0.12172460  0.86162794  0.87532081  1
  O  O287  1  0.61303784  0.38895589  0.36980142  1
  O  O288  1  0.61450178  0.37626414  0.87021152  1
  O  O289  1  0.61313583  0.86615139  0.38524256  1
  O  O290  1  0.61943888  0.86627891  0.86948312  1
  O  O291  1  0.38016756  0.13344441  0.11869386  1
  O  O292  1  0.36752967  0.13260695  0.63135688  1
  O  O293  1  0.38259290  0.62795410  0.12946974  1
  O  O294  1  0.38166758  0.62636716  0.62866179  1
  O  O295  1  0.88030958  0.15264932  0.10491330  1
  O  O296  1  0.88504526  0.11992765  0.62606821  1
  O  O297  1  0.87792093  0.62571902  0.13020837  1
  O  O298  1  0.87131962  0.63348970  0.64371066  1
  O  O299  1  0.24758334  0.25861403  0.11634813  1
  O  O300  1  0.25894142  0.25518089  0.62001928  1
  O  O301  1  0.25873694  0.74170112  0.10852450  1
  O  O302  1  0.25306634  0.75644801  0.61843354  1
  O  O303  1  0.75500311  0.25727539  0.11468955  1
  O  O304  1  0.74780971  0.25667927  0.60786363  1
  O  O305  1  0.75256275  0.75292557  0.12124931  1
  O  O306  1  0.74849804  0.75454286  0.61788755  1
  O  O307  1  0.24075328  0.24584765  0.38126290  1
  O  O308  1  0.23910041  0.25042751  0.88180168  1
  O  O309  1  0.25401427  0.74013214  0.38188518  1
  O  O310  1  0.24804523  0.74243870  0.88272591  1
  O  O311  1  0.75203222  0.24494357  0.38082798  1
  O  O312  1  0.74468669  0.24171867  0.89241921  1
  O  O313  1  0.74160134  0.75267495  0.38327237  1
  O  O314  1  0.73883207  0.74183298  0.87542921  1
  O  O315  1  0.00887784  0.12549383  0.02612027  1
  O  O316  1  0.00331538  0.12296125  0.50847868  1
  O  O317  1  -0.00162228  0.61038214  0.00084766  1
  O  O318  1  0.01812617  0.63766901  0.49566305  1
  O  O319  1  0.50532036  0.11256637  -0.00382236  1
  O  O320  1  0.50985109  0.11552879  0.50047176  1
  O  O321  1  0.50156566  0.62855249  0.01413856  1
  O  O322  1  0.49996226  0.63160507  0.51301518  1
  O  O323  1  0.49422517  0.36863193  0.48775405  1
  O  O324  1  0.49153865  0.36724282  0.98948127  1
  O  O325  1  0.49671205  0.88533445  0.49462056  1
  O  O326  1  0.50233477  0.88749846  0.99117715  1
  O  O327  1  1.01242170  0.38085199  0.49694834  1
  O  O328  1  0.99168459  0.38326613  0.99185392  1
  O  O329  1  0.99412334  0.87452370  0.48663686  1
  O  O330  1  0.98493444  0.86836039  0.99961695  1
  O  O331  1  0.48706529  0.49500712  0.36971943  1
  O  O332  1  0.49029622  0.49274929  0.87061252  1
  O  O333  1  0.49348790  0.99381407  0.38474387  1
  O  O334  1  0.49187179  0.99437383  0.88048651  1
  O  O335  1  0.99334782  0.49601479  0.37581180  1
  O  O336  1  0.99505809  0.48853659  0.88002557  1
  O  O337  1  1.00644523  0.98586564  0.36374138  1
  O  O338  1  0.98694212  1.00036431  0.87319514  1
  O  O339  1  0.02581678  -0.00283362  0.11678186  1
  O  O340  1  0.00265852  0.01454939  0.62714623  1
  O  O341  1  0.00548901  0.50262385  0.11452800  1
  O  O342  1  0.05612238  0.47800754  0.69812552  1
  O  O343  1  0.50111348  -0.00234246  0.11656761  1
  O  O344  1  0.49443933  -0.00453430  0.61062856  1
  O  O345  1  0.50951886  0.50979015  0.13265330  1
  O  O346  1  0.50465471  0.50888299  0.62895357  1
  O  O347  1  0.24257811  0.38194984  0.24487192  1
  O  O348  1  0.24583529  0.37869303  0.74350424  1
  O  O349  1  0.24016750  0.86931094  0.25507456  1
  O  O350  1  0.25449224  0.88119774  0.73599277  1
  O  O351  1  0.73415928  0.37165778  0.25537648  1
  O  O352  1  0.74249342  0.38332279  0.75543637  1
  O  O353  1  0.75263013  0.87292824  0.23018302  1
  O  O354  1  0.74312685  0.87882085  0.74812140  1
  O  O355  1  0.24187499  0.12464829  0.26584206  1
  O  O356  1  0.25849689  0.11655718  0.75059038  1
  O  O357  1  0.25630527  0.62007227  0.25610735  1
  O  O358  1  0.25652790  0.61638392  0.76149748  1
  O  O359  1  0.73125603  0.13076360  0.26008388  1
  O  O360  1  0.73804007  0.11007160  0.76696145  1
  O  O361  1  0.76161162  0.63507873  0.26298300  1
  O  O362  1  0.75654615  0.63032004  0.76273796  1
  O  O363  1  0.36340504  0.11773948  0.38356200  1
  O  O364  1  0.37143725  0.11292749  0.86571176  1
  O  O365  1  0.36782257  0.61828304  0.37131910  1
  O  O366  1  0.37289470  0.61618167  0.87419947  1
  O  O367  1  0.92276616  0.12160678  0.36401502  1
  O  O368  1  0.86965084  0.11865528  0.88318753  1
  O  O369  1  0.87131241  0.62279859  0.36847317  1
  O  O370  1  0.86280159  0.62092976  0.86543443  1
  O  O371  1  0.12932742  0.37997489  0.13187057  1
  O  O372  1  0.13803197  0.35936930  0.63667465  1
  O  O373  1  0.12754410  0.87701832  0.12899801  1
  O  O374  1  0.12615972  0.87056798  0.63043085  1
  O  O375  1  0.62482154  0.38721301  0.13453520  1
  O  O376  1  0.61498960  0.38275517  0.63340287  1
  O  O377  1  0.63050171  0.88180152  0.11649368  1
  O  O378  1  0.63734469  0.86827278  0.63604460  1
  O  O379  1  0.13046902  0.26215079  0.26133801  1
  O  O380  1  0.12998909  0.25352099  0.76223568  1
  O  O381  1  0.11642369  0.75359784  0.24461213  1
  O  O382  1  0.12619716  0.75100361  0.75554221  1
  O  O383  1  0.62593980  0.25077605  0.26149365  1
  O  O384  1  0.62696125  0.26440513  0.75312297  1
  O  O385  1  0.61834204  0.74577912  0.26535794  1
  O  O386  1  0.61486102  0.75663936  0.75857586  1
  O  O387  1  0.38474914  0.25935423  0.25081581  1
  O  O388  1  0.37370165  0.23870300  0.74209476  1
  O  O389  1  0.38046494  0.74213478  0.24260291  1
  O  O390  1  0.38834535  0.75020859  0.75018250  1
  O  O391  1  0.86915960  0.25945001  0.23375101  1
  O  O392  1  0.83605609  0.23543978  0.73629401  1
  O  O393  1  0.89166112  0.73751357  0.23972836  1
  O  O394  1  0.87703966  0.74254995  0.75282322  1
  O  O395  1  0.36790367  0.49110211  0.49077622  1
  O  O396  1  0.37389256  0.48392563  0.99538617  1
  O  O397  1  0.38458248  0.99867780  0.49301372  1
  O  O398  1  0.38109657  1.00322374  0.98764090  1
  O  O399  1  0.87692061  0.51172054  0.49380170  1
  O  O400  1  0.87925491  0.48991192  0.99810019  1
  O  O401  1  0.86631763  0.98269900  0.50808878  1
  O  O402  1  0.86669086  0.98890749  0.99346235  1
  O  O403  1  0.13524613  0.00947304  0.00266856  1
  O  O404  1  0.12970014  0.01321007  0.50005859  1
  O  O405  1  0.11636708  0.49740849  0.00119208  1
  O  O406  1  0.13033372  0.51958059  0.49647499  1
  O  O407  1  0.61628891  0.00511922  0.00718963  1
  O  O408  1  0.61373668  0.01330742  0.50277170  1
  O  O409  1  0.62218965  0.50050759  0.01743036  1
  O  O410  1  0.62900246  0.50436912  0.51504577  1
  O  O411  1  0.37044530  0.37152986  0.11761328  1
  O  O412  1  0.36496964  0.36843248  0.62199010  1
  O  O413  1  0.38064078  0.85915503  0.13048864  1
  O  O414  1  0.36594365  0.87279183  0.61810236  1
  O  O415  1  0.86845594  0.37348120  0.11860990  1
  O  O416  1  0.86517000  0.38731468  0.63839467  1
  O  O417  1  0.86891328  0.86272054  0.11768123  1
  O  O418  1  0.86484892  0.87008222  0.62379553  1
  O  O419  1  0.12130806  0.13578810  0.37986244  1
  O  O420  1  0.12235318  0.13088447  0.88632508  1
  O  O421  1  0.14084941  0.62562262  0.37354768  1
  O  O422  1  0.13585665  0.63058360  0.87400415  1
  O  O423  1  0.62321504  0.12804297  0.38149438  1
  O  O424  1  0.62866739  0.12401709  0.88886676  1
  O  O425  1  0.63386239  0.63036987  0.37688009  1
  O  O426  1  0.63065556  0.62880331  0.87110011  1
