# generated using pymatgen
data_V85Zn86O256
_symmetry_space_group_name_H-M   'P 1'
_cell_length_a   16.94645392
_cell_length_b   16.95670666
_cell_length_c   16.95223653
_cell_angle_alpha   90.01595623
_cell_angle_beta   90.07781837
_cell_angle_gamma   90.03094142
_symmetry_Int_Tables_number   1
_chemical_formula_structural   V85Zn86O256
_chemical_formula_sum   'V85 Zn86 O256'
_cell_volume   4871.32230335
_cell_formula_units_Z   1
loop_
 _symmetry_equiv_pos_site_id
 _symmetry_equiv_pos_as_xyz
  1  'x, y, z'
loop_
 _atom_site_type_symbol
 _atom_site_label
 _atom_site_symmetry_multiplicity
 _atom_site_fract_x
 _atom_site_fract_y
 _atom_site_fract_z
 _atom_site_occupancy
  V  V0  1  0.23133567  0.24352873  0.49365633  1
  V  V1  1  0.50325940  0.24932338  0.75270776  1
  V  V2  1  0.24873375  0.12402027  0.87510488  1
  V  V3  1  0.38200945  0.88704659  0.49678478  1
  V  V4  1  0.49676695  0.75154788  0.25676900  1
  V  V5  1  0.87437112  0.25119307  0.12626965  1
  V  V6  1  0.62437337  0.50084461  0.10673768  1
  V  V7  1  -0.00337922  0.12470579  0.63162460  1
  V  V8  1  0.62174553  0.00323461  0.61733648  1
  V  V9  1  0.12237644  0.24837781  0.87524050  1
  V  V10  1  0.86558558  0.00445779  0.37598745  1
  V  V11  1  0.87314007  0.24717313  0.63155090  1
  V  V12  1  0.87816721  0.87600116  0.49961438  1
  V  V13  1  0.12523474  0.00530113  0.62080925  1
  V  V14  1  0.37825420  0.74915526  0.62609172  1
  V  V15  1  0.49629499  0.49283336  0.49444683  1
  V  V16  1  0.86691043  0.61569901  0.75175801  1
  V  V17  1  0.75108770  0.23830102  0.49459863  1
  V  V18  1  0.12521236  0.87868202  0.25114876  1
  V  V19  1  0.25057019  0.87647757  0.12786549  1
  V  V20  1  0.86403792  0.88046048  0.00777387  1
  V  V21  1  0.74058290  0.12747472  0.87188589  1
  V  V22  1  0.12161993  0.12244941  0.00067294  1
  V  V23  1  0.50055758  0.00739442  0.00898864  1
  V  V24  1  0.01130386  0.25329244  0.25311183  1
  V  V25  1  0.24791982  0.37264695  0.62117707  1
  V  V26  1  0.50472304  0.23085064  0.24317424  1
  V  V27  1  -0.00029420  0.74573222  0.24284286  1
  V  V28  1  0.63182200  0.61958505  0.49372537  1
  V  V29  1  0.63359264  0.25114029  0.36694304  1
  V  V30  1  0.50275997  0.37414281  0.36130891  1
  V  V31  1  0.87232558  0.37614397  0.00366562  1
  V  V32  1  0.37174579  0.37221765  0.49186237  1
  V  V33  1  0.73709523  0.49814352  0.25612836  1
  V  V34  1  0.12259452  -0.00033305  0.12108054  1
  V  V35  1  0.00350864  0.62738239  0.62605814  1
  V  V36  1  0.37543845  0.12470796  0.74894376  1
  V  V37  1  0.87704855  0.75058228  0.62511539  1
  V  V38  1  0.48847334  0.37556429  0.87486564  1
  V  V39  1  0.12164624  0.62439280  0.01211768  1
  V  V40  1  0.74176533  0.25249373  -0.00319656  1
  V  V41  1  0.50840397  0.87686220  0.87806853  1
  V  V42  1  0.87166447  0.50686442  0.37450942  1
  V  V43  1  0.12349585  0.74524597  0.87757848  1
  V  V44  1  0.87232608  0.62416500  0.24535874  1
  V  V45  1  0.24964144  0.87564367  0.62836470  1
  V  V46  1  0.87165906  0.12894837  0.25558746  1
  V  V47  1  0.25228324  0.61045058  0.37457129  1
  V  V48  1  0.75298394  -0.00566234  0.22966754  1
  V  V49  1  0.86085986  0.75200484  0.12518276  1
  V  V50  1  0.62941843  0.87804279  0.75157751  1
  V  V51  1  0.75441653  0.74498767  0.49395001  1
  V  V52  1  -0.00179272  0.74974244  0.75668137  1
  V  V53  1  0.87068826  0.37535372  0.49819099  1
  V  V54  1  -0.00300568  0.50832539  0.01045644  1
  V  V55  1  0.37572838  0.87465885  0.00130603  1
  V  V56  1  0.37476953  0.24815079  0.62072476  1
  V  V57  1  0.37368346  -0.00487255  0.87199634  1
  V  V58  1  0.51283079  0.74567011  0.75059391  1
  V  V59  1  0.25016129  0.74880621  0.00141714  1
  V  V60  1  0.38039436  0.24052802  0.12741492  1
  V  V61  1  0.12297575  0.37495570  0.75024384  1
  V  V62  1  0.37293604  0.74731944  0.12972802  1
  V  V63  1  0.62456970  0.74849966  0.37494959  1
  V  V64  1  0.49993330  0.62137264  0.62061246  1
  V  V65  1  0.63219174  0.49258135  0.62484369  1
  V  V66  1  0.75676084  0.00572322  0.74872747  1
  V  V67  1  0.00824390  0.37418073  0.37222745  1
  V  V68  1  0.12573746  0.50183017  0.62791792  1
  V  V69  1  0.87979647  0.00751113  0.87683280  1
  V  V70  1  -0.00040923  0.12290114  0.12267371  1
  V  V71  1  0.23975995  0.11918948  0.37128419  1
  V  V72  1  0.25157724  0.74971406  0.50000640  1
  V  V73  1  0.62134274  0.12424440  0.01315606  1
  V  V74  1  0.00312350  0.00882104  0.49569627  1
  V  V75  1  0.12590228  0.74986903  0.37447750  1
  V  V76  1  0.37062704  0.61118761  0.25465930  1
  V  V77  1  0.48650723  0.51052906  -0.00775179  1
  V  V78  1  0.63058559  0.37339160  0.75798371  1
  V  V79  1  0.12944661  0.48876120  0.13574754  1
  V  V80  1  -0.00143383  0.87752801  0.88502839  1
  V  V81  1  0.25134927  0.25301386  0.00314990  1
  V  V82  1  0.12673798  0.62178094  0.50035842  1
  V  V83  1  -0.00170047  0.37826743  0.87709628  1
  V  V84  1  0.24949987  -0.00082949  0.74794240  1
  Zn  Zn85  1  0.86138215  0.49936190  0.87259732  1
  Zn  Zn86  1  0.49820654  0.12050486  0.61893607  1
  Zn  Zn87  1  0.25789298  0.49743354  0.75948718  1
  Zn  Zn88  1  0.71944051  0.62169944  0.88321091  1
  Zn  Zn89  1  0.12365892  0.87396321  0.75197756  1
  Zn  Zn90  1  -0.00219415  0.50117689  0.49827578  1
  Zn  Zn91  1  0.37001035  0.37692886  -0.00077754  1
  Zn  Zn92  1  -0.00586812  0.24645876  0.75359927  1
  Zn  Zn93  1  0.50298105  0.62622178  0.12528809  1
  Zn  Zn94  1  0.51111504  0.89610537  0.38554371  1
  Zn  Zn95  1  0.00118871  0.87737778  0.37376227  1
  Zn  Zn96  1  0.37861471  0.61104850  0.76016064  1
  Zn  Zn97  1  0.27330388  0.60644822  0.88498713  1
  Zn  Zn98  1  0.72123900  0.75098033  -0.00457759  1
  Zn  Zn99  1  0.61882122  0.11648370  0.48476477  1
  Zn  Zn100  1  0.73955723  0.37234743  0.13024468  1
  Zn  Zn101  1  0.40657702  0.03654605  0.34184383  1
  Zn  Zn102  1  0.75138061  0.87563800  0.62396066  1
  Zn  Zn103  1  0.75081535  0.37389687  0.62809530  1
  Zn  Zn104  1  0.63676352  0.87458902  0.24544970  1
  Zn  Zn105  1  0.26452581  0.00611243  0.24801120  1
  Zn  Zn106  1  0.25586838  0.37274972  0.14419481  1
  Zn  Zn107  1  0.19171567  0.18910803  0.18933728  1
  Zn  Zn108  1  0.18466731  0.18748202  0.68641825  1
  Zn  Zn109  1  0.18767519  0.68310840  0.19013800  1
  Zn  Zn110  1  0.19401185  0.68579463  0.69529640  1
  Zn  Zn111  1  0.68992104  0.18791137  0.18877341  1
  Zn  Zn112  1  0.68893264  0.18867080  0.68657595  1
  Zn  Zn113  1  0.68616955  0.68069618  0.18864384  1
  Zn  Zn114  1  0.68930669  0.68590925  0.68083298  1
  Zn  Zn115  1  0.31859848  0.29722695  0.31459323  1
  Zn  Zn116  1  0.30933365  0.31237856  0.80976770  1
  Zn  Zn117  1  0.31275472  0.81305999  0.31455948  1
  Zn  Zn118  1  0.35406246  0.76472844  0.84656748  1
  Zn  Zn119  1  0.81596531  0.31853797  0.31181137  1
  Zn  Zn120  1  0.81193439  0.31289565  0.81595039  1
  Zn  Zn121  1  0.81303581  0.81482068  0.31471191  1
  Zn  Zn122  1  0.81084247  0.81387575  0.81552212  1
  Zn  Zn123  1  0.18832146  0.43410000  0.31109285  1
  Zn  Zn124  1  0.18353408  0.43714949  0.94144916  1
  Zn  Zn125  1  0.19093894  0.93919240  0.43839003  1
  Zn  Zn126  1  0.18635367  0.93500880  0.93881814  1
  Zn  Zn127  1  0.68662634  0.43190605  0.43496408  1
  Zn  Zn128  1  0.68665483  0.43937642  0.93134182  1
  Zn  Zn129  1  0.69111921  0.93295892  0.43534959  1
  Zn  Zn130  1  0.68800796  0.94358773  0.93960950  1
  Zn  Zn131  1  0.31269436  0.06064159  0.06270969  1
  Zn  Zn132  1  0.31115223  0.06684747  0.55731935  1
  Zn  Zn133  1  0.30884418  0.56271612  0.06777727  1
  Zn  Zn134  1  0.31370731  0.55787133  0.56626476  1
  Zn  Zn135  1  0.81508047  0.06675103  0.05792495  1
  Zn  Zn136  1  0.81259551  0.06309285  0.56411241  1
  Zn  Zn137  1  0.80818955  0.56446846  0.06695380  1
  Zn  Zn138  1  0.81354724  0.56195589  0.56517069  1
  Zn  Zn139  1  0.43709840  0.43306282  0.17728665  1
  Zn  Zn140  1  0.44063078  0.43291455  0.68265334  1
  Zn  Zn141  1  0.45777407  0.93365697  0.19003915  1
  Zn  Zn142  1  0.43987294  0.93455588  0.68627685  1
  Zn  Zn143  1  0.93647015  0.43840016  0.18906423  1
  Zn  Zn144  1  0.94007696  0.43617107  0.68446479  1
  Zn  Zn145  1  0.93950492  0.93907931  0.18798878  1
  Zn  Zn146  1  0.93873875  0.93667058  0.69011103  1
  Zn  Zn147  1  0.06451419  0.06512684  0.31185712  1
  Zn  Zn148  1  0.06257125  0.06017570  0.80918396  1
  Zn  Zn149  1  0.05671244  0.56522450  0.31403578  1
  Zn  Zn150  1  0.06354259  0.56279372  0.81751785  1
  Zn  Zn151  1  0.57809744  0.06384839  0.31094376  1
  Zn  Zn152  1  0.56386993  0.06219637  0.81086542  1
  Zn  Zn153  1  0.55817953  0.56418531  0.31505626  1
  Zn  Zn154  1  0.56090763  0.55506681  0.80893397  1
  Zn  Zn155  1  0.43946300  0.18465829  0.43544410  1
  Zn  Zn156  1  0.43663078  0.18923046  0.93504648  1
  Zn  Zn157  1  0.43526232  0.68481869  0.43960071  1
  Zn  Zn158  1  0.55156436  0.69197958  0.93884040  1
  Zn  Zn159  1  0.94072137  0.18951530  0.43913894  1
  Zn  Zn160  1  0.93450463  0.18905885  0.93977760  1
  Zn  Zn161  1  0.94148888  0.68781160  0.43254693  1
  Zn  Zn162  1  0.86041661  0.68808603  0.93710627  1
  Zn  Zn163  1  0.06154999  0.31171395  0.06319834  1
  Zn  Zn164  1  0.05637890  0.31537197  0.56115998  1
  Zn  Zn165  1  0.05559546  0.81272808  0.06373165  1
  Zn  Zn166  1  0.06346408  0.81482194  0.56282260  1
  Zn  Zn167  1  0.56104702  0.31708594  0.06184570  1
  Zn  Zn168  1  0.56145346  0.30255447  0.55885498  1
  Zn  Zn169  1  0.56178714  0.82441113  0.07805840  1
  Zn  Zn170  1  0.56623959  0.81347183  0.56238692  1
  O  O171  1  0.11979429  0.11846669  0.12231393  1
  O  O172  1  0.11758685  0.11172558  0.62755871  1
  O  O173  1  0.12713554  0.61341085  0.11731412  1
  O  O174  1  0.12339653  0.62159144  0.62149895  1
  O  O175  1  0.62700261  0.12601168  0.11142371  1
  O  O176  1  0.62797673  0.10878071  0.62762832  1
  O  O177  1  0.61902539  0.60503037  0.13345162  1
  O  O178  1  0.61915417  0.61655707  0.61491936  1
  O  O179  1  0.38540986  0.36267280  0.38792212  1
  O  O180  1  0.38448031  0.37072761  0.87519558  1
  O  O181  1  0.36792517  0.87176042  0.39651694  1
  O  O182  1  0.38352884  0.87341276  0.88290312  1
  O  O183  1  0.88019034  0.38756674  0.38147098  1
  O  O184  1  0.87999972  0.37904402  0.88569127  1
  O  O185  1  0.87971032  0.88367592  0.38296878  1
  O  O186  1  0.88015357  0.88457426  0.88550763  1
  O  O187  1  0.24924767  0.01212512  0.37397733  1
  O  O188  1  0.25355507  0.00290559  0.86894870  1
  O  O189  1  0.24020700  0.51214392  0.37934251  1
  O  O190  1  0.24075254  0.50019060  0.87332086  1
  O  O191  1  0.76392118  -0.00026383  0.37365390  1
  O  O192  1  0.75753557  0.00842275  0.86866009  1
  O  O193  1  0.75518860  0.49624194  0.36386927  1
  O  O194  1  0.74935526  0.51086286  0.87535942  1
  O  O195  1  0.23329926  0.49346541  0.12151500  1
  O  O196  1  0.23466809  0.49162759  0.61934229  1
  O  O197  1  0.24221661  0.99332035  0.12757340  1
  O  O198  1  0.24213016  0.99588912  0.62539628  1
  O  O199  1  0.73633276  0.49896731  0.13091546  1
  O  O200  1  0.73641555  0.49638978  0.62123637  1
  O  O201  1  0.75834794  0.99853526  0.13095721  1
  O  O202  1  0.74589171  0.99800580  0.63368130  1
  O  O203  1  -0.00743606  0.36829804  0.26342153  1
  O  O204  1  0.00406969  0.37427215  0.76061218  1
  O  O205  1  0.01161773  0.87026156  0.25134664  1
  O  O206  1  0.00031225  0.86521453  0.75936102  1
  O  O207  1  0.49615457  0.37999799  0.26096018  1
  O  O208  1  0.50550434  0.36767845  0.75550711  1
  O  O209  1  0.47904676  0.85034648  0.28026425  1
  O  O210  1  0.51359072  0.87183999  0.75401325  1
  O  O211  1  0.50728671  0.13261225  0.24551798  1
  O  O212  1  0.49475309  0.13232352  0.74762592  1
  O  O213  1  0.48776227  0.63303539  0.25429947  1
  O  O214  1  0.50049065  0.63116888  0.73374476  1
  O  O215  1  0.99231810  0.13208424  0.24248046  1
  O  O216  1  1.00059711  0.12588183  0.73674496  1
  O  O217  1  0.98633788  0.63426888  0.25516988  1
  O  O218  1  0.99915985  0.63391554  0.74381378  1
  O  O219  1  0.36658102  0.25044324  0.00330997  1
  O  O220  1  0.37218022  0.25411686  0.51184605  1
  O  O221  1  0.36240772  0.75664090  0.01244524  1
  O  O222  1  0.37072825  0.75470326  0.51141591  1
  O  O223  1  0.86664429  0.25833682  0.00616124  1
  O  O224  1  0.86944614  0.25700996  0.50552648  1
  O  O225  1  0.88528479  0.76790408  0.01415357  1
  O  O226  1  0.87265322  0.75566933  0.50077632  1
  O  O227  1  0.13375468  0.25192016  0.50518727  1
  O  O228  1  0.13007930  0.24259540  0.99560342  1
  O  O229  1  0.13030612  0.74252764  0.49762374  1
  O  O230  1  0.12603612  0.74155522  1.00164402  1
  O  O231  1  0.64019101  0.25519668  0.49009604  1
  O  O232  1  0.63277036  0.24155549  1.00292782  1
  O  O233  1  0.63481982  0.74277659  0.49569857  1
  O  O234  1  0.61090454  0.75532490  1.01093101  1
  O  O235  1  0.49747676  0.25412817  0.13635501  1
  O  O236  1  0.48913566  0.25355505  0.63756357  1
  O  O237  1  0.48677451  0.74404827  0.13971839  1
  O  O238  1  0.49837221  0.74022672  0.62441677  1
  O  O239  1  0.99386477  0.24564777  0.13298636  1
  O  O240  1  0.99192524  0.24136293  0.62436811  1
  O  O241  1  0.99079224  0.75532413  0.13964462  1
  O  O242  1  0.99696015  0.74796480  0.63444338  1
  O  O243  1  -0.00567449  0.26476221  0.36913388  1
  O  O244  1  0.00097566  0.26030245  0.87573342  1
  O  O245  1  0.00765616  0.75443145  0.36417104  1
  O  O246  1  0.00589867  0.75885272  0.86738962  1
  O  O247  1  0.50789944  0.25535204  0.35830973  1
  O  O248  1  0.49508936  0.25724230  0.86046251  1
  O  O249  1  0.51665824  0.73926319  0.37779211  1
  O  O250  1  0.49863499  0.76725106  0.86163304  1
  O  O251  1  0.24574843  0.13738823  0.49693068  1
  O  O252  1  0.24171031  0.13258022  0.99395852  1
  O  O253  1  0.24478772  0.63012166  0.49681535  1
  O  O254  1  0.24005714  0.63252710  1.00107707  1
  O  O255  1  0.74880401  0.13620411  0.50009717  1
  O  O256  1  0.73898720  0.13106306  0.99477988  1
  O  O257  1  0.74392959  0.63280118  0.50482468  1
  O  O258  1  0.76771661  0.63882179  0.99488165  1
  O  O259  1  0.24642308  0.35909369  -0.00059064  1
  O  O260  1  0.25849430  0.35741694  0.50650482  1
  O  O261  1  0.25333286  0.86916258  0.00945020  1
  O  O262  1  0.25647305  0.87011145  0.51175153  1
  O  O263  1  0.75454963  0.36814649  -0.00017930  1
  O  O264  1  0.76182341  0.37003772  0.50117136  1
  O  O265  1  0.76128878  0.87278120  -0.00297525  1
  O  O266  1  0.76426805  0.86752113  0.50067228  1
  O  O267  1  0.11981408  0.50281087  0.23930840  1
  O  O268  1  0.12188420  0.49319156  0.74216315  1
  O  O269  1  0.12696695  0.99222671  0.24019070  1
  O  O270  1  0.13214241  0.99518898  0.74160101  1
  O  O271  1  0.63606986  0.50296684  0.25303457  1
  O  O272  1  0.61509293  0.48186227  0.73821293  1
  O  O273  1  0.65311305  1.00480873  0.25074046  1
  O  O274  1  0.63599866  0.99423875  0.74307807  1
  O  O275  1  0.37557064  -0.01532590  0.24830195  1
  O  O276  1  0.36948836  0.00314156  0.75222267  1
  O  O277  1  0.37929259  0.51327122  0.23955526  1
  O  O278  1  0.36947681  0.50244993  0.72890476  1
  O  O279  1  0.87061750  0.00681511  0.25666501  1
  O  O280  1  0.86360198  -0.00614608  0.75902149  1
  O  O281  1  0.87042544  0.50828620  0.25510981  1
  O  O282  1  0.87882226  0.51261477  0.74481965  1
  O  O283  1  0.10590125  0.38538029  0.37998163  1
  O  O284  1  0.11492609  0.36677340  0.87281269  1
  O  O285  1  0.12598611  0.86958642  0.36738671  1
  O  O286  1  0.11655076  0.86498859  0.87767005  1
  O  O287  1  0.61402510  0.36390676  0.37752580  1
  O  O288  1  0.61320335  0.37675837  0.86140536  1
  O  O289  1  0.62562410  0.86419685  0.36996146  1
  O  O290  1  0.61975587  0.88366661  0.86534606  1
  O  O291  1  0.36891224  0.14091864  0.11832029  1
  O  O292  1  0.37555894  0.13107056  0.63119048  1
  O  O293  1  0.37049697  0.63531726  0.13408807  1
  O  O294  1  0.38550092  0.63409126  0.61887143  1
  O  O295  1  0.88406445  0.13042562  0.12896013  1
  O  O296  1  0.88326732  0.13465810  0.62068073  1
  O  O297  1  0.87428528  0.63672090  0.13575103  1
  O  O298  1  0.88351389  0.63008742  0.63313257  1
  O  O299  1  0.25600912  0.25118099  0.11769133  1
  O  O300  1  0.25498404  0.25117246  0.61778064  1
  O  O301  1  0.25068143  0.75479838  0.11924095  1
  O  O302  1  0.25861190  0.75699642  0.62301005  1
  O  O303  1  0.75572832  0.25337784  0.11607258  1
  O  O304  1  0.75736629  0.25141444  0.61515898  1
  O  O305  1  0.75816225  0.75134409  0.12773438  1
  O  O306  1  0.75851963  0.75257920  0.61183705  1
  O  O307  1  0.24777993  0.24067060  0.38968793  1
  O  O308  1  0.24363946  0.24250908  0.88060327  1
  O  O309  1  0.24227302  0.74399131  0.38352766  1
  O  O310  1  0.23821033  0.75754336  0.89377929  1
  O  O311  1  0.74605920  0.25990170  0.38089458  1
  O  O312  1  0.75767378  0.24050078  0.88711367  1
  O  O313  1  0.74256161  0.75221979  0.38572410  1
  O  O314  1  0.76598923  0.73906837  0.88397753  1
  O  O315  1  0.00596499  0.13252067  0.01395758  1
  O  O316  1  -0.00371615  0.11337341  0.50950055  1
  O  O317  1  0.00385155  0.60873359  0.00103159  1
  O  O318  1  0.00818151  0.62837646  0.50796690  1
  O  O319  1  0.51561627  0.12244365  -0.01303842  1
  O  O320  1  0.51307568  0.14976984  0.51079019  1
  O  O321  1  0.49236535  0.61250756  0.00231599  1
  O  O322  1  0.50658246  0.61528481  0.50568524  1
  O  O323  1  0.49311608  0.37758215  0.49433899  1
  O  O324  1  0.49778401  0.38342139  0.98881194  1
  O  O325  1  0.48693125  0.86949503  0.49930584  1
  O  O326  1  0.49561998  0.88778718  0.99165898  1
  O  O327  1  0.98775595  0.37606694  0.48955456  1
  O  O328  1  0.99152111  0.38004082  0.99569745  1
  O  O329  1  0.99040605  0.88358177  0.50020498  1
  O  O330  1  0.99307921  0.87632954  0.98902446  1
  O  O331  1  0.50530062  0.49073993  0.38744652  1
  O  O332  1  0.49890121  0.49306251  0.88649180  1
  O  O333  1  0.50872548  1.00882319  0.37862367  1
  O  O334  1  0.49276539  0.99115315  0.87468142  1
  O  O335  1  0.99015145  0.49182633  0.37615377  1
  O  O336  1  1.00203780  0.48829748  0.88918684  1
  O  O337  1  0.99405617  0.99974306  0.38236417  1
  O  O338  1  0.99082515  0.99127200  0.86709301  1
  O  O339  1  0.00880906  0.01189004  0.13023676  1
  O  O340  1  0.00486487  0.00521955  0.62038845  1
  O  O341  1  0.00963439  0.49358256  0.11642786  1
  O  O342  1  0.01093277  0.50619463  0.62124421  1
  O  O343  1  0.47991852  0.01586292  0.10430414  1
  O  O344  1  0.51800313  0.00025789  0.63003890  1
  O  O345  1  0.50719198  0.50037451  0.10897234  1
  O  O346  1  0.51063823  0.50378065  0.61232050  1
  O  O347  1  0.25070738  0.36359095  0.25649741  1
  O  O348  1  0.23946653  0.37297554  0.73916094  1
  O  O349  1  0.23691634  0.87069198  0.24478079  1
  O  O350  1  0.25017145  0.88122770  0.73464632  1
  O  O351  1  0.75881184  0.39455116  0.24477551  1
  O  O352  1  0.73428986  0.36850580  0.75000456  1
  O  O353  1  0.75556889  0.88906043  0.24776997  1
  O  O354  1  0.74235441  0.88156086  0.74970535  1
  O  O355  1  0.24719251  0.12472158  0.26516243  1
  O  O356  1  0.25393050  0.11893520  0.75507125  1
  O  O357  1  0.25798569  0.62727936  0.26185045  1
  O  O358  1  0.25568991  0.61957302  0.75831020  1
  O  O359  1  0.76693005  0.11690799  0.24175385  1
  O  O360  1  0.74844127  0.11793390  0.75811209  1
  O  O361  1  0.76057351  0.61101096  0.24879080  1
  O  O362  1  0.76670319  0.63070425  0.74562302  1
  O  O363  1  0.35633565  0.12825398  0.38372714  1
  O  O364  1  0.36799921  0.11780263  0.86778446  1
  O  O365  1  0.36479916  0.62640740  0.36817976  1
  O  O366  1  0.37434006  0.65522921  0.86652590  1
  O  O367  1  0.88319905  0.11798441  0.36622712  1
  O  O368  1  0.86724329  0.11227038  0.88509097  1
  O  O369  1  0.87804065  0.61256867  0.37053947  1
  O  O370  1  0.89152324  0.61628128  0.85498492  1
  O  O371  1  0.12541535  0.38645132  0.12439628  1
  O  O372  1  0.12520634  0.38313389  0.62825468  1
  O  O373  1  0.12688426  0.88235454  0.12993990  1
  O  O374  1  0.13266333  0.88346497  0.62695329  1
  O  O375  1  0.62350110  0.39473353  0.12285366  1
  O  O376  1  0.62473116  0.37880882  0.63089761  1
  O  O377  1  0.56583158  0.89561967  0.16004019  1
  O  O378  1  0.62918329  0.88649672  0.63096791  1
  O  O379  1  0.10990794  0.24654421  0.24637659  1
  O  O380  1  0.12011988  0.25603651  0.75705484  1
  O  O381  1  0.11717023  0.75395750  0.25269959  1
  O  O382  1  0.11903473  0.75092922  0.76199985  1
  O  O383  1  0.61670793  0.25128948  0.25151631  1
  O  O384  1  0.61554566  0.26179907  0.74229915  1
  O  O385  1  0.61747300  0.74830054  0.25777065  1
  O  O386  1  0.61753565  0.76087422  0.73434488  1
  O  O387  1  0.39540207  0.24788472  0.24226318  1
  O  O388  1  0.37785317  0.24475686  0.73997064  1
  O  O389  1  0.37462065  0.74058533  0.24597074  1
  O  O390  1  0.39597570  0.75811047  0.73265268  1
  O  O391  1  0.87938907  0.24420854  0.24510180  1
  O  O392  1  0.87467212  0.25747911  0.73572994  1
  O  O393  1  0.87828718  0.74543200  0.24619804  1
  O  O394  1  0.88396941  0.74335332  0.74549223  1
  O  O395  1  0.38428217  0.48535719  0.50698446  1
  O  O396  1  0.38377618  0.49799130  1.00518615  1
  O  O397  1  0.37491725  0.98622276  0.50784646  1
  O  O398  1  0.37596913  0.99405450  0.98892919  1
  O  O399  1  0.87504267  0.49471547  0.49323234  1
  O  O400  1  0.88497954  0.49359194  1.00473801  1
  O  O401  1  0.88053120  0.99440654  0.49470535  1
  O  O402  1  0.87319487  0.98925336  0.99343132  1
  O  O403  1  0.12899607  0.00585309  0.01261161  1
  O  O404  1  0.11374355  -0.00862695  0.50879325  1
  O  O405  1  0.11430725  0.50410605  0.01147521  1
  O  O406  1  0.11997696  0.51732888  0.50852217  1
  O  O407  1  0.61682972  0.01395132  -0.00179020  1
  O  O408  1  0.63630242  0.00005582  0.51354554  1
  O  O409  1  0.61593214  0.50184236  0.00407515  1
  O  O410  1  0.62109748  0.50347994  0.50379363  1
  O  O411  1  0.37172075  0.36136991  0.11798011  1
  O  O412  1  0.36818048  0.36422007  0.61669341  1
  O  O413  1  0.37129027  0.86239788  0.12157826  1
  O  O414  1  0.37019108  0.86918696  0.61725077  1
  O  O415  1  0.87357860  0.37164040  0.11440590  1
  O  O416  1  0.87506980  0.36876750  0.61567422  1
  O  O417  1  0.87992816  0.87319870  0.11350144  1
  O  O418  1  0.87577975  0.86860901  0.61732091  1
  O  O419  1  0.13811582  0.12311385  0.37793821  1
  O  O420  1  0.12663111  0.12836319  0.88006551  1
  O  O421  1  0.12817782  0.63071812  0.38336482  1
  O  O422  1  0.11786428  0.63780663  0.89019698  1
  O  O423  1  0.63209907  0.14497932  0.37246920  1
  O  O424  1  0.63773585  0.12166808  0.87955968  1
  O  O425  1  0.62612722  0.62788334  0.38836909  1
  O  O426  1  0.61082916  0.63946147  0.85878565  1
