# generated using pymatgen
data_V85Zn86O256
_symmetry_space_group_name_H-M   'P 1'
_cell_length_a   16.95437963
_cell_length_b   16.94345112
_cell_length_c   16.96798009
_cell_angle_alpha   90.06386670
_cell_angle_beta   90.06874340
_cell_angle_gamma   90.11570952
_symmetry_Int_Tables_number   1
_chemical_formula_structural   V85Zn86O256
_chemical_formula_sum   'V85 Zn86 O256'
_cell_volume   4874.30223194
_cell_formula_units_Z   1
loop_
 _symmetry_equiv_pos_site_id
 _symmetry_equiv_pos_as_xyz
  1  'x, y, z'
loop_
 _atom_site_type_symbol
 _atom_site_label
 _atom_site_symmetry_multiplicity
 _atom_site_fract_x
 _atom_site_fract_y
 _atom_site_fract_z
 _atom_site_occupancy
  V  V0  1  0.62492890  0.00667634  0.61191131  1
  V  V1  1  0.12561889  0.75107409  0.88336143  1
  V  V2  1  0.36848058  0.49416757  0.35793283  1
  V  V3  1  0.61926003  0.74779063  0.37336021  1
  V  V4  1  0.75072046  0.87476529  0.12479608  1
  V  V5  1  0.37289425  0.85851223  0.00100872  1
  V  V6  1  0.24017497  0.61591713  0.36863409  1
  V  V7  1  0.62226633  0.87091113  0.24930608  1
  V  V8  1  0.50619848  0.12587510  0.61158727  1
  V  V9  1  0.62695942  0.37344424  0.25450111  1
  V  V10  1  0.49674804  0.50061241  0.00115076  1
  V  V11  1  0.26699602  0.00538608  0.75212784  1
  V  V12  1  0.87133577  0.87275356  -0.00249332  1
  V  V13  1  0.50021895  0.37457324  0.37940557  1
  V  V14  1  0.25725610  0.86490630  0.62499221  1
  V  V15  1  0.13046865  0.00395201  0.62219882  1
  V  V16  1  0.74560579  0.12692905  0.38673743  1
  V  V17  1  0.12576696  0.87225306  0.25036824  1
  V  V18  1  0.24304463  0.11919692  0.38536640  1
  V  V19  1  0.00199034  0.61720522  0.60875620  1
  V  V20  1  0.87856138  0.87180959  0.50643234  1
  V  V21  1  0.63598327  0.25459677  0.87820844  1
  V  V22  1  0.00092596  0.00001426  -0.00036597  1
  V  V23  1  0.75067303  0.87684392  0.62324374  1
  V  V24  1  0.75417649  0.00382117  0.25110925  1
  V  V25  1  0.37282537  0.50403270  0.87072261  1
  V  V26  1  0.50177023  0.24672666  0.75309425  1
  V  V27  1  0.74904840  0.73715626  0.00144318  1
  V  V28  1  0.50381993  0.12394531  0.12921734  1
  V  V29  1  0.12637585  -0.00001919  0.12472751  1
  V  V30  1  0.37248366  0.64185336  0.24461481  1
  V  V31  1  0.62036643  0.50162648  0.12772296  1
  V  V32  1  0.74673586  0.25888201  0.50583393  1
  V  V33  1  0.00137897  0.13195219  0.12913296  1
  V  V34  1  0.87087082  -0.00130715  0.87282413  1
  V  V35  1  0.75176755  0.49784710  0.25264285  1
  V  V36  1  0.38123257  0.86889029  0.50183874  1
  V  V37  1  0.24039849  0.24203525  0.50619454  1
  V  V38  1  0.48815453  0.74027634  0.74424892  1
  V  V39  1  0.24685789  0.74658076  0.49394302  1
  V  V40  1  0.74812847  0.62425529  0.37660090  1
  V  V41  1  0.87527584  0.74578496  0.12400830  1
  V  V42  1  0.00587229  0.00698320  0.50053983  1
  V  V43  1  0.00732478  0.39080227  0.87597092  1
  V  V44  1  0.62109646  0.87619879  0.74762512  1
  V  V45  1  0.49539445  0.63698673  0.12909780  1
  V  V46  1  0.75198872  0.74971828  0.50178282  1
  V  V47  1  0.88192063  0.49490546  0.38702755  1
  V  V48  1  0.74508565  0.00434132  0.75057619  1
  V  V49  1  0.12443433  0.61999188  0.00092432  1
  V  V50  1  0.86410028  0.50434723  0.87453647  1
  V  V51  1  0.23696707  0.50113796  0.75579682  1
  V  V52  1  -0.00211631  0.60788602  0.12068700  1
  V  V53  1  0.14096191  0.48776987  0.12357860  1
  V  V54  1  0.24483842  0.37274474  0.63244913  1
  V  V55  1  0.37736686  0.12355926  0.25576263  1
  V  V56  1  0.87939787  0.25472351  0.62760813  1
  V  V57  1  0.63261111  0.13326821  0.00199964  1
  V  V58  1  0.50056557  0.37861224  0.86926754  1
  V  V59  1  -0.00046001  0.37159689  0.38214437  1
  V  V60  1  0.62612278  0.00043469  0.12494945  1
  V  V61  1  -0.00192653  0.87215490  0.87292511  1
  V  V62  1  0.62137227  0.75212500  0.87553927  1
  V  V63  1  0.36972812  0.25330622  0.12633400  1
  V  V64  1  0.25169970  -0.00061911  0.25214736  1
  V  V65  1  0.38172540  0.00094390  0.38366019  1
  V  V66  1  0.61450325  0.50491291  0.62937297  1
  V  V67  1  -0.00038437  0.74818454  0.24724391  1
  V  V68  1  0.87675347  0.00145933  0.37695039  1
  V  V69  1  0.12268199  0.23167372  0.86698598  1
  V  V70  1  0.11795115  0.24351418  0.37281065  1
  V  V71  1  0.37799891  0.24833081  0.63188389  1
  V  V72  1  0.49248393  -0.00019154  -0.00178467  1
  V  V73  1  0.25444857  0.86175421  0.12413255  1
  V  V74  1  0.36448633  0.37575063  0.00165976  1
  V  V75  1  0.87441283  0.62114343  0.24789480  1
  V  V76  1  -0.00249274  0.74923648  0.73818781  1
  V  V77  1  0.37091850  0.37601677  0.50146805  1
  V  V78  1  0.12999247  0.87470725  0.74957553  1
  V  V79  1  0.50143630  0.24920099  0.25159609  1
  V  V80  1  0.25239774  0.63189754  0.87552072  1
  V  V81  1  0.00073433  0.87442834  0.37508547  1
  V  V82  1  0.50159460  0.87731322  0.37508795  1
  V  V83  1  0.75974651  0.39034650  0.63049128  1
  V  V84  1  0.00255472  0.12934860  0.63142346  1
  Zn  Zn85  1  0.48927290  0.87806543  0.86888196  1
  Zn  Zn86  1  0.12872571  0.37715533  0.24873178  1
  Zn  Zn87  1  0.75578137  0.13319609  0.87771760  1
  Zn  Zn88  1  0.74891717  0.36310314  0.11544207  1
  Zn  Zn89  1  0.11423033  0.36408273  0.74677984  1
  Zn  Zn90  1  0.87557362  0.36605812  -0.00024908  1
  Zn  Zn91  1  0.11671720  0.49704747  0.60418660  1
  Zn  Zn92  1  0.87187427  0.62201440  0.74203257  1
  Zn  Zn93  1  0.49435788  0.51017885  0.49852499  1
  Zn  Zn94  1  0.13946123  0.11700861  -0.00502616  1
  Zn  Zn95  1  0.61615076  0.62697162  0.50360984  1
  Zn  Zn96  1  0.88386734  0.13662850  0.25701018  1
  Zn  Zn97  1  0.62156341  0.24484514  0.38535747  1
  Zn  Zn98  1  0.63210882  0.38231630  0.75264698  1
  Zn  Zn99  1  0.32354309  0.07156111  0.90434294  1
  Zn  Zn100  1  0.25347959  0.23772717  -0.01091363  1
  Zn  Zn101  1  0.61970611  0.62458951  -0.00278204  1
  Zn  Zn102  1  0.87719130  0.13054009  0.75328057  1
  Zn  Zn103  1  0.44009193  0.66147723  0.59509303  1
  Zn  Zn104  1  0.74435315  0.62370023  0.85778171  1
  Zn  Zn105  1  0.11972061  0.74040770  0.37778259  1
  Zn  Zn106  1  0.86281399  0.25085046  0.12282634  1
  Zn  Zn107  1  0.20251045  0.21445776  0.20491563  1
  Zn  Zn108  1  0.18934976  0.18266982  0.69264388  1
  Zn  Zn109  1  0.18462389  0.68152537  0.18835671  1
  Zn  Zn110  1  0.18520210  0.68472424  0.68725206  1
  Zn  Zn111  1  0.69273110  0.18940197  0.19434816  1
  Zn  Zn112  1  0.68715082  0.19095633  0.69042289  1
  Zn  Zn113  1  0.68599618  0.68501038  0.18804034  1
  Zn  Zn114  1  0.68291876  0.69010549  0.68441652  1
  Zn  Zn115  1  0.30609639  0.31151794  0.31333078  1
  Zn  Zn116  1  0.30975182  0.31069337  0.81443661  1
  Zn  Zn117  1  0.31033262  0.81273575  0.31427387  1
  Zn  Zn118  1  0.31239526  0.81572460  0.81734817  1
  Zn  Zn119  1  0.81710767  0.30985572  0.31176242  1
  Zn  Zn120  1  0.82071849  0.31938381  0.80882479  1
  Zn  Zn121  1  0.81233030  0.81281488  0.31499583  1
  Zn  Zn122  1  0.79824029  0.78756096  0.79641077  1
  Zn  Zn123  1  0.18441462  0.43162239  0.43631388  1
  Zn  Zn124  1  0.18355165  0.43794554  0.94006552  1
  Zn  Zn125  1  0.18832852  0.93260461  0.43879980  1
  Zn  Zn126  1  0.19253118  0.93436388  0.93740087  1
  Zn  Zn127  1  0.68657728  0.43952542  0.44458984  1
  Zn  Zn128  1  0.68755736  0.44114503  0.93804700  1
  Zn  Zn129  1  0.68972235  0.93667832  0.43615108  1
  Zn  Zn130  1  0.68355223  0.93754753  0.93745622  1
  Zn  Zn131  1  0.31311155  0.06296037  0.07404559  1
  Zn  Zn132  1  0.32045723  0.05985726  0.56833152  1
  Zn  Zn133  1  0.31065271  0.56875798  0.05874646  1
  Zn  Zn134  1  0.27902511  0.55189555  0.54954624  1
  Zn  Zn135  1  0.81568618  0.06763231  0.06128184  1
  Zn  Zn136  1  0.81598028  0.06616579  0.56358045  1
  Zn  Zn137  1  0.80301911  0.52839090  0.05048233  1
  Zn  Zn138  1  0.81680722  0.57032444  0.56520878  1
  Zn  Zn139  1  0.43931823  0.43451019  0.18520322  1
  Zn  Zn140  1  0.40439273  0.48847618  0.66227516  1
  Zn  Zn141  1  0.43713047  0.93391196  0.18841061  1
  Zn  Zn142  1  0.44323059  0.93841955  0.68057844  1
  Zn  Zn143  1  0.93945411  0.42022994  0.19511988  1
  Zn  Zn144  1  0.93997724  0.44038426  0.69419485  1
  Zn  Zn145  1  0.93648551  0.93816489  0.18700341  1
  Zn  Zn146  1  0.93865158  0.93852819  0.68772765  1
  Zn  Zn147  1  0.06618947  0.06347054  0.31150416  1
  Zn  Zn148  1  0.06330412  0.05584577  0.80823414  1
  Zn  Zn149  1  0.06123345  0.55312391  0.30296392  1
  Zn  Zn150  1  0.06134590  0.56680694  0.80843069  1
  Zn  Zn151  1  0.56623881  0.05993334  0.31703179  1
  Zn  Zn152  1  0.51843943  0.08435147  0.83429363  1
  Zn  Zn153  1  0.55627778  0.56241216  0.31289706  1
  Zn  Zn154  1  0.56061971  0.56573481  0.80857314  1
  Zn  Zn155  1  0.43318530  0.19189078  0.44182396  1
  Zn  Zn156  1  0.44793072  0.19567437  0.94513774  1
  Zn  Zn157  1  0.43338959  0.68767743  0.42321211  1
  Zn  Zn158  1  0.43967143  0.68718451  0.93544242  1
  Zn  Zn159  1  0.93123113  0.18910684  0.44602536  1
  Zn  Zn160  1  0.94272820  0.19198350  0.94126643  1
  Zn  Zn161  1  0.93454711  0.68545153  0.43544241  1
  Zn  Zn162  1  0.93785157  0.67989753  0.93529353  1
  Zn  Zn163  1  0.06563048  0.30844919  0.04645053  1
  Zn  Zn164  1  0.05972044  0.31371545  0.55615652  1
  Zn  Zn165  1  0.06213978  0.81261236  0.06333279  1
  Zn  Zn166  1  0.06797599  0.81389734  0.56177183  1
  Zn  Zn167  1  0.56074712  0.31555735  0.06294985  1
  Zn  Zn168  1  0.56634662  0.32024964  0.56630401  1
  Zn  Zn169  1  0.56049629  0.81404693  0.06153153  1
  Zn  Zn170  1  0.56336918  0.81222299  0.56174918  1
  O  O171  1  0.11814847  0.10735907  0.12297677  1
  O  O172  1  0.12130493  0.11097298  0.62809518  1
  O  O173  1  0.11868975  0.61659248  0.11794772  1
  O  O174  1  0.10692246  0.62137963  0.63262214  1
  O  O175  1  0.62045154  0.11977366  0.12337820  1
  O  O176  1  0.61635862  0.12084572  0.62715200  1
  O  O177  1  0.61426351  0.61426941  0.13073290  1
  O  O178  1  0.63092043  0.60978384  0.62281584  1
  O  O179  1  0.37777592  0.37508995  0.37760925  1
  O  O180  1  0.38249404  0.38024256  0.88314663  1
  O  O181  1  0.38404210  0.88100327  0.37776275  1
  O  O182  1  0.37446866  0.87423679  0.89495920  1
  O  O183  1  0.88207438  0.38679471  0.37389278  1
  O  O184  1  0.88090284  0.38975447  0.87636442  1
  O  O185  1  0.88125999  0.88162742  0.38353627  1
  O  O186  1  0.87870314  0.88422348  0.87953466  1
  O  O187  1  0.25802982  0.00219619  0.37293726  1
  O  O188  1  0.25156592  -0.00631096  0.85763699  1
  O  O189  1  0.25733930  0.50439407  0.36888510  1
  O  O190  1  0.25341713  0.50697777  0.87343744  1
  O  O191  1  0.75610010  0.00627065  0.37127702  1
  O  O192  1  0.75587255  -0.00115057  0.86772290  1
  O  O193  1  0.75464077  0.50221973  0.36777398  1
  O  O194  1  0.75795937  0.50768304  0.87082884  1
  O  O195  1  0.23969158  0.49727117  0.11674562  1
  O  O196  1  0.24962119  0.48498031  0.64407997  1
  O  O197  1  0.24271025  0.99315418  0.13460665  1
  O  O198  1  0.24759934  0.98884412  0.63044137  1
  O  O199  1  0.73742319  0.50789558  0.14416377  1
  O  O200  1  0.74740397  0.49240535  0.61852495  1
  O  O201  1  0.74792996  0.99675242  0.13406505  1
  O  O202  1  0.74573360  0.99728570  0.63092829  1
  O  O203  1  0.01209098  0.38056516  0.27216171  1
  O  O204  1  -0.00134293  0.37298467  0.76836789  1
  O  O205  1  0.00266288  0.86698356  0.25425230  1
  O  O206  1  0.01301655  0.87273879  0.75235378  1
  O  O207  1  0.50947071  0.37059359  0.25803209  1
  O  O208  1  0.50282161  0.36940323  0.76501445  1
  O  O209  1  0.51041814  0.87981355  0.26125924  1
  O  O210  1  0.51067046  0.87278046  0.74906346  1
  O  O211  1  0.49825269  0.12904205  0.24983640  1
  O  O212  1  0.50767373  0.14405914  0.73670832  1
  O  O213  1  0.48248218  0.61864671  0.24277483  1
  O  O214  1  0.49426203  0.63968311  0.75039890  1
  O  O215  1  0.99890285  0.11072583  0.23255973  1
  O  O216  1  0.99688668  0.11372098  0.73444074  1
  O  O217  1  0.99509543  0.63119308  0.24110638  1
  O  O218  1  0.99824879  0.64267357  0.74815373  1
  O  O219  1  0.37799095  0.25957160  0.00772590  1
  O  O220  1  0.36781639  0.25885241  0.51168735  1
  O  O221  1  0.37862202  0.76000575  0.00357569  1
  O  O222  1  0.36862216  0.76162119  0.49155232  1
  O  O223  1  0.87538393  0.24877766  0.00706807  1
  O  O224  1  0.86119112  0.24901865  0.51629759  1
  O  O225  1  0.86666477  0.75228774  0.00341816  1
  O  O226  1  0.86528572  0.76078361  0.49114677  1
  O  O227  1  0.13736934  0.24475687  0.49872925  1
  O  O228  1  0.13332351  0.23737556  0.98720736  1
  O  O229  1  0.14067911  0.75720504  0.49420849  1
  O  O230  1  0.12157638  0.74787247  0.98797211  1
  O  O231  1  0.64080998  0.25518773  0.50286471  1
  O  O232  1  0.61819420  0.24369693  0.99258441  1
  O  O233  1  0.63187583  0.74998988  0.48942019  1
  O  O234  1  0.62955498  0.74954979  0.99275867  1
  O  O235  1  0.49426743  0.24333725  0.13134184  1
  O  O236  1  0.49711835  0.24876589  0.63082644  1
  O  O237  1  0.50799240  0.73594493  0.12623599  1
  O  O238  1  0.50004480  0.74941080  0.63625306  1
  O  O239  1  1.01211259  0.23091564  0.11989818  1
  O  O240  1  0.99389228  0.24081847  0.61619906  1
  O  O241  1  0.99491822  0.74655255  0.13470534  1
  O  O242  1  1.00926464  0.74688099  0.63462935  1
  O  O243  1  0.00696295  0.25602776  0.39222784  1
  O  O244  1  0.01900585  0.24980059  0.87602918  1
  O  O245  1  -0.00087237  0.75270807  0.36278100  1
  O  O246  1  0.00793183  0.75557963  0.86662543  1
  O  O247  1  0.49921867  0.25940575  0.37174360  1
  O  O248  1  0.51083620  0.26161768  0.86930446  1
  O  O249  1  0.51333429  0.75750709  0.37186612  1
  O  O250  1  0.50585127  0.75513934  0.86654515  1
  O  O251  1  0.26148142  0.12982839  0.49631909  1
  O  O252  1  0.25824600  0.11507692  0.98996871  1
  O  O253  1  0.26707549  0.64059406  0.47711949  1
  O  O254  1  0.23688661  0.62644971  0.98922015  1
  O  O255  1  0.75370518  0.13698365  0.49617301  1
  O  O256  1  0.73542133  0.11544785  0.99528913  1
  O  O257  1  0.74942226  0.63536083  0.49348722  1
  O  O258  1  0.74519841  0.63304198  1.00480979  1
  O  O259  1  0.26299379  0.37210954  -0.00513112  1
  O  O260  1  0.25515695  0.35945391  0.50816118  1
  O  O261  1  0.26438308  0.87932099  0.00984281  1
  O  O262  1  0.26018957  0.86723086  0.50518338  1
  O  O263  1  0.76477084  0.41621328  0.01388675  1
  O  O264  1  0.75095086  0.36628662  0.51133014  1
  O  O265  1  0.75289342  0.86850865  0.00849934  1
  O  O266  1  0.75972219  0.87100019  0.50232437  1
  O  O267  1  0.12882990  0.49752763  0.22903232  1
  O  O268  1  0.13205283  0.49423619  0.75240846  1
  O  O269  1  0.13079957  0.99181516  0.24342231  1
  O  O270  1  0.13437068  0.98793891  0.74240255  1
  O  O271  1  0.62720779  0.49292603  0.24833112  1
  O  O272  1  0.62151230  0.50053351  0.73609097  1
  O  O273  1  0.63369846  0.99026804  0.24633801  1
  O  O274  1  0.63772459  0.99146776  0.74259941  1
  O  O275  1  0.37161750  0.00341993  0.26236580  1
  O  O276  1  0.36592379  -0.00884868  0.74679761  1
  O  O277  1  0.37388861  0.49416454  0.25651376  1
  O  O278  1  0.36052107  0.49132401  0.76836831  1
  O  O279  1  0.86768851  -0.00105688  0.25877877  1
  O  O280  1  0.86249497  -0.00379603  0.75660529  1
  O  O281  1  0.86522688  0.50288207  0.25644867  1
  O  O282  1  0.88213378  0.50727015  0.76703487  1
  O  O283  1  0.12406213  0.35891859  0.37304347  1
  O  O284  1  0.11474259  0.37276757  0.87410363  1
  O  O285  1  0.11684135  0.87398917  0.36658775  1
  O  O286  1  0.12162616  0.86946341  0.86840402  1
  O  O287  1  0.61567308  0.37507182  0.37173860  1
  O  O288  1  0.61919924  0.37317094  0.87655819  1
  O  O289  1  0.62006598  0.87096731  0.36905072  1
  O  O290  1  0.62473328  0.86463867  0.86601394  1
  O  O291  1  0.38755211  0.12734441  0.13706128  1
  O  O292  1  0.39198507  0.13576704  0.62224355  1
  O  O293  1  0.37832072  0.62204134  0.13725975  1
  O  O294  1  0.36422545  0.58729658  0.61903922  1
  O  O295  1  0.89347261  0.11935542  0.12603740  1
  O  O296  1  0.88531641  0.13270993  0.62797262  1
  O  O297  1  0.88198072  0.62867179  0.12979989  1
  O  O298  1  0.89378767  0.62687373  0.62712406  1
  O  O299  1  0.27012959  0.22946934  0.11284822  1
  O  O300  1  0.25805806  0.25127009  0.62432615  1
  O  O301  1  0.24258721  0.76315975  0.13013092  1
  O  O302  1  0.24655171  0.75845970  0.61753971  1
  O  O303  1  0.74324093  0.25038066  0.11943876  1
  O  O304  1  0.75369100  0.25986173  0.61925008  1
  O  O305  1  0.75374034  0.75354094  0.11919294  1
  O  O306  1  0.74014697  0.76110416  0.60753292  1
  O  O307  1  0.24379902  0.23640477  0.38826766  1
  O  O308  1  0.23290171  0.25243375  0.87348215  1
  O  O309  1  0.24435920  0.74347764  0.37773792  1
  O  O310  1  0.23921131  0.74294502  0.86861924  1
  O  O311  1  0.75165300  0.24564362  0.39031544  1
  O  O312  1  0.73954719  0.25408182  0.86949408  1
  O  O313  1  0.74010590  0.74803773  0.38199773  1
  O  O314  1  0.73959522  0.75440176  0.89026668  1
  O  O315  1  0.00396608  0.10822627  0.00883421  1
  O  O316  1  -0.00400639  0.11063876  0.50974849  1
  O  O317  1  0.01260375  0.63501190  0.01093385  1
  O  O318  1  0.00215165  0.63211200  0.51012705  1
  O  O319  1  0.51269711  0.11746279  0.01128879  1
  O  O320  1  0.50438763  0.13512606  0.51266812  1
  O  O321  1  0.49796936  0.61851158  0.00993089  1
  O  O322  1  0.49635637  0.62858276  0.49772841  1
  O  O323  1  0.49006961  0.37184123  0.49209506  1
  O  O324  1  0.49361262  0.38291547  0.99039838  1
  O  O325  1  0.49499690  0.86979134  0.48639591  1
  O  O326  1  0.48630791  0.88191203  1.00572722  1
  O  O327  1  1.01496022  0.38858635  0.48278902  1
  O  O328  1  0.99562711  0.37015854  0.97933054  1
  O  O329  1  0.99468673  0.88003912  0.49581303  1
  O  O330  1  0.99332187  0.88142454  0.99451630  1
  O  O331  1  0.49006164  0.48763573  0.37629539  1
  O  O332  1  0.49201470  0.49818181  0.87858016  1
  O  O333  1  0.49294618  0.99260469  0.37498785  1
  O  O334  1  0.51772981  0.98862740  0.89395825  1
  O  O335  1  0.98609613  0.50014879  0.37297044  1
  O  O336  1  1.00157527  0.49343895  0.87459154  1
  O  O337  1  0.99797932  0.99621811  0.38289233  1
  O  O338  1  0.99404636  0.99204379  0.88031588  1
  O  O339  1  0.00803280  -0.00425480  0.11552652  1
  O  O340  1  0.01051383  0.00257892  0.61853379  1
  O  O341  1  0.00059036  0.50794814  0.12995152  1
  O  O342  1  0.00199247  0.51088848  0.62327628  1
  O  O343  1  0.50688616  0.00461923  0.12193074  1
  O  O344  1  0.50882919  0.01780622  0.62702412  1
  O  O345  1  0.50484010  0.50594636  0.12112887  1
  O  O346  1  0.51205789  0.49143184  0.61910511  1
  O  O347  1  0.22880760  0.32519144  0.23658949  1
  O  O348  1  0.24363645  0.37830734  0.74517446  1
  O  O349  1  0.24656866  0.88074946  0.24500815  1
  O  O350  1  0.24704269  0.87731112  0.74131780  1
  O  O351  1  0.73691986  0.38197744  0.25489938  1
  O  O352  1  0.75001369  0.37582619  0.73322017  1
  O  O353  1  0.74569561  0.88512755  0.24699547  1
  O  O354  1  0.73923986  0.87546457  0.74103419  1
  O  O355  1  0.25811655  0.11990700  0.26343635  1
  O  O356  1  0.25650732  0.10451408  0.74222014  1
  O  O357  1  0.26324191  0.62823520  0.25407315  1
  O  O358  1  0.24146315  0.61612873  0.76464031  1
  O  O359  1  0.75122303  0.11230261  0.25977146  1
  O  O360  1  0.75126467  0.11629682  0.75539281  1
  O  O361  1  0.75375571  0.61855230  0.25808152  1
  O  O362  1  0.76748438  0.67347728  0.75541210  1
  O  O363  1  0.37054894  0.11720457  0.37548414  1
  O  O364  1  0.41259979  0.12400018  0.86722068  1
  O  O365  1  0.36969139  0.61381761  0.35755890  1
  O  O366  1  0.36403379  0.61743493  0.88278049  1
  O  O367  1  0.86647576  0.11848818  0.37612725  1
  O  O368  1  0.87689080  0.11076433  0.87399568  1
  O  O369  1  0.86872502  0.61546367  0.36722803  1
  O  O370  1  0.87064836  0.61974241  0.86725599  1
  O  O371  1  0.11841390  0.38708603  0.11646319  1
  O  O372  1  0.13379181  0.37348517  0.62600440  1
  O  O373  1  0.13112956  0.88257566  0.12936740  1
  O  O374  1  0.13575133  0.88200133  0.63189862  1
  O  O375  1  0.62256622  0.38701137  0.13515355  1
  O  O376  1  0.63813630  0.38973536  0.62625600  1
  O  O377  1  0.62973847  0.87912024  0.13286013  1
  O  O378  1  0.62727166  0.88434718  0.63033283  1
  O  O379  1  0.11099634  0.22293903  0.27442737  1
  O  O380  1  0.12648662  0.24658858  0.76115219  1
  O  O381  1  0.11428536  0.75446095  0.24984478  1
  O  O382  1  0.11910321  0.76074836  0.75635995  1
  O  O383  1  0.61927892  0.25808312  0.25850840  1
  O  O384  1  0.61896082  0.25850351  0.75889966  1
  O  O385  1  0.63493889  0.76418040  0.25704472  1
  O  O386  1  0.61410384  0.75838921  0.75537224  1
  O  O387  1  0.38328438  0.24396585  0.24459666  1
  O  O388  1  0.38412684  0.26123933  0.73752584  1
  O  O389  1  0.37739855  0.74012110  0.25307279  1
  O  O390  1  0.39077244  0.76061172  0.75348349  1
  O  O391  1  0.87117203  0.24683527  0.23951902  1
  O  O392  1  0.86946997  0.24703598  0.73418360  1
  O  O393  1  0.87958663  0.74360550  0.24579155  1
  O  O394  1  0.89983032  0.76930322  0.74727622  1
  O  O395  1  0.37170988  0.48251343  0.48453554  1
  O  O396  1  0.37765556  0.49449618  0.99223944  1
  O  O397  1  0.37167975  0.98745580  0.48950753  1
  O  O398  1  0.38762042  1.00283924  1.00219304  1
  O  O399  1  0.86795823  0.50475884  0.48373289  1
  O  O400  1  0.88707344  0.51374108  0.97584369  1
  O  O401  1  0.88398488  0.99289927  0.49551756  1
  O  O402  1  0.88100164  0.99378691  0.99329809  1
  O  O403  1  0.11858285  -0.00492192  0.00601632  1
  O  O404  1  0.11764437  -0.01009615  0.51052260  1
  O  O405  1  0.12385283  0.51013835  0.00961078  1
  O  O406  1  0.17503984  0.51297280  0.50959903  1
  O  O407  1  0.61983116  0.00377605  0.01112958  1
  O  O408  1  0.63123447  -0.00330903  0.51296086  1
  O  O409  1  0.61560851  0.50423284  0.01144720  1
  O  O410  1  0.61918444  0.50478338  0.51007618  1
  O  O411  1  0.38194863  0.36393513  0.11583424  1
  O  O412  1  0.36323381  0.37503023  0.61734009  1
  O  O413  1  0.36634320  0.88004812  0.11540905  1
  O  O414  1  0.37020183  0.87888684  0.61278140  1
  O  O415  1  0.87053852  0.37621994  0.12120069  1
  O  O416  1  0.86667886  0.37347476  0.62762282  1
  O  O417  1  0.86955044  0.86670156  0.11912259  1
  O  O418  1  0.87096217  0.88108217  0.61223028  1
  O  O419  1  0.13809685  0.11835943  0.38430010  1
  O  O420  1  0.12302934  0.12707949  0.87378777  1
  O  O421  1  0.13671617  0.62118994  0.36174766  1
  O  O422  1  0.12729099  0.63251290  0.88266260  1
  O  O423  1  0.64069689  0.12606248  0.37380992  1
  O  O424  1  0.62079902  0.13862750  0.88574629  1
  O  O425  1  0.62867168  0.63296192  0.37340372  1
  O  O426  1  0.62590873  0.63775090  0.87488658  1
