# generated using pymatgen
data_V85Zn86O256
_symmetry_space_group_name_H-M   'P 1'
_cell_length_a   16.91961366
_cell_length_b   16.92243588
_cell_length_c   16.91879843
_cell_angle_alpha   90.08593461
_cell_angle_beta   89.95827615
_cell_angle_gamma   90.01439864
_symmetry_Int_Tables_number   1
_chemical_formula_structural   V85Zn86O256
_chemical_formula_sum   'V85 Zn86 O256'
_cell_volume   4844.20170556
_cell_formula_units_Z   1
loop_
 _symmetry_equiv_pos_site_id
 _symmetry_equiv_pos_as_xyz
  1  'x, y, z'
loop_
 _atom_site_type_symbol
 _atom_site_label
 _atom_site_symmetry_multiplicity
 _atom_site_fract_x
 _atom_site_fract_y
 _atom_site_fract_z
 _atom_site_occupancy
  V  V0  1  0.61913877  0.87767422  0.25565467  1
  V  V1  1  0.06504523  0.32118389  0.81323358  1
  V  V2  1  0.50074128  0.87751789  0.87256317  1
  V  V3  1  0.25002469  0.88056472  0.12857165  1
  V  V4  1  0.62103169  0.13124117  0.48888795  1
  V  V5  1  0.37482006  0.00568589  0.86482131  1
  V  V6  1  -0.00119199  0.50027830  0.49859361  1
  V  V7  1  0.75412799  0.37482915  0.62948080  1
  V  V8  1  0.87301042  0.62789189  0.74658154  1
  V  V9  1  0.24972114  0.37218843  0.62503293  1
  V  V10  1  0.36808490  0.12292759  0.24921429  1
  V  V11  1  0.50216933  0.74543240  0.24543642  1
  V  V12  1  0.37395291  -0.00526291  0.36821880  1
  V  V13  1  0.75070933  0.87146979  0.12387387  1
  V  V14  1  0.12557810  0.24823936  0.37354459  1
  V  V15  1  0.00175146  0.49645907  0.00099620  1
  V  V16  1  0.11932818  0.00287820  0.12701569  1
  V  V17  1  0.11612401  0.11820266  0.49831019  1
  V  V18  1  0.12674425  0.87977959  0.25847198  1
  V  V19  1  0.82484881  0.18983402  0.68391273  1
  V  V20  1  0.61618780  0.37538895  0.75200282  1
  V  V21  1  0.74650754  0.50411089  0.75486770  1
  V  V22  1  0.49782622  0.00166897  -0.00159211  1
  V  V23  1  0.62557324  0.50646775  0.13388566  1
  V  V24  1  -0.00335111  0.23601325  0.24541574  1
  V  V25  1  0.11863413  0.12596469  -0.00013839  1
  V  V26  1  0.87228198  0.01511358  0.86781387  1
  V  V27  1  0.24866109  0.62827100  0.87491141  1
  V  V28  1  0.00211541  0.13848699  0.63686490  1
  V  V29  1  0.11352208  -0.00387340  0.62234515  1
  V  V30  1  0.86378947  0.62272887  0.25406797  1
  V  V31  1  0.25052254  0.75305464  0.00103539  1
  V  V32  1  0.87728229  0.23796045  0.12603480  1
  V  V33  1  0.63114164  0.87782657  0.74446386  1
  V  V34  1  0.87832871  0.49543287  0.87730472  1
  V  V35  1  -0.00203852  0.75447590  0.25709634  1
  V  V36  1  0.37578914  0.25029067  0.12777670  1
  V  V37  1  0.75493601  0.74825352  0.49765381  1
  V  V38  1  0.49910509  0.12609375  0.12497994  1
  V  V39  1  0.75202727  0.25383173  -0.00387204  1
  V  V40  1  0.37957009  0.37523313  0.00186137  1
  V  V41  1  0.37610855  0.24719678  0.63746545  1
  V  V42  1  0.24892148  0.12807172  0.86787384  1
  V  V43  1  0.50210633  0.62514206  0.62353548  1
  V  V44  1  0.37451586  0.75001066  0.62231911  1
  V  V45  1  0.12184277  0.37773329  0.24539467  1
  V  V46  1  0.24872837  0.11886783  0.37547835  1
  V  V47  1  0.62255262  0.75161251  0.37610852  1
  V  V48  1  0.75070225  0.24871367  0.48727480  1
  V  V49  1  0.49965837  0.49803795  0.49796926  1
  V  V50  1  0.24351089  0.50776025  0.25387967  1
  V  V51  1  0.88860407  0.00349655  0.37416064  1
  V  V52  1  0.37094105  0.50150933  0.37606727  1
  V  V53  1  0.87587671  0.36956265  0.50271038  1
  V  V54  1  0.50237955  0.75240889  0.74891340  1
  V  V55  1  0.87495781  0.74798939  0.11933996  1
  V  V56  1  0.38051488  0.62145137  0.24483229  1
  V  V57  1  -0.00105576  0.75127810  0.74788295  1
  V  V58  1  0.63205785  0.36593876  0.25511385  1
  V  V59  1  -0.00073042  0.62889031  0.62411301  1
  V  V60  1  0.63523936  0.75180804  0.88171565  1
  V  V61  1  0.37460764  0.62732171  0.74959592  1
  V  V62  1  0.38020733  0.87230563  0.49395161  1
  V  V63  1  0.12218284  0.49466900  0.62861798  1
  V  V64  1  0.24530399  0.49757028  0.75086975  1
  V  V65  1  0.49378205  0.12503994  0.63264355  1
  V  V66  1  0.88736434  0.87344102  0.49063877  1
  V  V67  1  -0.00025751  0.87696558  0.87531482  1
  V  V68  1  0.25013427  0.87601394  0.62423158  1
  V  V69  1  0.75568627  0.00524523  0.25218937  1
  V  V70  1  0.61870007  0.24898137  0.87450488  1
  V  V71  1  0.62696960  0.00011787  0.12454172  1
  V  V72  1  0.37765155  0.50131398  0.87680892  1
  V  V73  1  0.13289366  0.74034939  0.37304505  1
  V  V74  1  0.00142213  0.62040843  0.12802423  1
  V  V75  1  0.24469489  0.25016119  -0.00344176  1
  V  V76  1  -0.00122518  0.37380052  0.37246741  1
  V  V77  1  0.87207768  0.87454969  -0.00251096  1
  V  V78  1  0.86327306  0.50299107  0.37262451  1
  V  V79  1  0.12579931  0.62167793  0.00505165  1
  V  V80  1  0.24865403  0.38117568  0.12774897  1
  V  V81  1  0.63091488  0.62251391  0.49334604  1
  V  V82  1  0.75991146  0.87638945  0.61965634  1
  V  V83  1  0.63398364  0.12459095  -0.00442394  1
  V  V84  1  0.50060801  -0.00014000  0.49342313  1
  Zn  Zn85  1  0.87866621  0.37495123  0.00289621  1
  Zn  Zn86  1  0.62455127  0.49974843  0.62581456  1
  Zn  Zn87  1  -0.00330130  0.00598098  0.00267934  1
  Zn  Zn88  1  0.49615771  0.37195971  0.87208925  1
  Zn  Zn89  1  0.37617172  0.36895781  0.49864174  1
  Zn  Zn90  1  0.25076042  0.00538904  0.74454578  1
  Zn  Zn91  1  0.49939506  0.51255576  0.01039402  1
  Zn  Zn92  1  0.24949734  0.24698551  0.50269927  1
  Zn  Zn93  1  0.62866812  0.00115846  0.61979322  1
  Zn  Zn94  1  0.75504219  0.63211467  0.88804052  1
  Zn  Zn95  1  0.50528476  0.24467941  0.26521447  1
  Zn  Zn96  1  0.62572075  0.62814366  0.01032026  1
  Zn  Zn97  1  0.12649705  0.87514234  0.75062857  1
  Zn  Zn98  1  0.75389272  0.38025112  0.12811705  1
  Zn  Zn99  1  0.75572328  0.00961255  0.74659121  1
  Zn  Zn100  1  0.13190425  0.61997426  0.49521015  1
  Zn  Zn101  1  0.37956450  0.74770069  0.12248668  1
  Zn  Zn102  1  0.50294982  0.36776410  0.37593799  1
  Zn  Zn103  1  0.37274525  0.87719044  -0.00001169  1
  Zn  Zn104  1  0.12385275  0.75119184  0.87433338  1
  Zn  Zn105  1  0.75223521  0.12567918  0.36900288  1
  Zn  Zn106  1  0.25605051  0.74199100  0.49300503  1
  Zn  Zn107  1  0.18792912  0.18820631  0.18612135  1
  Zn  Zn108  1  0.18117643  0.19044516  0.69050785  1
  Zn  Zn109  1  0.18801519  0.68950870  0.18641828  1
  Zn  Zn110  1  0.18541164  0.68716392  0.68321515  1
  Zn  Zn111  1  0.69045060  0.18907819  0.18319865  1
  Zn  Zn112  1  0.66084168  0.19139745  0.68160007  1
  Zn  Zn113  1  0.68910759  0.68841501  0.18720067  1
  Zn  Zn114  1  0.68951125  0.69152060  0.68220510  1
  Zn  Zn115  1  0.31410589  0.31242388  0.31457869  1
  Zn  Zn116  1  0.30484416  0.31462236  0.81270100  1
  Zn  Zn117  1  0.31267427  0.81124837  0.30811854  1
  Zn  Zn118  1  0.31346155  0.81628976  0.81247230  1
  Zn  Zn119  1  0.81595061  0.31329284  0.30878539  1
  Zn  Zn120  1  0.80662775  0.31660161  0.82028734  1
  Zn  Zn121  1  0.80879705  0.81323382  0.31346111  1
  Zn  Zn122  1  0.81681205  0.81570826  0.80731525  1
  Zn  Zn123  1  0.18705671  0.43689658  0.43706939  1
  Zn  Zn124  1  0.18724320  0.43925611  0.94014246  1
  Zn  Zn125  1  0.18986187  0.93505990  0.43906926  1
  Zn  Zn126  1  0.18616318  0.94143255  0.93792109  1
  Zn  Zn127  1  0.68653874  0.43413136  0.43844317  1
  Zn  Zn128  1  0.68521261  0.44002745  0.94258146  1
  Zn  Zn129  1  0.68975867  0.93820238  0.43516899  1
  Zn  Zn130  1  0.69274757  0.93854321  0.93435286  1
  Zn  Zn131  1  0.30862348  0.06169438  0.05880564  1
  Zn  Zn132  1  0.31106658  0.06141083  0.55962485  1
  Zn  Zn133  1  0.31195804  0.56231829  0.06568891  1
  Zn  Zn134  1  0.31139551  0.56293122  0.56046181  1
  Zn  Zn135  1  0.81399130  0.05988088  0.05936403  1
  Zn  Zn136  1  0.81352248  0.05776602  0.55246593  1
  Zn  Zn137  1  0.80418516  0.56397000  0.06228685  1
  Zn  Zn138  1  0.81242451  0.56128522  0.56386059  1
  Zn  Zn139  1  0.44477888  0.43552389  0.19244109  1
  Zn  Zn140  1  0.43381804  0.43838771  0.68488794  1
  Zn  Zn141  1  0.43772229  0.93509364  0.18652603  1
  Zn  Zn142  1  0.43888441  0.93934605  0.68343568  1
  Zn  Zn143  1  0.93257448  0.43563786  0.18618503  1
  Zn  Zn144  1  0.93570686  0.43519309  0.69052805  1
  Zn  Zn145  1  0.94031433  0.93798836  0.18968775  1
  Zn  Zn146  1  0.93727878  0.93923862  0.68489880  1
  Zn  Zn147  1  0.06482850  0.05893851  0.30956074  1
  Zn  Zn148  1  0.06521871  0.06163196  0.81208496  1
  Zn  Zn149  1  0.05576927  0.56182785  0.30985103  1
  Zn  Zn150  1  0.06197976  0.56022664  0.81491970  1
  Zn  Zn151  1  0.55918125  0.06324074  0.31215539  1
  Zn  Zn152  1  0.56804079  0.06200711  0.81235573  1
  Zn  Zn153  1  0.56433841  0.55826415  0.31160895  1
  Zn  Zn154  1  0.56132169  0.56613454  0.81802229  1
  Zn  Zn155  1  0.43242085  0.19001241  0.44282432  1
  Zn  Zn156  1  0.43624785  0.18715252  0.93702448  1
  Zn  Zn157  1  0.43992859  0.68377314  0.42975718  1
  Zn  Zn158  1  0.44156921  0.68946960  0.93930425  1
  Zn  Zn159  1  0.93846560  0.18547875  0.43855624  1
  Zn  Zn160  1  0.94189374  0.19509960  0.93245028  1
  Zn  Zn161  1  0.93947929  0.68846578  0.43558449  1
  Zn  Zn162  1  0.93754330  0.68562659  0.93585651  1
  Zn  Zn163  1  0.06133377  0.31051515  0.06354419  1
  Zn  Zn164  1  0.06639897  0.31189299  0.56174726  1
  Zn  Zn165  1  0.06235466  0.81237338  0.06441553  1
  Zn  Zn166  1  0.06418216  0.80899355  0.55997227  1
  Zn  Zn167  1  0.56460664  0.31632873  0.06902642  1
  Zn  Zn168  1  0.56273711  0.31012596  0.56293042  1
  Zn  Zn169  1  0.56111416  0.81521217  0.06321664  1
  Zn  Zn170  1  0.56416357  0.81418079  0.56110284  1
  O  O171  1  0.13656610  0.11319994  0.11616677  1
  O  O172  1  0.11645278  0.11919361  0.61886550  1
  O  O173  1  0.11496199  0.63099451  0.11756390  1
  O  O174  1  0.11555361  0.61270370  0.62375542  1
  O  O175  1  0.61920564  0.11832185  0.11717664  1
  O  O176  1  0.61047360  0.12034547  0.61055207  1
  O  O177  1  0.62557370  0.61220370  0.13353626  1
  O  O178  1  0.61770394  0.62646754  0.61378170  1
  O  O179  1  0.37584392  0.38673269  0.37806062  1
  O  O180  1  0.37277610  0.38316132  0.88356055  1
  O  O181  1  0.36861279  0.88271527  0.38101562  1
  O  O182  1  0.38340559  0.88400428  0.87749558  1
  O  O183  1  0.88152751  0.38229683  0.37955439  1
  O  O184  1  0.87004663  0.39174361  0.88024063  1
  O  O185  1  0.87250731  0.88163306  0.38414709  1
  O  O186  1  0.88332316  0.87704403  0.88161144  1
  O  O187  1  0.25787706  0.01036982  0.37793848  1
  O  O188  1  0.25925332  0.00688858  0.87363337  1
  O  O189  1  0.25655294  0.49516194  0.36543586  1
  O  O190  1  0.25908529  0.50583129  0.86917887  1
  O  O191  1  0.75851127  0.00064152  0.36590401  1
  O  O192  1  0.76695924  -0.00180015  0.86976268  1
  O  O193  1  0.76475701  0.49946714  0.38601112  1
  O  O194  1  0.75376557  0.50523380  0.86625203  1
  O  O195  1  0.25268448  0.48700120  0.13312783  1
  O  O196  1  0.24325512  0.49515350  0.63273335  1
  O  O197  1  0.24117890  0.98652161  0.11681153  1
  O  O198  1  0.24380702  0.99185084  0.62425425  1
  O  O199  1  0.73441104  0.49636243  0.12456537  1
  O  O200  1  0.74763524  0.49218367  0.63611193  1
  O  O201  1  0.74887332  0.98975527  0.13029009  1
  O  O202  1  0.74949846  0.99198946  0.62440262  1
  O  O203  1  0.00739132  0.36980650  0.25324574  1
  O  O204  1  0.00961988  0.38862344  0.75836588  1
  O  O205  1  0.01242229  0.86411096  0.24251962  1
  O  O206  1  -0.00138155  0.86696325  0.75516402  1
  O  O207  1  0.51254451  0.36646146  0.25272150  1
  O  O208  1  0.51278262  0.38243131  0.74863147  1
  O  O209  1  0.51365213  0.87032266  0.24721531  1
  O  O210  1  0.51027941  0.87334654  0.75083526  1
  O  O211  1  0.48863043  0.12552224  0.24296205  1
  O  O212  1  0.50720017  0.11725571  0.73124225  1
  O  O213  1  0.49313826  0.63253839  0.25432413  1
  O  O214  1  0.49500918  0.63156107  0.74457284  1
  O  O215  1  1.00576800  0.13716707  0.25069425  1
  O  O216  1  1.00332044  0.12414789  0.73563538  1
  O  O217  1  0.99381732  0.63370256  0.24221323  1
  O  O218  1  0.99424532  0.62972946  0.74399305  1
  O  O219  1  0.36572096  0.25613140  0.00689638  1
  O  O220  1  0.36677517  0.25101907  0.51510099  1
  O  O221  1  0.36269648  0.75166718  0.00006931  1
  O  O222  1  0.37916184  0.75647747  0.50052689  1
  O  O223  1  0.86956338  0.25123497  0.00612044  1
  O  O224  1  0.86690708  0.25863333  0.49557560  1
  O  O225  1  0.88066237  0.75599121  0.01226336  1
  O  O226  1  0.86757129  0.76083319  0.49030887  1
  O  O227  1  0.12779888  0.24127831  0.49052360  1
  O  O228  1  0.13787327  0.24350282  1.00964080  1
  O  O229  1  0.12389480  0.75061883  0.48077764  1
  O  O230  1  0.13445354  0.74176772  0.99947654  1
  O  O231  1  0.63714303  0.24198202  0.50717184  1
  O  O232  1  0.63134582  0.24367406  0.99801518  1
  O  O233  1  0.62856911  0.74395864  0.49288436  1
  O  O234  1  0.62289815  0.75967979  0.98326120  1
  O  O235  1  0.48993603  0.24066687  0.12128050  1
  O  O236  1  0.49292447  0.23497685  0.62141666  1
  O  O237  1  0.49987677  0.75569577  0.13937581  1
  O  O238  1  0.49525694  0.74586831  0.62920957  1
  O  O239  1  0.98735052  0.25203161  0.13088330  1
  O  O240  1  1.00355743  0.23770581  0.62356809  1
  O  O241  1  0.99281914  0.74229248  0.13251679  1
  O  O242  1  1.00515665  0.73679801  0.63013262  1
  O  O243  1  0.00399428  0.25472587  0.36672554  1
  O  O244  1  0.00451860  0.26787394  0.87634477  1
  O  O245  1  0.00931925  0.74856076  0.36221019  1
  O  O246  1  0.00073737  0.75775455  0.86752094  1
  O  O247  1  0.49667447  0.25309756  0.37907800  1
  O  O248  1  0.51257140  0.25300962  0.88167745  1
  O  O249  1  0.51383497  0.74819664  0.36475672  1
  O  O250  1  0.50842578  0.76062942  0.86630563  1
  O  O251  1  0.23896901  0.12470185  0.49181875  1
  O  O252  1  0.24399380  0.13402629  0.99313047  1
  O  O253  1  0.24434506  0.62981750  0.50458455  1
  O  O254  1  0.24373758  0.63085931  0.99796708  1
  O  O255  1  0.74155667  0.13308816  0.49895250  1
  O  O256  1  0.73829514  0.12986561  1.00452303  1
  O  O257  1  0.74263206  0.63350232  0.50674860  1
  O  O258  1  0.73993238  0.63098888  1.00011042  1
  O  O259  1  0.25743386  0.37056182  0.00836740  1
  O  O260  1  0.24918110  0.37538516  0.51388712  1
  O  O261  1  0.24837854  0.86726836  0.00489345  1
  O  O262  1  0.26192483  0.86982580  0.50812732  1
  O  O263  1  0.75238979  0.36577423  0.00303254  1
  O  O264  1  0.75262987  0.36609984  0.51001802  1
  O  O265  1  0.76331872  0.87908968  0.00746116  1
  O  O266  1  0.75679160  0.86892195  0.50381709  1
  O  O267  1  0.13112674  0.49067426  0.25637559  1
  O  O268  1  0.13737691  0.50844719  0.74349671  1
  O  O269  1  0.12568952  0.99010488  0.24262402  1
  O  O270  1  0.12854845  0.99523735  0.73794529  1
  O  O271  1  0.62273090  0.48834599  0.24184185  1
  O  O272  1  0.63179367  0.49701125  0.75081642  1
  O  O273  1  0.62902893  0.99376678  0.24489585  1
  O  O274  1  0.63274291  0.98889000  0.74865963  1
  O  O275  1  0.38046638  0.00526012  0.26067029  1
  O  O276  1  0.37418927  -0.00305762  0.76083494  1
  O  O277  1  0.36888086  0.50346169  0.25566895  1
  O  O278  1  0.36598416  0.50615383  0.75600278  1
  O  O279  1  0.86837458  -0.00917410  0.26261534  1
  O  O280  1  0.87513428  -0.00142727  0.76284474  1
  O  O281  1  0.88080319  0.50954984  0.26027769  1
  O  O282  1  0.86690234  0.50698475  0.75756717  1
  O  O283  1  0.12026236  0.36812530  0.36606278  1
  O  O284  1  0.13511970  0.37245675  0.86867563  1
  O  O285  1  0.13093231  0.86737357  0.36329821  1
  O  O286  1  0.11181414  0.87574237  0.87457772  1
  O  O287  1  0.62438395  0.38107583  0.35990983  1
  O  O288  1  0.62183657  0.37010134  0.86882683  1
  O  O289  1  0.62837182  0.86713183  0.36619235  1
  O  O290  1  0.62309368  0.87004281  0.86574253  1
  O  O291  1  0.37588282  0.12752209  0.13151048  1
  O  O292  1  0.38529854  0.12875094  0.62175498  1
  O  O293  1  0.37161746  0.62703936  0.13922569  1
  O  O294  1  0.38232479  0.63101391  0.63011440  1
  O  O295  1  0.87416419  0.13810826  0.11893915  1
  O  O296  1  0.88437131  0.12715805  0.62172076  1
  O  O297  1  0.87978628  0.63327627  0.13141610  1
  O  O298  1  0.88472338  0.61705617  0.63751008  1
  O  O299  1  0.25790210  0.26026140  0.12089128  1
  O  O300  1  0.25306508  0.25736649  0.62726204  1
  O  O301  1  0.25118186  0.75981855  0.11712067  1
  O  O302  1  0.25707594  0.75816807  0.62318695  1
  O  O303  1  0.76122469  0.25015492  0.11484582  1
  O  O304  1  0.75791290  0.25106030  0.62623219  1
  O  O305  1  0.75912820  0.76402629  0.13194409  1
  O  O306  1  0.74714325  0.76041638  0.60825636  1
  O  O307  1  0.24455444  0.23698483  0.37423350  1
  O  O308  1  0.25599336  0.24210895  0.88641673  1
  O  O309  1  0.23642746  0.74934537  0.37111901  1
  O  O310  1  0.24798232  0.74675889  0.88183158  1
  O  O311  1  0.75382067  0.24723991  0.38382825  1
  O  O312  1  0.73880418  0.25225992  0.88861702  1
  O  O313  1  0.73780358  0.75361989  0.38626609  1
  O  O314  1  0.73824703  0.75542332  0.86836537  1
  O  O315  1  0.01519840  0.12871419  -0.00404173  1
  O  O316  1  0.01161756  0.12667850  0.50759518  1
  O  O317  1  0.00746236  0.62146220  0.00751511  1
  O  O318  1  0.00117400  0.61767086  0.50771716  1
  O  O319  1  0.50724617  0.11551629  0.00389472  1
  O  O320  1  0.50399114  0.11725893  0.50418200  1
  O  O321  1  0.51250175  0.62517201  -0.00729428  1
  O  O322  1  0.50626196  0.61518575  0.50289481  1
  O  O323  1  0.50186514  0.38849625  0.50393314  1
  O  O324  1  0.48528810  0.37416751  1.00075220  1
  O  O325  1  0.48823443  0.88303645  0.50458359  1
  O  O326  1  0.50061856  0.88865310  0.99451194  1
  O  O327  1  0.99514452  0.38052312  0.49613261  1
  O  O328  1  1.00362158  0.39318208  1.00876205  1
  O  O329  1  0.98567425  0.86831561  0.50085681  1
  O  O330  1  0.98991822  0.87513383  0.99346620  1
  O  O331  1  0.49265721  0.49636809  0.38344602  1
  O  O332  1  0.48573425  0.49756168  0.87434989  1
  O  O333  1  0.48943508  1.00372245  0.38509060  1
  O  O334  1  0.49520953  0.99837561  0.87964702  1
  O  O335  1  0.99565612  0.49360663  0.38421890  1
  O  O336  1  0.99037470  0.51020875  0.88805344  1
  O  O337  1  0.98768925  0.99819879  0.36907331  1
  O  O338  1  0.99075166  0.99276447  0.87579097  1
  O  O339  1  0.01360474  -0.00320060  0.12235185  1
  O  O340  1  0.00983865  0.00769881  0.62464000  1
  O  O341  1  -0.00596488  0.51450299  0.12037213  1
  O  O342  1  0.00511169  0.50550858  0.61958684  1
  O  O343  1  0.50521208  0.00462482  0.11666511  1
  O  O344  1  0.49785001  0.00884840  0.61146612  1
  O  O345  1  0.51585236  0.49370205  0.12540672  1
  O  O346  1  0.50098422  0.50850234  0.61818240  1
  O  O347  1  0.24317436  0.38125427  0.24494049  1
  O  O348  1  0.25401994  0.38721107  0.73799334  1
  O  O349  1  0.24075808  0.86990052  0.23916475  1
  O  O350  1  0.24910108  0.87548333  0.73589126  1
  O  O351  1  0.73783026  0.37036053  0.24904699  1
  O  O352  1  0.74330892  0.38475250  0.74651117  1
  O  O353  1  0.74068457  0.88329029  0.24336425  1
  O  O354  1  0.74765341  0.87434826  0.73593252  1
  O  O355  1  0.26093624  0.12572599  0.25585104  1
  O  O356  1  0.24453638  0.12578989  0.76340935  1
  O  O357  1  0.25368002  0.61179094  0.24489367  1
  O  O358  1  0.25574861  0.62054938  0.75348016  1
  O  O359  1  0.74458619  0.10928901  0.24747548  1
  O  O360  1  0.75465121  0.13174105  0.73164696  1
  O  O361  1  0.76493178  0.63237858  0.25206409  1
  O  O362  1  0.75712265  0.62036755  0.74688915  1
  O  O363  1  0.36642931  0.11748242  0.36906606  1
  O  O364  1  0.36552329  0.11663704  0.88032835  1
  O  O365  1  0.37727416  0.61058295  0.36364516  1
  O  O366  1  0.36869469  0.61989600  0.86995900  1
  O  O367  1  0.87290454  0.10808509  0.38169137  1
  O  O368  1  0.88000318  0.11330725  0.87841363  1
  O  O369  1  0.88327930  0.61550337  0.36617425  1
  O  O370  1  0.87262786  0.61943118  0.86331669  1
  O  O371  1  0.13304653  0.36977156  0.13757135  1
  O  O372  1  0.13056660  0.38809320  0.62223082  1
  O  O373  1  0.13144792  0.88045259  0.13174541  1
  O  O374  1  0.13204764  0.88024507  0.62141349  1
  O  O375  1  0.62977107  0.38032656  0.13748893  1
  O  O376  1  0.63691829  0.37312264  0.63372369  1
  O  O377  1  0.63381625  0.88097984  0.12955193  1
  O  O378  1  0.63497209  0.87813879  0.62903085  1
  O  O379  1  0.11913214  0.25610415  0.25401377  1
  O  O380  1  0.11592405  0.25830459  0.75072409  1
  O  O381  1  0.11967782  0.75463751  0.25798081  1
  O  O382  1  0.11254721  0.75133349  0.75105905  1
  O  O383  1  0.62379178  0.26023151  0.24381275  1
  O  O384  1  0.62943364  0.26212437  0.76223606  1
  O  O385  1  0.62192929  0.75628978  0.25627605  1
  O  O386  1  0.62248492  0.76262716  0.75234589  1
  O  O387  1  0.37512506  0.24112189  0.24255946  1
  O  O388  1  0.37204706  0.25557366  0.73788886  1
  O  O389  1  0.38496400  0.74049310  0.25247341  1
  O  O390  1  0.38204869  0.74678214  0.74450001  1
  O  O391  1  0.88171357  0.24920422  0.23720949  1
  O  O392  1  0.87000954  0.24848538  0.75008313  1
  O  O393  1  0.88193826  0.74819620  0.24380184  1
  O  O394  1  0.88748735  0.74168659  0.75125048  1
  O  O395  1  0.38289424  0.49884328  0.49332056  1
  O  O396  1  0.37473339  0.49369329  0.99394865  1
  O  O397  1  0.37955485  0.99295948  0.48950064  1
  O  O398  1  0.38417844  1.00043959  0.99124797  1
  O  O399  1  0.88456636  0.49379849  0.49717193  1
  O  O400  1  0.88347262  0.50419546  0.99425601  1
  O  O401  1  0.87365574  0.98629861  0.48491145  1
  O  O402  1  0.87809676  0.99284754  0.98953353  1
  O  O403  1  0.12120636  0.00798169  0.00780357  1
  O  O404  1  0.12874602  0.00608085  0.50768162  1
  O  O405  1  0.11999159  0.51351583  -0.00156305  1
  O  O406  1  0.11255286  0.49898633  0.50572348  1
  O  O407  1  0.62109829  0.00598239  0.00201046  1
  O  O408  1  0.61569229  0.00513453  0.49771000  1
  O  O409  1  0.61956332  0.49782558  0.01521554  1
  O  O410  1  0.61995862  0.50672923  0.50240844  1
  O  O411  1  0.36904096  0.37036907  0.12128863  1
  O  O412  1  0.36729405  0.36799859  0.62255923  1
  O  O413  1  0.36564453  0.87279181  0.12219995  1
  O  O414  1  0.36959078  0.87036313  0.61678041  1
  O  O415  1  0.87201207  0.36410079  0.12199331  1
  O  O416  1  0.86228739  0.37882485  0.62120418  1
  O  O417  1  0.87095184  0.87015905  0.11837878  1
  O  O418  1  0.86772443  0.88095746  0.60978257  1
  O  O419  1  0.13032072  0.12519870  0.37996552  1
  O  O420  1  0.13645422  0.11606993  0.88648637  1
  O  O421  1  0.12011097  0.63748170  0.37209999  1
  O  O422  1  0.13257421  0.62755801  0.88392122  1
  O  O423  1  0.62768286  0.12114185  0.38514734  1
  O  O424  1  0.62232493  0.13302143  0.88406080  1
  O  O425  1  0.62237175  0.63012618  0.38710476  1
  O  O426  1  0.62929762  0.64627769  0.86565185  1
