# generated using pymatgen
data_V85Zn86O256
_symmetry_space_group_name_H-M   'P 1'
_cell_length_a   16.92478060
_cell_length_b   16.92446174
_cell_length_c   16.92073051
_cell_angle_alpha   89.97255328
_cell_angle_beta   89.96668093
_cell_angle_gamma   90.03737879
_symmetry_Int_Tables_number   1
_chemical_formula_structural   V85Zn86O256
_chemical_formula_sum   'V85 Zn86 O256'
_cell_volume   4846.81904895
_cell_formula_units_Z   1
loop_
 _symmetry_equiv_pos_site_id
 _symmetry_equiv_pos_as_xyz
  1  'x, y, z'
loop_
 _atom_site_type_symbol
 _atom_site_label
 _atom_site_symmetry_multiplicity
 _atom_site_fract_x
 _atom_site_fract_y
 _atom_site_fract_z
 _atom_site_occupancy
  V  V0  1  0.37549565  0.00308598  0.37333520  1
  V  V1  1  0.87960465  0.50273220  0.87153795  1
  V  V2  1  0.50025207  0.75015639  0.74879578  1
  V  V3  1  0.12912185  0.13167362  0.00184562  1
  V  V4  1  -0.00058935  0.00556562  0.50594605  1
  V  V5  1  0.37962661  0.36788016  0.48892045  1
  V  V6  1  0.48697019  0.87574715  0.87986955  1
  V  V7  1  0.75205754  0.13576279  0.37428544  1
  V  V8  1  0.23825130  0.37374775  0.11762064  1
  V  V9  1  -0.00229472  -0.00275247  -0.00316812  1
  V  V10  1  0.75198674  0.00099630  0.24865067  1
  V  V11  1  0.24692601  0.62331169  0.87068158  1
  V  V12  1  0.49900700  0.25004517  0.75141884  1
  V  V13  1  0.00030298  0.50361173  0.50567720  1
  V  V14  1  0.87007451  0.76097070  0.11575108  1
  V  V15  1  0.75388281  0.50473868  0.24492837  1
  V  V16  1  0.87467186  0.00675857  0.37151322  1
  V  V17  1  0.24641826  0.13504499  0.37443198  1
  V  V18  1  -0.01027426  0.74762857  0.25116443  1
  V  V19  1  0.25629527  0.87655864  0.12306844  1
  V  V20  1  -0.00338190  0.12487664  0.12958597  1
  V  V21  1  0.12415137  0.37563825  0.25052700  1
  V  V22  1  0.75244842  0.50414870  0.75014117  1
  V  V23  1  0.61096827  0.25774503  0.35445058  1
  V  V24  1  0.12903090  0.62120061  0.49178351  1
  V  V25  1  0.25013484  0.87449847  0.62440800  1
  V  V26  1  0.26221687  0.12560255  0.88164899  1
  V  V27  1  -0.00651708  0.61816710  0.12989384  1
  V  V28  1  0.87219481  0.24735629  0.12428902  1
  V  V29  1  0.12555602  0.87440799  0.25093634  1
  V  V30  1  0.12639968  0.37732623  0.74786921  1
  V  V31  1  0.12315913  0.00743177  0.62685666  1
  V  V32  1  0.50100951  0.49746769  0.48665810  1
  V  V33  1  0.50300452  0.62146789  0.62176797  1
  V  V34  1  0.50125821  0.37601105  0.87696989  1
  V  V35  1  0.75414666  0.62486384  0.87955059  1
  V  V36  1  0.12302500  0.00004343  0.12639453  1
  V  V37  1  0.88082441  0.12221458  0.75090670  1
  V  V38  1  0.50344201  0.00245481  0.50171065  1
  V  V39  1  0.49956541  0.63171718  0.12593296  1
  V  V40  1  -0.00554799  0.87544113  0.87677487  1
  V  V41  1  0.87486982  0.87635684  0.50235786  1
  V  V42  1  0.62834703  0.87722329  0.24562032  1
  V  V43  1  0.49626461  0.13005593  0.62601604  1
  V  V44  1  0.12472947  0.61848286  0.00747510  1
  V  V45  1  0.37839604  0.12623831  0.75360391  1
  V  V46  1  0.87079706  0.36944862  0.49900280  1
  V  V47  1  0.36678482  0.37000534  -0.00285892  1
  V  V48  1  0.48481734  0.00137164  -0.00159369  1
  V  V49  1  0.12448654  0.13278613  0.50050705  1
  V  V50  1  0.49798758  0.75400323  0.25284564  1
  V  V51  1  0.74986878  0.36819674  0.62390472  1
  V  V52  1  0.37071899  0.50167354  0.86967862  1
  V  V53  1  0.75003540  0.87630633  0.62688748  1
  V  V54  1  0.49854876  0.50435865  -0.00157437  1
  V  V55  1  0.25817134  0.00149898  0.75591638  1
  V  V56  1  0.12340679  0.75087888  0.87703029  1
  V  V57  1  -0.00071126  0.24643967  0.25472882  1
  V  V58  1  0.75421856  0.37564757  0.12554721  1
  V  V59  1  0.37593886  0.87659515  0.50019291  1
  V  V60  1  0.00084560  0.87552917  0.37667431  1
  V  V61  1  0.88027434  0.24463561  0.62436045  1
  V  V62  1  0.62722697  0.37344482  0.75323463  1
  V  V63  1  0.74828057  0.74695863  0.49816541  1
  V  V64  1  0.25487540  0.75321369  0.00160082  1
  V  V65  1  0.87479471  0.50580545  0.37147373  1
  V  V66  1  0.75276411  0.12848091  0.88754479  1
  V  V67  1  0.12844353  0.24915215  0.87498137  1
  V  V68  1  0.12314065  0.87665996  0.75104035  1
  V  V69  1  0.26315900  0.37098415  0.63154210  1
  V  V70  1  0.63123892  0.00424614  0.11409112  1
  V  V71  1  0.37271171  0.74823878  0.62220847  1
  V  V72  1  0.87475226  0.36963920  -0.00534869  1
  V  V73  1  0.87983711  0.73336487  0.62767740  1
  V  V74  1  0.59254171  0.46346140  0.14838428  1
  V  V75  1  0.25159520  0.74356253  0.49346305  1
  V  V76  1  0.75278039  0.00267999  0.75479840  1
  V  V77  1  0.00527007  0.37140645  0.37748092  1
  V  V78  1  0.12978482  0.49945499  0.62610602  1
  V  V79  1  0.62483700  0.74863334  0.87844160  1
  V  V80  1  0.36991357  0.62301594  0.74712950  1
  V  V81  1  0.24533476  0.50629825  0.25165067  1
  V  V82  1  0.62904620  0.13944260  0.50034474  1
  V  V83  1  0.62910554  0.24774107  0.89424263  1
  V  V84  1  0.38239405  0.13533529  0.24847222  1
  Zn  Zn85  1  0.62779480  0.62389245  0.00664821  1
  Zn  Zn86  1  0.00313353  0.49672583  0.00193689  1
  Zn  Zn87  1  0.12628727  0.74479794  0.37298520  1
  Zn  Zn88  1  0.25267932  0.24933653  0.50375235  1
  Zn  Zn89  1  0.62870625  0.75080900  0.37197845  1
  Zn  Zn90  1  0.50746439  0.12879570  0.12369367  1
  Zn  Zn91  1  -0.01059071  0.73719280  0.75273538  1
  Zn  Zn92  1  0.36876681  0.63038176  0.25454898  1
  Zn  Zn93  1  0.25074437  0.00325398  0.25035204  1
  Zn  Zn94  1  0.75176895  0.62714971  0.36865251  1
  Zn  Zn95  1  0.36745384  0.24857307  0.12192857  1
  Zn  Zn96  1  0.83072553  -0.06158855  0.93721949  1
  Zn  Zn97  1  0.62525028  0.49679095  0.62196463  1
  Zn  Zn98  1  0.36976103  0.50612094  0.37452310  1
  Zn  Zn99  1  0.50330223  0.87769048  0.37499503  1
  Zn  Zn100  1  0.62733962  0.62003700  0.49395999  1
  Zn  Zn101  1  0.74907785  0.77042682  0.00390432  1
  Zn  Zn102  1  0.37576427  0.75425441  0.12396077  1
  Zn  Zn103  1  0.62663714  0.00358656  0.62708147  1
  Zn  Zn104  1  0.00167806  0.37287219  0.87333738  1
  Zn  Zn105  1  0.62287439  0.87708538  0.74918384  1
  Zn  Zn106  1  0.00283267  0.24506578  0.74784154  1
  Zn  Zn107  1  0.18599717  0.19213114  0.19026157  1
  Zn  Zn108  1  0.19155719  0.19004834  0.68882735  1
  Zn  Zn109  1  0.18085524  0.69037360  0.18596752  1
  Zn  Zn110  1  0.15806922  0.67256831  0.69982868  1
  Zn  Zn111  1  0.69165448  0.18369413  0.18748109  1
  Zn  Zn112  1  0.68723118  0.18768371  0.69254777  1
  Zn  Zn113  1  0.68598633  0.68568127  0.18556770  1
  Zn  Zn114  1  0.68759702  0.68671277  0.68785895  1
  Zn  Zn115  1  0.30982406  0.31330675  0.31135365  1
  Zn  Zn116  1  0.31209430  0.30988556  0.81379750  1
  Zn  Zn117  1  0.31379399  0.81490192  0.31316385  1
  Zn  Zn118  1  0.30966071  0.80925327  0.81042363  1
  Zn  Zn119  1  0.81448650  0.31697943  0.30799366  1
  Zn  Zn120  1  0.81275262  0.30917399  0.81205944  1
  Zn  Zn121  1  0.81338955  0.81727955  0.31134631  1
  Zn  Zn122  1  0.81013274  0.80664514  0.80756005  1
  Zn  Zn123  1  0.18989497  0.43214914  0.43746570  1
  Zn  Zn124  1  0.18493424  0.44110195  0.93356324  1
  Zn  Zn125  1  0.18888793  0.94045292  0.43752371  1
  Zn  Zn126  1  0.18569305  0.94088749  0.93925430  1
  Zn  Zn127  1  0.68710447  0.43409272  0.43413182  1
  Zn  Zn128  1  0.68780221  0.43695660  0.94437578  1
  Zn  Zn129  1  0.68716361  0.93847751  0.43513330  1
  Zn  Zn130  1  0.67089628  0.93823170  0.93095646  1
  Zn  Zn131  1  0.31090740  0.05985152  0.06436253  1
  Zn  Zn132  1  0.31345091  0.06497738  0.56510632  1
  Zn  Zn133  1  0.31176553  0.56159313  0.06723848  1
  Zn  Zn134  1  0.31222815  0.55737611  0.55944206  1
  Zn  Zn135  1  0.81389103  0.06357645  0.06865844  1
  Zn  Zn136  1  0.81001900  0.06444557  0.56270969  1
  Zn  Zn137  1  0.81792814  0.56198159  0.05991478  1
  Zn  Zn138  1  0.81091907  0.55763797  0.56011579  1
  Zn  Zn139  1  0.42266237  0.43711572  0.18382106  1
  Zn  Zn140  1  0.43935706  0.43886482  0.68691520  1
  Zn  Zn141  1  0.43996924  0.94244593  0.18726667  1
  Zn  Zn142  1  0.43867116  0.93886517  0.68891471  1
  Zn  Zn143  1  0.93549231  0.43547408  0.18950473  1
  Zn  Zn144  1  0.93958311  0.43553029  0.68840510  1
  Zn  Zn145  1  0.93647936  0.93682548  0.18905507  1
  Zn  Zn146  1  0.93638347  0.93593488  0.68968031  1
  Zn  Zn147  1  0.06329648  0.06307038  0.31507001  1
  Zn  Zn148  1  0.06473247  0.06224720  0.81620099  1
  Zn  Zn149  1  0.06217020  0.55860071  0.31113644  1
  Zn  Zn150  1  0.06085496  0.56167265  0.81016986  1
  Zn  Zn151  1  0.56548672  0.06711217  0.31189056  1
  Zn  Zn152  1  0.56698056  0.06275549  0.81908908  1
  Zn  Zn153  1  0.56519214  0.56854118  0.31142319  1
  Zn  Zn154  1  0.56460574  0.56426873  0.81013903  1
  Zn  Zn155  1  0.44044687  0.19015025  0.43474132  1
  Zn  Zn156  1  0.44840998  0.19907877  0.95882437  1
  Zn  Zn157  1  0.43668094  0.68325151  0.43195164  1
  Zn  Zn158  1  0.43496766  0.68927940  0.93807343  1
  Zn  Zn159  1  0.93769961  0.18759973  0.43966921  1
  Zn  Zn160  1  0.93964097  0.18606327  0.93731718  1
  Zn  Zn161  1  0.93856622  0.68586779  0.44209333  1
  Zn  Zn162  1  0.93740323  0.68638056  0.94074630  1
  Zn  Zn163  1  0.05956022  0.31136862  0.06137405  1
  Zn  Zn164  1  0.06069878  0.31471233  0.56586511  1
  Zn  Zn165  1  0.06207756  0.80940077  0.06349546  1
  Zn  Zn166  1  0.06355177  0.81232482  0.56270667  1
  Zn  Zn167  1  0.55090463  0.31283390  0.07962997  1
  Zn  Zn168  1  0.56084451  0.31313282  0.56319214  1
  Zn  Zn169  1  0.56597985  0.81693832  0.06243616  1
  Zn  Zn170  1  0.56413261  0.81300506  0.56252961  1
  O  O171  1  0.11891925  0.12262572  0.11970602  1
  O  O172  1  0.13186355  0.11325649  0.62104074  1
  O  O173  1  0.10891280  0.63291717  0.11689282  1
  O  O174  1  0.13781581  0.60420320  0.60886580  1
  O  O175  1  0.62328152  0.10951398  0.12862922  1
  O  O176  1  0.61832627  0.12613375  0.61757986  1
  O  O177  1  0.60898119  0.62223763  0.12389360  1
  O  O178  1  0.61296428  0.62361533  0.62313438  1
  O  O179  1  0.37246412  0.37823463  0.38631841  1
  O  O180  1  0.37675493  0.38606500  0.87629036  1
  O  O181  1  0.37773844  0.88710587  0.38190002  1
  O  O182  1  0.38817617  0.86787023  0.87216238  1
  O  O183  1  0.88183152  0.38113982  0.38328824  1
  O  O184  1  0.87752214  0.37887000  0.87954802  1
  O  O185  1  0.88013864  0.88634585  0.38334181  1
  O  O186  1  0.88951856  0.87117411  0.86443739  1
  O  O187  1  0.26334314  0.01010235  0.37785537  1
  O  O188  1  0.24363392  0.01001781  0.86532688  1
  O  O189  1  0.24639860  0.49151121  0.35605596  1
  O  O190  1  0.25878385  0.51130652  0.87809046  1
  O  O191  1  0.75731628  0.00754142  0.37007034  1
  O  O192  1  0.75052149  0.00994133  0.87032728  1
  O  O193  1  0.75844915  0.49737202  0.36555053  1
  O  O194  1  0.75520386  0.50530020  0.86993485  1
  O  O195  1  0.25172005  0.48548555  0.13656752  1
  O  O196  1  0.24331472  0.48253218  0.61951373  1
  O  O197  1  0.23961426  0.99300624  0.12764249  1
  O  O198  1  0.24417935  0.99522549  0.63339205  1
  O  O199  1  0.75719944  0.49162064  0.12991776  1
  O  O200  1  0.75035444  0.49002019  0.63427312  1
  O  O201  1  0.73981482  1.00400875  0.13206365  1
  O  O202  1  0.74730135  0.99222616  0.63090262  1
  O  O203  1  0.00569397  0.37120942  0.25756996  1
  O  O204  1  0.01214057  0.36984645  0.75165630  1
  O  O205  1  0.00595751  0.86851119  0.25647582  1
  O  O206  1  0.00965571  0.87230679  0.75609068  1
  O  O207  1  0.52367267  0.38458740  0.17904030  1
  O  O208  1  0.50592737  0.36925922  0.75626288  1
  O  O209  1  0.50670824  0.87077019  0.25068644  1
  O  O210  1  0.49997997  0.86911028  0.75903456  1
  O  O211  1  0.48532091  0.12159609  0.24539026  1
  O  O212  1  0.49966263  0.13001517  0.74723471  1
  O  O213  1  0.49959544  0.63731439  0.24215375  1
  O  O214  1  0.49322410  0.63027777  0.74175033  1
  O  O215  1  1.00786156  0.13314747  0.24211403  1
  O  O216  1  0.98551021  0.12060746  0.75578306  1
  O  O217  1  1.00604822  0.63266695  0.23880720  1
  O  O218  1  1.05022182  0.64455542  0.73876232  1
  O  O219  1  0.35894624  0.26974675  -0.01691396  1
  O  O220  1  0.37798139  0.26376554  0.49909813  1
  O  O221  1  0.35909474  0.74821305  0.00233326  1
  O  O222  1  0.37033771  0.75531179  0.50319942  1
  O  O223  1  0.88316953  0.25720583  0.01029921  1
  O  O224  1  0.87758411  0.26092256  0.50693632  1
  O  O225  1  0.87309878  0.75170931  0.01139529  1
  O  O226  1  0.86659486  0.75506628  0.50851647  1
  O  O227  1  0.12241746  0.23540190  0.50743182  1
  O  O228  1  0.12244592  0.23902309  0.99365487  1
  O  O229  1  0.13181141  0.73907375  0.50180916  1
  O  O230  1  0.13208526  0.74141388  0.99462623  1
  O  O231  1  0.62108728  0.24126322  0.49468230  1
  O  O232  1  0.61998477  0.25734315  0.99212201  1
  O  O233  1  0.63945208  0.75210200  0.49962380  1
  O  O234  1  0.62913313  0.74770118  0.99298624  1
  O  O235  1  0.47557912  0.22980268  0.08200750  1
  O  O236  1  0.50619162  0.24171728  0.63823146  1
  O  O237  1  0.49831843  0.74949228  0.13181684  1
  O  O238  1  0.49343280  0.74243998  0.62654856  1
  O  O239  1  0.99460348  0.24198015  0.13129956  1
  O  O240  1  0.98544191  0.25217981  0.62724422  1
  O  O241  1  0.99090953  0.74388152  0.13185371  1
  O  O242  1  0.98143866  0.75748700  0.62204534  1
  O  O243  1  -0.00683755  0.25861721  0.36771242  1
  O  O244  1  0.01496976  0.24857079  0.87192458  1
  O  O245  1  -0.00052027  0.75522355  0.36939400  1
  O  O246  1  0.00618870  0.75603934  0.87365767  1
  O  O247  1  0.51122221  0.24949401  0.36916557  1
  O  O248  1  0.50917715  0.25753416  0.87305682  1
  O  O249  1  0.50308841  0.75441069  0.36337650  1
  O  O250  1  0.50466678  0.75622943  0.87221167  1
  O  O251  1  0.24375764  0.12720352  0.49565931  1
  O  O252  1  0.24119164  0.11850306  0.99383934  1
  O  O253  1  0.24499526  0.63314614  0.50098857  1
  O  O254  1  0.24317601  0.63119995  0.99741147  1
  O  O255  1  0.73853812  0.11899837  0.48931708  1
  O  O256  1  0.75707408  0.12165434  0.98653598  1
  O  O257  1  0.74823491  0.63344852  0.50025569  1
  O  O258  1  0.74658581  0.62055122  0.98737448  1
  O  O259  1  0.24968406  0.38567682  0.01106024  1
  O  O260  1  0.26393596  0.37185893  0.50701931  1
  O  O261  1  0.23912215  0.86673588  0.01017890  1
  O  O262  1  0.25641137  0.87284712  0.50624645  1
  O  O263  1  0.76805422  0.38011116  0.00527290  1
  O  O264  1  0.76043387  0.38116975  0.51072211  1
  O  O265  1  0.74967003  0.88224292  -0.01180447  1
  O  O266  1  0.75487769  0.87076553  0.50682825  1
  O  O267  1  0.13087402  0.48677969  0.25006997  1
  O  O268  1  0.12610890  0.48566421  0.74161869  1
  O  O269  1  0.12450313  0.98961877  0.24583579  1
  O  O270  1  0.13253178  0.99444173  0.74494707  1
  O  O271  1  0.63012712  0.49850019  0.23947009  1
  O  O272  1  0.63238459  0.49003247  0.74959255  1
  O  O273  1  0.63022480  0.99628346  0.24326919  1
  O  O274  1  0.63818086  0.99961756  0.74977484  1
  O  O275  1  0.37294337  0.00881885  0.25924031  1
  O  O276  1  0.36558319  0.00735966  0.74862407  1
  O  O277  1  0.35846199  0.49865343  0.25235785  1
  O  O278  1  0.38051092  0.50694226  0.76183753  1
  O  O279  1  0.86782868  -0.00401239  0.26046611  1
  O  O280  1  0.86303686  0.00713975  0.74461942  1
  O  O281  1  0.86894641  0.49652846  0.26082619  1
  O  O282  1  0.86758669  0.49353497  0.76128233  1
  O  O283  1  0.11295139  0.37543818  0.36926618  1
  O  O284  1  0.12847518  0.36768496  0.86601367  1
  O  O285  1  0.11883428  0.87648132  0.36800949  1
  O  O286  1  0.11698020  0.87342423  0.86882945  1
  O  O287  1  0.63361192  0.35423245  0.37405738  1
  O  O288  1  0.62220164  0.37025058  0.87212274  1
  O  O289  1  0.62291542  0.87528398  0.36197059  1
  O  O290  1  0.61310507  0.86069929  0.86853811  1
  O  O291  1  0.36678256  0.12349514  0.14241832  1
  O  O292  1  0.38893429  0.12263893  0.63336777  1
  O  O293  1  0.38455684  0.63004213  0.12997988  1
  O  O294  1  0.38209169  0.62675434  0.62792947  1
  O  O295  1  0.88805148  0.13195371  0.12474208  1
  O  O296  1  0.86679040  0.13434629  0.63418475  1
  O  O297  1  0.88957634  0.63476099  0.12024638  1
  O  O298  1  0.87582233  0.63458140  0.61959935  1
  O  O299  1  0.24910223  0.26762141  0.12758994  1
  O  O300  1  0.24866713  0.26568595  0.62211409  1
  O  O301  1  0.24804160  0.75890904  0.11901658  1
  O  O302  1  0.25572657  0.75771999  0.61378048  1
  O  O303  1  0.76561186  0.25408645  0.13220085  1
  O  O304  1  0.75873229  0.26235780  0.63344681  1
  O  O305  1  0.76599860  0.74339805  0.12389938  1
  O  O306  1  0.75891077  0.75505705  0.62050381  1
  O  O307  1  0.25167774  0.23928588  0.38015706  1
  O  O308  1  0.23754840  0.23953345  0.86893404  1
  O  O309  1  0.24590630  0.76015919  0.38978695  1
  O  O310  1  0.24472434  0.74424562  0.88339753  1
  O  O311  1  0.75258259  0.23769850  0.36547731  1
  O  O312  1  0.74290656  0.23902080  0.87356380  1
  O  O313  1  0.75494116  0.74972190  0.38429545  1
  O  O314  1  0.74264893  0.74088055  0.87458677  1
  O  O315  1  0.00912086  0.11949556  0.00809669  1
  O  O316  1  0.00784108  0.11293161  0.49624941  1
  O  O317  1  0.00726100  0.62421267  0.01101483  1
  O  O318  1  0.00823333  0.61063084  0.49888953  1
  O  O319  1  0.50062605  0.10177304  -0.01265488  1
  O  O320  1  0.50450475  0.12174914  0.50839869  1
  O  O321  1  0.49934105  0.62000881  0.00504116  1
  O  O322  1  0.50164812  0.61650818  0.50650596  1
  O  O323  1  0.48631126  0.38271543  0.50881192  1
  O  O324  1  0.48581122  0.38504566  0.99433448  1
  O  O325  1  0.49556273  0.88519589  0.49981327  1
  O  O326  1  0.50177118  0.88137647  0.98757931  1
  O  O327  1  0.99521047  0.38116226  0.49348761  1
  O  O328  1  0.99118413  0.37814351  0.99699175  1
  O  O329  1  0.99746280  0.88522976  0.49531907  1
  O  O330  1  1.00778765  0.88323476  0.99041277  1
  O  O331  1  0.50117649  0.50146969  0.38388463  1
  O  O332  1  0.49457142  0.49733818  0.88048456  1
  O  O333  1  0.49067318  1.00517821  0.38290072  1
  O  O334  1  0.50616652  0.98395817  0.88274322  1
  O  O335  1  0.99323273  0.49101626  0.38100463  1
  O  O336  1  0.99279349  0.49824348  0.87473001  1
  O  O337  1  0.99238466  0.99669160  0.38191744  1
  O  O338  1  1.00544682  0.99077270  0.88487601  1
  O  O339  1  0.00456477  0.00713148  0.12297488  1
  O  O340  1  0.00990233  -0.00584404  0.61752363  1
  O  O341  1  -0.00702016  0.51442835  0.12575222  1
  O  O342  1  0.01256769  0.48933299  0.61517165  1
  O  O343  1  0.50595133  0.00232415  0.11182791  1
  O  O344  1  0.50453306  0.00795218  0.61879882  1
  O  O345  1  0.49226564  0.51388181  0.11592399  1
  O  O346  1  0.50155686  0.50857221  0.61820839  1
  O  O347  1  0.24118089  0.37845613  0.24156386  1
  O  O348  1  0.24711373  0.37131088  0.73805334  1
  O  O349  1  0.24005463  0.87689196  0.24461648  1
  O  O350  1  0.24754220  0.88575164  0.74656580  1
  O  O351  1  0.75614758  0.38643413  0.23642030  1
  O  O352  1  0.74582673  0.38285602  0.74609562  1
  O  O353  1  0.74252797  0.88923232  0.25437510  1
  O  O354  1  0.74954836  0.88281863  0.74382785  1
  O  O355  1  0.25405908  0.12445062  0.25923355  1
  O  O356  1  0.25759976  0.11981203  0.75673026  1
  O  O357  1  0.24277753  0.60955456  0.24026661  1
  O  O358  1  0.25141689  0.63191162  0.76331666  1
  O  O359  1  0.74740243  0.11086790  0.26061053  1
  O  O360  1  0.75752315  0.11880014  0.75735693  1
  O  O361  1  0.74798952  0.60986937  0.24749730  1
  O  O362  1  0.74314084  0.61046416  0.75911624  1
  O  O363  1  0.37018242  0.12278937  0.36547178  1
  O  O364  1  0.36501426  0.13228753  0.87512529  1
  O  O365  1  0.37208178  0.62042638  0.36827085  1
  O  O366  1  0.36695170  0.62111980  0.86955578  1
  O  O367  1  0.86799508  0.11402847  0.38294437  1
  O  O368  1  0.86263454  0.13286010  0.86635833  1
  O  O369  1  0.87411860  0.60948441  0.38318811  1
  O  O370  1  0.86749802  0.61723279  0.87641567  1
  O  O371  1  0.13130748  0.37416106  0.12980751  1
  O  O372  1  0.13517074  0.37927579  0.62933546  1
  O  O373  1  0.12839248  0.87888914  0.13411055  1
  O  O374  1  0.13005608  0.88425516  0.63194405  1
  O  O375  1  0.64878001  0.37337663  0.10569593  1
  O  O376  1  0.63355454  0.37338866  0.63330038  1
  O  O377  1  0.62129773  0.89019437  0.13610016  1
  O  O378  1  0.63781080  0.87594824  0.62732031  1
  O  O379  1  0.11181559  0.26256803  0.24676035  1
  O  O380  1  0.12409936  0.25727212  0.75502594  1
  O  O381  1  0.11457503  0.76027495  0.25256462  1
  O  O382  1  0.14087858  0.77176175  0.75914638  1
  O  O383  1  0.62298287  0.24558304  0.25464246  1
  O  O384  1  0.61692125  0.25664229  0.75962815  1
  O  O385  1  0.61951730  0.76110698  0.24651152  1
  O  O386  1  0.61694835  0.74934833  0.75714444  1
  O  O387  1  0.37418652  0.23888046  0.24830830  1
  O  O388  1  0.39133266  0.24463176  0.75857231  1
  O  O389  1  0.38362372  0.75317566  0.24654764  1
  O  O390  1  0.37903930  0.74287304  0.74197004  1
  O  O391  1  0.89074790  0.25728983  0.23978884  1
  O  O392  1  0.87784392  0.24133373  0.74260160  1
  O  O393  1  0.88539836  0.75416306  0.24351342  1
  O  O394  1  0.87390975  0.74598979  0.73350408  1
  O  O395  1  0.38264634  0.48893468  0.49682228  1
  O  O396  1  0.38064051  0.49798585  0.98914968  1
  O  O397  1  0.38590636  1.00007494  0.49565137  1
  O  O398  1  0.38541825  0.99612284  1.00298830  1
  O  O399  1  0.88331465  0.48920213  0.49698598  1
  O  O400  1  0.87941299  0.49307288  0.98593443  1
  O  O401  1  0.88289978  0.99686890  0.49704217  1
  O  O402  1  0.89224078  1.00652868  1.00501973  1
  O  O403  1  0.11620499  0.01028920  0.00718726  1
  O  O404  1  0.11933824  0.00636996  0.50893571  1
  O  O405  1  0.12245094  0.51411745  -0.00276424  1
  O  O406  1  0.12004111  0.50078530  0.50321123  1
  O  O407  1  0.61660754  -0.00245690  0.01271801  1
  O  O408  1  0.61302639  0.00878638  0.49734616  1
  O  O409  1  0.60682970  0.49583960  0.01070192  1
  O  O410  1  0.61647374  0.49732574  0.50199677  1
  O  O411  1  0.35922461  0.37141284  0.11264425  1
  O  O412  1  0.36585427  0.37854279  0.62005041  1
  O  O413  1  0.35928755  0.87826647  0.13064139  1
  O  O414  1  0.37122046  0.87074728  0.61915565  1
  O  O415  1  0.87236135  0.36761284  0.11670887  1
  O  O416  1  0.86940951  0.36892943  0.61865791  1
  O  O417  1  0.88016525  0.86015888  0.12539700  1
  O  O418  1  0.86359011  0.87269470  0.61999029  1
  O  O419  1  0.13598601  0.11617433  0.38715462  1
  O  O420  1  0.13308878  0.13043200  0.88294216  1
  O  O421  1  0.12205489  0.62385618  0.38673338  1
  O  O422  1  0.13329792  0.62962055  0.88509258  1
  O  O423  1  0.63186648  0.13624657  0.38040508  1
  O  O424  1  0.64055761  0.13445508  0.87348699  1
  O  O425  1  0.63255777  0.63216913  0.37675075  1
  O  O426  1  0.62944034  0.63436909  0.87810666  1
