# generated using pymatgen
data_V85Zn86O256
_symmetry_space_group_name_H-M   'P 1'
_cell_length_a   16.94986254
_cell_length_b   16.94623405
_cell_length_c   16.94212818
_cell_angle_alpha   90.05018051
_cell_angle_beta   90.15442482
_cell_angle_gamma   89.97582998
_symmetry_Int_Tables_number   1
_chemical_formula_structural   V85Zn86O256
_chemical_formula_sum   'V85 Zn86 O256'
_cell_volume   4866.37488215
_cell_formula_units_Z   1
loop_
 _symmetry_equiv_pos_site_id
 _symmetry_equiv_pos_as_xyz
  1  'x, y, z'
loop_
 _atom_site_type_symbol
 _atom_site_label
 _atom_site_symmetry_multiplicity
 _atom_site_fract_x
 _atom_site_fract_y
 _atom_site_fract_z
 _atom_site_occupancy
  V  V0  1  0.50520866  0.50250510  0.00370472  1
  V  V1  1  0.36629763  0.00127589  0.86675035  1
  V  V2  1  0.75136899  0.37745255  0.12583966  1
  V  V3  1  0.37249604  0.25267249  0.62341885  1
  V  V4  1  0.50147459  0.37180548  0.87595060  1
  V  V5  1  0.37734382  0.23646381  0.12529517  1
  V  V6  1  0.49924638  0.62685446  0.12782696  1
  V  V7  1  0.24470770  0.12400100  0.86957005  1
  V  V8  1  0.61970134  0.00977077  0.12298960  1
  V  V9  1  -0.00464311  0.87635597  0.86824890  1
  V  V10  1  0.24901550  0.75174792  0.00281769  1
  V  V11  1  0.00569242  0.75004143  0.24501958  1
  V  V12  1  0.88685104  0.49759643  0.37014759  1
  V  V13  1  0.87560243  0.37354004  0.49168499  1
  V  V14  1  0.24897107  0.62530279  0.87536485  1
  V  V15  1  0.62594754  0.87529607  0.25600447  1
  V  V16  1  0.62815957  0.37735228  0.74082865  1
  V  V17  1  0.12209623  0.12653800  0.00289569  1
  V  V18  1  0.86867418  0.00495196  0.87763601  1
  V  V19  1  0.12811674  0.00225528  0.62958313  1
  V  V20  1  0.62624486  0.37867734  0.24936377  1
  V  V21  1  0.24672819  0.62094051  0.37046931  1
  V  V22  1  0.54704291  0.70323886  0.80408995  1
  V  V23  1  0.24884839  0.87828559  0.13563112  1
  V  V24  1  0.01343717  0.50052091  0.50532026  1
  V  V25  1  0.87668657  0.62219924  0.24480164  1
  V  V26  1  0.62114353  0.74503998  0.38005335  1
  V  V27  1  0.87741600  0.75110192  0.12402635  1
  V  V28  1  0.37474722  0.37421391  0.00448275  1
  V  V29  1  0.12041780  0.25266765  0.87372915  1
  V  V30  1  0.62563607  0.87504268  0.74983468  1
  V  V31  1  0.11554008  0.25076792  0.37236071  1
  V  V32  1  0.12149753  0.75127910  0.87064509  1
  V  V33  1  0.25121568  0.00390946  0.26548488  1
  V  V34  1  0.37821435  0.49998866  0.87516614  1
  V  V35  1  0.25002312  0.87508441  0.62808755  1
  V  V36  1  0.87559611  0.12120614  0.24907509  1
  V  V37  1  0.24883614  0.24720215  0.49237747  1
  V  V38  1  0.63219531  0.50720331  0.12651166  1
  V  V39  1  0.87027989  -0.00899572  0.37740771  1
  V  V40  1  0.12203918  0.38008529  0.74693383  1
  V  V41  1  0.37938981  0.74854929  0.62455546  1
  V  V42  1  0.24386261  0.38187964  0.62115355  1
  V  V43  1  0.24966904  0.49970760  0.74658448  1
  V  V44  1  0.36493066  0.12471421  0.74528391  1
  V  V45  1  0.49930632  0.24890555  0.74978758  1
  V  V46  1  0.12453571  0.87745054  0.75031417  1
  V  V47  1  0.37254580  0.88064902  0.00083618  1
  V  V48  1  0.37548866  0.37724308  0.49785683  1
  V  V49  1  0.12521209  0.74853931  0.37695672  1
  V  V50  1  0.62874456  0.12585404  0.49912724  1
  V  V51  1  0.62636943  0.23649200  0.87770788  1
  V  V52  1  0.12293417  0.38377444  0.25279982  1
  V  V53  1  0.50025719  0.01220023  0.00105752  1
  V  V54  1  0.76077333  0.87369854  0.62106291  1
  V  V55  1  0.75257678  0.13233666  0.37876431  1
  V  V56  1  0.01437545  0.62958202  0.62641778  1
  V  V57  1  -0.00285405  0.12681928  0.62360470  1
  V  V58  1  0.50325259  0.24539114  0.24735709  1
  V  V59  1  -0.00446721  -0.00707088  0.50041298  1
  V  V60  1  0.75325837  0.61721745  0.37272005  1
  V  V61  1  0.49794712  0.89324801  0.38465985  1
  V  V62  1  0.49507952  0.87997317  0.85979975  1
  V  V63  1  0.00231935  0.87310880  0.37034117  1
  V  V64  1  0.12514394  -0.00055176  0.13185394  1
  V  V65  1  0.50840926  0.49900965  0.50105126  1
  V  V66  1  0.74577893  0.23586122  -0.00325325  1
  V  V67  1  0.50029467  0.12147917  0.61704104  1
  V  V68  1  0.12693518  0.12208836  0.49215090  1
  V  V69  1  0.37261767  0.62948546  0.74958573  1
  V  V70  1  0.76240026  0.75107213  0.49811802  1
  V  V71  1  0.12711679  0.50334943  0.12443800  1
  V  V72  1  0.74823230  0.00189611  0.75041583  1
  V  V73  1  0.24921124  0.25185412  0.00146973  1
  V  V74  1  0.37533264  0.12047793  0.26982124  1
  V  V75  1  0.11774819  0.62698176  0.00513208  1
  V  V76  1  0.86949146  0.12879282  0.75182436  1
  V  V77  1  0.72096500  0.85804115  0.09622135  1
  V  V78  1  -0.00773855  0.38450048  0.87824970  1
  V  V79  1  0.24771589  0.74309210  0.50181609  1
  V  V80  1  0.37357761  0.49937170  0.36633433  1
  V  V81  1  0.51013346  0.62523604  0.62260070  1
  V  V82  1  0.86429599  0.25290125  0.61771443  1
  V  V83  1  0.87612691  0.87387152  0.00065454  1
  V  V84  1  0.87561894  0.24868025  0.12303512  1
  Zn  Zn85  1  0.87075978  0.37967915  -0.00341368  1
  Zn  Zn86  1  0.74977944  -0.00440038  0.24543804  1
  Zn  Zn87  1  -0.00479636  0.25481912  0.74627968  1
  Zn  Zn88  1  0.37186928  0.62550595  0.24888784  1
  Zn  Zn89  1  0.88483930  0.62526725  0.75578502  1
  Zn  Zn90  1  0.88452258  0.74710582  0.63129081  1
  Zn  Zn91  1  -0.00060425  0.12401923  0.12656262  1
  Zn  Zn92  1  0.37496682  0.88435636  0.49382099  1
  Zn  Zn93  1  0.76437498  0.50313763  0.74475500  1
  Zn  Zn94  1  0.62452411  -0.00478608  0.61514829  1
  Zn  Zn95  1  0.74396883  0.38410500  0.61186140  1
  Zn  Zn96  1  -0.00079715  0.00213343  0.00226732  1
  Zn  Zn97  1  0.76635494  0.62065268  0.87660644  1
  Zn  Zn98  1  -0.01555314  0.51758437  0.00097411  1
  Zn  Zn99  1  0.37330192  0.75018134  0.13076978  1
  Zn  Zn100  1  0.63677488  0.61751980  0.50746087  1
  Zn  Zn101  1  0.63052820  0.25364135  0.37662647  1
  Zn  Zn102  1  0.69823534  0.72447072  0.97308151  1
  Zn  Zn103  1  -0.00286551  0.25392479  0.25172991  1
  Zn  Zn104  1  0.49640249  0.75092574  0.25424651  1
  Zn  Zn105  1  0.50243403  0.37454785  0.37425244  1
  Zn  Zn106  1  0.25432889  0.37809495  0.13589530  1
  Zn  Zn107  1  0.19187278  0.18842177  0.19068283  1
  Zn  Zn108  1  0.18415664  0.19391060  0.68220604  1
  Zn  Zn109  1  0.18739362  0.68823159  0.18989058  1
  Zn  Zn110  1  0.18159883  0.68764735  0.68619109  1
  Zn  Zn111  1  0.69241674  0.18779621  0.18997945  1
  Zn  Zn112  1  0.68696866  0.19008759  0.68568637  1
  Zn  Zn113  1  0.68752810  0.68767896  0.19219902  1
  Zn  Zn114  1  0.70032035  0.68617996  0.68948762  1
  Zn  Zn115  1  0.30938022  0.31051225  0.31270832  1
  Zn  Zn116  1  0.31014820  0.31322336  0.81303068  1
  Zn  Zn117  1  0.31660509  0.81250034  0.31493864  1
  Zn  Zn118  1  0.30838177  0.81371960  0.80925545  1
  Zn  Zn119  1  0.81494599  0.31508322  0.30831579  1
  Zn  Zn120  1  0.80919575  0.31206239  0.81185897  1
  Zn  Zn121  1  0.81127214  0.80941842  0.31169527  1
  Zn  Zn122  1  0.81129704  0.79806408  0.81001305  1
  Zn  Zn123  1  0.18854862  0.43407700  0.42940485  1
  Zn  Zn124  1  0.18694402  0.44010466  0.93829395  1
  Zn  Zn125  1  0.18331389  0.92938412  0.44158564  1
  Zn  Zn126  1  0.18623112  0.94032558  0.94012298  1
  Zn  Zn127  1  0.69345983  0.43832355  0.43409690  1
  Zn  Zn128  1  0.69406957  0.43200785  0.93954546  1
  Zn  Zn129  1  0.68653528  0.93992953  0.43978182  1
  Zn  Zn130  1  0.68214721  0.93462658  0.93353432  1
  Zn  Zn131  1  0.30765396  0.06180179  0.06177878  1
  Zn  Zn132  1  0.31143474  0.06158394  0.55493411  1
  Zn  Zn133  1  0.31010414  0.56109374  0.06574863  1
  Zn  Zn134  1  0.31498546  0.56174431  0.55753949  1
  Zn  Zn135  1  0.80603822  0.05535379  0.06515264  1
  Zn  Zn136  1  0.81032990  0.06178163  0.56151426  1
  Zn  Zn137  1  0.80847313  0.56979316  0.05248486  1
  Zn  Zn138  1  0.82026761  0.55918732  0.56928591  1
  Zn  Zn139  1  0.44089679  0.43441801  0.18697746  1
  Zn  Zn140  1  0.44077507  0.43983198  0.68544729  1
  Zn  Zn141  1  0.44001480  0.94036225  0.19262994  1
  Zn  Zn142  1  0.42290223  0.95321290  0.66022179  1
  Zn  Zn143  1  0.94294005  0.44042748  0.18046156  1
  Zn  Zn144  1  0.93451818  0.44385401  0.68101279  1
  Zn  Zn145  1  0.93757273  0.93535303  0.18713517  1
  Zn  Zn146  1  0.93676276  0.93767721  0.68936984  1
  Zn  Zn147  1  0.06079210  0.06220921  0.31214735  1
  Zn  Zn148  1  0.05558208  0.06239494  0.81114329  1
  Zn  Zn149  1  0.06129213  0.56643703  0.31055714  1
  Zn  Zn150  1  0.05919409  0.56096829  0.81175835  1
  Zn  Zn151  1  0.56457105  0.06556232  0.31083868  1
  Zn  Zn152  1  0.55624676  0.06020412  0.80483950  1
  Zn  Zn153  1  0.56189160  0.56111426  0.31209959  1
  Zn  Zn154  1  0.60453843  0.53376925  0.84049658  1
  Zn  Zn155  1  0.44328704  0.19100817  0.43694857  1
  Zn  Zn156  1  0.43529229  0.18700601  0.93469540  1
  Zn  Zn157  1  0.43531611  0.68616878  0.44066910  1
  Zn  Zn158  1  0.43334441  0.68553391  0.94694193  1
  Zn  Zn159  1  0.93643395  0.18345909  0.43846446  1
  Zn  Zn160  1  0.93620411  0.19045366  0.93681385  1
  Zn  Zn161  1  0.94083966  0.68137232  0.44079215  1
  Zn  Zn162  1  0.93332923  0.69472896  0.93228087  1
  Zn  Zn163  1  0.06123613  0.31671281  0.06636808  1
  Zn  Zn164  1  0.05657830  0.31470173  0.55988159  1
  Zn  Zn165  1  0.06201132  0.81711515  0.06168373  1
  Zn  Zn166  1  0.06403956  0.81204878  0.55858160  1
  Zn  Zn167  1  0.56412377  0.30923946  0.06480290  1
  Zn  Zn168  1  0.56190637  0.30612774  0.55867468  1
  Zn  Zn169  1  0.54575812  0.82255867  0.06631664  1
  Zn  Zn170  1  0.56741956  0.80881272  0.56122475  1
  O  O171  1  0.12532336  0.12135418  0.11743168  1
  O  O172  1  0.11809872  0.11837714  0.61941892  1
  O  O173  1  0.13352976  0.61855253  0.11611149  1
  O  O174  1  0.11598987  0.62546435  0.61844379  1
  O  O175  1  0.63201066  0.10795096  0.12943258  1
  O  O176  1  0.61782662  0.12941398  0.61665896  1
  O  O177  1  0.61771420  0.61603579  0.13217875  1
  O  O178  1  0.61253133  0.63212944  0.62670543  1
  O  O179  1  0.37404082  0.38046965  0.38140809  1
  O  O180  1  0.38128065  0.37920636  0.88151230  1
  O  O181  1  0.39305869  0.87410985  0.37778758  1
  O  O182  1  0.37437168  0.88451373  0.87611244  1
  O  O183  1  0.87440862  0.38448622  0.37733556  1
  O  O184  1  0.88947013  0.36923458  0.87364874  1
  O  O185  1  0.88030602  0.88547244  0.37139690  1
  O  O186  1  0.88198084  0.88080157  0.87920772  1
  O  O187  1  0.24265274  -0.00945643  0.36422058  1
  O  O188  1  0.25859014  0.00702677  0.87761867  1
  O  O189  1  0.25948469  0.51006005  0.38258555  1
  O  O190  1  0.25923298  0.50527336  0.86947161  1
  O  O191  1  0.75815494  0.00655640  0.37370430  1
  O  O192  1  0.76094313  -0.00467209  0.86681927  1
  O  O193  1  0.76200788  0.51294502  0.37580756  1
  O  O194  1  0.71488494  0.50664586  0.86015091  1
  O  O195  1  0.23611994  0.49317800  0.11813464  1
  O  O196  1  0.25582821  0.48832658  0.62669077  1
  O  O197  1  0.24417491  0.99517569  0.13240128  1
  O  O198  1  0.23313836  0.99175447  0.62227710  1
  O  O199  1  0.73718431  0.49193215  0.12228950  1
  O  O200  1  0.74965433  0.49599544  0.62785980  1
  O  O201  1  0.73302317  0.98045701  0.12124783  1
  O  O202  1  0.74806287  0.99176852  0.63218234  1
  O  O203  1  0.01702174  0.36987386  0.24272011  1
  O  O204  1  0.00790515  0.37571323  0.75985334  1
  O  O205  1  -0.00399292  0.86777901  0.26301086  1
  O  O206  1  0.00627530  0.87940820  0.76143938  1
  O  O207  1  0.51009980  0.36592852  0.25021104  1
  O  O208  1  0.49880762  0.36081166  0.75203985  1
  O  O209  1  0.50862544  0.87534525  0.26448272  1
  O  O210  1  0.50180989  0.88393689  0.75665321  1
  O  O211  1  0.48573413  0.13028402  0.25321928  1
  O  O212  1  0.48707403  0.13704869  0.74691369  1
  O  O213  1  0.49751393  0.62479348  0.23850998  1
  O  O214  1  0.49216809  0.63371290  0.74490398  1
  O  O215  1  0.98652666  0.12651080  0.24917924  1
  O  O216  1  0.98629906  0.12535702  0.74120326  1
  O  O217  1  0.98776359  0.63695786  0.25146412  1
  O  O218  1  1.01010556  0.62069584  0.73107162  1
  O  O219  1  0.37229931  0.25516763  0.00630477  1
  O  O220  1  0.36714009  0.25591291  0.50209867  1
  O  O221  1  0.36210291  0.76009405  0.00133529  1
  O  O222  1  0.36707366  0.75558520  0.50933067  1
  O  O223  1  0.86299073  0.25213335  0.00455471  1
  O  O224  1  0.88298413  0.26032333  0.50458457  1
  O  O225  1  0.88045244  0.76172319  0.01045366  1
  O  O226  1  0.86472054  0.75027941  0.49686974  1
  O  O227  1  0.12880922  0.24298558  0.49511347  1
  O  O228  1  0.12829062  0.24579209  0.99354346  1
  O  O229  1  0.13670081  0.75416299  0.48996530  1
  O  O230  1  0.13516018  0.74893603  0.99572099  1
  O  O231  1  0.61923094  0.23500685  0.49181442  1
  O  O232  1  0.63552944  0.25030867  0.99399302  1
  O  O233  1  0.63622885  0.74240161  0.49280111  1
  O  O234  1  0.64856734  0.80829818  1.02307218  1
  O  O235  1  0.49183443  0.25237139  0.13683417  1
  O  O236  1  0.49199102  0.24235136  0.63245206  1
  O  O237  1  0.49587482  0.74034135  0.12447358  1
  O  O238  1  0.48927197  0.74084553  0.61784392  1
  O  O239  1  0.98537831  0.24624270  0.12166437  1
  O  O240  1  0.99235448  0.24208240  0.62639595  1
  O  O241  1  0.99234580  0.76054583  0.13467448  1
  O  O242  1  1.00254706  0.73469601  0.61073775  1
  O  O243  1  0.01198370  0.24494163  0.37597553  1
  O  O244  1  0.01033708  0.25578540  0.87038228  1
  O  O245  1  0.00565131  0.75510685  0.37222179  1
  O  O246  1  0.01567334  0.76257031  0.88236694  1
  O  O247  1  0.50200994  0.25387334  0.36047523  1
  O  O248  1  0.50295820  0.25346157  0.86851272  1
  O  O249  1  0.51347423  0.74585590  0.37785635  1
  O  O250  1  0.48697385  0.75973094  0.86867083  1
  O  O251  1  0.23941538  0.13436789  0.50831050  1
  O  O252  1  0.23846053  0.13122077  0.99265475  1
  O  O253  1  0.25658451  0.63671283  0.49060308  1
  O  O254  1  0.24721909  0.63598862  0.99380525  1
  O  O255  1  0.74449592  0.12443352  0.49056783  1
  O  O256  1  0.75070453  0.13715963  1.00338736  1
  O  O257  1  0.75373886  0.63192414  0.49040321  1
  O  O258  1  0.73271985  0.62192188  0.99149465  1
  O  O259  1  0.26328071  0.36967756  -0.00415372  1
  O  O260  1  0.25336102  0.36898948  0.50510474  1
  O  O261  1  0.25765361  0.87242937  0.00634703  1
  O  O262  1  0.25181974  0.86650962  0.51356377  1
  O  O263  1  0.74906835  0.36411631  0.01206972  1
  O  O264  1  0.76804247  0.37714227  0.49593967  1
  O  O265  1  0.76867566  0.88675282  -0.00352780  1
  O  O266  1  0.74227821  0.86640637  0.51049318  1
  O  O267  1  0.12222946  0.49096563  0.24449394  1
  O  O268  1  0.13423773  0.48671831  0.75718663  1
  O  O269  1  0.13493644  1.01077894  0.23932171  1
  O  O270  1  0.11848824  0.98994715  0.74277473  1
  O  O271  1  0.61945763  0.48823109  0.24025884  1
  O  O272  1  0.60121256  0.47409553  0.74119626  1
  O  O273  1  0.62444506  0.99508870  0.24029077  1
  O  O274  1  0.63778100  0.99480821  0.75214311  1
  O  O275  1  0.36937074  0.01432118  0.24846328  1
  O  O276  1  0.37505635  0.01257226  0.75521946  1
  O  O277  1  0.37898831  0.49722846  0.26292915  1
  O  O278  1  0.37195847  0.51021277  0.75417854  1
  O  O279  1  0.87235459  0.00430855  0.25630435  1
  O  O280  1  0.86540303  0.00607374  0.75531877  1
  O  O281  1  0.88454032  0.51055807  0.25348338  1
  O  O282  1  0.87944825  0.50548797  0.75204952  1
  O  O283  1  0.12434037  0.36636061  0.36207732  1
  O  O284  1  0.11998611  0.36821100  0.86955005  1
  O  O285  1  0.11560416  0.86184280  0.37533407  1
  O  O286  1  0.12070042  0.87392877  0.86865723  1
  O  O287  1  0.62813670  0.37370630  0.36317829  1
  O  O288  1  0.61590994  0.36169064  0.86446035  1
  O  O289  1  0.61609754  0.86862031  0.37405574  1
  O  O290  1  0.61181559  0.87925309  0.85975100  1
  O  O291  1  0.37191554  0.13483637  0.12470282  1
  O  O292  1  0.37945595  0.13363614  0.63021822  1
  O  O293  1  0.38245347  0.62518366  0.12726751  1
  O  O294  1  0.37963028  0.63199599  0.63142789  1
  O  O295  1  0.87255509  0.12773550  0.13203228  1
  O  O296  1  0.87835920  0.13197809  0.62829190  1
  O  O297  1  0.86601006  0.64309422  0.13108358  1
  O  O298  1  0.89530529  0.62714595  0.62161186  1
  O  O299  1  0.25885121  0.25252617  0.11715108  1
  O  O300  1  0.25317727  0.26123011  0.61450434  1
  O  O301  1  0.24920820  0.76059713  0.11902553  1
  O  O302  1  0.25341003  0.75389748  0.61876608  1
  O  O303  1  0.75680391  0.25330941  0.11577844  1
  O  O304  1  0.76212324  0.25552754  0.62527622  1
  O  O305  1  0.75613834  0.76552177  0.13338491  1
  O  O306  1  0.75278194  0.75734044  0.61491431  1
  O  O307  1  0.23880964  0.25216642  0.38801804  1
  O  O308  1  0.23811656  0.24609646  0.87962703  1
  O  O309  1  0.24364933  0.74790291  0.38198218  1
  O  O310  1  0.24032296  0.74919427  0.88270154  1
  O  O311  1  0.75338806  0.23537657  0.36686005  1
  O  O312  1  0.74224490  0.25277248  0.88860993  1
  O  O313  1  0.74236363  0.74375608  0.38106134  1
  O  O314  1  0.74016555  0.74265686  0.87190416  1
  O  O315  1  0.01221409  0.12531978  -0.00036230  1
  O  O316  1  0.00724456  0.11338076  0.50463027  1
  O  O317  1  0.01571250  0.63352771  -0.00117835  1
  O  O318  1  0.00161781  0.60837174  0.50419297  1
  O  O319  1  0.49412197  0.11131162  -0.00437121  1
  O  O320  1  0.50410880  0.12732668  0.51048877  1
  O  O321  1  0.49553619  0.61408444  0.01241039  1
  O  O322  1  0.50246553  0.61654568  0.50807306  1
  O  O323  1  0.49366516  0.38050374  0.49899326  1
  O  O324  1  0.48982003  0.37722286  0.99846994  1
  O  O325  1  0.50394177  0.87220663  0.48682630  1
  O  O326  1  0.48355602  0.88298485  0.98680356  1
  O  O327  1  0.98905017  0.38713328  0.50118407  1
  O  O328  1  0.99950702  0.36876922  0.98312760  1
  O  O329  1  1.00489606  0.88628518  0.48961822  1
  O  O330  1  0.99258995  0.88043490  0.98925634  1
  O  O331  1  0.49168426  0.49809153  0.38283896  1
  O  O332  1  0.49878654  0.49282170  0.88591480  1
  O  O333  1  0.50385571  0.99149491  0.37752680  1
  O  O334  1  0.48711822  0.99574570  0.87791136  1
  O  O335  1  0.99110683  0.50601091  0.38113561  1
  O  O336  1  1.00809017  0.48645498  0.88333471  1
  O  O337  1  0.99527826  0.99184863  0.38014896  1
  O  O338  1  0.98726910  0.99386182  0.87606823  1
  O  O339  1  0.01011615  0.00186444  0.12467177  1
  O  O340  1  0.00614003  0.00263926  0.61763497  1
  O  O341  1  0.02048929  0.49400005  0.11473896  1
  O  O342  1  0.00512920  0.50604717  0.61074851  1
  O  O343  1  0.50990764  -0.00378696  0.11616242  1
  O  O344  1  0.51401585  0.02152818  0.64765492  1
  O  O345  1  0.50646324  0.50589030  0.12068262  1
  O  O346  1  0.49134122  0.51220072  0.61307322  1
  O  O347  1  0.23110271  0.36648571  0.25052936  1
  O  O348  1  0.24475841  0.37897405  0.74099784  1
  O  O349  1  0.25864533  0.88411975  0.23986122  1
  O  O350  1  0.24022812  0.87462757  0.73740370  1
  O  O351  1  0.74052054  0.36686000  0.23471281  1
  O  O352  1  0.73390497  0.37514361  0.75063183  1
  O  O353  1  0.73376848  0.87662945  0.25571335  1
  O  O354  1  0.74178063  0.88125316  0.74277302  1
  O  O355  1  0.26545560  0.11850019  0.24956212  1
  O  O356  1  0.25801266  0.13385426  0.75038410  1
  O  O357  1  0.25216305  0.62962900  0.26562875  1
  O  O358  1  0.25387901  0.61912800  0.75413834  1
  O  O359  1  0.76136655  0.11853954  0.25532675  1
  O  O360  1  0.76052213  0.11719434  0.74236422  1
  O  O361  1  0.76559314  0.63380224  0.25967480  1
  O  O362  1  0.75545204  0.62017036  0.75613837  1
  O  O363  1  0.37387345  0.12640597  0.36839794  1
  O  O364  1  0.36539460  0.12118832  0.86542258  1
  O  O365  1  0.36795726  0.61593115  0.37470850  1
  O  O366  1  0.37029936  0.62051508  0.86916970  1
  O  O367  1  0.87074351  0.11457642  0.36920232  1
  O  O368  1  0.87948579  0.11779844  0.86450700  1
  O  O369  1  0.87175992  0.61872928  0.36637935  1
  O  O370  1  0.88294596  0.61844236  0.87497747  1
  O  O371  1  0.13065028  0.37929033  0.13410806  1
  O  O372  1  0.13256335  0.36825474  0.63404766  1
  O  O373  1  0.13663029  0.88728637  0.11904469  1
  O  O374  1  0.12808833  0.88037440  0.63162729  1
  O  O375  1  0.63057974  0.38086095  0.13121232  1
  O  O376  1  0.62588044  0.35988462  0.63737226  1
  O  O377  1  0.61787163  0.88352660  0.14108209  1
  O  O378  1  0.62861890  0.87598745  0.63621528  1
  O  O379  1  0.12126764  0.25069423  0.25805469  1
  O  O380  1  0.12406741  0.26120024  0.75747741  1
  O  O381  1  0.11218238  0.74752644  0.25547131  1
  O  O382  1  0.12979452  0.76444440  0.75866223  1
  O  O383  1  0.61789574  0.25507418  0.24799322  1
  O  O384  1  0.61585647  0.25376629  0.75553215  1
  O  O385  1  0.62125487  0.75821262  0.26055833  1
  O  O386  1  0.61558519  0.75643764  0.74661731  1
  O  O387  1  0.37840188  0.23872111  0.24524953  1
  O  O388  1  0.37898946  0.24554892  0.74562733  1
  O  O389  1  0.37933113  0.74654932  0.24806722  1
  O  O390  1  0.36592865  0.73541358  0.74535774  1
  O  O391  1  0.87603748  0.24078349  0.24097479  1
  O  O392  1  0.87353220  0.24342912  0.74241345  1
  O  O393  1  0.88469321  0.74792499  0.24371249  1
  O  O394  1  0.88297443  0.74486404  0.74550517  1
  O  O395  1  0.38364132  0.49315729  0.49112081  1
  O  O396  1  0.38333632  0.49138613  0.99745085  1
  O  O397  1  0.38357803  0.98083941  0.55156193  1
  O  O398  1  0.37644281  0.99613356  0.99146730  1
  O  O399  1  0.88471914  0.49178017  0.48845928  1
  O  O400  1  0.87722077  0.49078620  1.01724781  1
  O  O401  1  0.88492550  1.00485041  0.49089500  1
  O  O402  1  0.87783623  0.99819571  0.99284056  1
  O  O403  1  0.12532944  0.01039695  0.01013220  1
  O  O404  1  0.11878056  0.00576953  0.50643450  1
  O  O405  1  0.12660161  0.51384864  0.00319598  1
  O  O406  1  0.11113133  0.48981319  0.49174013  1
  O  O407  1  0.61391160  -0.00780470  0.01156086  1
  O  O408  1  0.62664535  0.01667618  0.50114724  1
  O  O409  1  0.61017163  0.48803982  0.01069910  1
  O  O410  1  0.61275478  0.49963197  0.49291503  1
  O  O411  1  0.37357021  0.36603159  0.11879179  1
  O  O412  1  0.36799395  0.37026860  0.61810388  1
  O  O413  1  0.36943427  0.87837291  0.11596371  1
  O  O414  1  0.36376693  0.85562034  0.64224844  1
  O  O415  1  0.86670774  0.36412160  0.12936633  1
  O  O416  1  0.87711744  0.36639266  0.61308623  1
  O  O417  1  0.87025865  0.86932345  0.11628591  1
  O  O418  1  0.86396167  0.87401874  0.62724846  1
  O  O419  1  0.12196868  0.12911372  0.38712237  1
  O  O420  1  0.12633637  0.13141604  0.87790647  1
  O  O421  1  0.13162388  0.63747119  0.37149212  1
  O  O422  1  0.13010811  0.63458566  0.87948164  1
  O  O423  1  0.63613164  0.12605850  0.37843264  1
  O  O424  1  0.61680608  0.13749363  0.86669693  1
  O  O425  1  0.63577987  0.62951887  0.37283000  1
  O  O426  1  0.59425662  0.64498385  0.86949824  1
