# generated using pymatgen
data_V85Zn86O256
_symmetry_space_group_name_H-M   'P 1'
_cell_length_a   16.92373863
_cell_length_b   16.93149446
_cell_length_c   16.93596719
_cell_angle_alpha   89.98319223
_cell_angle_beta   90.00270837
_cell_angle_gamma   89.98028350
_symmetry_Int_Tables_number   1
_chemical_formula_structural   V85Zn86O256
_chemical_formula_sum   'V85 Zn86 O256'
_cell_volume   4852.90244512
_cell_formula_units_Z   1
loop_
 _symmetry_equiv_pos_site_id
 _symmetry_equiv_pos_as_xyz
  1  'x, y, z'
loop_
 _atom_site_type_symbol
 _atom_site_label
 _atom_site_symmetry_multiplicity
 _atom_site_fract_x
 _atom_site_fract_y
 _atom_site_fract_z
 _atom_site_occupancy
  V  V0  1  0.87571868  0.37667857  0.50228641  1
  V  V1  1  0.11974948  0.88357987  0.75479973  1
  V  V2  1  0.86580067  0.86998595  -0.00745706  1
  V  V3  1  0.01169060  0.75990699  0.24666600  1
  V  V4  1  0.38022551  0.50025258  0.37630483  1
  V  V5  1  0.74918911  0.76005801  0.50246304  1
  V  V6  1  0.24866860  0.49929457  0.25040861  1
  V  V7  1  0.00158032  0.50175206  0.49876091  1
  V  V8  1  0.37445866  -0.00267813  0.37987406  1
  V  V9  1  0.12045427  0.62404573  -0.00070380  1
  V  V10  1  0.62102196  0.61376704  0.50908450  1
  V  V11  1  0.49764163  0.37390932  0.87532099  1
  V  V12  1  0.24430091  0.25021988  -0.00303220  1
  V  V13  1  0.37874545  0.62774372  0.24927204  1
  V  V14  1  0.87061459  0.24222761  0.13549526  1
  V  V15  1  0.62523921  0.87681433  0.25017297  1
  V  V16  1  -0.01081127  0.62770989  0.62438949  1
  V  V17  1  0.76033485  0.00185779  0.24854331  1
  V  V18  1  0.24519601  0.63008073  0.37750841  1
  V  V19  1  0.37516570  0.12388614  0.25009070  1
  V  V20  1  0.50181273  0.12552111  0.12242968  1
  V  V21  1  0.37606957  0.37396654  0.49903239  1
  V  V22  1  0.63710472  0.86998240  0.74479775  1
  V  V23  1  0.74895945  0.01073844  0.75760483  1
  V  V24  1  0.37450723  0.87948646  -0.00655315  1
  V  V25  1  0.00004472  0.12278142  0.13232524  1
  V  V26  1  0.63595770  -0.00200243  0.62153522  1
  V  V27  1  0.49769753  0.00437824  -0.00419065  1
  V  V28  1  0.24977473  0.37293240  0.12647106  1
  V  V29  1  0.12136831  0.10850678  0.50411514  1
  V  V30  1  0.24797421  0.87987576  0.62359126  1
  V  V31  1  0.24359596  -0.00397554  0.24945009  1
  V  V32  1  0.64346024  0.24900384  0.87248909  1
  V  V33  1  -0.00599810  0.75265416  0.75198298  1
  V  V34  1  0.37365994  0.37429887  0.00120664  1
  V  V35  1  0.11414196  0.75661080  0.87633818  1
  V  V36  1  0.12058439  0.12542565  -0.00350127  1
  V  V37  1  0.49904502  0.24839472  0.75202278  1
  V  V38  1  0.50302823  0.37728969  0.37775126  1
  V  V39  1  0.37339750  0.62815677  0.75147821  1
  V  V40  1  0.63689861  0.74249918  0.88909273  1
  V  V41  1  0.24293552  0.62632074  0.87547330  1
  V  V42  1  0.24602115  0.50161863  0.75075257  1
  V  V43  1  0.62696279  0.24643644  0.37437541  1
  V  V44  1  0.50056732  0.88007566  0.87098966  1
  V  V45  1  0.87004933  0.36267582  -0.00338583  1
  V  V46  1  0.24140755  0.12821334  0.37397114  1
  V  V47  1  0.37278076  0.24644948  0.62385219  1
  V  V48  1  0.07249102  0.80839743  0.41847261  1
  V  V49  1  0.37566538  0.75246610  0.12246063  1
  V  V50  1  0.63872637  0.12801393  -0.00615722  1
  V  V51  1  0.74733597  0.62288431  0.37746408  1
  V  V52  1  0.23773517  0.24939941  0.49738972  1
  V  V53  1  0.24677299  0.37515614  0.62545070  1
  V  V54  1  0.50548914  0.50671123  0.00398111  1
  V  V55  1  0.24379369  0.87586209  0.12446270  1
  V  V56  1  0.88325334  -0.02220661  0.38723895  1
  V  V57  1  0.00437540  0.36717170  0.37733456  1
  V  V58  1  0.62222283  0.38926406  0.74388518  1
  V  V59  1  0.00734448  0.24849509  0.75165999  1
  V  V60  1  0.37571755  0.11765772  0.75440748  1
  V  V61  1  0.49813802  0.87484989  0.37794714  1
  V  V62  1  0.25859077  0.75414989  0.49693255  1
  V  V63  1  -0.00489505  0.62083837  0.12605973  1
  V  V64  1  0.50426422  0.74944195  0.74803481  1
  V  V65  1  0.24836718  0.00048850  0.75103800  1
  V  V66  1  0.37570943  0.75590955  0.62525812  1
  V  V67  1  0.75010745  0.25036577  0.50180501  1
  V  V68  1  0.76572678  0.12565084  0.37348052  1
  V  V69  1  -0.00365955  0.49237034  -0.00146976  1
  V  V70  1  -0.00048681  0.11189595  0.62415305  1
  V  V71  1  0.87216461  0.62562109  0.24888304  1
  V  V72  1  0.01055833  0.36567743  0.87766111  1
  V  V73  1  0.12543603  0.36491262  0.25563463  1
  V  V74  1  0.74966431  0.37454027  0.12463119  1
  V  V75  1  0.87569657  0.25176151  0.63075924  1
  V  V76  1  0.25001299  0.12607336  0.87551883  1
  V  V77  1  0.00100824  -0.00911845  -0.00756538  1
  V  V78  1  0.81817144  0.56614233  0.83701321  1
  V  V79  1  0.49772834  -0.00258133  0.50394080  1
  V  V80  1  0.86755488  0.76563730  0.62435589  1
  V  V81  1  0.12511519  0.50611872  0.63024699  1
  V  V82  1  0.74455415  0.38974064  0.62478786  1
  V  V83  1  0.50133386  0.24857578  0.24929246  1
  V  V84  1  0.37130464  0.50165697  0.87813030  1
  Zn  Zn85  1  0.62758677  0.00170156  0.12387547  1
  Zn  Zn86  1  0.12593182  0.37217467  0.75367562  1
  Zn  Zn87  1  0.50122409  0.75297476  0.25074745  1
  Zn  Zn88  1  0.12372465  0.49765360  0.12694554  1
  Zn  Zn89  1  0.63281107  0.51296425  0.12396030  1
  Zn  Zn90  1  0.86782552  0.13594478  0.76155888  1
  Zn  Zn91  1  0.62782129  0.37645319  0.24702874  1
  Zn  Zn92  1  0.24721444  0.75231578  -0.00234403  1
  Zn  Zn93  1  0.74858722  0.50173619  0.24656024  1
  Zn  Zn94  1  0.87282609  0.00476602  0.87619661  1
  Zn  Zn95  1  0.50630843  0.63343931  0.11944898  1
  Zn  Zn96  1  0.37533661  0.24858065  0.12430005  1
  Zn  Zn97  1  0.00173550  0.24103886  0.25845695  1
  Zn  Zn98  1  0.50217298  0.12296273  0.62436395  1
  Zn  Zn99  1  0.74765069  0.87028889  0.12104398  1
  Zn  Zn100  1  0.62553021  0.12421927  0.50069457  1
  Zn  Zn101  1  0.51506606  0.59850686  0.63194545  1
  Zn  Zn102  1  0.12041569  -0.00533313  0.12855050  1
  Zn  Zn103  1  0.87611840  0.49912160  0.37244463  1
  Zn  Zn104  1  0.87141754  0.75031162  0.11951897  1
  Zn  Zn105  1  0.12540003  0.63132253  0.49817090  1
  Zn  Zn106  1  0.62322250  0.74971640  0.37845200  1
  Zn  Zn107  1  0.18581854  0.18523787  0.18413876  1
  Zn  Zn108  1  0.18411844  0.18373699  0.68428890  1
  Zn  Zn109  1  0.18885522  0.68673270  0.18406137  1
  Zn  Zn110  1  0.18303823  0.69071168  0.68692769  1
  Zn  Zn111  1  0.68817720  0.18433642  0.18727871  1
  Zn  Zn112  1  0.68480907  0.19101917  0.68461788  1
  Zn  Zn113  1  0.68614970  0.69130054  0.18323404  1
  Zn  Zn114  1  0.69715186  0.67613625  0.69639392  1
  Zn  Zn115  1  0.31373097  0.30991827  0.31331009  1
  Zn  Zn116  1  0.30993543  0.31038292  0.81299696  1
  Zn  Zn117  1  0.31160238  0.81502175  0.31134166  1
  Zn  Zn118  1  0.30920445  0.81251247  0.81485892  1
  Zn  Zn119  1  0.81508412  0.31533051  0.31179416  1
  Zn  Zn120  1  0.81091650  0.39440837  0.81429573  1
  Zn  Zn121  1  0.81220275  0.80745249  0.30751872  1
  Zn  Zn122  1  0.81371164  0.81572144  0.81444008  1
  Zn  Zn123  1  0.18733854  0.44070224  0.43836053  1
  Zn  Zn124  1  0.18304094  0.43842261  0.93862881  1
  Zn  Zn125  1  0.19309434  0.93806946  0.43862138  1
  Zn  Zn126  1  0.18723260  0.94169647  0.93556729  1
  Zn  Zn127  1  0.68689646  0.43871921  0.43745038  1
  Zn  Zn128  1  0.68462254  0.43205787  0.93981882  1
  Zn  Zn129  1  0.68913776  0.94006269  0.43388550  1
  Zn  Zn130  1  0.68202049  0.93479262  0.93481103  1
  Zn  Zn131  1  0.31437935  0.06148765  0.06239447  1
  Zn  Zn132  1  0.31133775  0.06165561  0.56305851  1
  Zn  Zn133  1  0.31234785  0.56444799  0.06326556  1
  Zn  Zn134  1  0.34019978  0.55417245  0.57368734  1
  Zn  Zn135  1  0.81684985  0.05881967  0.06309685  1
  Zn  Zn136  1  0.81547293  0.06261231  0.56168896  1
  Zn  Zn137  1  0.81213912  0.55873002  0.04706242  1
  Zn  Zn138  1  0.81311398  0.56740967  0.56088028  1
  Zn  Zn139  1  0.43898918  0.43583960  0.18858377  1
  Zn  Zn140  1  0.43450705  0.43597961  0.68929169  1
  Zn  Zn141  1  0.43613455  0.93955578  0.18612937  1
  Zn  Zn142  1  0.43856483  0.93667670  0.68656682  1
  Zn  Zn143  1  0.93562928  0.43547266  0.18784292  1
  Zn  Zn144  1  0.93473224  0.44222085  0.69373434  1
  Zn  Zn145  1  0.93419789  0.93647324  0.18295244  1
  Zn  Zn146  1  0.93108818  0.93599506  0.69004325  1
  Zn  Zn147  1  0.06079562  0.05547195  0.31689925  1
  Zn  Zn148  1  0.06085683  0.06728685  0.81338108  1
  Zn  Zn149  1  0.06273964  0.56012328  0.31155237  1
  Zn  Zn150  1  0.02824713  0.57322184  0.82135180  1
  Zn  Zn151  1  0.56620803  0.06156799  0.31328916  1
  Zn  Zn152  1  0.56687067  0.06346104  0.81210213  1
  Zn  Zn153  1  0.56729316  0.56183235  0.30942234  1
  Zn  Zn154  1  0.56114967  0.56670802  0.81989630  1
  Zn  Zn155  1  0.43635037  0.18422482  0.43770701  1
  Zn  Zn156  1  0.43489110  0.18724783  0.93613391  1
  Zn  Zn157  1  0.43888685  0.68689998  0.44095388  1
  Zn  Zn158  1  0.43902975  0.69210262  0.93365828  1
  Zn  Zn159  1  0.93978975  0.18715318  0.44418455  1
  Zn  Zn160  1  0.93374710  0.18530912  0.93756475  1
  Zn  Zn161  1  0.93082178  0.68829895  0.43749528  1
  Zn  Zn162  1  0.91031592  0.67363920  0.93791776  1
  Zn  Zn163  1  0.06274050  0.30748453  0.06930521  1
  Zn  Zn164  1  0.06221585  0.31203963  0.56642263  1
  Zn  Zn165  1  0.05760966  0.81010013  0.06364791  1
  Zn  Zn166  1  0.06045192  0.82173447  0.58013127  1
  Zn  Zn167  1  0.56488990  0.31016161  0.05798040  1
  Zn  Zn168  1  0.56209945  0.31311354  0.56171975  1
  Zn  Zn169  1  0.56283652  0.81630922  0.06415217  1
  Zn  Zn170  1  0.56539513  0.81218248  0.56219452  1
  O  O171  1  0.11916167  0.12175960  0.11336668  1
  O  O172  1  0.10994416  0.12459071  0.61896536  1
  O  O173  1  0.11737618  0.62444342  0.11330927  1
  O  O174  1  0.11943474  0.61994638  0.61781528  1
  O  O175  1  0.61794070  0.12564072  0.11424613  1
  O  O176  1  0.62125586  0.11555917  0.62249825  1
  O  O177  1  0.61775338  0.62553033  0.12713503  1
  O  O178  1  0.62767761  0.62374301  0.61658888  1
  O  O179  1  0.38290331  0.38071332  0.37655600  1
  O  O180  1  0.37753685  0.38080961  0.88036488  1
  O  O181  1  0.38099047  0.88986477  0.36967604  1
  O  O182  1  0.38219642  0.86993279  0.88601348  1
  O  O183  1  0.88364183  0.37864384  0.38345917  1
  O  O184  1  0.88814506  0.36043124  0.89310973  1
  O  O185  1  0.87238941  0.87843201  0.37670335  1
  O  O186  1  0.87394032  0.88451188  0.88737238  1
  O  O187  1  0.25775328  0.00626379  0.36890767  1
  O  O188  1  0.24925499  0.01266596  0.86384674  1
  O  O189  1  0.25645427  0.50538056  0.36441982  1
  O  O190  1  0.25036190  0.50662745  0.87152288  1
  O  O191  1  0.75917457  0.00783606  0.36802824  1
  O  O192  1  0.74217126  0.00062437  0.85920093  1
  O  O193  1  0.75268860  0.51156028  0.37565468  1
  O  O194  1  0.75585947  0.48260355  0.86998118  1
  O  O195  1  0.25136007  0.49491485  0.13727150  1
  O  O196  1  0.24453787  0.49703402  0.62973122  1
  O  O197  1  0.25016595  0.99332286  0.13202081  1
  O  O198  1  0.25511352  0.99457008  0.63908537  1
  O  O199  1  0.75136795  0.49008326  0.11875210  1
  O  O200  1  0.75440412  0.48874060  0.61998725  1
  O  O201  1  0.75011951  0.99855124  0.13891536  1
  O  O202  1  0.73988149  1.00285771  0.63111595  1
  O  O203  1  0.00886895  0.37570511  0.25997575  1
  O  O204  1  0.00118918  0.36786441  0.76073052  1
  O  O205  1  0.00015256  0.85878975  0.24105000  1
  O  O206  1  0.00860730  0.86679650  0.74193185  1
  O  O207  1  0.50033037  0.36599978  0.26052885  1
  O  O208  1  0.50093293  0.36695208  0.75315579  1
  O  O209  1  0.50588843  0.88020862  0.25888068  1
  O  O210  1  0.50654691  0.87046123  0.75643859  1
  O  O211  1  0.49716818  0.12880531  0.24467533  1
  O  O212  1  0.49169911  0.13079645  0.74983845  1
  O  O213  1  0.48660188  0.62793392  0.25266740  1
  O  O214  1  0.49396753  0.63335768  0.74717421  1
  O  O215  1  1.01117051  0.12365471  0.23686954  1
  O  O216  1  0.99893369  0.13137957  0.73946406  1
  O  O217  1  0.99699031  0.62495242  0.23898068  1
  O  O218  1  1.01897116  0.64625916  0.73256419  1
  O  O219  1  0.36298311  0.25616562  -0.00014558  1
  O  O220  1  0.36721408  0.25228675  0.50715165  1
  O  O221  1  0.37327576  0.75887588  0.00559882  1
  O  O222  1  0.36913651  0.74951647  0.51140522  1
  O  O223  1  0.88382506  0.25870041  0.01608570  1
  O  O224  1  0.87143255  0.25759970  0.51091445  1
  O  O225  1  0.88406800  0.76725032  -0.00269899  1
  O  O226  1  0.86171893  0.74320934  0.51285958  1
  O  O227  1  0.13559302  0.24264392  0.50564188  1
  O  O228  1  0.13668188  0.24167293  1.00522318  1
  O  O229  1  0.13030830  0.75363036  0.49174588  1
  O  O230  1  0.12205989  0.74307371  0.99300911  1
  O  O231  1  0.63083981  0.24820576  0.49170688  1
  O  O232  1  0.62190114  0.24369757  0.98101761  1
  O  O233  1  0.63681454  0.74271171  0.50133525  1
  O  O234  1  0.62132918  0.75734405  0.98758499  1
  O  O235  1  0.49945177  0.24427578  0.13060884  1
  O  O236  1  0.49157779  0.24872329  0.63486008  1
  O  O237  1  0.48660609  0.75434278  0.12774231  1
  O  O238  1  0.49168261  0.75628324  0.63674583  1
  O  O239  1  0.99133615  0.24096482  0.13122511  1
  O  O240  1  0.99289153  0.24543754  0.63043776  1
  O  O241  1  0.99579580  0.73958042  0.13303081  1
  O  O242  1  0.98666351  0.74699173  0.62735514  1
  O  O243  1  -0.00185731  0.26233424  0.37689901  1
  O  O244  1  -0.00042838  0.25263123  0.86424600  1
  O  O245  1  0.00587141  0.74466042  0.36464258  1
  O  O246  1  0.00902405  0.74808224  0.86579981  1
  O  O247  1  0.50763769  0.25242971  0.37009005  1
  O  O248  1  0.49548223  0.25589047  0.86241563  1
  O  O249  1  0.49593229  0.76487863  0.37559083  1
  O  O250  1  0.50532722  0.75989750  0.86371761  1
  O  O251  1  0.24328652  0.13019708  0.49480514  1
  O  O252  1  0.24567493  0.12893191  0.99382088  1
  O  O253  1  0.25074307  0.63830463  0.49289202  1
  O  O254  1  0.23767088  0.62585992  0.99530482  1
  O  O255  1  0.74935990  0.13308541  0.49113013  1
  O  O256  1  0.73716034  0.11718205  1.00388576  1
  O  O257  1  0.74053792  0.63057779  0.49567004  1
  O  O258  1  0.81102421  0.60681130  0.94359503  1
  O  O259  1  0.25169986  0.36768608  0.00386625  1
  O  O260  1  0.25367553  0.36646960  0.50357193  1
  O  O261  1  0.25929230  0.87783768  0.00358481  1
  O  O262  1  0.24823879  0.86649906  0.51078165  1
  O  O263  1  0.76467519  0.37106282  0.00472505  1
  O  O264  1  0.75436963  0.36958125  0.50462823  1
  O  O265  1  0.76206122  0.88430279  0.00049552  1
  O  O266  1  0.74276278  0.85906678  0.49680422  1
  O  O267  1  0.13478591  0.49174280  0.24836002  1
  O  O268  1  0.12577063  0.50134797  0.73897450  1
  O  O269  1  0.13978684  1.00342771  0.24863829  1
  O  O270  1  0.13115762  0.99174576  0.75654337  1
  O  O271  1  0.62858616  0.49348746  0.24292593  1
  O  O272  1  0.60881855  0.48844184  0.75080953  1
  O  O273  1  0.63514744  0.99214061  0.25173402  1
  O  O274  1  0.63303376  0.99477348  0.74258107  1
  O  O275  1  0.36684959  0.00748856  0.25599200  1
  O  O276  1  0.36983837  0.01216010  0.74640469  1
  O  O277  1  0.36937812  0.50563744  0.25706829  1
  O  O278  1  0.36485907  0.50636598  0.76139415  1
  O  O279  1  0.86306298  -0.00640478  0.25838352  1
  O  O280  1  0.85639188  -0.00153204  0.74990957  1
  O  O281  1  0.87471894  0.51274502  0.25059508  1
  O  O282  1  0.86684522  0.48931178  0.77083933  1
  O  O283  1  0.11793818  0.38003515  0.36822748  1
  O  O284  1  0.11550336  0.37046031  0.87523538  1
  O  O285  1  0.13303740  0.86982941  0.36789377  1
  O  O286  1  0.12875003  0.86780722  0.86851778  1
  O  O287  1  0.61931516  0.36425221  0.37511581  1
  O  O288  1  0.61589399  0.36433895  0.86712866  1
  O  O289  1  0.61450754  0.87647597  0.36963009  1
  O  O290  1  0.61619322  0.86726281  0.86444488  1
  O  O291  1  0.38271125  0.12642229  0.13136514  1
  O  O292  1  0.37501649  0.13465143  0.63152325  1
  O  O293  1  0.37682804  0.63453451  0.13184811  1
  O  O294  1  0.36253580  0.64718290  0.63844105  1
  O  O295  1  0.88245030  0.13557601  0.12161255  1
  O  O296  1  0.88472936  0.13347986  0.62635761  1
  O  O297  1  0.88102930  0.62421471  0.12826598  1
  O  O298  1  0.88623043  0.63007855  0.62591270  1
  O  O299  1  0.25269533  0.25478864  0.11672341  1
  O  O300  1  0.25496767  0.25233735  0.61824142  1
  O  O301  1  0.25965035  0.75685078  0.12156023  1
  O  O302  1  0.25318714  0.75933533  0.61829723  1
  O  O303  1  0.76437900  0.25222983  0.13066789  1
  O  O304  1  0.75736851  0.25511614  0.61867675  1
  O  O305  1  0.76109969  0.75948320  0.14018558  1
  O  O306  1  0.76137738  0.74373633  0.62071630  1
  O  O307  1  0.25596287  0.23915590  0.38486440  1
  O  O308  1  0.25059440  0.23756756  0.88198942  1
  O  O309  1  0.26050333  0.74295361  0.38379454  1
  O  O310  1  0.23545800  0.74303668  0.87604661  1
  O  O311  1  0.74523058  0.24543223  0.37791991  1
  O  O312  1  0.73841150  0.25948310  0.86584347  1
  O  O313  1  0.75089031  0.73949150  0.38656479  1
  O  O314  1  0.73554177  0.75769669  0.87359105  1
  O  O315  1  0.00666476  0.11768707  0.00870985  1
  O  O316  1  0.00782218  0.12755790  0.51363875  1
  O  O317  1  -0.00047485  0.61379069  0.00849954  1
  O  O318  1  0.00247057  0.61921347  0.50500889  1
  O  O319  1  0.50315287  0.11999187  0.00165084  1
  O  O320  1  0.50192291  0.11169685  0.50007766  1
  O  O321  1  0.48992479  0.60943204  -0.00136605  1
  O  O322  1  0.51779930  0.63333065  0.50516631  1
  O  O323  1  0.49194025  0.36706423  0.48586312  1
  O  O324  1  0.49200330  0.38022668  0.99507750  1
  O  O325  1  0.50348849  0.88719728  0.49241712  1
  O  O326  1  0.49458002  0.88390898  0.99238305  1
  O  O327  1  0.99846480  0.38196962  0.49596777  1
  O  O328  1  0.99917041  0.37388707  0.99722262  1
  O  O329  1  1.01757654  0.86234778  0.48203057  1
  O  O330  1  0.99633172  0.88793196  1.00318243  1
  O  O331  1  0.49217219  0.49001856  0.36952283  1
  O  O332  1  0.49233648  0.49486635  0.88584201  1
  O  O333  1  0.49353498  0.99516838  0.38122075  1
  O  O334  1  0.50455103  0.98857326  0.87825949  1
  O  O335  1  1.00113197  0.49264476  0.38517806  1
  O  O336  1  1.00669201  0.48437939  0.89130208  1
  O  O337  1  0.98138254  0.99871194  0.37127000  1
  O  O338  1  1.00278138  1.00265835  0.89035376  1
  O  O339  1  0.00104809  0.00654698  0.11737594  1
  O  O340  1  -0.00756227  0.01334959  0.62943486  1
  O  O341  1  0.00278480  0.50414464  0.11916677  1
  O  O342  1  0.00544362  0.50829439  0.62268289  1
  O  O343  1  0.50170413  0.00828139  0.11522274  1
  O  O344  1  0.50596002  0.00047719  0.61769540  1
  O  O345  1  0.49656123  0.49862379  0.11049990  1
  O  O346  1  0.44645199  0.51318730  0.61218472  1
  O  O347  1  0.24568120  0.38066941  0.24898697  1
  O  O348  1  0.24734565  0.38173147  0.74475840  1
  O  O349  1  0.25896472  0.88499772  0.23758931  1
  O  O350  1  0.24450414  0.88457563  0.74894795  1
  O  O351  1  0.75184441  0.37922319  0.24001014  1
  O  O352  1  0.73337036  0.36929412  0.73555961  1
  O  O353  1  0.74211538  0.88743492  0.25623945  1
  O  O354  1  0.73961512  0.88465033  0.75037437  1
  O  O355  1  0.25364100  0.12123608  0.25742059  1
  O  O356  1  0.25351775  0.12112634  0.75512121  1
  O  O357  1  0.25943249  0.61941895  0.25401989  1
  O  O358  1  0.25008200  0.62152044  0.75684940  1
  O  O359  1  0.74536535  0.11017653  0.25819621  1
  O  O360  1  0.74854634  0.11391207  0.74480921  1
  O  O361  1  0.75733656  0.62541211  0.26013697  1
  O  O362  1  0.76175225  0.61930466  0.77305504  1
  O  O363  1  0.36599613  0.11587727  0.37047318  1
  O  O364  1  0.36519567  0.12840002  0.86481399  1
  O  O365  1  0.36924152  0.61812735  0.37005856  1
  O  O366  1  0.36604553  0.62310761  0.87049954  1
  O  O367  1  0.86703069  0.12930462  0.37548937  1
  O  O368  1  0.87610875  0.11823983  0.87226191  1
  O  O369  1  0.86724406  0.62132939  0.36847847  1
  O  O370  1  0.91633189  0.61368640  0.84181664  1
  O  O371  1  0.13282082  0.37590098  0.13480112  1
  O  O372  1  0.13110358  0.38552899  0.62617842  1
  O  O373  1  0.14009232  0.87349996  0.11741001  1
  O  O374  1  0.13940783  0.87457886  0.63946260  1
  O  O375  1  0.64235284  0.36827961  0.12050819  1
  O  O376  1  0.63040569  0.37273789  0.63138265  1
  O  O377  1  0.62551664  0.88168496  0.13506194  1
  O  O378  1  0.61901954  0.88464029  0.63495930  1
  O  O379  1  0.12553036  0.26114650  0.24926635  1
  O  O380  1  0.11229097  0.25268818  0.74193478  1
  O  O381  1  0.11112849  0.74340644  0.24609876  1
  O  O382  1  0.11980184  0.76313007  0.75687973  1
  O  O383  1  0.61925122  0.25176798  0.25726473  1
  O  O384  1  0.61442957  0.25323547  0.75727506  1
  O  O385  1  0.62122134  0.76525361  0.25747642  1
  O  O386  1  0.62046344  0.75508003  0.74863938  1
  O  O387  1  0.38359831  0.24138881  0.25035565  1
  O  O388  1  0.37838432  0.24168644  0.74293098  1
  O  O389  1  0.37454112  0.74340434  0.24156638  1
  O  O390  1  0.38305693  0.74824844  0.74901940  1
  O  O391  1  0.88146470  0.25192658  0.23884225  1
  O  O392  1  0.88551411  0.25192853  0.73627249  1
  O  O393  1  0.88926507  0.73548537  0.25325835  1
  O  O394  1  0.88155277  0.75950858  0.73826279  1
  O  O395  1  0.35985793  0.48893471  0.48027309  1
  O  O396  1  0.37792757  0.49293056  0.99594962  1
  O  O397  1  0.38190283  1.00387901  0.49130375  1
  O  O398  1  0.38777690  0.99439323  1.00036302  1
  O  O399  1  0.88882398  0.49607050  0.50215310  1
  O  O400  1  0.88881307  0.47354832  1.01151502  1
  O  O401  1  0.86845705  0.99768479  0.48562835  1
  O  O402  1  0.88729103  0.99226712  0.99957997  1
  O  O403  1  0.11560370  0.00535265  0.00348288  1
  O  O404  1  0.13174996  0.00938516  0.50301152  1
  O  O405  1  0.11725714  0.50706358  0.00517681  1
  O  O406  1  0.11584319  0.50113085  0.51103388  1
  O  O407  1  0.61344735  0.00792162  -0.00241011  1
  O  O408  1  0.61991037  0.00070939  0.50670534  1
  O  O409  1  0.60856318  0.49317701  0.00097193  1
  O  O410  1  0.62483310  0.51449139  0.49850684  1
  O  O411  1  0.36736298  0.37238363  0.11980108  1
  O  O412  1  0.36632443  0.36053384  0.62228622  1
  O  O413  1  0.36865807  0.87110754  0.11394308  1
  O  O414  1  0.36209820  0.86551605  0.63501688  1
  O  O415  1  0.86951768  0.36197565  0.12096248  1
  O  O416  1  0.86902897  0.37069088  0.62106429  1
  O  O417  1  0.87373992  0.87490957  0.10798127  1
  O  O418  1  0.87430053  0.86393875  0.61875001  1
  O  O419  1  0.13513843  0.11968397  0.38307777  1
  O  O420  1  0.13172869  0.12317894  0.88854042  1
  O  O421  1  0.14168755  0.61765225  0.37631645  1
  O  O422  1  0.11988154  0.62991971  0.88610245  1
  O  O423  1  0.63269382  0.13614472  0.37585259  1
  O  O424  1  0.62371503  0.14011572  0.87774756  1
  O  O425  1  0.63090889  0.62845089  0.38364508  1
  O  O426  1  0.62080062  0.64310971  0.87563672  1
