# generated using pymatgen
data_V85Zn86O256
_symmetry_space_group_name_H-M   'P 1'
_cell_length_a   16.95959867
_cell_length_b   16.95628647
_cell_length_c   16.95170524
_cell_angle_alpha   90.03881515
_cell_angle_beta   89.93914940
_cell_angle_gamma   89.99272239
_symmetry_Int_Tables_number   1
_chemical_formula_structural   V85Zn86O256
_chemical_formula_sum   'V85 Zn86 O256'
_cell_volume   4874.82871237
_cell_formula_units_Z   1
loop_
 _symmetry_equiv_pos_site_id
 _symmetry_equiv_pos_as_xyz
  1  'x, y, z'
loop_
 _atom_site_type_symbol
 _atom_site_label
 _atom_site_symmetry_multiplicity
 _atom_site_fract_x
 _atom_site_fract_y
 _atom_site_fract_z
 _atom_site_occupancy
  V  V0  1  0.36873257  0.87523338  0.50729028  1
  V  V1  1  0.62280520  0.00770662  0.62399248  1
  V  V2  1  0.50283771  0.12494297  0.12785521  1
  V  V3  1  0.50477514  0.62684111  0.11778508  1
  V  V4  1  0.75291248  0.24304060  -0.00720531  1
  V  V5  1  0.68451683  0.57784620  -0.05320075  1
  V  V6  1  0.87217328  0.24304055  0.13791783  1
  V  V7  1  0.88056500  0.24984767  0.62636407  1
  V  V8  1  0.12428131  0.50592029  0.61815629  1
  V  V9  1  0.24160952  0.50089058  0.23593714  1
  V  V10  1  0.87078506  0.00091802  0.87766744  1
  V  V11  1  0.48443472  -0.00385887  0.00365303  1
  V  V12  1  0.00211973  0.00026118  0.00036653  1
  V  V13  1  0.87826413  -0.00634760  0.37558090  1
  V  V14  1  0.49998183  0.00280879  0.50246161  1
  V  V15  1  0.24740279  0.62650200  0.37901925  1
  V  V16  1  0.12075774  0.75084501  0.38106304  1
  V  V17  1  0.62741344  0.12263690  -0.00469580  1
  V  V18  1  0.50028680  0.62191542  0.61748758  1
  V  V19  1  0.12651495  0.13225972  0.48795254  1
  V  V20  1  0.20218674  0.31516315  0.07399932  1
  V  V21  1  0.38302129  0.49615570  0.87368142  1
  V  V22  1  0.25509854  0.75306169  -0.00293529  1
  V  V23  1  0.75489331  0.62191749  0.37539317  1
  V  V24  1  0.62827178  0.26358821  0.36927052  1
  V  V25  1  0.37675233  0.12526774  0.25259373  1
  V  V26  1  0.00086226  0.35708688  0.37091766  1
  V  V27  1  0.39276820  0.04273686  0.83212116  1
  V  V28  1  0.75072459  0.00579461  0.75382599  1
  V  V29  1  0.87520713  0.37481395  -0.00005398  1
  V  V30  1  0.12257816  0.37036229  0.25181278  1
  V  V31  1  0.87323166  0.74707395  0.63363263  1
  V  V32  1  0.62769259  0.49333724  0.62327133  1
  V  V33  1  0.87814024  0.74901488  0.12443070  1
  V  V34  1  0.48498682  0.87236154  0.87981982  1
  V  V35  1  0.23439707  0.13689948  0.87738672  1
  V  V36  1  0.74705300  0.75191753  0.00063596  1
  V  V37  1  0.75211152  0.87493268  0.12619913  1
  V  V38  1  0.75490399  0.00447197  0.24994684  1
  V  V39  1  0.62456872  0.12885451  0.49935502  1
  V  V40  1  0.00834812  0.62128693  0.12400681  1
  V  V41  1  0.25637944  0.87620175  0.11996113  1
  V  V42  1  0.24985405  -0.00051406  0.25547404  1
  V  V43  1  0.50896896  0.26953006  0.24938345  1
  V  V44  1  0.25163948  0.37373766  0.59963518  1
  V  V45  1  0.49954835  0.87663596  0.37598297  1
  V  V46  1  0.00063255  0.50617954  0.48928983  1
  V  V47  1  0.62612485  0.49792563  0.13307767  1
  V  V48  1  0.12570141  0.00377203  0.12399470  1
  V  V49  1  0.49856161  0.48151426  0.49282454  1
  V  V50  1  0.37602432  0.25345271  0.12547224  1
  V  V51  1  0.01279867  0.12468962  0.62730556  1
  V  V52  1  0.87937734  0.38018126  0.49764242  1
  V  V53  1  0.75069835  0.75126071  0.49806776  1
  V  V54  1  0.12865284  0.36434657  0.75092841  1
  V  V55  1  0.49842816  0.35949320  0.87277193  1
  V  V56  1  0.00757582  0.87466423  0.86766421  1
  V  V57  1  0.13061912  -0.01511860  0.62780105  1
  V  V58  1  0.75047289  0.49351834  0.25422271  1
  V  V59  1  0.75693939  0.12686470  0.37232011  1
  V  V60  1  0.75357894  0.25345371  0.50256912  1
  V  V61  1  0.38264247  0.61525197  0.74801896  1
  V  V62  1  0.24702886  0.74960424  0.50796430  1
  V  V63  1  0.62890310  0.75649653  0.87756680  1
  V  V64  1  0.62267250  0.62488132  0.49480351  1
  V  V65  1  0.62552200  0.36526965  0.74482505  1
  V  V66  1  0.87840158  0.61960946  0.25482115  1
  V  V67  1  0.62567022  0.87539961  0.25137715  1
  V  V68  1  0.37054553  0.00476060  0.37910350  1
  V  V69  1  -0.00524647  0.12251547  0.13984505  1
  V  V70  1  0.87647046  0.12774535  0.75518247  1
  V  V71  1  0.50187933  0.74937796  0.74734423  1
  V  V72  1  0.00781807  0.50053813  -0.00066778  1
  V  V73  1  0.00124629  -0.00909109  0.49996304  1
  V  V74  1  0.75191315  0.88077840  0.62342541  1
  V  V75  1  0.24223069  -0.01602220  0.75666304  1
  V  V76  1  0.37463320  0.62811164  0.24871213  1
  V  V77  1  0.37717174  0.49161396  0.37413055  1
  V  V78  1  0.49958765  0.75072374  0.24960155  1
  V  V79  1  0.11995485  0.87494733  0.25445458  1
  V  V80  1  0.25073503  0.49669983  0.74529194  1
  V  V81  1  0.37562994  0.37668666  0.00636835  1
  V  V82  1  0.00080253  0.75176226  0.25287423  1
  V  V83  1  -0.00271484  0.62066067  0.63173374  1
  V  V84  1  0.24641566  0.62219869  0.87359865  1
  Zn  Zn85  1  0.01348731  0.24316985  0.76113772  1
  Zn  Zn86  1  0.62565838  -0.00014075  0.12283751  1
  Zn  Zn87  1  0.62240100  0.88032552  0.75157466  1
  Zn  Zn88  1  0.62480857  0.74982110  0.37478420  1
  Zn  Zn89  1  0.87831654  0.50086571  0.86735134  1
  Zn  Zn90  1  0.13018033  0.75746925  0.86990223  1
  Zn  Zn91  1  0.37885691  0.75591966  0.11938939  1
  Zn  Zn92  1  0.87944478  0.87080510  0.49708444  1
  Zn  Zn93  1  0.00921485  0.36869454  0.87950188  1
  Zn  Zn94  1  0.12718030  0.62546201  0.00249125  1
  Zn  Zn95  1  0.37175381  0.75021814  0.62615035  1
  Zn  Zn96  1  0.62735940  0.24124402  0.86628498  1
  Zn  Zn97  1  0.74520140  0.36974071  0.13020906  1
  Zn  Zn98  1  0.50321213  0.50211788  -0.00090065  1
  Zn  Zn99  1  0.27022400  0.20882942  0.43492288  1
  Zn  Zn100  1  0.00248231  0.74465741  0.75358988  1
  Zn  Zn101  1  0.37140348  0.25355923  0.58894681  1
  Zn  Zn102  1  0.12319488  0.13853822  0.00384763  1
  Zn  Zn103  1  0.82928863  0.59932369  0.75521515  1
  Zn  Zn104  1  0.43533159  0.18263834  0.70677666  1
  Zn  Zn105  1  0.76892890  0.39000758  0.64341528  1
  Zn  Zn106  1  0.87765950  0.87309830  -0.00137495  1
  Zn  Zn107  1  0.19624142  0.19819518  0.24152256  1
  Zn  Zn108  1  0.23131218  0.18168522  0.68210115  1
  Zn  Zn109  1  0.18928424  0.69089900  0.18804849  1
  Zn  Zn110  1  0.18193252  0.68642553  0.69151400  1
  Zn  Zn111  1  0.68836785  0.18653560  0.18617240  1
  Zn  Zn112  1  0.69247624  0.18935931  0.68600015  1
  Zn  Zn113  1  0.68682926  0.68476803  0.18768540  1
  Zn  Zn114  1  0.68301458  0.69538040  0.67842748  1
  Zn  Zn115  1  0.31447625  0.31924827  0.30489553  1
  Zn  Zn116  1  0.30475552  0.30921603  0.81751707  1
  Zn  Zn117  1  0.31059325  0.81512453  0.31564230  1
  Zn  Zn118  1  0.31275796  0.80605423  0.80707775  1
  Zn  Zn119  1  0.81652679  0.31549988  0.31819322  1
  Zn  Zn120  1  0.81525876  0.31475017  0.81455813  1
  Zn  Zn121  1  0.81428601  0.81045683  0.31273449  1
  Zn  Zn122  1  0.81262301  0.81744917  0.81261303  1
  Zn  Zn123  1  0.17959454  0.44570272  0.42714168  1
  Zn  Zn124  1  0.18686192  0.44206544  0.93336883  1
  Zn  Zn125  1  0.18636431  0.93616998  0.44042040  1
  Zn  Zn126  1  0.19387191  0.94314679  0.93822976  1
  Zn  Zn127  1  0.69384662  0.43950657  0.44149577  1
  Zn  Zn128  1  0.68526999  0.41388269  0.93984189  1
  Zn  Zn129  1  0.68971902  0.93874457  0.43713086  1
  Zn  Zn130  1  0.68337063  0.93837097  0.93860611  1
  Zn  Zn131  1  0.30635730  0.07113717  0.06314431  1
  Zn  Zn132  1  0.30984064  0.06567242  0.56853598  1
  Zn  Zn133  1  0.31717347  0.56803234  0.05996637  1
  Zn  Zn134  1  0.31613862  0.55883780  0.55854785  1
  Zn  Zn135  1  0.81299465  0.06321908  0.06232006  1
  Zn  Zn136  1  0.81654350  0.06608886  0.56247859  1
  Zn  Zn137  1  0.82325664  0.55677292  0.07122326  1
  Zn  Zn138  1  0.81507876  0.56364206  0.56251968  1
  Zn  Zn139  1  0.43551974  0.44402510  0.18711478  1
  Zn  Zn140  1  0.41696894  0.38060883  0.70340594  1
  Zn  Zn141  1  0.43704577  0.93912186  0.18810741  1
  Zn  Zn142  1  0.44009137  0.93609523  0.68466125  1
  Zn  Zn143  1  0.93669609  0.43701417  0.18700747  1
  Zn  Zn144  1  0.94249390  0.43951410  0.69245537  1
  Zn  Zn145  1  0.93682641  0.93717573  0.18926055  1
  Zn  Zn146  1  0.93742792  0.93881145  0.68712345  1
  Zn  Zn147  1  0.05943304  0.05719633  0.31505879  1
  Zn  Zn148  1  0.06455949  0.06058440  0.81247154  1
  Zn  Zn149  1  0.06587739  0.56396686  0.31198727  1
  Zn  Zn150  1  0.06119186  0.55585450  0.81150410  1
  Zn  Zn151  1  0.56649490  0.06522209  0.31449657  1
  Zn  Zn152  1  0.56610231  0.05966471  0.81575461  1
  Zn  Zn153  1  0.56285428  0.56140247  0.31174414  1
  Zn  Zn154  1  0.61432563  0.58303904  0.78192628  1
  Zn  Zn155  1  0.44893686  0.19297343  0.43483866  1
  Zn  Zn156  1  0.43430957  0.18763105  0.94638738  1
  Zn  Zn157  1  0.43380890  0.68832364  0.43445517  1
  Zn  Zn158  1  0.43562338  0.68689427  0.93511192  1
  Zn  Zn159  1  0.94005700  0.18178072  0.43980885  1
  Zn  Zn160  1  0.94317093  0.18811445  0.93991574  1
  Zn  Zn161  1  0.93838971  0.68731041  0.44159744  1
  Zn  Zn162  1  0.92921797  0.68162454  0.93073486  1
  Zn  Zn163  1  0.04266901  0.31631714  0.07754213  1
  Zn  Zn164  1  0.06532025  0.31438663  0.56404382  1
  Zn  Zn165  1  0.06831429  0.81294963  0.05873833  1
  Zn  Zn166  1  0.06062509  0.80638158  0.56494945  1
  Zn  Zn167  1  0.56381963  0.31299174  0.06037103  1
  Zn  Zn168  1  0.55718282  0.30313719  0.56916906  1
  Zn  Zn169  1  0.56355736  0.81487652  0.06216879  1
  Zn  Zn170  1  0.56384404  0.81550291  0.56235372  1
  O  O171  1  0.11622928  0.10986710  0.12701437  1
  O  O172  1  0.11760445  0.11648516  0.62158443  1
  O  O173  1  0.11169454  0.63265723  0.12543973  1
  O  O174  1  0.11591722  0.61274212  0.62535599  1
  O  O175  1  0.61677286  0.12244495  0.11775785  1
  O  O176  1  0.63399854  0.11555297  0.61540405  1
  O  O177  1  0.61621593  0.61469924  0.12922099  1
  O  O178  1  0.61650938  0.61838281  0.61271061  1
  O  O179  1  0.37580145  0.39281723  0.36441676  1
  O  O180  1  0.37746491  0.37700941  0.88776377  1
  O  O181  1  0.37941100  0.88565762  0.38414655  1
  O  O182  1  0.38573606  0.86544870  0.87410929  1
  O  O183  1  0.88687435  0.37472464  0.38596013  1
  O  O184  1  0.87264178  0.37785198  0.89132257  1
  O  O185  1  0.86744398  0.88808327  0.37873763  1
  O  O186  1  0.88230645  0.88747050  0.87741102  1
  O  O187  1  0.25848864  -0.00598594  0.36758292  1
  O  O188  1  0.26093468  0.00102755  0.86351753  1
  O  O189  1  0.25651865  0.51154099  0.36659771  1
  O  O190  1  0.26060113  0.50334719  0.86556783  1
  O  O191  1  0.75528248  0.00696802  0.36876757  1
  O  O192  1  0.75807677  -0.00538007  0.86674299  1
  O  O193  1  0.74819371  0.51361546  0.36984738  1
  O  O194  1  0.73476837  0.51067017  0.89155458  1
  O  O195  1  0.25255382  0.51213344  0.13821774  1
  O  O196  1  0.24348778  0.49774510  0.62701350  1
  O  O197  1  0.24249378  0.99398573  0.12998160  1
  O  O198  1  0.23611974  0.99967243  0.63713837  1
  O  O199  1  0.74375817  0.50112523  0.13640627  1
  O  O200  1  0.73283859  0.49640243  0.60954764  1
  O  O201  1  0.75086207  0.99170463  0.13263576  1
  O  O202  1  0.74679823  0.99649177  0.62969784  1
  O  O203  1  0.00714197  0.38823800  0.26204333  1
  O  O204  1  0.02099561  0.37159884  0.74536311  1
  O  O205  1  0.01246320  0.87048871  0.24604767  1
  O  O206  1  -0.00467863  0.87710621  0.76568656  1
  O  O207  1  0.50159838  0.36816166  0.24310029  1
  O  O208  1  0.51346462  0.37649345  0.76227966  1
  O  O209  1  0.50812477  0.87305284  0.25424661  1
  O  O210  1  0.49976949  0.86622424  0.75707970  1
  O  O211  1  0.49711464  0.12471283  0.23899408  1
  O  O212  1  0.46920632  0.09848207  0.77376313  1
  O  O213  1  0.49276959  0.63052640  0.24285949  1
  O  O214  1  0.50617855  0.63028259  0.73809940  1
  O  O215  1  0.99704671  0.11338845  0.23891100  1
  O  O216  1  0.99540206  0.12405124  0.74316240  1
  O  O217  1  0.99440317  0.62887966  0.24427285  1
  O  O218  1  1.00006470  0.61984644  0.73703615  1
  O  O219  1  0.37541954  0.25773475  0.01719242  1
  O  O220  1  0.36464495  0.24803992  0.47644076  1
  O  O221  1  0.36103979  0.74452888  0.00182191  1
  O  O222  1  0.36628450  0.75891286  0.49910939  1
  O  O223  1  0.86831527  0.25266082  0.00793275  1
  O  O224  1  0.87605367  0.25571085  0.50823501  1
  O  O225  1  0.86190611  0.75129435  0.00347157  1
  O  O226  1  0.86824045  0.75091546  0.51276822  1
  O  O227  1  0.11561549  0.23151549  0.50163468  1
  O  O228  1  0.13474767  0.25728548  1.02369889  1
  O  O229  1  0.13211471  0.75487051  0.49090588  1
  O  O230  1  0.13777293  0.74617583  0.99155924  1
  O  O231  1  0.63199240  0.24352916  0.49409381  1
  O  O232  1  0.63419230  0.24113918  1.00091983  1
  O  O233  1  0.63298499  0.74406561  0.49918463  1
  O  O234  1  0.63757045  0.75310814  0.99493142  1
  O  O235  1  0.49698950  0.24344407  0.13018988  1
  O  O236  1  0.48287481  0.24165536  0.62032912  1
  O  O237  1  0.50008186  0.74535280  0.13052796  1
  O  O238  1  0.50180730  0.74358658  0.63186221  1
  O  O239  1  0.98206617  0.23609082  0.12536348  1
  O  O240  1  0.99422071  0.24145839  0.62885918  1
  O  O241  1  0.99579638  0.74654830  0.12970734  1
  O  O242  1  0.98989340  0.73943188  0.62575676  1
  O  O243  1  -0.00495963  0.25790043  0.37353228  1
  O  O244  1  -0.00069825  0.25581518  0.87284485  1
  O  O245  1  0.01120560  0.74373502  0.37035905  1
  O  O246  1  -0.00409976  0.76724023  0.87923629  1
  O  O247  1  0.51718626  0.24485448  0.35898009  1
  O  O248  1  0.49997769  0.25690363  0.88205999  1
  O  O249  1  0.50133427  0.75866249  0.36788736  1
  O  O250  1  0.50888910  0.75363623  0.87110818  1
  O  O251  1  0.23163165  0.11986143  0.49751075  1
  O  O252  1  0.23873915  0.11679203  0.98549266  1
  O  O253  1  0.25895563  0.63230303  0.48577610  1
  O  O254  1  0.24937838  0.62976485  0.99001239  1
  O  O255  1  0.74418946  0.13104061  0.49397642  1
  O  O256  1  0.73911087  0.12946548  1.00551814  1
  O  O257  1  0.74594780  0.62943242  0.49242639  1
  O  O258  1  0.75042542  0.63084448  1.00694294  1
  O  O259  1  0.25397270  0.37419695  0.00423326  1
  O  O260  1  0.24012579  0.38352564  0.50145335  1
  O  O261  1  0.24600471  0.86796729  0.00844376  1
  O  O262  1  0.25809857  0.86442552  0.49663290  1
  O  O263  1  0.75756494  0.36274537  0.00910428  1
  O  O264  1  0.76399462  0.36899880  0.50181145  1
  O  O265  1  0.74966311  0.87032506  0.01183118  1
  O  O266  1  0.75126052  0.87072500  0.50749028  1
  O  O267  1  0.13666410  0.49814903  0.24941617  1
  O  O268  1  0.13473100  0.49423182  0.73951071  1
  O  O269  1  0.13164102  0.99271855  0.24755985  1
  O  O270  1  0.13195818  0.99687534  0.74027640  1
  O  O271  1  0.63671435  0.50437852  0.24464543  1
  O  O272  1  0.61882302  0.48168958  0.73254986  1
  O  O273  1  0.63673927  0.99242778  0.24989997  1
  O  O274  1  0.63302712  1.00254022  0.74222325  1
  O  O275  1  0.36880039  0.00130973  0.25986328  1
  O  O276  1  0.35732365  -0.00798894  0.74442444  1
  O  O277  1  0.36594610  0.51038639  0.25321374  1
  O  O278  1  0.36992095  0.49543098  0.75487216  1
  O  O279  1  0.86267949  -0.00614393  0.25822736  1
  O  O280  1  0.86918704  0.00713814  0.75580079  1
  O  O281  1  0.86812687  0.51397559  0.24486346  1
  O  O282  1  0.86236311  0.48726095  0.75130150  1
  O  O283  1  0.11283889  0.37834870  0.36413343  1
  O  O284  1  0.13180770  0.37825136  0.85495349  1
  O  O285  1  0.13054163  0.86585210  0.36489434  1
  O  O286  1  0.10990381  0.88037919  0.88030062  1
  O  O287  1  0.63726627  0.36201627  0.37795509  1
  O  O288  1  0.61531441  0.36644692  0.86543911  1
  O  O289  1  0.62257190  0.87512799  0.36425316  1
  O  O290  1  0.61421799  0.86934377  0.87309714  1
  O  O291  1  0.38195532  0.13429857  0.13011910  1
  O  O292  1  0.33945919  0.14733979  0.63846141  1
  O  O293  1  0.38271505  0.62920997  0.13592693  1
  O  O294  1  0.38850379  0.62248656  0.62883121  1
  O  O295  1  0.87894977  0.13413675  0.12466529  1
  O  O296  1  0.88733665  0.12899107  0.63379426  1
  O  O297  1  0.88456115  0.63297664  0.13461288  1
  O  O298  1  0.87434048  0.63133576  0.63565295  1
  O  O299  1  0.25800736  0.25378505  0.13744907  1
  O  O300  1  0.24284105  0.27263544  0.61304405  1
  O  O301  1  0.25020761  0.75926965  0.11685089  1
  O  O302  1  0.25105948  0.73725395  0.61120359  1
  O  O303  1  0.75888949  0.24824883  0.11783499  1
  O  O304  1  0.76715993  0.25033531  0.61960185  1
  O  O305  1  0.75381146  0.75628520  0.12028106  1
  O  O306  1  0.75411438  0.76142923  0.61920224  1
  O  O307  1  0.23845484  0.24544377  0.33720108  1
  O  O308  1  0.24128449  0.23630847  0.87543472  1
  O  O309  1  0.24340203  0.74470243  0.38214639  1
  O  O310  1  0.25241771  0.73889971  0.87887158  1
  O  O311  1  0.74952833  0.24258063  0.38043158  1
  O  O312  1  0.74911790  0.25107179  0.88898068  1
  O  O313  1  0.74907242  0.74062110  0.37990973  1
  O  O314  1  0.73753743  0.76020483  0.88252765  1
  O  O315  1  0.00307958  0.11258876  0.00940059  1
  O  O316  1  0.00716705  0.11192579  0.50847325  1
  O  O317  1  -0.00019074  0.61930309  0.00707546  1
  O  O318  1  -0.01255486  0.61412006  0.51561737  1
  O  O319  1  0.50453892  0.11878112  0.01160237  1
  O  O320  1  0.51816063  0.11770555  0.49075041  1
  O  O321  1  0.49235132  0.62375495  0.01417331  1
  O  O322  1  0.50575716  0.62868386  0.50404792  1
  O  O323  1  0.50747805  0.38373220  0.49771087  1
  O  O324  1  0.49279493  0.37908091  0.99266370  1
  O  O325  1  0.49452731  0.88204428  0.49411981  1
  O  O326  1  0.50322681  0.88432502  0.99314746  1
  O  O327  1  0.99795649  0.38110123  0.49029056  1
  O  O328  1  0.99290564  0.38377079  1.00231005  1
  O  O329  1  0.99853747  0.88664226  0.50671498  1
  O  O330  1  0.99761128  0.88601939  0.99548950  1
  O  O331  1  0.49132973  0.50712679  0.38255689  1
  O  O332  1  0.48636759  0.49021310  0.87745743  1
  O  O333  1  0.49442808  0.99488117  0.38102485  1
  O  O334  1  0.48469275  0.99264613  0.88191866  1
  O  O335  1  1.00205901  0.50451011  0.38745354  1
  O  O336  1  0.99985682  0.49008877  0.88424403  1
  O  O337  1  0.98949945  1.00053596  0.38551900  1
  O  O338  1  0.99403756  0.99252433  0.88164716  1
  O  O339  1  0.00377792  0.00150270  0.11886550  1
  O  O340  1  0.00974286  0.00473306  0.62230078  1
  O  O341  1  -0.00682317  0.51142748  0.11599014  1
  O  O342  1  0.00732584  0.50298691  0.61721298  1
  O  O343  1  0.50218972  0.00669568  0.12093362  1
  O  O344  1  0.51259419  -0.00238844  0.61841156  1
  O  O345  1  0.50772704  0.50920670  0.12342054  1
  O  O346  1  0.51185750  0.50875263  0.60708241  1
  O  O347  1  0.24102094  0.39465349  0.24859461  1
  O  O348  1  0.24378329  0.38617807  0.74159040  1
  O  O349  1  0.24287441  0.88301739  0.24414266  1
  O  O350  1  0.24593007  0.88417962  0.75693480  1
  O  O351  1  0.75916897  0.39030288  0.25058198  1
  O  O352  1  0.73221877  0.36869222  0.75216280  1
  O  O353  1  0.74436196  0.87800718  0.24296064  1
  O  O354  1  0.74825760  0.88875220  0.74188733  1
  O  O355  1  0.26087652  0.10584880  0.24062158  1
  O  O356  1  0.24199127  0.10998702  0.77044547  1
  O  O357  1  0.25607497  0.62165393  0.25580802  1
  O  O358  1  0.25913714  0.61250213  0.75259311  1
  O  O359  1  0.74613162  0.11460703  0.25826229  1
  O  O360  1  0.76054053  0.11391783  0.74532631  1
  O  O361  1  0.75854066  0.62077459  0.25728921  1
  O  O362  1  0.71920829  0.62337186  0.75262476  1
  O  O363  1  0.38228262  0.11097539  0.36856409  1
  O  O364  1  0.35825377  0.12575705  0.88570646  1
  O  O365  1  0.36869317  0.62243890  0.36187207  1
  O  O366  1  0.36962715  0.61492369  0.86714350  1
  O  O367  1  0.86337583  0.11413893  0.38214723  1
  O  O368  1  0.88233967  0.11346249  0.86387403  1
  O  O369  1  0.86764082  0.63118398  0.36651846  1
  O  O370  1  0.87435332  0.61600081  0.86152881  1
  O  O371  1  0.13667123  0.37702667  0.12313503  1
  O  O372  1  0.13286033  0.38766850  0.62828552  1
  O  O373  1  0.13340904  0.88349100  0.13357000  1
  O  O374  1  0.12223013  0.88682979  0.62210391  1
  O  O375  1  0.62607293  0.39275946  0.11696818  1
  O  O376  1  0.62496105  0.37616226  0.63212307  1
  O  O377  1  0.63277995  0.87706300  0.13600828  1
  O  O378  1  0.63622700  0.88684120  0.62567669  1
  O  O379  1  0.11261217  0.27184617  0.23126423  1
  O  O380  1  0.13510317  0.26404422  0.73695737  1
  O  O381  1  0.12109381  0.75797783  0.25728822  1
  O  O382  1  0.11735571  0.74575149  0.75798492  1
  O  O383  1  0.62106798  0.24911980  0.25564650  1
  O  O384  1  0.62293699  0.25709805  0.74724817  1
  O  O385  1  0.62001524  0.75910562  0.25099592  1
  O  O386  1  0.61438846  0.75617131  0.75772332  1
  O  O387  1  0.38877579  0.24828669  0.24048780  1
  O  O388  1  0.37810293  0.27738610  0.74204617  1
  O  O389  1  0.37971055  0.74490101  0.24921383  1
  O  O390  1  0.38716886  0.73740082  0.74708923  1
  O  O391  1  0.86554624  0.25089698  0.23630795  1
  O  O392  1  0.87542204  0.24157008  0.74442208  1
  O  O393  1  0.88232706  0.74259104  0.24611243  1
  O  O394  1  0.87621033  0.75547811  0.73877487  1
  O  O395  1  0.38830496  0.50637089  0.48668218  1
  O  O396  1  0.37420603  0.49219652  0.99309586  1
  O  O397  1  0.37598298  0.99700210  0.49768259  1
  O  O398  1  0.38509384  1.00472663  1.00862316  1
  O  O399  1  0.88462871  0.48702609  0.50858629  1
  O  O400  1  0.88340588  0.48970205  1.00100986  1
  O  O401  1  0.88369469  0.99852670  0.49487228  1
  O  O402  1  0.88114294  0.99974874  0.99234769  1
  O  O403  1  0.11712104  -0.00336848  0.01055159  1
  O  O404  1  0.12034282  0.00371120  0.51112423  1
  O  O405  1  0.11273804  0.50284038  -0.00177089  1
  O  O406  1  0.11314981  0.50079954  0.50582531  1
  O  O407  1  0.61542302  0.00741428  0.00218930  1
  O  O408  1  0.62359421  0.00720177  0.50627904  1
  O  O409  1  0.62815263  0.50833650  0.00320000  1
  O  O410  1  0.61578451  0.50631463  0.49736524  1
  O  O411  1  0.37906820  0.37192905  0.11483592  1
  O  O412  1  0.35533580  0.38387395  0.60852260  1
  O  O413  1  0.36036136  0.87485869  0.13161006  1
  O  O414  1  0.37955130  0.87080952  0.61099938  1
  O  O415  1  0.87548554  0.36157187  0.11774226  1
  O  O416  1  0.88134008  0.36487278  0.61879435  1
  O  O417  1  0.86648514  0.86834416  0.12452144  1
  O  O418  1  0.86437171  0.87133457  0.62357492  1
  O  O419  1  0.11880317  0.11992269  0.38831114  1
  O  O420  1  0.12983494  0.12099650  0.88356996  1
  O  O421  1  0.13719317  0.63700020  0.36854236  1
  O  O422  1  0.14074285  0.61723037  0.87332904  1
  O  O423  1  0.63930251  0.12974438  0.38160502  1
  O  O424  1  0.62006141  0.12597833  0.88934004  1
  O  O425  1  0.63310017  0.62834202  0.38002753  1
  O  O426  1  0.61880925  0.63356075  0.88855141  1
