# generated using pymatgen
data_V85Zn86O256
_symmetry_space_group_name_H-M   'P 1'
_cell_length_a   16.92107865
_cell_length_b   16.92475195
_cell_length_c   16.92828322
_cell_angle_alpha   90.04859585
_cell_angle_beta   90.06284976
_cell_angle_gamma   90.05381010
_symmetry_Int_Tables_number   1
_chemical_formula_structural   V85Zn86O256
_chemical_formula_sum   'V85 Zn86 O256'
_cell_volume   4848.00058540
_cell_formula_units_Z   1
loop_
 _symmetry_equiv_pos_site_id
 _symmetry_equiv_pos_as_xyz
  1  'x, y, z'
loop_
 _atom_site_type_symbol
 _atom_site_label
 _atom_site_symmetry_multiplicity
 _atom_site_fract_x
 _atom_site_fract_y
 _atom_site_fract_z
 _atom_site_occupancy
  V  V0  1  0.73987430  0.12707772  0.87418888  1
  V  V1  1  -0.00215852  0.74843603  0.74630522  1
  V  V2  1  0.50185442  0.88164348  0.38126582  1
  V  V3  1  0.74863940  0.62656469  0.37715860  1
  V  V4  1  0.86178099  -0.00289891  0.37209188  1
  V  V5  1  0.24914526  0.37429057  0.62177845  1
  V  V6  1  0.73834339  0.25053807  -0.00278081  1
  V  V7  1  0.37716277  0.37389955  -0.00164062  1
  V  V8  1  0.24926366  0.50555398  0.75518812  1
  V  V9  1  0.25193431  0.88106150  0.13509876  1
  V  V10  1  0.62171547  0.35897779  0.74738787  1
  V  V11  1  0.25222129  0.00072232  0.75260863  1
  V  V12  1  0.62645797  0.74757656  0.37905981  1
  V  V13  1  0.00842119  0.50125072  0.00198627  1
  V  V14  1  -0.01447676  0.62670044  0.61964585  1
  V  V15  1  0.87877904  0.12300814  0.24142628  1
  V  V16  1  0.75018541  0.88038976  0.13139157  1
  V  V17  1  0.74548902  0.49418181  0.74583352  1
  V  V18  1  -0.00012874  0.87190082  0.87601385  1
  V  V19  1  0.74902004  0.50116813  0.24902627  1
  V  V20  1  0.00870254  0.62398671  0.12488417  1
  V  V21  1  0.37965132  0.25515252  0.14358304  1
  V  V22  1  0.62145034  0.00246530  0.11759083  1
  V  V23  1  0.62437382  -0.00138637  0.61698190  1
  V  V24  1  -0.00140512  0.00056781  0.50060124  1
  V  V25  1  0.12652246  -0.00071078  0.62767654  1
  V  V26  1  0.13231680  0.12501876  0.50178128  1
  V  V27  1  0.75262088  0.36663318  0.61109490  1
  V  V28  1  0.25251205  0.12401531  0.35884611  1
  V  V29  1  0.12348891  0.37442292  0.75032838  1
  V  V30  1  0.74100684  0.74545983  0.00275318  1
  V  V31  1  0.37984163  0.87826225  0.00373055  1
  V  V32  1  0.87446847  0.87328063  0.00109161  1
  V  V33  1  -0.00632606  0.48641420  0.49613215  1
  V  V34  1  0.87436355  0.37444754  0.00066738  1
  V  V35  1  0.37501361  0.63318068  0.74156807  1
  V  V36  1  0.25034443  0.62463718  0.37545106  1
  V  V37  1  0.37941878  0.88755697  0.50478808  1
  V  V38  1  0.12726911  0.00567474  0.13798736  1
  V  V39  1  0.50341175  0.87523184  0.87524395  1
  V  V40  1  0.25730024  0.87053172  0.62805990  1
  V  V41  1  0.37985349  0.50283369  0.37501938  1
  V  V42  1  0.00242139  0.75273243  0.25109496  1
  V  V43  1  0.87657502  0.48587513  0.37594837  1
  V  V44  1  0.87497570  0.13064585  0.75481054  1
  V  V45  1  0.62523743  0.50423762  0.11611174  1
  V  V46  1  0.87358768  0.87246874  0.51750804  1
  V  V47  1  0.50332101  0.62990331  0.11919120  1
  V  V48  1  0.38532160  0.25323140  0.62833304  1
  V  V49  1  0.25751886  0.75085374  0.50273917  1
  V  V50  1  0.37974039  0.38092811  0.50085649  1
  V  V51  1  0.12618665  0.87403906  0.75329206  1
  V  V52  1  -0.00079511  0.87780836  0.37733908  1
  V  V53  1  0.74918918  0.13357054  0.37279210  1
  V  V54  1  0.62227412  0.25091210  0.38173972  1
  V  V55  1  0.63361436  0.87132567  0.74322054  1
  V  V56  1  0.38682788  0.13173653  0.75288266  1
  V  V57  1  0.37786671  0.50748631  0.87400918  1
  V  V58  1  0.00248149  -0.00021335  0.00759895  1
  V  V59  1  0.87073633  0.62821818  0.74720486  1
  V  V60  1  0.50180040  0.36322966  0.86892965  1
  V  V61  1  0.12503169  0.24988176  0.87692143  1
  V  V62  1  0.62784332  0.88232854  0.25358755  1
  V  V63  1  0.12100655  0.50052611  0.62291729  1
  V  V64  1  0.38003149  0.00187510  0.88185119  1
  V  V65  1  0.12836564  0.74061294  0.87680309  1
  V  V66  1  0.49132911  0.12220370  0.13079461  1
  V  V67  1  0.50515943  0.62633479  0.60871225  1
  V  V68  1  0.12570448  0.12527050  0.00600319  1
  V  V69  1  0.87552639  0.75041312  0.12581807  1
  V  V70  1  0.25151437  0.12494230  0.87513376  1
  V  V71  1  0.74835797  0.37256615  0.12371479  1
  V  V72  1  0.61899558  0.36820267  0.24653025  1
  V  V73  1  0.12178696  0.62604164  0.50123639  1
  V  V74  1  0.25179779  0.74617262  0.00104406  1
  V  V75  1  0.87395510  0.24742065  0.60787719  1
  V  V76  1  0.75405584  0.74988196  0.51424586  1
  V  V77  1  0.73838209  0.62194791  0.87941525  1
  V  V78  1  0.87375045  0.00416844  0.87649618  1
  V  V79  1  0.37674917  0.00668279  0.36077016  1
  V  V80  1  0.87483231  0.50029320  0.87460646  1
  V  V81  1  0.11141775  0.36939986  0.24690033  1
  V  V82  1  0.24257202  0.50055722  0.24164712  1
  V  V83  1  0.12476413  0.75291675  0.37718861  1
  V  V84  1  0.49667294  0.37143114  0.37211795  1
  Zn  Zn85  1  0.49841859  0.74867683  0.25329292  1
  Zn  Zn86  1  0.25016463  0.24992326  0.49713922  1
  Zn  Zn87  1  0.61667944  0.12410747  -0.00368285  1
  Zn  Zn88  1  0.00027021  0.37560113  0.87428916  1
  Zn  Zn89  1  -0.00136198  0.24950752  0.75105041  1
  Zn  Zn90  1  0.88577666  0.24990638  0.13476137  1
  Zn  Zn91  1  0.62080246  0.12089324  0.49555541  1
  Zn  Zn92  1  0.24491278  0.37811246  0.12190222  1
  Zn  Zn93  1  0.61909900  0.74518172  0.87599005  1
  Zn  Zn94  1  0.75497573  -0.00532615  0.74137014  1
  Zn  Zn95  1  0.50654450  0.50469337  -0.00764144  1
  Zn  Zn96  1  0.00129923  0.12478441  0.62920115  1
  Zn  Zn97  1  0.37509112  0.75137382  0.12989723  1
  Zn  Zn98  1  0.37663753  0.62681016  0.24886461  1
  Zn  Zn99  1  0.25300592  0.25176012  0.00257207  1
  Zn  Zn100  1  0.12915278  0.88636248  0.25700432  1
  Zn  Zn101  1  0.61167366  0.49531929  0.60983053  1
  Zn  Zn102  1  0.10980309  0.26263785  0.37791003  1
  Zn  Zn103  1  0.49765906  0.75128517  0.74371607  1
  Zn  Zn104  1  0.87824676  0.62349111  0.25007814  1
  Zn  Zn105  1  0.13421652  0.61968299  0.00110967  1
  Zn  Zn106  1  0.50023832  0.12097823  0.61811683  1
  Zn  Zn107  1  0.18960511  0.19453905  0.18511473  1
  Zn  Zn108  1  0.19246124  0.18875439  0.68892535  1
  Zn  Zn109  1  0.18851574  0.69107535  0.18836275  1
  Zn  Zn110  1  0.18549045  0.68690213  0.68632150  1
  Zn  Zn111  1  0.69168157  0.18394914  0.18888410  1
  Zn  Zn112  1  0.69157225  0.18140071  0.68386606  1
  Zn  Zn113  1  0.68373564  0.68952515  0.19145557  1
  Zn  Zn114  1  0.68158132  0.68366976  0.68932101  1
  Zn  Zn115  1  0.30186014  0.31593081  0.31545892  1
  Zn  Zn116  1  0.31202578  0.31480214  0.81351297  1
  Zn  Zn117  1  0.31618421  0.81384242  0.31461447  1
  Zn  Zn118  1  0.31246365  0.81244454  0.81803328  1
  Zn  Zn119  1  0.81173727  0.30834661  0.30877302  1
  Zn  Zn120  1  0.80786799  0.30995237  0.81462693  1
  Zn  Zn121  1  0.81449389  0.81331517  0.31452783  1
  Zn  Zn122  1  0.81126716  0.80843090  0.81562127  1
  Zn  Zn123  1  0.18566783  0.43861741  0.43293536  1
  Zn  Zn124  1  0.19141890  0.43696896  0.93637483  1
  Zn  Zn125  1  0.19162918  0.94323297  0.43703514  1
  Zn  Zn126  1  0.19052672  0.93467445  0.94248398  1
  Zn  Zn127  1  0.68476765  0.43450714  0.43627002  1
  Zn  Zn128  1  0.68429239  0.43328347  0.93222557  1
  Zn  Zn129  1  0.69060955  0.93289718  0.44403861  1
  Zn  Zn130  1  0.68832701  0.93503892  0.93761026  1
  Zn  Zn131  1  0.31250667  0.06550993  0.06657127  1
  Zn  Zn132  1  0.31566109  0.06285696  0.56574345  1
  Zn  Zn133  1  0.31968864  0.56406947  0.06167698  1
  Zn  Zn134  1  0.31385277  0.56141080  0.56484406  1
  Zn  Zn135  1  0.80615371  0.06039086  0.05894491  1
  Zn  Zn136  1  0.80562044  0.06362093  0.56087728  1
  Zn  Zn137  1  0.81632525  0.56415915  0.06369891  1
  Zn  Zn138  1  0.77899469  0.54182245  0.54316960  1
  Zn  Zn139  1  0.43734799  0.44342278  0.18748783  1
  Zn  Zn140  1  0.43972674  0.44260743  0.68737309  1
  Zn  Zn141  1  0.44364975  0.93710655  0.18974610  1
  Zn  Zn142  1  0.44136182  0.93886320  0.69183431  1
  Zn  Zn143  1  0.93624813  0.44014735  0.18471993  1
  Zn  Zn144  1  0.93275160  0.43589702  0.68391973  1
  Zn  Zn145  1  0.93795384  0.94234433  0.19261743  1
  Zn  Zn146  1  0.93905903  0.94079773  0.69115698  1
  Zn  Zn147  1  0.05222027  0.09037740  0.32132524  1
  Zn  Zn148  1  0.05998686  0.06293823  0.81726005  1
  Zn  Zn149  1  0.06251599  0.56098053  0.31320554  1
  Zn  Zn150  1  0.05965291  0.56255516  0.81182674  1
  Zn  Zn151  1  0.56034198  0.06370775  0.30797937  1
  Zn  Zn152  1  0.56319128  0.05385552  0.80754468  1
  Zn  Zn153  1  0.56279605  0.56186469  0.30904689  1
  Zn  Zn154  1  0.55986116  0.55662331  0.80194259  1
  Zn  Zn155  1  0.43831325  0.18939753  0.43913115  1
  Zn  Zn156  1  0.44166347  0.18783226  0.94397087  1
  Zn  Zn157  1  0.43608621  0.69276707  0.43696474  1
  Zn  Zn158  1  0.43627888  0.68867012  0.93779087  1
  Zn  Zn159  1  0.94085117  0.18208923  0.43364422  1
  Zn  Zn160  1  0.95218436  0.20296993  0.96847503  1
  Zn  Zn161  1  0.93031194  0.68495625  0.43658321  1
  Zn  Zn162  1  0.93469308  0.68563906  0.93771131  1
  Zn  Zn163  1  0.06127022  0.31317791  0.07060633  1
  Zn  Zn164  1  0.06012073  0.30699778  0.56420975  1
  Zn  Zn165  1  0.06752098  0.81532733  0.06553577  1
  Zn  Zn166  1  0.06362317  0.81249979  0.56478908  1
  Zn  Zn167  1  0.55570556  0.31250054  0.06202569  1
  Zn  Zn168  1  0.56093975  0.31381645  0.55928747  1
  Zn  Zn169  1  0.56228997  0.81451375  0.06260438  1
  Zn  Zn170  1  0.56202238  0.80603482  0.56295592  1
  O  O171  1  0.13251412  0.12118556  0.11387302  1
  O  O172  1  0.12746482  0.11771247  0.62097533  1
  O  O173  1  0.11263396  0.63248707  0.12092713  1
  O  O174  1  0.11509784  0.61760224  0.62013403  1
  O  O175  1  0.62114241  0.11655008  0.12343686  1
  O  O176  1  0.62423253  0.11121813  0.62403915  1
  O  O177  1  0.61583042  0.61786545  0.12867551  1
  O  O178  1  0.60863492  0.62116757  0.62798453  1
  O  O179  1  0.37872507  0.37993866  0.38112776  1
  O  O180  1  0.38043997  0.38546462  0.87756582  1
  O  O181  1  0.38184357  0.88774055  0.38137295  1
  O  O182  1  0.38072809  0.88315986  0.88200746  1
  O  O183  1  0.87086344  0.38688646  0.36997763  1
  O  O184  1  0.87429939  0.38772334  0.87675276  1
  O  O185  1  0.88145916  0.88241265  0.38197263  1
  O  O186  1  0.87912055  0.88069512  0.88090937  1
  O  O187  1  0.26797845  0.00760076  0.37795640  1
  O  O188  1  0.25724509  0.00326914  0.87097635  1
  O  O189  1  0.25851797  0.50654466  0.36753802  1
  O  O190  1  0.25700599  0.49771540  0.86132329  1
  O  O191  1  0.75854101  0.00095623  0.37850913  1
  O  O192  1  0.76331270  0.00406828  0.87903595  1
  O  O193  1  0.75798315  0.50448551  0.36654506  1
  O  O194  1  0.75481068  0.50359410  0.86616219  1
  O  O195  1  0.25556813  0.50344477  0.13899811  1
  O  O196  1  0.24430375  0.49041538  0.63277864  1
  O  O197  1  0.24077899  0.99334651  0.12153500  1
  O  O198  1  0.24709368  0.99024917  0.63295160  1
  O  O199  1  0.74548039  0.49624288  0.13089821  1
  O  O200  1  0.77163537  0.48134380  0.64175714  1
  O  O201  1  0.74192423  0.98555082  0.12106606  1
  O  O202  1  0.73462669  0.99997951  0.62634419  1
  O  O203  1  0.01170413  0.37991039  0.24557513  1
  O  O204  1  0.01264503  0.37727176  0.75080907  1
  O  O205  1  0.00300949  0.86928852  0.25865024  1
  O  O206  1  0.00480820  0.86817211  0.75564284  1
  O  O207  1  0.50905910  0.38327340  0.25754496  1
  O  O208  1  0.51389744  0.37877802  0.75161299  1
  O  O209  1  0.50802150  0.87258746  0.26345122  1
  O  O210  1  0.50932569  0.87097865  0.75852150  1
  O  O211  1  0.50680193  0.13045086  0.23070723  1
  O  O212  1  0.48895127  0.12306261  0.74986869  1
  O  O213  1  0.50015635  0.62646429  0.23704768  1
  O  O214  1  0.48595207  0.62756963  0.74615750  1
  O  O215  1  0.97723416  0.10890264  0.23508451  1
  O  O216  1  0.99036559  0.12474749  0.74934858  1
  O  O217  1  1.00140572  0.63311518  0.24324771  1
  O  O218  1  0.99074479  0.62778233  0.74253503  1
  O  O219  1  0.37372879  0.26512980  -0.00044065  1
  O  O220  1  0.37063668  0.26406278  0.50849678  1
  O  O221  1  0.36780854  0.75959149  0.00242551  1
  O  O222  1  0.36134126  0.76382346  0.49272005  1
  O  O223  1  0.85786846  0.26971602  -0.01626948  1
  O  O224  1  0.87920324  0.24150961  0.50911662  1
  O  O225  1  0.86736379  0.75489743  0.00605965  1
  O  O226  1  0.86524673  0.75922381  0.49859662  1
  O  O227  1  0.12718673  0.23973512  0.49788906  1
  O  O228  1  0.13046508  0.24211649  0.99312114  1
  O  O229  1  0.13422504  0.74653038  0.49616894  1
  O  O230  1  0.13263448  0.75107459  0.99277536  1
  O  O231  1  0.62561715  0.25458517  0.48416120  1
  O  O232  1  0.63487662  0.25290162  1.00223828  1
  O  O233  1  0.64021424  0.75833093  0.48769235  1
  O  O234  1  0.63759995  0.75439227  0.99744572  1
  O  O235  1  0.48555665  0.24559227  0.12542048  1
  O  O236  1  0.48740669  0.25470128  0.62703735  1
  O  O237  1  0.50271003  0.74013916  0.12721215  1
  O  O238  1  0.49885370  0.73516945  0.62655326  1
  O  O239  1  0.98165769  0.23729813  0.07778798  1
  O  O240  1  0.98667558  0.24610361  0.62960382  1
  O  O241  1  0.99735247  0.74823988  0.13308593  1
  O  O242  1  1.00598118  0.73854655  0.63315133  1
  O  O243  1  0.02156614  0.19663344  0.36181447  1
  O  O244  1  0.01378679  0.25305427  0.87613163  1
  O  O245  1  0.00375741  0.75440058  0.37002724  1
  O  O246  1  0.00542989  0.75321784  0.86931457  1
  O  O247  1  0.50472178  0.26357865  0.37224342  1
  O  O248  1  0.49264425  0.26381000  0.87299469  1
  O  O249  1  0.51059904  0.75804844  0.37637313  1
  O  O250  1  0.49961031  0.76193377  0.87389014  1
  O  O251  1  0.24141924  0.12588990  0.50357656  1
  O  O252  1  0.24255041  0.12563191  0.99192715  1
  O  O253  1  0.24601181  0.63392913  0.49898989  1
  O  O254  1  0.25151985  0.64021381  1.00704896  1
  O  O255  1  0.74115206  0.11676413  0.47927757  1
  O  O256  1  0.74637839  0.13393425  0.99179861  1
  O  O257  1  0.76069239  0.64290940  0.48891585  1
  O  O258  1  0.75562718  0.63165232  0.99118142  1
  O  O259  1  0.26052124  0.37630064  0.00335801  1
  O  O260  1  0.25354094  0.37533375  0.50750348  1
  O  O261  1  0.26099533  0.86873119  0.00920537  1
  O  O262  1  0.25672063  0.87158638  0.50924695  1
  O  O263  1  0.75326838  0.37219834  0.00367039  1
  O  O264  1  0.75190697  0.37035919  0.51205711  1
  O  O265  1  0.75654279  0.86590872  0.00741186  1
  O  O266  1  0.76132710  0.86061815  0.49844926  1
  O  O267  1  0.13704893  0.49476788  0.25418243  1
  O  O268  1  0.13065044  0.49604854  0.74536367  1
  O  O269  1  0.11363397  1.00788780  0.23904270  1
  O  O270  1  0.13024746  0.99430262  0.74857363  1
  O  O271  1  0.63320429  0.49152653  0.24188677  1
  O  O272  1  0.63552006  0.49223113  0.73956171  1
  O  O273  1  0.62124597  0.98754082  0.24029974  1
  O  O274  1  0.63142766  0.98551156  0.74383696  1
  O  O275  1  0.37723297  0.00003039  0.26223067  1
  O  O276  1  0.37111944  0.00701532  0.76215074  1
  O  O277  1  0.36349630  0.50242816  0.25850388  1
  O  O278  1  0.36700383  0.50808847  0.75423439  1
  O  O279  1  0.87144170  0.00466488  0.26215477  1
  O  O280  1  0.87396341  0.00816121  0.75893512  1
  O  O281  1  0.86753370  0.50093072  0.25772958  1
  O  O282  1  0.87223588  0.50799746  0.75842077  1
  O  O283  1  0.12892654  0.37470527  0.35772264  1
  O  O284  1  0.12624287  0.36784134  0.86703951  1
  O  O285  1  0.11955919  0.87284773  0.37668576  1
  O  O286  1  0.11967046  0.86800961  0.87121354  1
  O  O287  1  0.61724928  0.37198929  0.36791631  1
  O  O288  1  0.61681292  0.37742859  0.85781251  1
  O  O289  1  0.61982184  0.87328090  0.37133741  1
  O  O290  1  0.61806731  0.87486608  0.86719148  1
  O  O291  1  0.38267046  0.13782290  0.12447545  1
  O  O292  1  0.37533905  0.13512807  0.63487182  1
  O  O293  1  0.39009273  0.62752792  0.12711631  1
  O  O294  1  0.38138867  0.62280355  0.63584177  1
  O  O295  1  0.85627139  0.12191722  0.14011990  1
  O  O296  1  0.87246222  0.13372464  0.63313100  1
  O  O297  1  0.88553336  0.63428540  0.12792171  1
  O  O298  1  0.88283741  0.61869084  0.63236455  1
  O  O299  1  0.26773356  0.25306086  0.12246471  1
  O  O300  1  0.25635578  0.26441011  0.62568101  1
  O  O301  1  0.24987233  0.76183947  0.11858763  1
  O  O302  1  0.24441477  0.76208996  0.61814914  1
  O  O303  1  0.75417852  0.25682049  0.11602544  1
  O  O304  1  0.76441247  0.25207038  0.62716450  1
  O  O305  1  0.75343050  0.75566875  0.12037503  1
  O  O306  1  0.74572996  0.74300917  0.61243885  1
  O  O307  1  0.24830638  0.23299639  0.37722681  1
  O  O308  1  0.24009577  0.24505220  0.87531115  1
  O  O309  1  0.24391242  0.74650000  0.38264288  1
  O  O310  1  0.23966540  0.75697667  0.88697615  1
  O  O311  1  0.74239079  0.24012199  0.37274369  1
  O  O312  1  0.74644065  0.23759022  0.88048514  1
  O  O313  1  0.74575132  0.74238508  0.37669204  1
  O  O314  1  0.74830491  0.73818550  0.88451671  1
  O  O315  1  0.01569979  0.10776497  -0.01460785  1
  O  O316  1  0.01283066  0.11387184  0.50744773  1
  O  O317  1  -0.00000996  0.61837283  0.00658477  1
  O  O318  1  0.00100544  0.62066813  0.50594108  1
  O  O319  1  0.50435538  0.13191863  0.01892771  1
  O  O320  1  0.50780383  0.13385466  0.50478538  1
  O  O321  1  0.49871344  0.62394840  0.01278295  1
  O  O322  1  0.49536549  0.62788391  0.50936828  1
  O  O323  1  0.49116927  0.37772563  0.48960299  1
  O  O324  1  0.49473355  0.38034441  0.98872631  1
  O  O325  1  0.49264022  0.86915173  0.49021687  1
  O  O326  1  0.48730099  0.87236722  0.99524517  1
  O  O327  1  1.00436523  0.38730161  0.50265664  1
  O  O328  1  0.99096404  0.38616049  0.99646016  1
  O  O329  1  0.99437749  0.88039481  0.49715598  1
  O  O330  1  0.99522851  0.87965782  0.99539467  1
  O  O331  1  0.48670432  0.49392631  0.36970635  1
  O  O332  1  0.49264467  0.49274872  0.87268778  1
  O  O333  1  0.48946883  0.99574858  0.37375101  1
  O  O334  1  0.49192663  0.98768771  0.87283324  1
  O  O335  1  0.98433679  0.50623428  0.38067013  1
  O  O336  1  0.99024428  0.50134475  0.88211657  1
  O  O337  1  0.99206374  0.99947159  0.38840786  1
  O  O338  1  0.99028048  0.99140465  0.88173711  1
  O  O339  1  0.00759888  -0.00829061  0.11257985  1
  O  O340  1  0.00667438  -0.00047712  0.61634511  1
  O  O341  1  -0.00682250  0.51188892  0.11391571  1
  O  O342  1  0.00068170  0.50605668  0.61643444  1
  O  O343  1  0.50412397  0.01241217  0.12666851  1
  O  O344  1  0.51799268  0.00141729  0.63505320  1
  O  O345  1  0.50865035  0.51059542  0.12157467  1
  O  O346  1  0.49753506  0.51666501  0.62445497  1
  O  O347  1  0.24486070  0.38953009  0.24632108  1
  O  O348  1  0.24004801  0.38280649  0.74370586  1
  O  O349  1  0.24887450  0.87358679  0.23928148  1
  O  O350  1  0.24814963  0.87844584  0.74477909  1
  O  O351  1  0.74472359  0.38448178  0.24358622  1
  O  O352  1  0.73846764  0.37757252  0.74821276  1
  O  O353  1  0.74288936  0.86926248  0.24162449  1
  O  O354  1  0.73732635  0.87360704  0.75656645  1
  O  O355  1  0.24618353  0.12445219  0.26072388  1
  O  O356  1  0.25877980  0.11912819  0.75725292  1
  O  O357  1  0.24829670  0.61651761  0.25585131  1
  O  O358  1  0.26047090  0.61663267  0.74057484  1
  O  O359  1  0.75265046  0.11959886  0.26606084  1
  O  O360  1  0.75781951  0.12008729  0.75882281  1
  O  O361  1  0.75044080  0.61368130  0.25287627  1
  O  O362  1  0.75475942  0.61597738  0.75464101  1
  O  O363  1  0.36564602  0.11611988  0.37869287  1
  O  O364  1  0.37308798  0.12028169  0.87263256  1
  O  O365  1  0.36904480  0.61831434  0.37552537  1
  O  O366  1  0.37904284  0.61378067  0.86515725  1
  O  O367  1  0.86278164  0.11680073  0.36899482  1
  O  O368  1  0.86862419  0.11716337  0.87088089  1
  O  O369  1  0.86224958  0.61878628  0.36851615  1
  O  O370  1  0.86570516  0.61521224  0.86912855  1
  O  O371  1  0.12786446  0.37553943  0.13691798  1
  O  O372  1  0.13060712  0.37883647  0.63050407  1
  O  O373  1  0.13435088  0.88708786  0.12905617  1
  O  O374  1  0.13324901  0.88045809  0.63336599  1
  O  O375  1  0.62650177  0.38174342  0.13073303  1
  O  O376  1  0.63232494  0.37440432  0.63138342  1
  O  O377  1  0.62970414  0.87888841  0.13357736  1
  O  O378  1  0.62034249  0.87853792  0.63750189  1
  O  O379  1  0.12811170  0.26579640  0.24981939  1
  O  O380  1  0.12406255  0.25786991  0.75624650  1
  O  O381  1  0.11526736  0.75428002  0.25718456  1
  O  O382  1  0.12141227  0.75437921  0.75827412  1
  O  O383  1  0.63359004  0.26476266  0.25633894  1
  O  O384  1  0.62781249  0.26046913  0.74351849  1
  O  O385  1  0.62492675  0.76183875  0.26285183  1
  O  O386  1  0.62321218  0.75988600  0.75417488  1
  O  O387  1  0.37390217  0.26063708  0.24143763  1
  O  O388  1  0.36741346  0.24255356  0.74233699  1
  O  O389  1  0.37876792  0.74662653  0.24875209  1
  O  O390  1  0.37099449  0.73525137  0.75545257  1
  O  O391  1  0.87257006  0.23140527  0.24993934  1
  O  O392  1  0.87702417  0.23868741  0.75383454  1
  O  O393  1  0.88795616  0.75047858  0.24598546  1
  O  O394  1  0.87781676  0.73481469  0.75575128  1
  O  O395  1  0.36628103  0.48860492  0.49131681  1
  O  O396  1  0.37688639  0.49279893  0.99007110  1
  O  O397  1  0.37394172  0.99014595  0.49610896  1
  O  O398  1  0.36927801  0.99487054  0.98908949  1
  O  O399  1  0.87740614  0.50200009  0.48394178  1
  O  O400  1  0.87843773  0.49226483  0.99279121  1
  O  O401  1  0.88107892  0.99377144  0.49709907  1
  O  O402  1  0.88311331  0.99564669  0.99590988  1
  O  O403  1  0.12014355  0.00494689  0.00642449  1
  O  O404  1  0.11940759  0.00227759  0.50886884  1
  O  O405  1  0.11298207  0.50180033  -0.00818841  1
  O  O406  1  0.11609633  0.50679084  0.50274475  1
  O  O407  1  0.62678562  -0.00353390  0.01393789  1
  O  O408  1  0.62252761  -0.00764371  0.51376466  1
  O  O409  1  0.62800417  0.49583141  0.01254300  1
  O  O410  1  0.66919012  0.51074250  0.51436508  1
  O  O411  1  0.37919268  0.36797317  0.11758047  1
  O  O412  1  0.36902470  0.37404650  0.62034903  1
  O  O413  1  0.37092004  0.87785910  0.11946110  1
  O  O414  1  0.36823193  0.88044534  0.62028179  1
  O  O415  1  0.86798102  0.37366214  0.11603159  1
  O  O416  1  0.86914783  0.35458504  0.63119478  1
  O  O417  1  0.86765723  0.87132003  0.12284819  1
  O  O418  1  0.87910045  0.87716115  0.61697628  1
  O  O419  1  0.14827631  0.10370198  0.38782903  1
  O  O420  1  0.13191255  0.13128856  0.87992494  1
  O  O421  1  0.13019772  0.63068672  0.38291352  1
  O  O422  1  0.12168071  0.63710780  0.87676252  1
  O  O423  1  0.63090262  0.13419042  0.36952428  1
  O  O424  1  0.63610747  0.11154928  0.87650879  1
  O  O425  1  0.63758249  0.63263661  0.36813146  1
  O  O426  1  0.63516052  0.62162335  0.86785023  1
