# generated using pymatgen
data_V85Zn86O256
_symmetry_space_group_name_H-M   'P 1'
_cell_length_a   16.95017842
_cell_length_b   16.95999287
_cell_length_c   16.94295666
_cell_angle_alpha   89.92741430
_cell_angle_beta   90.02506983
_cell_angle_gamma   90.11469141
_symmetry_Int_Tables_number   1
_chemical_formula_structural   V85Zn86O256
_chemical_formula_sum   'V85 Zn86 O256'
_cell_volume   4870.66073270
_cell_formula_units_Z   1
loop_
 _symmetry_equiv_pos_site_id
 _symmetry_equiv_pos_as_xyz
  1  'x, y, z'
loop_
 _atom_site_type_symbol
 _atom_site_label
 _atom_site_symmetry_multiplicity
 _atom_site_fract_x
 _atom_site_fract_y
 _atom_site_fract_z
 _atom_site_occupancy
  V  V0  1  0.12623828  0.62611618  0.50121781  1
  V  V1  1  0.00542441  0.37013682  0.38058705  1
  V  V2  1  0.25460362  0.37751040  0.12825804  1
  V  V3  1  0.62510750  0.12916885  0.49652945  1
  V  V4  1  0.49532802  0.12831987  0.13599101  1
  V  V5  1  0.49730626  0.00602659  -0.00939269  1
  V  V6  1  0.87549126  0.75055102  0.12267282  1
  V  V7  1  0.12889140  0.87554338  0.25013079  1
  V  V8  1  0.25432207  0.50369243  0.74958478  1
  V  V9  1  0.74182820  0.62578174  0.87926713  1
  V  V10  1  0.48831651  0.74835066  0.75432981  1
  V  V11  1  0.50225004  0.50757296  0.49331866  1
  V  V12  1  0.13233723  0.50176100  0.12662488  1
  V  V13  1  0.49826413  0.74751308  0.25224107  1
  V  V14  1  0.37703309  0.37831208  0.49296527  1
  V  V15  1  0.00030558  0.49631425  0.50210177  1
  V  V16  1  0.87242765  0.87422016  0.50273867  1
  V  V17  1  0.37359863  0.24514953  0.14140127  1
  V  V18  1  0.12239804  -0.00242271  0.12035596  1
  V  V19  1  -0.01134216  0.12481955  0.61372806  1
  V  V20  1  0.24631459  0.37524273  0.62648417  1
  V  V21  1  0.74978941  0.25283350  -0.00118294  1
  V  V22  1  -0.00067598  0.48948524  -0.00001916  1
  V  V23  1  0.87690924  -0.00013134  0.37820706  1
  V  V24  1  0.87616721  0.49713474  0.87879600  1
  V  V25  1  0.88186378  0.88776258  -0.00007621  1
  V  V26  1  -0.00311759  0.62884829  0.62445617  1
  V  V27  1  0.12814575  0.75118395  0.37675996  1
  V  V28  1  0.25095564  0.75205873  0.00015105  1
  V  V29  1  0.62582764  0.13035140  -0.00015168  1
  V  V30  1  0.87702228  0.12281913  0.24690972  1
  V  V31  1  0.49914095  0.11788633  0.61765059  1
  V  V32  1  0.87521395  0.00582070  0.85522276  1
  V  V33  1  0.61973546  0.37828420  0.73614278  1
  V  V34  1  0.23638391  0.24579730  0.49386524  1
  V  V35  1  0.12509055  0.62643568  -0.00257961  1
  V  V36  1  0.74877150  0.50155122  0.75298652  1
  V  V37  1  0.63047540  0.74302206  0.38863859  1
  V  V38  1  0.12759541  0.37855076  0.25205852  1
  V  V39  1  0.12731377  0.87977489  0.74423744  1
  V  V40  1  0.87219477  0.63325092  0.75125080  1
  V  V41  1  0.25671626  0.62672853  0.87123837  1
  V  V42  1  0.75025361  -0.00293096  0.24969990  1
  V  V43  1  0.12319164  0.12134776  -0.00194220  1
  V  V44  1  0.00056844  0.62375911  0.12443354  1
  V  V45  1  0.37394328  0.88311768  0.00054879  1
  V  V46  1  0.74563007  0.74966923  -0.00057871  1
  V  V47  1  0.49427212  0.62341447  0.63163664  1
  V  V48  1  0.87664644  0.25732665  0.11950412  1
  V  V49  1  0.50379746  0.50111956  -0.00211789  1
  V  V50  1  0.49572884  0.88019275  0.87430049  1
  V  V51  1  0.62991383  0.50466894  0.12030644  1
  V  V52  1  0.00415994  0.25057591  0.25179431  1
  V  V53  1  0.81123547  0.70300792  0.56407145  1
  V  V54  1  -0.00004609  0.74972620  0.24988580  1
  V  V55  1  -0.00142416  0.75470254  0.74819682  1
  V  V56  1  0.26101254  0.12055213  0.87389423  1
  V  V57  1  0.69752824  0.43935011  0.29797205  1
  V  V58  1  0.25429888  0.24990966  0.00177930  1
  V  V59  1  0.74682726  0.13177799  0.37377597  1
  V  V60  1  0.00159380  0.87841937  0.38206028  1
  V  V61  1  0.62191635  0.00110577  0.12332139  1
  V  V62  1  0.12675195  0.24889228  0.86791846  1
  V  V63  1  0.37325853  0.24707382  0.62101391  1
  V  V64  1  0.25495717  0.61975963  0.37097860  1
  V  V65  1  0.75220828  0.38198107  0.11866418  1
  V  V66  1  0.86439570  0.62323956  0.24829477  1
  V  V67  1  0.25401525  -0.00111316  0.74834776  1
  V  V68  1  0.76798389  0.36832716  0.62884174  1
  V  V69  1  0.37911820  0.88130521  0.50917794  1
  V  V70  1  0.75001498  0.87529048  0.12356639  1
  V  V71  1  0.25501629  0.00686283  0.25061612  1
  V  V72  1  -0.01768640  0.24224696  0.74732536  1
  V  V73  1  0.25122772  0.75619883  0.50806809  1
  V  V74  1  0.49877105  0.25041241  0.74487900  1
  V  V75  1  0.12553342  0.01033355  0.61287155  1
  V  V76  1  0.88107294  0.49709226  0.36956776  1
  V  V77  1  0.75509522  0.87831036  0.62856656  1
  V  V78  1  0.62279573  -0.00508776  0.61648584  1
  V  V79  1  0.38245683  0.00211467  0.37341458  1
  V  V80  1  0.49970039  0.37604633  0.87632433  1
  V  V81  1  0.00115845  0.12279977  0.12220709  1
  V  V82  1  0.50245357  0.62644425  0.11788599  1
  V  V83  1  0.62751003  0.87706115  0.75217323  1
  V  V84  1  0.62314526  0.87321745  0.25325331  1
  Zn  Zn85  1  0.50282811  0.87500614  0.38336315  1
  Zn  Zn86  1  0.37757687  0.50338978  0.87291152  1
  Zn  Zn87  1  0.37705556  0.75219591  0.12583417  1
  Zn  Zn88  1  0.25351375  0.87416098  0.12679662  1
  Zn  Zn89  1  0.12377802  0.50089414  0.62901623  1
  Zn  Zn90  1  0.24219177  0.12281564  0.38324518  1
  Zn  Zn91  1  0.55018514  0.29855204  0.32052934  1
  Zn  Zn92  1  0.37995587  0.37504378  0.00183602  1
  Zn  Zn93  1  0.62072627  0.74987836  0.88019778  1
  Zn  Zn94  1  0.62768056  0.25192120  0.87188045  1
  Zn  Zn95  1  0.38312544  0.11640024  0.75395394  1
  Zn  Zn96  1  0.76337696  0.24758996  0.51300017  1
  Zn  Zn97  1  0.36997397  0.61856948  0.24266701  1
  Zn  Zn98  1  0.76066840  0.12697906  0.86412208  1
  Zn  Zn99  1  0.36765063  0.75039821  0.63163306  1
  Zn  Zn100  1  0.12323938  0.75397574  0.87322975  1
  Zn  Zn101  1  -0.00212380  0.36983655  0.87504625  1
  Zn  Zn102  1  0.00262744  0.88236888  0.87666685  1
  Zn  Zn103  1  0.37578026  0.49503073  0.36587882  1
  Zn  Zn104  1  0.62646452  0.51014228  0.62297593  1
  Zn  Zn105  1  0.74903699  0.62438530  0.38723587  1
  Zn  Zn106  1  0.12364686  0.37600749  0.75340466  1
  Zn  Zn107  1  0.17331231  0.17140590  0.21947106  1
  Zn  Zn108  1  0.18783290  0.18224842  0.68591010  1
  Zn  Zn109  1  0.18866718  0.69019939  0.18625201  1
  Zn  Zn110  1  0.18368734  0.68711028  0.68880684  1
  Zn  Zn111  1  0.69029766  0.19038676  0.19244401  1
  Zn  Zn112  1  0.68810487  0.18915750  0.68482041  1
  Zn  Zn113  1  0.68442728  0.68837002  0.18818307  1
  Zn  Zn114  1  0.67526226  0.68936869  0.69428867  1
  Zn  Zn115  1  0.31014578  0.31352518  0.31346241  1
  Zn  Zn116  1  0.31471557  0.31317672  0.81125265  1
  Zn  Zn117  1  0.31518339  0.81437319  0.31906103  1
  Zn  Zn118  1  0.31002321  0.81968336  0.81684224  1
  Zn  Zn119  1  0.83099918  0.29556151  0.33978535  1
  Zn  Zn120  1  0.80974214  0.31540314  0.81465309  1
  Zn  Zn121  1  0.81072479  0.80941628  0.31474154  1
  Zn  Zn122  1  0.81305936  0.81624838  0.81540950  1
  Zn  Zn123  1  0.18673114  0.43650938  0.44105189  1
  Zn  Zn124  1  0.18798345  0.43668570  0.93798151  1
  Zn  Zn125  1  0.19375126  0.93742278  0.43829613  1
  Zn  Zn126  1  0.18641781  0.93868531  0.93237992  1
  Zn  Zn127  1  0.68487520  0.43480772  0.45965997  1
  Zn  Zn128  1  0.68253797  0.43381608  0.93810472  1
  Zn  Zn129  1  0.69096513  0.93470893  0.43921795  1
  Zn  Zn130  1  0.69013505  0.94131458  0.93509103  1
  Zn  Zn131  1  0.30935445  0.06280882  0.06577888  1
  Zn  Zn132  1  0.30940191  0.06218018  0.56221278  1
  Zn  Zn133  1  0.31768983  0.56360017  0.06086446  1
  Zn  Zn134  1  0.31512643  0.56482398  0.56250836  1
  Zn  Zn135  1  0.80987572  0.06600460  0.06088566  1
  Zn  Zn136  1  0.81082081  0.05696495  0.56098286  1
  Zn  Zn137  1  0.81431430  0.56442066  0.05914757  1
  Zn  Zn138  1  0.81936856  0.53698834  0.56469142  1
  Zn  Zn139  1  0.43794262  0.43912217  0.19663958  1
  Zn  Zn140  1  0.43171229  0.43802255  0.68377792  1
  Zn  Zn141  1  0.43974258  0.93810682  0.18686690  1
  Zn  Zn142  1  0.43809982  0.93753678  0.68727773  1
  Zn  Zn143  1  0.93835603  0.43678980  0.18795023  1
  Zn  Zn144  1  0.94287075  0.43966389  0.69757324  1
  Zn  Zn145  1  0.94106544  0.93630862  0.18872839  1
  Zn  Zn146  1  0.94205077  0.94140180  0.68303238  1
  Zn  Zn147  1  0.06427541  0.06082232  0.31790197  1
  Zn  Zn148  1  0.05935582  0.06267484  0.81035989  1
  Zn  Zn149  1  0.06510221  0.56362141  0.31081275  1
  Zn  Zn150  1  0.06603514  0.56389916  0.81242726  1
  Zn  Zn151  1  0.56197720  0.06365839  0.31265796  1
  Zn  Zn152  1  0.59678195  0.07923511  0.79361691  1
  Zn  Zn153  1  0.56037684  0.56855674  0.31207649  1
  Zn  Zn154  1  0.56134418  0.56442821  0.80960888  1
  Zn  Zn155  1  0.43369290  0.18418044  0.43439911  1
  Zn  Zn156  1  0.44122707  0.19110340  0.93942363  1
  Zn  Zn157  1  0.43715138  0.69026003  0.44135761  1
  Zn  Zn158  1  0.43592239  0.69074598  0.94022716  1
  Zn  Zn159  1  0.93722852  0.18959484  0.43999537  1
  Zn  Zn160  1  0.93841751  0.18404691  0.93624382  1
  Zn  Zn161  1  0.94164634  0.68311274  0.43089352  1
  Zn  Zn162  1  0.93559026  0.68853456  0.93606928  1
  Zn  Zn163  1  0.06836052  0.31011190  0.06290685  1
  Zn  Zn164  1  0.05975425  0.30904763  0.56818088  1
  Zn  Zn165  1  0.06273136  0.81213378  0.06146498  1
  Zn  Zn166  1  0.06224017  0.81556455  0.56618408  1
  Zn  Zn167  1  0.56226312  0.31357288  0.15803411  1
  Zn  Zn168  1  0.54470561  0.29628450  0.52212588  1
  Zn  Zn169  1  0.56161044  0.81503127  0.06265488  1
  Zn  Zn170  1  0.55833892  0.80887866  0.56713362  1
  O  O171  1  0.12264561  0.11640935  0.12056190  1
  O  O172  1  0.11615880  0.11521346  0.62560646  1
  O  O173  1  0.12291193  0.61876101  0.11968734  1
  O  O174  1  0.11647644  0.62272789  0.61723565  1
  O  O175  1  0.61645557  0.11942229  0.11561755  1
  O  O176  1  0.61918176  0.11333528  0.61680702  1
  O  O177  1  0.62087430  0.61343692  0.12835659  1
  O  O178  1  0.60411976  0.62663394  0.63011670  1
  O  O179  1  0.36867652  0.37711187  0.38897855  1
  O  O180  1  0.38750647  0.37775996  0.87494038  1
  O  O181  1  0.37842760  0.88391146  0.38700684  1
  O  O182  1  0.38815920  0.87674895  0.88357669  1
  O  O183  1  0.89266829  0.39118000  0.35979960  1
  O  O184  1  0.87741241  0.39291510  0.86819697  1
  O  O185  1  0.88172048  0.87849602  0.37928096  1
  O  O186  1  0.87633353  0.88577348  0.88632977  1
  O  O187  1  0.25774705  0.00157605  0.36665514  1
  O  O188  1  0.24530588  0.01143089  0.86446617  1
  O  O189  1  0.24804535  0.51785070  0.38207645  1
  O  O190  1  0.25058401  0.50821175  0.86978551  1
  O  O191  1  0.75889137  0.00125740  0.36732177  1
  O  O192  1  0.77090166  0.00277602  0.88450092  1
  O  O193  1  0.75551866  0.49434816  0.37136334  1
  O  O194  1  0.75555092  0.50675204  0.87386788  1
  O  O195  1  0.24290530  0.49136371  0.11665626  1
  O  O196  1  0.24927364  0.49348309  0.63059803  1
  O  O197  1  0.23947992  0.99344235  0.12950335  1
  O  O198  1  0.23495368  1.00915950  0.63359858  1
  O  O199  1  0.74665248  0.49392906  0.11733519  1
  O  O200  1  0.74663237  0.48929710  0.63622833  1
  O  O201  1  0.74345847  0.99384227  0.12943008  1
  O  O202  1  0.74185365  0.98474026  0.62222668  1
  O  O203  1  0.00861075  0.37044141  0.25559910  1
  O  O204  1  0.00451332  0.35853138  0.75113114  1
  O  O205  1  0.00796950  0.86924442  0.25963178  1
  O  O206  1  0.00356343  0.86806922  0.75042095  1
  O  O207  1  0.51119842  0.37191704  0.24205796  1
  O  O208  1  0.50277862  0.37156859  0.75147082  1
  O  O209  1  0.51203705  0.86833235  0.25016992  1
  O  O210  1  0.50270845  0.87098007  0.75921421  1
  O  O211  1  0.49519557  0.11276015  0.23480171  1
  O  O212  1  0.50236058  0.13419200  0.73856796  1
  O  O213  1  0.49972923  0.63339579  0.23833021  1
  O  O214  1  0.49644654  0.63432301  0.74493522  1
  O  O215  1  0.99557914  0.13319430  0.24257566  1
  O  O216  1  1.00325800  0.13874250  0.74148286  1
  O  O217  1  0.99516753  0.63242419  0.24398840  1
  O  O218  1  0.99136237  0.62984463  0.74436175  1
  O  O219  1  0.36197394  0.25288369  -0.00072056  1
  O  O220  1  0.36775328  0.25801836  0.51107272  1
  O  O221  1  0.36750109  0.76348501  0.00049129  1
  O  O222  1  0.36698692  0.76153090  0.50169604  1
  O  O223  1  0.86511525  0.24236850  0.00943585  1
  O  O224  1  0.85453970  0.26125933  0.44993289  1
  O  O225  1  0.86632179  0.75835981  0.00432584  1
  O  O226  1  0.87783362  0.75374039  0.49904277  1
  O  O227  1  0.13852149  0.25743909  0.50120603  1
  O  O228  1  0.13677440  0.24283550  0.99386143  1
  O  O229  1  0.13059138  0.74824396  0.49607815  1
  O  O230  1  0.13294031  0.74605691  0.99751916  1
  O  O231  1  0.64050550  0.23150527  0.51085741  1
  O  O232  1  0.64094969  0.24404760  1.00421816  1
  O  O233  1  0.62034529  0.75422213  0.48658746  1
  O  O234  1  0.64098182  0.75982844  0.99940462  1
  O  O235  1  0.47987710  0.24213601  0.11545890  1
  O  O236  1  0.49107868  0.24383560  0.62498464  1
  O  O237  1  0.50382838  0.74273241  0.13162755  1
  O  O238  1  0.49472611  0.74239039  0.63630227  1
  O  O239  1  0.99284633  0.24655991  0.12707586  1
  O  O240  1  1.00033203  0.23960116  0.63718924  1
  O  O241  1  0.99496532  0.74394930  0.12952600  1
  O  O242  1  1.00169428  0.74374033  0.63772780  1
  O  O243  1  0.00205489  0.26007476  0.36428127  1
  O  O244  1  0.00696929  0.24785105  0.86511774  1
  O  O245  1  0.00817884  0.75665612  0.36908002  1
  O  O246  1  0.00105803  0.74969055  0.86128374  1
  O  O247  1  0.50811941  0.26290093  0.41514381  1
  O  O248  1  0.49927227  0.25888162  0.86338104  1
  O  O249  1  0.51022653  0.74942269  0.36850278  1
  O  O250  1  0.50129565  0.75904341  0.87253841  1
  O  O251  1  0.24843684  0.14110502  0.50238348  1
  O  O252  1  0.24245686  0.13021087  0.99391687  1
  O  O253  1  0.24429459  0.63257369  0.49234955  1
  O  O254  1  0.24508544  0.63359740  0.99581020  1
  O  O255  1  0.74639666  0.12445310  0.49003217  1
  O  O256  1  0.74055942  0.13190997  0.99798077  1
  O  O257  1  0.76571379  0.62629254  0.50725948  1
  O  O258  1  0.75646524  0.63686951  0.99071573  1
  O  O259  1  0.25029988  0.36730824  0.01115361  1
  O  O260  1  0.25549507  0.36917432  0.50766849  1
  O  O261  1  0.25734616  0.87012845  -0.00275216  1
  O  O262  1  0.26166119  0.86558352  0.49641914  1
  O  O263  1  0.75014806  0.36770815  0.00792979  1
  O  O264  1  0.75162466  0.37506032  0.52495301  1
  O  O265  1  0.76141570  0.87086951  0.00529276  1
  O  O266  1  0.76406619  0.87093527  0.50733185  1
  O  O267  1  0.12014932  0.49426420  0.23479160  1
  O  O268  1  0.13542530  0.49647907  0.74889985  1
  O  O269  1  0.13372471  0.98761270  0.24379996  1
  O  O270  1  0.13186958  0.99651243  0.74384998  1
  O  O271  1  0.63491395  0.50390862  0.24619913  1
  O  O272  1  0.63178070  0.49466957  0.74892657  1
  O  O273  1  0.62889325  0.99048349  0.24574552  1
  O  O274  1  0.61637827  0.98145166  0.73504357  1
  O  O275  1  0.36807780  -0.01423062  0.26489999  1
  O  O276  1  0.35968201  0.00001006  0.74299949  1
  O  O277  1  0.37205782  0.50584593  0.25354518  1
  O  O278  1  0.35920840  0.49710624  0.75279241  1
  O  O279  1  0.87111261  0.00030460  0.25721498  1
  O  O280  1  0.87019108  -0.00516002  0.75688412  1
  O  O281  1  0.88435901  0.51308312  0.25520556  1
  O  O282  1  0.87051936  0.51432870  0.75663747  1
  O  O283  1  0.12032879  0.38429605  0.36054903  1
  O  O284  1  0.12276025  0.36254153  0.87676139  1
  O  O285  1  0.11888695  0.87326252  0.36992241  1
  O  O286  1  0.11985630  0.87563815  0.86227561  1
  O  O287  1  0.64274960  0.38351456  0.36341953  1
  O  O288  1  0.61412446  0.37381314  0.86300207  1
  O  O289  1  0.62420549  0.86710283  0.36871724  1
  O  O290  1  0.61586488  0.87750223  0.86923780  1
  O  O291  1  0.37892905  0.13845964  0.11875765  1
  O  O292  1  0.38219938  0.13092117  0.62493108  1
  O  O293  1  0.38545483  0.63231364  0.12472780  1
  O  O294  1  0.38695751  0.63157789  0.62427837  1
  O  O295  1  0.88061856  0.13267063  0.12897867  1
  O  O296  1  0.88831637  0.11689065  0.61981275  1
  O  O297  1  0.88022750  0.63113274  0.13091463  1
  O  O298  1  0.87279954  0.63153686  0.62856435  1
  O  O299  1  0.25992034  0.25480653  0.11870534  1
  O  O300  1  0.25508332  0.25550056  0.62018279  1
  O  O301  1  0.25127559  0.75306753  0.11187029  1
  O  O302  1  0.24875907  0.74430204  0.61258126  1
  O  O303  1  0.75923303  0.25895648  0.12091573  1
  O  O304  1  0.75619875  0.26265164  0.63188545  1
  O  O305  1  0.75523984  0.75567804  0.11969348  1
  O  O306  1  0.74680634  0.75643591  0.62713158  1
  O  O307  1  0.25454018  0.24914473  0.39112650  1
  O  O308  1  0.24480858  0.24424924  0.88075624  1
  O  O309  1  0.24449942  0.74419010  0.38565812  1
  O  O310  1  0.24792238  0.74547414  0.88453347  1
  O  O311  1  0.73627899  0.22828193  0.34969984  1
  O  O312  1  0.74821170  0.24878666  0.88414732  1
  O  O313  1  0.73573396  0.74797915  0.37503140  1
  O  O314  1  0.74978237  0.74374593  0.88269691  1
  O  O315  1  0.01602925  0.13222522  0.00671942  1
  O  O316  1  0.00141751  0.13478417  0.51363703  1
  O  O317  1  0.00689875  0.62095835  0.00540800  1
  O  O318  1  0.00569362  0.61834845  0.50398492  1
  O  O319  1  0.50188934  0.11964022  0.00923413  1
  O  O320  1  0.50853131  0.12500494  0.51058375  1
  O  O321  1  0.50005189  0.62195154  0.01009710  1
  O  O322  1  0.49290778  0.61419794  0.51158180  1
  O  O323  1  0.48707696  0.39641670  0.51511524  1
  O  O324  1  0.50099883  0.38554145  0.98678989  1
  O  O325  1  0.48377601  0.87045361  0.50104184  1
  O  O326  1  0.49417020  0.88324737  0.99454160  1
  O  O327  1  1.00922891  0.38015097  0.48879175  1
  O  O328  1  1.00503814  0.38642726  0.99932731  1
  O  O329  1  0.99089635  0.86861861  0.48872640  1
  O  O330  1  0.98520271  0.86775978  0.99729800  1
  O  O331  1  0.49731995  0.50977598  0.38977863  1
  O  O332  1  0.50010487  0.49683828  0.88022132  1
  O  O333  1  0.48601263  0.99616897  0.37147287  1
  O  O334  1  0.50418396  0.99612288  0.88753152  1
  O  O335  1  0.99768235  0.49598818  0.38063675  1
  O  O336  1  0.99446445  0.50091458  0.88245863  1
  O  O337  1  0.99185491  0.99000351  0.36860012  1
  O  O338  1  0.98377841  0.99895508  0.87059210  1
  O  O339  1  0.01449472  0.00547122  0.13167019  1
  O  O340  1  0.01113500  0.01564436  0.62837618  1
  O  O341  1  0.00664852  0.50503047  0.11712270  1
  O  O342  1  -0.00202804  0.50643860  0.61777944  1
  O  O343  1  0.50392421  0.00576869  0.11481992  1
  O  O344  1  0.50699519  0.00753831  0.62613240  1
  O  O345  1  0.50991653  0.50747547  0.11728093  1
  O  O346  1  0.49692240  0.51260396  0.62383762  1
  O  O347  1  0.24124281  0.36946213  0.23781693  1
  O  O348  1  0.24802306  0.38058575  0.74265923  1
  O  O349  1  0.24212279  0.87712143  0.25010722  1
  O  O350  1  0.23962168  0.88475992  0.75388225  1
  O  O351  1  0.75735901  0.37860014  0.24353229  1
  O  O352  1  0.74088297  0.37937331  0.74461449  1
  O  O353  1  0.74090112  0.87586662  0.24424218  1
  O  O354  1  0.74042158  0.86702722  0.74172601  1
  O  O355  1  0.26666600  0.10556530  0.23538305  1
  O  O356  1  0.25366365  0.11910236  0.75867797  1
  O  O357  1  0.24939195  0.63591412  0.26696593  1
  O  O358  1  0.24378694  0.61874723  0.75981067  1
  O  O359  1  0.75837403  0.11316748  0.24898930  1
  O  O360  1  0.70271847  0.11988388  0.76840715  1
  O  O361  1  0.76275883  0.63083300  0.25187661  1
  O  O362  1  0.75517225  0.62395587  0.75624657  1
  O  O363  1  0.36920017  0.10627904  0.38320665  1
  O  O364  1  0.36455208  0.13040180  0.87429494  1
  O  O365  1  0.36070917  0.62877510  0.37627649  1
  O  O366  1  0.36068723  0.62465691  0.88189219  1
  O  O367  1  0.86951904  0.11380900  0.36651894  1
  O  O368  1  0.87611501  0.11110115  0.87472631  1
  O  O369  1  0.87163252  0.61431280  0.36736728  1
  O  O370  1  0.86623656  0.61837232  0.86783273  1
  O  O371  1  0.13282289  0.38409007  0.12921117  1
  O  O372  1  0.13660386  0.37643359  0.62666227  1
  O  O373  1  0.12455463  0.88010643  0.13261657  1
  O  O374  1  0.11529488  0.89100896  0.63655152  1
  O  O375  1  0.64216281  0.39154531  0.12548654  1
  O  O376  1  0.62684768  0.37935972  0.63453344  1
  O  O377  1  0.62957447  0.88113379  0.13251225  1
  O  O378  1  0.63094277  0.87714614  0.62862319  1
  O  O379  1  0.11028940  0.26649202  0.23312321  1
  O  O380  1  0.12700412  0.24830485  0.76198952  1
  O  O381  1  0.12153371  0.76030243  0.25374639  1
  O  O382  1  0.11740955  0.76093943  0.74919987  1
  O  O383  1  0.60534401  0.24152696  0.23696049  1
  O  O384  1  0.60952783  0.26082637  0.74640286  1
  O  O385  1  0.61672341  0.75643637  0.25600495  1
  O  O386  1  0.60983820  0.76275170  0.75550841  1
  O  O387  1  0.37183744  0.24832334  0.24041453  1
  O  O388  1  0.38423494  0.24960619  0.73813615  1
  O  O389  1  0.38927798  0.75191834  0.25108914  1
  O  O390  1  0.38426280  0.75996182  0.75185082  1
  O  O391  1  0.88789007  0.24530940  0.24298387  1
  O  O392  1  0.88439049  0.24735337  0.75770413  1
  O  O393  1  0.88077503  0.74502116  0.24467590  1
  O  O394  1  0.88022672  0.73994449  0.75557929  1
  O  O395  1  0.38099477  0.49452656  0.49597321  1
  O  O396  1  0.38999481  0.49722959  0.99896435  1
  O  O397  1  0.36630650  0.98756728  0.49170379  1
  O  O398  1  0.38075632  0.99142662  1.00431073  1
  O  O399  1  0.89212205  0.49907267  0.48696935  1
  O  O400  1  0.88796927  0.50797750  0.99078233  1
  O  O401  1  0.87247184  0.98954264  0.48569453  1
  O  O402  1  0.87795295  0.98772562  1.00914347  1
  O  O403  1  0.13007623  0.00801226  0.00820296  1
  O  O404  1  0.12953116  -0.00433818  0.51409144  1
  O  O405  1  0.11890363  0.50585369  0.00800116  1
  O  O406  1  0.11432917  0.50616123  0.50188915  1
  O  O407  1  0.61806078  0.00668285  0.00489211  1
  O  O408  1  0.62971574  0.00314914  0.51056051  1
  O  O409  1  0.61467911  0.49988836  0.00646471  1
  O  O410  1  0.60748313  0.50185129  0.50535806  1
  O  O411  1  0.36843478  0.36346777  0.12374478  1
  O  O412  1  0.36307295  0.36761483  0.61821862  1
  O  O413  1  0.37506051  0.87220179  0.11553208  1
  O  O414  1  0.37454579  0.87394996  0.61288572  1
  O  O415  1  0.86978373  0.36515092  0.12759683  1
  O  O416  1  0.86611824  0.38035214  0.63432372  1
  O  O417  1  0.87275072  0.87029495  0.11740863  1
  O  O418  1  0.86916784  0.87893623  0.61603136  1
  O  O419  1  0.14332200  0.13480960  0.32850563  1
  O  O420  1  0.13121701  0.13068022  0.88280337  1
  O  O421  1  0.13210384  0.63162462  0.38038057  1
  O  O422  1  0.13489433  0.62800389  0.88315645  1
  O  O423  1  0.63427030  0.10961117  0.38652310  1
  O  O424  1  0.60867422  0.13363008  0.89583519  1
  O  O425  1  0.63070954  0.63777072  0.37407054  1
  O  O426  1  0.63824889  0.62844446  0.87019298  1
