# generated using pymatgen
data_V85Zn86O256
_symmetry_space_group_name_H-M   'P 1'
_cell_length_a   16.95435760
_cell_length_b   16.97362436
_cell_length_c   16.96864757
_cell_angle_alpha   90.10424427
_cell_angle_beta   90.06258759
_cell_angle_gamma   90.00676527
_symmetry_Int_Tables_number   1
_chemical_formula_structural   V85Zn86O256
_chemical_formula_sum   'V85 Zn86 O256'
_cell_volume   4883.17371442
_cell_formula_units_Z   1
loop_
 _symmetry_equiv_pos_site_id
 _symmetry_equiv_pos_as_xyz
  1  'x, y, z'
loop_
 _atom_site_type_symbol
 _atom_site_label
 _atom_site_symmetry_multiplicity
 _atom_site_fract_x
 _atom_site_fract_y
 _atom_site_fract_z
 _atom_site_occupancy
  V  V0  1  0.37925353  0.37368713  0.50692732  1
  V  V1  1  0.25008262  0.74980670  0.49976242  1
  V  V2  1  0.36756699  0.25965699  0.12842884  1
  V  V3  1  0.49996224  -0.00029947  0.50395829  1
  V  V4  1  0.37075415  0.62257529  0.75392454  1
  V  V5  1  0.62028515  0.49988957  0.62109437  1
  V  V6  1  0.88020060  0.00022399  0.38282605  1
  V  V7  1  0.49129801  0.14091686  0.62587783  1
  V  V8  1  0.62795556  0.12360869  0.50234572  1
  V  V9  1  0.12056751  0.12182496  0.50064838  1
  V  V10  1  0.00114258  0.87455415  0.87414316  1
  V  V11  1  -0.00121779  0.75105167  0.74569487  1
  V  V12  1  0.13062622  0.49333289  0.12271106  1
  V  V13  1  0.49855259  0.48401617  0.00128704  1
  V  V14  1  0.12690810  0.25263249  0.37795025  1
  V  V15  1  0.49356187  0.23605306  0.25288275  1
  V  V16  1  0.13228018  0.62902926  0.00123779  1
  V  V17  1  0.75091698  -0.00179857  0.25319415  1
  V  V18  1  0.00226181  0.87936126  0.37846901  1
  V  V19  1  0.49191975  0.88107703  0.88949017  1
  V  V20  1  -0.00173914  0.62462651  0.12193883  1
  V  V21  1  0.87016779  0.37776541  0.51107772  1
  V  V22  1  0.12517781  0.62391353  0.50132557  1
  V  V23  1  0.13081731  0.37553947  0.25129498  1
  V  V24  1  -0.00916785  0.38264064  0.37565378  1
  V  V25  1  0.25480098  0.12598971  0.37052810  1
  V  V26  1  0.61826248  0.74311521  0.87533912  1
  V  V27  1  -0.00618296  0.62676693  0.62295269  1
  V  V28  1  -0.00025691  -0.00246800  -0.00149994  1
  V  V29  1  0.00232171  0.74950672  0.24874665  1
  V  V30  1  0.50116190  0.37641862  0.37790844  1
  V  V31  1  0.13381246  0.87575681  0.24726632  1
  V  V32  1  0.49027880  0.11857764  0.11108654  1
  V  V33  1  0.38874813  0.63429484  0.24211002  1
  V  V34  1  0.00312935  0.25106608  0.25252266  1
  V  V35  1  0.13520402  0.75204238  0.87677418  1
  V  V36  1  0.25069123  0.87690831  0.62359228  1
  V  V37  1  0.74521388  0.50086944  0.74620666  1
  V  V38  1  0.75300314  0.87284609  0.12678017  1
  V  V39  1  0.37390433  0.00247945  0.88717384  1
  V  V40  1  0.62886595  0.37245732  0.24678560  1
  V  V41  1  0.25412304  0.24988701  0.50717299  1
  V  V42  1  0.37862015  0.49938804  0.37982785  1
  V  V43  1  0.25264343  0.62310379  0.37458604  1
  V  V44  1  0.62308448  0.49534777  0.12368775  1
  V  V45  1  0.75159634  0.74147914  0.00230114  1
  V  V46  1  0.87125255  0.26361296  0.12655720  1
  V  V47  1  -0.00052041  0.12532777  0.12638250  1
  V  V48  1  0.61570103  0.37098398  0.75921711  1
  V  V49  1  0.37611451  0.87495852  0.50006722  1
  V  V50  1  0.62867284  0.24726878  0.37485171  1
  V  V51  1  0.00086334  0.49321196  -0.00991374  1
  V  V52  1  0.12612030  0.87779216  0.74879738  1
  V  V53  1  -0.00853633  0.26031486  0.75296638  1
  V  V54  1  0.11483865  0.26548727  0.87018769  1
  V  V55  1  0.62308061  0.00742996  0.11479998  1
  V  V56  1  0.87717988  0.87002712  -0.00038051  1
  V  V57  1  0.62220797  0.62427828  0.49703413  1
  V  V58  1  0.87735910  0.12330365  0.25275104  1
  V  V59  1  0.74768145  0.62361384  0.87977532  1
  V  V60  1  0.87922784  0.61618056  0.25456152  1
  V  V61  1  0.75630615  0.61975776  0.37728680  1
  V  V62  1  -0.00500604  0.12946239  0.62657095  1
  V  V63  1  0.24978803  0.26247721  0.00296256  1
  V  V64  1  0.12696306  0.75061237  0.37478442  1
  V  V65  1  0.37703055  0.00330121  0.36766866  1
  V  V66  1  0.62312346  0.86958777  0.25309637  1
  V  V67  1  0.12017331  0.12861165  -0.00466264  1
  V  V68  1  0.24745246  0.12742663  0.87257851  1
  V  V69  1  0.87473929  0.86682704  0.50565632  1
  V  V70  1  0.12146135  0.00181420  0.62418815  1
  V  V71  1  0.86201411  -0.00203851  0.86619462  1
  V  V72  1  0.37361964  0.75050944  0.62416289  1
  V  V73  1  0.37595096  0.48676350  0.88070273  1
  V  V74  1  0.13176309  -0.00112549  0.12412256  1
  V  V75  1  0.24659642  0.37408174  0.63226126  1
  V  V76  1  0.30582738  0.81385397  0.06718212  1
  V  V77  1  0.86358018  0.12374363  0.74719264  1
  V  V78  1  0.86941486  0.63194590  0.74632003  1
  V  V79  1  0.12313461  0.49668146  0.63083987  1
  V  V80  1  0.56312604  0.67239139  0.06061378  1
  V  V81  1  0.49712564  0.62167447  0.61963849  1
  V  V82  1  0.25630156  0.49524815  0.24619471  1
  V  V83  1  0.49686886  0.75368107  0.75059735  1
  V  V84  1  0.50099158  0.86737228  0.37323377  1
  Zn  Zn85  1  0.87754977  0.74818524  0.12552583  1
  Zn  Zn86  1  0.61683197  0.24576715  0.89784691  1
  Zn  Zn87  1  0.25422425  0.62649407  0.88242338  1
  Zn  Zn88  1  0.75195203  0.12476442  0.37569852  1
  Zn  Zn89  1  0.62726465  0.74764150  0.37407055  1
  Zn  Zn90  1  0.75599532  0.49384045  0.24919321  1
  Zn  Zn91  1  0.76087078  0.24229900  0.50536266  1
  Zn  Zn92  1  0.75384856  0.74572647  0.50845625  1
  Zn  Zn93  1  0.73096644  0.13911037  -0.08838795  1
  Zn  Zn94  1  0.88389010  0.49608113  0.86346163  1
  Zn  Zn95  1  0.63404892  0.00107334  0.63697280  1
  Zn  Zn96  1  0.48603099  0.26184304  0.76432363  1
  Zn  Zn97  1  0.74853006  0.87295825  0.64055380  1
  Zn  Zn98  1  -0.00328882  0.50279800  0.49650325  1
  Zn  Zn99  1  0.74752291  0.36595694  0.62767665  1
  Zn  Zn100  1  0.24596100  0.49669220  0.75581494  1
  Zn  Zn101  1  0.87266125  0.36633379  -0.02805656  1
  Zn  Zn102  1  0.62984402  0.88180154  0.75456229  1
  Zn  Zn103  1  0.71399543  0.32106047  0.05646919  1
  Zn  Zn104  1  0.25755026  0.00203888  0.24349508  1
  Zn  Zn105  1  0.37313102  0.13033965  0.74838303  1
  Zn  Zn106  1  0.25714828  0.00124346  0.74872700  1
  Zn  Zn107  1  0.18771316  0.18622652  0.18811826  1
  Zn  Zn108  1  0.18337927  0.19149742  0.69061879  1
  Zn  Zn109  1  0.19293774  0.68151713  0.18773143  1
  Zn  Zn110  1  0.18604211  0.68654120  0.68780551  1
  Zn  Zn111  1  0.68545974  0.18325209  0.18598528  1
  Zn  Zn112  1  0.68310971  0.19035587  0.68557423  1
  Zn  Zn113  1  0.69356315  0.68592057  0.19286349  1
  Zn  Zn114  1  0.68584997  0.69613017  0.68443190  1
  Zn  Zn115  1  0.31512544  0.31133019  0.31407301  1
  Zn  Zn116  1  0.31022080  0.30679303  0.81178601  1
  Zn  Zn117  1  0.31526550  0.81278061  0.30941894  1
  Zn  Zn118  1  0.31488742  0.81715854  0.81165173  1
  Zn  Zn119  1  0.81194408  0.31043878  0.31278108  1
  Zn  Zn120  1  0.80285381  0.31025350  0.81491230  1
  Zn  Zn121  1  0.81410317  0.80581387  0.31626226  1
  Zn  Zn122  1  0.80949332  0.80985428  0.81141897  1
  Zn  Zn123  1  0.18813151  0.43765386  0.44124650  1
  Zn  Zn124  1  0.18999404  0.43958664  0.93672776  1
  Zn  Zn125  1  0.18886286  0.94114506  0.43698885  1
  Zn  Zn126  1  0.19180519  0.93946835  0.93904017  1
  Zn  Zn127  1  0.68819198  0.44144989  0.43580194  1
  Zn  Zn128  1  0.68553632  0.44014074  0.93324900  1
  Zn  Zn129  1  0.69075442  0.93893341  0.44321897  1
  Zn  Zn130  1  0.68699728  0.92939860  0.93450325  1
  Zn  Zn131  1  0.31132438  0.07280227  0.05979111  1
  Zn  Zn132  1  0.31242856  0.06163311  0.55933310  1
  Zn  Zn133  1  0.31678308  0.56221859  0.06461254  1
  Zn  Zn134  1  0.31168966  0.55836841  0.56266381  1
  Zn  Zn135  1  0.81463542  0.05507151  0.06727646  1
  Zn  Zn136  1  0.81070535  0.05726952  0.56530393  1
  Zn  Zn137  1  0.79711320  0.52389376  0.04659464  1
  Zn  Zn138  1  0.81289914  0.55758485  0.55963271  1
  Zn  Zn139  1  0.44388338  0.43762395  0.19065377  1
  Zn  Zn140  1  0.43438184  0.44059460  0.68738731  1
  Zn  Zn141  1  0.43775003  0.93505650  0.18396776  1
  Zn  Zn142  1  0.46784138  0.96284546  0.71280128  1
  Zn  Zn143  1  0.94807834  0.44100278  0.18807549  1
  Zn  Zn144  1  0.93557051  0.44160697  0.68821463  1
  Zn  Zn145  1  0.94135066  0.93621421  0.18970239  1
  Zn  Zn146  1  0.93947303  0.94241680  0.68557093  1
  Zn  Zn147  1  0.06629076  0.06155486  0.31327630  1
  Zn  Zn148  1  0.05813934  0.06492868  0.81035220  1
  Zn  Zn149  1  0.06689906  0.56148097  0.31103364  1
  Zn  Zn150  1  0.06605135  0.56782851  0.81087285  1
  Zn  Zn151  1  0.56452387  0.05744491  0.31369590  1
  Zn  Zn152  1  0.56866687  0.06966229  0.81587367  1
  Zn  Zn153  1  0.56412492  0.55919540  0.31364859  1
  Zn  Zn154  1  0.55672697  0.56121399  0.81422663  1
  Zn  Zn155  1  0.43794916  0.18878116  0.44027540  1
  Zn  Zn156  1  0.43416276  0.19593890  0.93606984  1
  Zn  Zn157  1  0.43870068  0.68615834  0.43504333  1
  Zn  Zn158  1  0.42621447  0.69186613  0.94021620  1
  Zn  Zn159  1  0.93944088  0.19199912  0.43941397  1
  Zn  Zn160  1  0.90429377  0.17148778  0.95430787  1
  Zn  Zn161  1  0.93930827  0.68811634  0.43398134  1
  Zn  Zn162  1  0.94024829  0.68303888  0.93357806  1
  Zn  Zn163  1  0.06117234  0.31318018  0.06196090  1
  Zn  Zn164  1  0.06010164  0.31142118  0.56376703  1
  Zn  Zn165  1  0.07183890  0.81232204  0.06285940  1
  Zn  Zn166  1  0.05987222  0.81309040  0.56120766  1
  Zn  Zn167  1  0.54618007  0.30763004  0.06407322  1
  Zn  Zn168  1  0.56853410  0.31320143  0.55981508  1
  Zn  Zn169  1  0.56189268  0.83344752  0.06674938  1
  Zn  Zn170  1  0.56822191  0.81106580  0.56500532  1
  O  O171  1  0.11380992  0.12248445  0.11942241  1
  O  O172  1  0.12007320  0.11961543  0.61948151  1
  O  O173  1  0.11812262  0.61570456  0.12104155  1
  O  O174  1  0.11481671  0.62117133  0.61984560  1
  O  O175  1  0.60922742  0.11711579  0.13221444  1
  O  O176  1  0.61250335  0.12143145  0.61599359  1
  O  O177  1  0.62017173  0.61889636  0.12849995  1
  O  O178  1  0.61584428  0.61879816  0.62034151  1
  O  O179  1  0.38170505  0.37998046  0.38284893  1
  O  O180  1  0.36751179  0.38910690  0.87337956  1
  O  O181  1  0.38226743  0.88099654  0.37995781  1
  O  O182  1  0.38362846  0.88363722  0.87367931  1
  O  O183  1  0.88912685  0.37613939  0.37081244  1
  O  O184  1  0.87434811  0.38376268  0.86211534  1
  O  O185  1  0.88563173  0.88023801  0.37683749  1
  O  O186  1  0.88151784  0.88197876  0.87856031  1
  O  O187  1  0.25949558  0.00951680  0.37660553  1
  O  O188  1  0.25387168  0.00957705  0.87243152  1
  O  O189  1  0.25768714  0.50390457  0.36990789  1
  O  O190  1  0.26077347  0.50462058  0.87477405  1
  O  O191  1  0.76010813  -0.00087273  0.36543063  1
  O  O192  1  0.76234356  0.00073285  0.88285212  1
  O  O193  1  0.74347279  0.51455321  0.36687363  1
  O  O194  1  0.74488248  0.51092261  0.85929621  1
  O  O195  1  0.24314873  0.50174347  0.13387769  1
  O  O196  1  0.24145069  0.49182652  0.62589432  1
  O  O197  1  0.23478421  1.01546649  0.12715582  1
  O  O198  1  0.24009128  0.99702803  0.62547068  1
  O  O199  1  0.72865202  0.50903015  0.13392653  1
  O  O200  1  0.73929315  0.50410629  0.63465379  1
  O  O201  1  0.74674387  0.99567090  0.13663817  1
  O  O202  1  0.74317732  0.98487373  0.61215075  1
  O  O203  1  0.00962817  0.37283750  0.26107936  1
  O  O204  1  -0.00528989  0.35883426  0.74103325  1
  O  O205  1  0.00970364  0.86897534  0.25876051  1
  O  O206  1  0.00475861  0.86786965  0.75216195  1
  O  O207  1  0.50848682  0.36267355  0.25853937  1
  O  O208  1  0.51212694  0.37952500  0.74229158  1
  O  O209  1  0.51187560  0.88393555  0.26041691  1
  O  O210  1  0.49113331  0.85754237  0.76173765  1
  O  O211  1  0.50154201  0.13480975  0.25377797  1
  O  O212  1  0.50035654  0.13183787  0.73117189  1
  O  O213  1  0.48739692  0.62226477  0.25792918  1
  O  O214  1  0.48739429  0.63292266  0.74494617  1
  O  O215  1  0.99951696  0.13001838  0.24470256  1
  O  O216  1  0.99381358  0.13212020  0.74106182  1
  O  O217  1  0.99929242  0.62866997  0.24418593  1
  O  O218  1  0.99251207  0.63194481  0.74314542  1
  O  O219  1  0.36256500  0.24564151  0.01660943  1
  O  O220  1  0.36389202  0.26013525  0.49552011  1
  O  O221  1  0.36006620  0.75199001  0.00614781  1
  O  O222  1  0.36983372  0.75426062  0.50363804  1
  O  O223  1  0.89179639  0.26467109  0.02269291  1
  O  O224  1  0.87441417  0.27138103  0.48866862  1
  O  O225  1  0.87221114  0.75474050  -0.00173558  1
  O  O226  1  0.87933457  0.76379396  0.49612258  1
  O  O227  1  0.13229048  0.24274138  0.49549350  1
  O  O228  1  0.12365696  0.24633474  0.99024646  1
  O  O229  1  0.12956040  0.74391312  0.49477868  1
  O  O230  1  0.11859307  0.74077527  0.98826523  1
  O  O231  1  0.62246806  0.23804911  0.48874978  1
  O  O232  1  0.63148144  0.26214489  1.01255569  1
  O  O233  1  0.62601338  0.73559061  0.49813242  1
  O  O234  1  0.62501023  0.74004161  1.00013187  1
  O  O235  1  0.48645304  0.23737604  0.13384522  1
  O  O236  1  0.49925106  0.24054615  0.61703112  1
  O  O237  1  0.51309854  0.73948126  0.11333068  1
  O  O238  1  0.49414200  0.74056753  0.63302002  1
  O  O239  1  0.99731311  0.24389323  0.13468863  1
  O  O240  1  1.00869927  0.23975111  0.63982946  1
  O  O241  1  1.00470624  0.74157011  0.13175548  1
  O  O242  1  1.00632432  0.74298708  0.63776420  1
  O  O243  1  0.00765059  0.26049481  0.36998904  1
  O  O244  1  0.00916428  0.24761983  0.86427048  1
  O  O245  1  0.00923296  0.75656870  0.36759945  1
  O  O246  1  0.00821146  0.75352632  0.86295705  1
  O  O247  1  0.50504431  0.25640873  0.36964276  1
  O  O248  1  0.50434779  0.25457734  0.87664882  1
  O  O249  1  0.50236811  0.76444686  0.37867110  1
  O  O250  1  0.50111764  0.75352569  0.87193802  1
  O  O251  1  0.24326469  0.13343945  0.49415866  1
  O  O252  1  0.23809274  0.13517584  0.99011580  1
  O  O253  1  0.24548509  0.62952247  0.49465935  1
  O  O254  1  0.23572308  0.61872267  1.00317696  1
  O  O255  1  0.74189780  0.12359073  0.49500890  1
  O  O256  1  0.80145571  0.13505453  0.99545015  1
  O  O257  1  0.74500746  0.62414651  0.49353206  1
  O  O258  1  0.75679634  0.62129847  0.98548163  1
  O  O259  1  0.24132949  0.36163462  0.00293289  1
  O  O260  1  0.25695280  0.36712229  0.50620838  1
  O  O261  1  0.24290235  0.87177854  0.01068505  1
  O  O262  1  0.25418617  0.86978963  0.50363013  1
  O  O263  1  0.76709877  0.40823263  0.00731741  1
  O  O264  1  0.76311965  0.37916782  0.49769706  1
  O  O265  1  0.75685748  0.86397481  0.00640123  1
  O  O266  1  0.76953596  0.86907193  0.48832963  1
  O  O267  1  0.13527209  0.49641289  0.24184200  1
  O  O268  1  0.12769621  0.50773729  0.73589246  1
  O  O269  1  0.12631441  0.99275993  0.24183000  1
  O  O270  1  0.12614603  0.99342158  0.74188230  1
  O  O271  1  0.61734983  0.48747472  0.24083775  1
  O  O272  1  0.62668894  0.49865578  0.74173352  1
  O  O273  1  0.63659667  0.99204858  0.24774499  1
  O  O274  1  0.58253034  0.98889900  0.74150913  1
  O  O275  1  0.37435429  -0.00462279  0.26388034  1
  O  O276  1  0.37520591  0.01108039  0.76299114  1
  O  O277  1  0.37119501  0.50084855  0.26071356  1
  O  O278  1  0.37470135  0.50662313  0.76314980  1
  O  O279  1  0.87039163  0.00352504  0.25669531  1
  O  O280  1  0.87775506  0.00413750  0.76007038  1
  O  O281  1  0.87739436  0.51237454  0.24366166  1
  O  O282  1  0.86411284  0.51382598  0.74430027  1
  O  O283  1  0.12059529  0.36929605  0.37279910  1
  O  O284  1  0.12437868  0.36370140  0.87593475  1
  O  O285  1  0.11920879  0.87261968  0.37107573  1
  O  O286  1  0.12040235  0.86998904  0.86994564  1
  O  O287  1  0.61735361  0.36711632  0.37374335  1
  O  O288  1  0.62078138  0.38214651  0.85941133  1
  O  O289  1  0.61867576  0.87614129  0.37054105  1
  O  O290  1  0.60971381  0.86205418  0.87820808  1
  O  O291  1  0.38597946  0.12790965  0.12943731  1
  O  O292  1  0.38851530  0.12323248  0.61939419  1
  O  O293  1  0.37451574  0.61865644  0.14365481  1
  O  O294  1  0.38025260  0.62846870  0.62855232  1
  O  O295  1  0.88870942  0.13034341  0.13496884  1
  O  O296  1  0.88812597  0.11486996  0.63035317  1
  O  O297  1  0.89268784  0.62559566  0.13027029  1
  O  O298  1  0.88687409  0.62219039  0.62855007  1
  O  O299  1  0.25986186  0.24323813  0.12080786  1
  O  O300  1  0.24076192  0.25735018  0.61426897  1
  O  O301  1  0.24376139  0.75788912  0.12629959  1
  O  O302  1  0.25266781  0.75431211  0.61790405  1
  O  O303  1  0.76720058  0.24981939  0.13421995  1
  O  O304  1  0.74059001  0.25476504  0.61505962  1
  O  O305  1  0.75400648  0.75192529  0.11801768  1
  O  O306  1  0.75075917  0.75898434  0.62187697  1
  O  O307  1  0.24625099  0.24445496  0.38426804  1
  O  O308  1  0.23697408  0.24605676  0.88241422  1
  O  O309  1  0.24534833  0.74464210  0.38062589  1
  O  O310  1  0.23798595  0.74948035  0.86688295  1
  O  O311  1  0.73851662  0.24714032  0.37712315  1
  O  O312  1  0.73253067  0.24946361  0.87318370  1
  O  O313  1  0.74815857  0.73499110  0.37920385  1
  O  O314  1  0.73834781  0.74306422  0.88408309  1
  O  O315  1  0.00003417  0.11891632  0.00882828  1
  O  O316  1  0.01053157  0.13466914  0.51008677  1
  O  O317  1  0.01138417  0.61947956  0.00619776  1
  O  O318  1  0.00528739  0.62589063  0.50701879  1
  O  O319  1  0.49171613  0.12429980  0.01382693  1
  O  O320  1  0.50568179  0.11940356  0.50484884  1
  O  O321  1  0.49896511  0.62037414  0.00124195  1
  O  O322  1  0.50623655  0.62833802  0.50925218  1
  O  O323  1  0.49029057  0.36800326  0.49125732  1
  O  O324  1  0.48829596  0.38649087  1.00266233  1
  O  O325  1  0.49659986  0.88175145  0.49306209  1
  O  O326  1  0.49422229  0.87336918  0.98806622  1
  O  O327  1  0.99151629  0.37539997  0.49075754  1
  O  O328  1  0.99979458  0.39184850  1.00313488  1
  O  O329  1  0.99328999  0.87131029  0.48599221  1
  O  O330  1  0.99607339  0.87651936  0.99475947  1
  O  O331  1  0.49323886  0.48459063  0.37167704  1
  O  O332  1  0.48728385  0.50309017  0.88764189  1
  O  O333  1  0.49338947  0.99451375  0.38424699  1
  O  O334  1  0.49134532  0.98598201  0.87687752  1
  O  O335  1  1.01091072  0.48581554  0.37714932  1
  O  O336  1  1.00592109  0.50690578  0.88686429  1
  O  O337  1  0.99372480  0.98985029  0.36808427  1
  O  O338  1  0.99643019  0.99078733  0.88012711  1
  O  O339  1  0.00694031  0.00811269  0.12137466  1
  O  O340  1  0.01472909  0.01038072  0.62735649  1
  O  O341  1  0.01095910  0.50739956  0.11632404  1
  O  O342  1  0.00644482  0.50912198  0.62269304  1
  O  O343  1  0.50700059  0.01138108  0.13028053  1
  O  O344  1  0.49425119  0.00687490  0.60719691  1
  O  O345  1  0.50517178  0.49829710  0.11237799  1
  O  O346  1  0.50410797  0.51451005  0.62867295  1
  O  O347  1  0.24628129  0.38734464  0.25830928  1
  O  O348  1  0.25150030  0.37564827  0.73511893  1
  O  O349  1  0.23660568  0.88065518  0.25985148  1
  O  O350  1  0.24310831  0.87685919  0.74057565  1
  O  O351  1  0.73367313  0.37573192  0.25914331  1
  O  O352  1  0.73425582  0.38746188  0.74455449  1
  O  O353  1  0.74952738  0.88045829  0.24609454  1
  O  O354  1  0.74370834  0.87800823  0.75835899  1
  O  O355  1  0.24224681  0.12299539  0.26735396  1
  O  O356  1  0.24448235  0.12576675  0.76356642  1
  O  O357  1  0.25575514  0.61168327  0.25838000  1
  O  O358  1  0.26252966  0.62276047  0.74710567  1
  O  O359  1  0.75746760  0.11492418  0.25255609  1
  O  O360  1  0.76351168  0.12708207  0.74141634  1
  O  O361  1  0.76413166  0.62456111  0.25762804  1
  O  O362  1  0.75466831  0.62483335  0.75578195  1
  O  O363  1  0.36631786  0.11649167  0.38333452  1
  O  O364  1  0.36202851  0.12106705  0.87838310  1
  O  O365  1  0.37107506  0.61490073  0.37203424  1
  O  O366  1  0.37161736  0.62036919  0.86677758  1
  O  O367  1  0.87888671  0.11690442  0.37073086  1
  O  O368  1  0.88491587  0.10631891  0.86012004  1
  O  O369  1  0.87137383  0.62518815  0.36671144  1
  O  O370  1  0.86694505  0.62105739  0.86342004  1
  O  O371  1  0.11933665  0.38653019  0.13340592  1
  O  O372  1  0.13294875  0.38612486  0.61517863  1
  O  O373  1  0.11701804  0.88779105  0.13584266  1
  O  O374  1  0.12848236  0.88371499  0.62601591  1
  O  O375  1  0.62247060  0.37945048  0.13312972  1
  O  O376  1  0.62309647  0.39171863  0.62376842  1
  O  O377  1  0.63328659  0.88549443  0.13589655  1
  O  O378  1  0.62131323  0.87937084  0.63300455  1
  O  O379  1  0.12267988  0.25624613  0.25623462  1
  O  O380  1  0.11383105  0.24775603  0.76428634  1
  O  O381  1  0.12218165  0.75620789  0.25541904  1
  O  O382  1  0.11828971  0.75603099  0.75572275  1
  O  O383  1  0.61750747  0.25266244  0.25724616  1
  O  O384  1  0.61738821  0.26891810  0.74249770  1
  O  O385  1  0.63259924  0.76583483  0.25180935  1
  O  O386  1  0.61163781  0.74772627  0.76090026  1
  O  O387  1  0.37978271  0.24895052  0.24201229  1
  O  O388  1  0.37492722  0.24411273  0.74872693  1
  O  O389  1  0.37234225  0.73297651  0.25627494  1
  O  O390  1  0.37739061  0.74219900  0.74398331  1
  O  O391  1  0.88306880  0.24278035  0.24633933  1
  O  O392  1  0.88684431  0.23883082  0.75568685  1
  O  O393  1  0.88685855  0.74006970  0.24831475  1
  O  O394  1  0.88349949  0.73895705  0.75553635  1
  O  O395  1  0.36983952  0.49137770  0.48653047  1
  O  O396  1  0.38281494  0.50521823  0.98910194  1
  O  O397  1  0.37985656  0.99265984  0.49015052  1
  O  O398  1  0.36614227  1.00403386  0.98718039  1
  O  O399  1  0.87979104  0.48486573  0.49802652  1
  O  O400  1  0.89651429  0.50738223  0.99475601  1
  O  O401  1  0.87559154  0.99108330  0.48515171  1
  O  O402  1  0.88258769  0.98612629  0.99150575  1
  O  O403  1  0.11787309  0.00687390  0.00639051  1
  O  O404  1  0.12927929  0.01405651  0.50641564  1
  O  O405  1  0.11855934  0.50507522  0.00559327  1
  O  O406  1  0.12415776  0.50986806  0.50947055  1
  O  O407  1  0.63435345  -0.00727039  0.01682977  1
  O  O408  1  0.61577692  0.01206781  0.49309233  1
  O  O409  1  0.60806340  0.49532155  0.00550483  1
  O  O410  1  0.62768451  0.51279889  0.50769086  1
  O  O411  1  0.37864917  0.35812914  0.13266293  1
  O  O412  1  0.36574950  0.38548933  0.61193755  1
  O  O413  1  0.36679308  0.87172651  0.12673682  1
  O  O414  1  0.36728392  0.86661713  0.61657836  1
  O  O415  1  0.87914993  0.36230474  0.14096463  1
  O  O416  1  0.87207031  0.37788012  0.61360702  1
  O  O417  1  0.87182474  0.87264633  0.11850729  1
  O  O418  1  0.88400626  0.88160657  0.60586727  1
  O  O419  1  0.12950633  0.13046259  0.38453042  1
  O  O420  1  0.12718220  0.12977568  0.88120476  1
  O  O421  1  0.13194059  0.62970407  0.38082184  1
  O  O422  1  0.12918572  0.63441211  0.88262272  1
  O  O423  1  0.62545951  0.13247386  0.38045696  1
  O  O424  1  0.62466613  0.12730427  0.88572865  1
  O  O425  1  0.62971359  0.62546501  0.38212746  1
  O  O426  1  0.63005874  0.63542189  0.87105687  1
