# generated using pymatgen
data_V85Zn86O256
_symmetry_space_group_name_H-M   'P 1'
_cell_length_a   16.92235927
_cell_length_b   16.93260269
_cell_length_c   16.93029223
_cell_angle_alpha   90.04286700
_cell_angle_beta   89.90886447
_cell_angle_gamma   90.00621604
_symmetry_Int_Tables_number   1
_chemical_formula_structural   V85Zn86O256
_chemical_formula_sum   'V85 Zn86 O256'
_cell_volume   4851.19140578
_cell_formula_units_Z   1
loop_
 _symmetry_equiv_pos_site_id
 _symmetry_equiv_pos_as_xyz
  1  'x, y, z'
loop_
 _atom_site_type_symbol
 _atom_site_label
 _atom_site_symmetry_multiplicity
 _atom_site_fract_x
 _atom_site_fract_y
 _atom_site_fract_z
 _atom_site_occupancy
  V  V0  1  0.37508367  0.74931360  0.12305318  1
  V  V1  1  0.62315985  0.75421594  0.87423841  1
  V  V2  1  0.12346395  0.00195898  0.12068666  1
  V  V3  1  0.87946368  0.62896167  0.74958261  1
  V  V4  1  0.75277688  0.00174755  0.74860682  1
  V  V5  1  0.86507329  0.00184917  0.37482554  1
  V  V6  1  0.86850035  0.25385890  0.12077853  1
  V  V7  1  0.24472515  0.62305190  0.88212722  1
  V  V8  1  -0.00023715  0.75006772  0.25260695  1
  V  V9  1  -0.00059929  0.12603218  0.12615076  1
  V  V10  1  0.87141738  0.87678444  0.00217577  1
  V  V11  1  0.50232298  0.12462316  0.62520549  1
  V  V12  1  0.63115248  0.12755467  0.48584479  1
  V  V13  1  0.74780885  0.73702568  0.49894556  1
  V  V14  1  0.62883229  -0.00577883  0.12371355  1
  V  V15  1  0.37543196  0.50621352  0.87070097  1
  V  V16  1  0.62564255  0.00116320  0.62423959  1
  V  V17  1  0.50140078  -0.00111489  0.49977837  1
  V  V18  1  0.25128185  0.87488777  0.11926381  1
  V  V19  1  0.12786592  0.86855704  0.74673646  1
  V  V20  1  0.37481140  0.25046558  0.62591282  1
  V  V21  1  0.87573159  0.50641271  0.37475333  1
  V  V22  1  0.00404720  0.62758281  0.12277257  1
  V  V23  1  0.87377637  0.50048575  0.87685690  1
  V  V24  1  0.12482241  0.12672462  0.49825692  1
  V  V25  1  0.39115391  0.12602120  0.24067258  1
  V  V26  1  -0.00235272  0.87090556  0.86801578  1
  V  V27  1  0.87675851  0.37414034  0.49448940  1
  V  V28  1  0.13081428  0.50083533  0.12568401  1
  V  V29  1  0.12256306  0.26137582  0.37648925  1
  V  V30  1  0.00305012  0.63368575  0.62471209  1
  V  V31  1  0.87538807  0.00417007  0.87096689  1
  V  V32  1  0.86545795  0.25505891  0.62903277  1
  V  V33  1  0.87007416  0.75269583  0.12760813  1
  V  V34  1  0.74235089  0.50173494  0.25666215  1
  V  V35  1  0.00332237  0.49605705  0.49495332  1
  V  V36  1  -0.00137863  0.25911909  0.25341120  1
  V  V37  1  0.49919607  0.37652063  0.87747304  1
  V  V38  1  0.12398538  0.87509679  0.24930664  1
  V  V39  1  0.50124861  0.74618063  0.25093010  1
  V  V40  1  0.49973291  0.50400358  -0.00036381  1
  V  V41  1  0.50190023  0.25136202  0.75178442  1
  V  V42  1  0.75155423  0.49793324  0.74496183  1
  V  V43  1  0.11825727  0.74436994  0.87779172  1
  V  V44  1  0.36150263  0.62628269  0.25790554  1
  V  V45  1  -0.00681149  0.12545463  0.62724132  1
  V  V46  1  0.39383454  0.37842951  0.49784409  1
  V  V47  1  0.25080482  0.25505642  0.49716831  1
  V  V48  1  0.14008664  0.62641078  0.49792949  1
  V  V49  1  0.62110260  0.12642870  0.00619263  1
  V  V50  1  0.75030493  0.25130563  0.48219094  1
  V  V51  1  0.25158085  0.50192295  0.75065373  1
  V  V52  1  0.50033364  0.62489818  0.61391687  1
  V  V53  1  0.37449541  0.12444949  0.75129198  1
  V  V54  1  -0.00202668  0.00114348  0.49839396  1
  V  V55  1  0.74815010  0.75067802  0.00320660  1
  V  V56  1  -0.00033280  0.87426331  0.38097957  1
  V  V57  1  0.13901558  0.74774391  0.37957639  1
  V  V58  1  -0.00407245  0.24570182  0.75334997  1
  V  V59  1  0.62644778  0.49702936  0.12373560  1
  V  V60  1  0.61653601  0.87611071  0.75103864  1
  V  V61  1  0.50230033  0.87241213  0.37864184  1
  V  V62  1  0.12520221  0.36798207  0.75079370  1
  V  V63  1  0.49051915  0.74277058  0.75466169  1
  V  V64  1  0.86751230  0.12721283  0.25278813  1
  V  V65  1  0.63013177  0.37561148  0.74614557  1
  V  V66  1  0.24229686  0.12563119  0.87325405  1
  V  V67  1  0.00408513  0.50465790  0.00030278  1
  V  V68  1  0.37562624  -0.00026088  0.37188536  1
  V  V69  1  0.13183367  -0.00613670  0.62374641  1
  V  V70  1  0.62851413  0.73437883  0.37977283  1
  V  V71  1  0.36574660  0.75192585  0.61874567  1
  V  V72  1  0.50048351  -0.00639117  -0.00028476  1
  V  V73  1  0.12401367  0.49921535  0.62477886  1
  V  V74  1  0.62308192  0.50464479  0.61778867  1
  V  V75  1  0.37848484  -0.00760214  0.87295383  1
  V  V76  1  0.38732466  0.24763483  0.11767523  1
  V  V77  1  0.63524376  0.87020862  0.24796578  1
  V  V78  1  0.23836535  0.25228886  -0.00204378  1
  V  V79  1  0.75090973  0.12806957  0.87782828  1
  V  V80  1  0.87586175  0.75295821  0.62757191  1
  V  V81  1  0.25128678  0.00626185  0.24518087  1
  V  V82  1  0.00364122  0.37120559  0.87679248  1
  V  V83  1  0.62925738  0.25258685  0.88695488  1
  V  V84  1  0.37974648  0.50399021  0.38275726  1
  Zn  Zn85  1  0.74286107  0.37502562  0.11700608  1
  Zn  Zn86  1  0.24804010  0.49543758  0.26307965  1
  Zn  Zn87  1  0.87182082  0.87390387  0.50013693  1
  Zn  Zn88  1  0.12899355  0.37869745  0.25328582  1
  Zn  Zn89  1  0.37132585  0.37561037  -0.00060195  1
  Zn  Zn90  1  0.24525120  0.74558723  0.00061987  1
  Zn  Zn91  1  0.25287700  0.37589008  0.62652895  1
  Zn  Zn92  1  0.74863660  0.62667412  0.87378227  1
  Zn  Zn93  1  0.35972087  0.87582349  0.50196312  1
  Zn  Zn94  1  0.87222285  0.62764049  0.25716080  1
  Zn  Zn95  1  0.74825855  0.87384223  0.62286154  1
  Zn  Zn96  1  0.49929876  0.62467144  0.12556563  1
  Zn  Zn97  1  0.55344761  0.31979794  0.34514984  1
  Zn  Zn98  1  0.25001714  0.36965406  0.13356527  1
  Zn  Zn99  1  0.37932377  0.86923626  -0.00882193  1
  Zn  Zn100  1  0.25164716  -0.00397331  0.74769158  1
  Zn  Zn101  1  0.12030614  0.12708301  -0.00558282  1
  Zn  Zn102  1  0.75125617  -0.00317618  0.24580440  1
  Zn  Zn103  1  -0.00146704  0.00002090  -0.00127776  1
  Zn  Zn104  1  0.87026551  0.37154106  -0.00210807  1
  Zn  Zn105  1  0.25065159  0.12757196  0.37095422  1
  Zn  Zn106  1  0.62492071  0.62710812  -0.00065557  1
  Zn  Zn107  1  0.18776058  0.19160671  0.18625511  1
  Zn  Zn108  1  0.18601421  0.18589949  0.68542788  1
  Zn  Zn109  1  0.18415567  0.68801392  0.18700480  1
  Zn  Zn110  1  0.18548515  0.68282469  0.69703470  1
  Zn  Zn111  1  0.68683454  0.18168125  0.18721525  1
  Zn  Zn112  1  0.68711789  0.18457853  0.69103232  1
  Zn  Zn113  1  0.68745938  0.67938811  0.18680373  1
  Zn  Zn114  1  0.68859897  0.68582483  0.68753929  1
  Zn  Zn115  1  0.39336849  0.31368483  0.30568680  1
  Zn  Zn116  1  0.31214586  0.31319207  0.81577827  1
  Zn  Zn117  1  0.31479872  0.81818024  0.30879697  1
  Zn  Zn118  1  0.30763845  0.80956930  0.80968637  1
  Zn  Zn119  1  0.71539983  0.31747733  0.30279438  1
  Zn  Zn120  1  0.81321477  0.31367980  0.81350627  1
  Zn  Zn121  1  0.81258644  0.80967679  0.31875366  1
  Zn  Zn122  1  0.80819990  0.81507298  0.81129440  1
  Zn  Zn123  1  0.19665303  0.43959507  0.43687105  1
  Zn  Zn124  1  0.18444376  0.43614051  0.93902304  1
  Zn  Zn125  1  0.18658241  0.94105775  0.43245664  1
  Zn  Zn126  1  0.18817636  0.93687703  0.93441252  1
  Zn  Zn127  1  0.69437621  0.43880552  0.44325885  1
  Zn  Zn128  1  0.68924387  0.43639330  0.94043392  1
  Zn  Zn129  1  0.68794117  0.92924711  0.44002348  1
  Zn  Zn130  1  0.68831421  0.93531744  0.93673145  1
  Zn  Zn131  1  0.31368967  0.06549105  0.05729257  1
  Zn  Zn132  1  0.31280317  0.06230255  0.55990809  1
  Zn  Zn133  1  0.31533683  0.56494929  0.06107492  1
  Zn  Zn134  1  0.31937522  0.56151355  0.56881363  1
  Zn  Zn135  1  0.80893148  0.06359873  0.06128870  1
  Zn  Zn136  1  0.81187846  0.06670139  0.56136291  1
  Zn  Zn137  1  0.81341044  0.56612695  0.06361125  1
  Zn  Zn138  1  0.81344876  0.56064253  0.56510904  1
  Zn  Zn139  1  0.43257231  0.44135237  0.18607583  1
  Zn  Zn140  1  0.43950490  0.43916030  0.68671958  1
  Zn  Zn141  1  0.44404945  0.93594954  0.18378371  1
  Zn  Zn142  1  0.43713268  0.93346611  0.68773604  1
  Zn  Zn143  1  0.93687708  0.43788071  0.19136047  1
  Zn  Zn144  1  0.93805394  0.43610107  0.68381796  1
  Zn  Zn145  1  0.93659297  0.93662711  0.18918509  1
  Zn  Zn146  1  0.94098977  0.93677646  0.68774608  1
  Zn  Zn147  1  0.05927316  0.06531781  0.31170560  1
  Zn  Zn148  1  0.06128210  0.05917226  0.80875314  1
  Zn  Zn149  1  0.06261710  0.56588888  0.31368334  1
  Zn  Zn150  1  0.06203184  0.56073533  0.81108123  1
  Zn  Zn151  1  0.56470123  0.06038785  0.30959703  1
  Zn  Zn152  1  0.56175068  0.06296188  0.81624269  1
  Zn  Zn153  1  0.55779476  0.55589307  0.31391094  1
  Zn  Zn154  1  0.56460924  0.56661660  0.81022172  1
  Zn  Zn155  1  0.43611504  0.18170717  0.43953993  1
  Zn  Zn156  1  0.43804451  0.18333562  0.93835609  1
  Zn  Zn157  1  0.43522545  0.68734373  0.43884251  1
  Zn  Zn158  1  0.43405878  0.68631121  0.93419939  1
  Zn  Zn159  1  0.93555859  0.18859319  0.43547396  1
  Zn  Zn160  1  0.93804853  0.18496581  0.93855131  1
  Zn  Zn161  1  0.94322725  0.68726131  0.44384003  1
  Zn  Zn162  1  0.93731803  0.68723752  0.93893094  1
  Zn  Zn163  1  0.05923411  0.31629094  0.06420338  1
  Zn  Zn164  1  0.05992477  0.31315550  0.56580601  1
  Zn  Zn165  1  0.05940752  0.81346587  0.05804456  1
  Zn  Zn166  1  0.18638600  0.81122843  0.56386092  1
  Zn  Zn167  1  0.55913035  0.31192609  0.17752485  1
  Zn  Zn168  1  0.57115470  0.31052186  0.56402749  1
  Zn  Zn169  1  0.56106593  0.81525575  0.06280903  1
  Zn  Zn170  1  0.56299539  0.80933027  0.56427618  1
  O  O171  1  0.11738330  0.11702981  0.12450733  1
  O  O172  1  0.11534361  0.12064178  0.61483430  1
  O  O173  1  0.11172719  0.62082158  0.12703695  1
  O  O174  1  0.11868055  0.61985461  0.62259909  1
  O  O175  1  0.62933252  0.11653986  0.11134024  1
  O  O176  1  0.61964308  0.11859936  0.62000094  1
  O  O177  1  0.61811640  0.61574413  0.11959636  1
  O  O178  1  0.61176773  0.61852370  0.63380983  1
  O  O179  1  0.36929194  0.38429263  0.39397473  1
  O  O180  1  0.38258497  0.38480373  0.87605019  1
  O  O181  1  0.38463524  0.88075078  0.37612515  1
  O  O182  1  0.36588453  0.88788724  0.87322659  1
  O  O183  1  0.87604950  0.39057040  0.39287799  1
  O  O184  1  0.88530161  0.38685512  0.87189811  1
  O  O185  1  0.88359917  0.88331261  0.37417400  1
  O  O186  1  0.87936610  0.88248826  0.87871259  1
  O  O187  1  0.25606328  0.00273671  0.36109609  1
  O  O188  1  0.25810959  0.00898297  0.87400838  1
  O  O189  1  0.26743105  0.50385788  0.37828442  1
  O  O190  1  0.25472042  0.50236557  0.87190508  1
  O  O191  1  0.76242527  -0.00638236  0.37477997  1
  O  O192  1  0.75626069  0.00377328  0.86834510  1
  O  O193  1  0.75820564  0.50041508  0.36372925  1
  O  O194  1  0.75867831  0.50338023  0.86607307  1
  O  O195  1  0.23585521  0.50357572  0.11841548  1
  O  O196  1  0.24491608  0.49800773  0.63545058  1
  O  O197  1  0.24442545  0.99542001  0.12644714  1
  O  O198  1  0.23472086  1.00889964  0.62630943  1
  O  O199  1  0.74141658  0.50437223  0.12902783  1
  O  O200  1  0.74266927  0.50542266  0.63871278  1
  O  O201  1  0.73567763  0.99873471  0.12348319  1
  O  O202  1  0.74530612  1.00082551  0.63246993  1
  O  O203  1  0.00550573  0.36198431  0.24831129  1
  O  O204  1  0.00588745  0.36805068  0.75555760  1
  O  O205  1  0.00463437  0.87010281  0.25870990  1
  O  O206  1  0.00857799  0.87872130  0.76174434  1
  O  O207  1  0.48556506  0.36532719  0.24993991  1
  O  O208  1  0.50668108  0.37270974  0.76025007  1
  O  O209  1  0.50526777  0.86356132  0.25912085  1
  O  O210  1  0.51085401  0.86303175  0.74591018  1
  O  O211  1  0.48942687  0.11854776  0.24357366  1
  O  O212  1  0.49529183  0.13115908  0.74626634  1
  O  O213  1  0.49217252  0.63769781  0.25048803  1
  O  O214  1  0.50077137  0.64036373  0.74528714  1
  O  O215  1  0.99396707  0.12874222  0.23893859  1
  O  O216  1  1.00628447  0.13631770  0.74240868  1
  O  O217  1  0.99613200  0.63494784  0.24332593  1
  O  O218  1  0.98761829  0.61666770  0.74079323  1
  O  O219  1  0.36675764  0.24591631  0.00736536  1
  O  O220  1  0.36779262  0.25753228  0.50541172  1
  O  O221  1  0.37149067  0.75104903  0.00840522  1
  O  O222  1  0.37582914  0.75263096  0.51465239  1
  O  O223  1  0.88184583  0.24765809  0.01720490  1
  O  O224  1  0.86828272  0.25418816  0.50554541  1
  O  O225  1  0.86831832  0.75657279  0.00606594  1
  O  O226  1  0.86627527  0.74905736  0.50846914  1
  O  O227  1  0.12852393  0.24462283  0.49775818  1
  O  O228  1  0.13483323  0.24870826  1.00164559  1
  O  O229  1  0.12827278  0.73976619  0.49258737  1
  O  O230  1  0.12714188  0.75716056  0.98394991  1
  O  O231  1  0.64131582  0.24346144  0.50240851  1
  O  O232  1  0.62223193  0.24126199  0.98748129  1
  O  O233  1  0.63789588  0.75229038  0.49433333  1
  O  O234  1  0.63110410  0.75314631  0.99351469  1
  O  O235  1  0.48614717  0.24689168  0.11271236  1
  O  O236  1  0.49595452  0.24446624  0.63123181  1
  O  O237  1  0.49182799  0.75046251  0.13310494  1
  O  O238  1  0.49627887  0.74161754  0.63443110  1
  O  O239  1  0.99790259  0.24183720  0.13253582  1
  O  O240  1  0.99262056  0.24301708  0.63278557  1
  O  O241  1  0.99584286  0.74577025  0.13009977  1
  O  O242  1  0.98966552  0.73513496  0.62166087  1
  O  O243  1  0.00880051  0.24305222  0.36518683  1
  O  O244  1  -0.00697199  0.25757643  0.86635249  1
  O  O245  1  0.00496909  0.75835167  0.37179619  1
  O  O246  1  0.00398999  0.75846755  0.87737405  1
  O  O247  1  0.47303351  0.24845558  0.36157217  1
  O  O248  1  0.50609600  0.25836312  0.87172162  1
  O  O249  1  0.50580821  0.75558242  0.37101002  1
  O  O250  1  0.50303766  0.74844306  0.86221803  1
  O  O251  1  0.24188823  0.13462087  0.50020382  1
  O  O252  1  0.24552071  0.13400761  0.99145036  1
  O  O253  1  0.23861171  0.61901696  0.50949624  1
  O  O254  1  0.24960644  0.62439149  0.98683220  1
  O  O255  1  0.74401799  0.13939550  0.50300266  1
  O  O256  1  0.73876527  0.11862687  0.98543375  1
  O  O257  1  0.75142799  0.63777972  0.50607465  1
  O  O258  1  0.75106370  0.63936901  0.99538363  1
  O  O259  1  0.25069962  0.36172827  -0.00129056  1
  O  O260  1  0.25238443  0.36304512  0.50629469  1
  O  O261  1  0.25331936  0.87537424  0.01121945  1
  O  O262  1  0.24700270  0.88264305  0.50349718  1
  O  O263  1  0.75759299  0.37714421  0.00365684  1
  O  O264  1  0.75958237  0.35804735  0.50390258  1
  O  O265  1  0.76270763  0.86498616  -0.00551790  1
  O  O266  1  0.75446118  0.86296356  0.50500789  1
  O  O267  1  0.12450787  0.50238442  0.24080376  1
  O  O268  1  0.12936089  0.48873634  0.74529440  1
  O  O269  1  0.13136075  0.99639705  0.23991064  1
  O  O270  1  0.12426999  0.99131279  0.73909981  1
  O  O271  1  0.63518598  0.50698819  0.24298702  1
  O  O272  1  0.63343656  0.49409630  0.74848050  1
  O  O273  1  0.62649243  0.98950568  0.24232365  1
  O  O274  1  0.62761118  0.99308503  0.74625425  1
  O  O275  1  0.37016497  0.00783400  0.24669294  1
  O  O276  1  0.37416077  0.00492050  0.75452671  1
  O  O277  1  0.37294006  0.51277020  0.25730046  1
  O  O278  1  0.36353373  0.49198908  0.75787307  1
  O  O279  1  0.87385163  0.00618738  0.25658591  1
  O  O280  1  0.86531205  -0.00607872  0.75783993  1
  O  O281  1  0.87312141  0.50389605  0.26044725  1
  O  O282  1  0.86959880  0.50396765  0.75450799  1
  O  O283  1  0.12582600  0.36383946  0.38019344  1
  O  O284  1  0.11141241  0.37905294  0.86708320  1
  O  O285  1  0.11695043  0.87115457  0.36750527  1
  O  O286  1  0.11598262  0.87061604  0.86874802  1
  O  O287  1  0.64237079  0.37424745  0.37084241  1
  O  O288  1  0.61948329  0.36937376  0.86782607  1
  O  O289  1  0.61763787  0.86653085  0.36748626  1
  O  O290  1  0.62782446  0.86387516  0.86659039  1
  O  O291  1  0.37382721  0.13067434  0.13118683  1
  O  O292  1  0.38151526  0.12976407  0.63098317  1
  O  O293  1  0.37523707  0.63672224  0.13284315  1
  O  O294  1  0.38803245  0.63713812  0.62492823  1
  O  O295  1  0.88114443  0.12980136  0.12919854  1
  O  O296  1  0.88817769  0.13235836  0.62120020  1
  O  O297  1  0.88564708  0.63854742  0.12522761  1
  O  O298  1  0.88074759  0.63142359  0.63169344  1
  O  O299  1  0.25431368  0.24734161  0.10891277  1
  O  O300  1  0.25873412  0.24992904  0.61907823  1
  O  O301  1  0.25473702  0.75817745  0.12407431  1
  O  O302  1  0.26200980  0.74474987  0.63302497  1
  O  O303  1  0.76653562  0.24993487  0.12903337  1
  O  O304  1  0.76387998  0.24228495  0.62796845  1
  O  O305  1  0.75843251  0.74648554  0.11770901  1
  O  O306  1  0.75678097  0.74999464  0.61773802  1
  O  O307  1  0.23771546  0.24381980  0.38732171  1
  O  O308  1  0.25607623  0.24111392  0.88808238  1
  O  O309  1  0.23774290  0.75804332  0.36775149  1
  O  O310  1  0.24243073  0.73900529  0.87453273  1
  O  O311  1  0.76329449  0.24720917  0.38462321  1
  O  O312  1  0.74273743  0.23943424  0.86725869  1
  O  O313  1  0.74405301  0.74883524  0.38902757  1
  O  O314  1  0.74170408  0.75005310  0.88191642  1
  O  O315  1  0.00248760  0.12123592  0.01141831  1
  O  O316  1  0.00606046  0.12271368  0.50707502  1
  O  O317  1  -0.00400644  0.61696340  0.00905945  1
  O  O318  1  0.00978318  0.61635968  0.50967514  1
  O  O319  1  0.51273593  0.11163211  -0.00957044  1
  O  O320  1  0.50791697  0.11958156  0.50609919  1
  O  O321  1  0.49866588  0.61438365  -0.00219765  1
  O  O322  1  0.50334214  0.63144432  0.51508067  1
  O  O323  1  0.49243649  0.36704067  0.50012871  1
  O  O324  1  0.49889617  0.38906783  0.98307678  1
  O  O325  1  0.50264521  0.87843200  0.48903369  1
  O  O326  1  0.49739309  0.88695103  0.99852048  1
  O  O327  1  0.99337647  0.38524331  0.50614962  1
  O  O328  1  0.99436398  0.38135174  0.99107109  1
  O  O329  1  0.99562956  0.88237311  0.48633247  1
  O  O330  1  0.98737851  0.87702670  0.98900912  1
  O  O331  1  0.48246722  0.49922467  0.37442863  1
  O  O332  1  0.49312168  0.49787981  0.87498800  1
  O  O333  1  0.49628765  0.99126653  0.37789543  1
  O  O334  1  0.48894901  1.00165333  0.88090538  1
  O  O335  1  0.99644458  0.50329079  0.38864989  1
  O  O336  1  0.99438295  0.49447737  0.88144350  1
  O  O337  1  0.99466003  0.99350788  0.37875305  1
  O  O338  1  0.99091862  0.99444080  0.87588695  1
  O  O339  1  0.00728149  0.00570593  0.12506235  1
  O  O340  1  0.00645649  0.00738861  0.61945178  1
  O  O341  1  0.00397609  0.50802662  0.11928536  1
  O  O342  1  0.00514628  0.50774276  0.61697509  1
  O  O343  1  0.51316720  -0.00316573  0.11442595  1
  O  O344  1  0.50498823  0.00397454  0.61932999  1
  O  O345  1  0.50209715  0.50276814  0.11437354  1
  O  O346  1  0.50549994  0.51699680  0.63304740  1
  O  O347  1  0.24580308  0.38068637  0.24718802  1
  O  O348  1  0.24106277  0.38088708  0.75212277  1
  O  O349  1  0.24713370  0.88700663  0.23759292  1
  O  O350  1  0.23361271  0.87835402  0.75424413  1
  O  O351  1  0.75992162  0.39853545  0.23473658  1
  O  O352  1  0.74078932  0.38358813  0.75495631  1
  O  O353  1  0.73822849  0.87269368  0.25480017  1
  O  O354  1  0.73821024  0.88536848  0.74710033  1
  O  O355  1  0.25216905  0.11372628  0.24601617  1
  O  O356  1  0.25596112  0.12503670  0.75628314  1
  O  O357  1  0.25924704  0.62452960  0.24715887  1
  O  O358  1  0.24444578  0.60842142  0.76239169  1
  O  O359  1  0.76416575  0.11870600  0.24683923  1
  O  O360  1  0.74238272  0.10962106  0.76176679  1
  O  O361  1  0.75708585  0.60893467  0.24554494  1
  O  O362  1  0.76209945  0.61802843  0.75224197  1
  O  O363  1  0.37185273  0.11611286  0.35764182  1
  O  O364  1  0.36716936  0.11690654  0.86780841  1
  O  O365  1  0.37640785  0.62068112  0.36908474  1
  O  O366  1  0.36552913  0.61273478  0.87399748  1
  O  O367  1  0.88364353  0.11406252  0.36412561  1
  O  O368  1  0.86767728  0.11277906  0.87997187  1
  O  O369  1  0.88181288  0.61182153  0.38019130  1
  O  O370  1  0.87779078  0.61498546  0.86721480  1
  O  O371  1  0.12480477  0.38720274  0.12610536  1
  O  O372  1  0.12621776  0.38170538  0.63373981  1
  O  O373  1  0.13036749  0.88050970  0.12892415  1
  O  O374  1  0.12078546  0.88178168  0.63308271  1
  O  O375  1  0.62180351  0.39258691  0.12221844  1
  O  O376  1  0.61587815  0.38495090  0.64014629  1
  O  O377  1  0.62111006  0.87960684  0.13676626  1
  O  O378  1  0.62499566  0.88308934  0.63244210  1
  O  O379  1  0.11774196  0.24718059  0.26102565  1
  O  O380  1  0.11641646  0.26151482  0.74328495  1
  O  O381  1  0.11843061  0.75643963  0.25616572  1
  O  O382  1  0.12478467  0.75714268  0.76193129  1
  O  O383  1  0.63219200  0.25787704  0.24689274  1
  O  O384  1  0.62022328  0.25779687  0.75634798  1
  O  O385  1  0.61938903  0.75245485  0.25500569  1
  O  O386  1  0.61811277  0.75645354  0.75520727  1
  O  O387  1  0.36401615  0.23275539  0.22911194  1
  O  O388  1  0.38152903  0.24643824  0.74631506  1
  O  O389  1  0.38134968  0.74599375  0.24491104  1
  O  O390  1  0.38671029  0.75513653  0.74278831  1
  O  O391  1  0.88602047  0.23936946  0.23777414  1
  O  O392  1  0.88559804  0.25597978  0.74245050  1
  O  O393  1  0.87977520  0.75091778  0.24381438  1
  O  O394  1  0.86803813  0.74073211  0.74240195  1
  O  O395  1  0.37643140  0.48610105  0.50099251  1
  O  O396  1  0.38135527  0.49771711  0.99181975  1
  O  O397  1  0.38360132  0.99995242  0.49249051  1
  O  O398  1  0.38313773  0.99948836  0.99173792  1
  O  O399  1  0.88191433  0.49443759  0.49997055  1
  O  O400  1  0.88415416  0.50195041  0.99129443  1
  O  O401  1  0.88060857  1.00080513  0.49307626  1
  O  O402  1  0.87356556  0.99179416  0.99288728  1
  O  O403  1  0.12317819  -0.00090232  0.01132816  1
  O  O404  1  0.11712131  0.00834083  0.50427591  1
  O  O405  1  0.11081941  0.49639187  0.00615679  1
  O  O406  1  0.12034894  0.50320954  0.50506529  1
  O  O407  1  0.61985648  0.00184779  0.00308049  1
  O  O408  1  0.62244980  0.00616686  0.50465944  1
  O  O409  1  0.61674775  0.50513006  0.00277260  1
  O  O410  1  0.63326009  0.49691212  0.51901440  1
  O  O411  1  0.37145155  0.35929734  0.11829989  1
  O  O412  1  0.37667601  0.36958880  0.61493120  1
  O  O413  1  0.36817558  0.86434180  0.12649310  1
  O  O414  1  0.38060582  0.85704556  0.62274055  1
  O  O415  1  0.88216288  0.35965095  0.12440981  1
  O  O416  1  0.88017709  0.36383168  0.61491487  1
  O  O417  1  0.88156510  0.86318739  0.11621464  1
  O  O418  1  0.87720117  0.86190411  0.62662540  1
  O  O419  1  0.12420540  0.12801092  0.38797989  1
  O  O420  1  0.13762038  0.11819424  0.87386685  1
  O  O421  1  0.12137968  0.63620025  0.38550752  1
  O  O422  1  0.12909566  0.63259649  0.87043303  1
  O  O423  1  0.62309842  0.12053710  0.38657556  1
  O  O424  1  0.63179226  0.13272705  0.87975976  1
  O  O425  1  0.61916585  0.63602709  0.37150055  1
  O  O426  1  0.62689384  0.64002621  0.87573610  1
