# generated using pymatgen
data_V85Zn86O256
_symmetry_space_group_name_H-M   'P 1'
_cell_length_a   16.99111658
_cell_length_b   16.98443024
_cell_length_c   16.97577152
_cell_angle_alpha   90.04243135
_cell_angle_beta   89.99541755
_cell_angle_gamma   89.82063079
_symmetry_Int_Tables_number   1
_chemical_formula_structural   V85Zn86O256
_chemical_formula_sum   'V85 Zn86 O256'
_cell_volume   4898.91805324
_cell_formula_units_Z   1
loop_
 _symmetry_equiv_pos_site_id
 _symmetry_equiv_pos_as_xyz
  1  'x, y, z'
loop_
 _atom_site_type_symbol
 _atom_site_label
 _atom_site_symmetry_multiplicity
 _atom_site_fract_x
 _atom_site_fract_y
 _atom_site_fract_z
 _atom_site_occupancy
  V  V0  1  0.25495046  0.50958945  0.74902875  1
  V  V1  1  0.50405120  0.49950341  0.51474144  1
  V  V2  1  0.00236229  0.49457474  -0.00461189  1
  V  V3  1  0.50925567  0.73010575  0.74247587  1
  V  V4  1  0.86029005  0.62512570  0.25441459  1
  V  V5  1  0.12839627  0.12639616  0.00111737  1
  V  V6  1  0.50177974  0.87435194  0.86459923  1
  V  V7  1  0.50115087  -0.00560142  0.48715850  1
  V  V8  1  0.62420054  0.61908357  0.49420962  1
  V  V9  1  0.24650020  0.25075364  0.49501403  1
  V  V10  1  0.00208778  -0.00656399  -0.00498516  1
  V  V11  1  0.87551958  0.12501731  0.74981079  1
  V  V12  1  0.87304131  0.25143175  0.12494903  1
  V  V13  1  0.38232344  0.25366626  0.12830848  1
  V  V14  1  0.00114570  0.62615848  0.61731223  1
  V  V15  1  0.24574079  0.62095430  0.38316005  1
  V  V16  1  0.11801910  0.37755584  0.75233441  1
  V  V17  1  -0.00331878  0.25531884  0.75529280  1
  V  V18  1  0.25516175  0.87373746  0.62892005  1
  V  V19  1  0.12322415  0.12999670  0.49273423  1
  V  V20  1  0.25141625  0.12344099  0.87612989  1
  V  V21  1  0.37643390  0.87845868  0.49114436  1
  V  V22  1  0.00156681  0.12597559  0.12550408  1
  V  V23  1  0.87546447  0.87348961  0.49891186  1
  V  V24  1  0.87183585  0.62648413  0.74601650  1
  V  V25  1  0.12706753  0.87434236  0.25050272  1
  V  V26  1  0.12113079  0.62568701  -0.00251362  1
  V  V27  1  0.12454714  0.00034060  0.62309369  1
  V  V28  1  0.87688854  0.37574534  0.49668284  1
  V  V29  1  0.85753529  0.49940030  0.36965179  1
  V  V30  1  -0.00047415  0.74680578  0.25302974  1
  V  V31  1  0.12816317  0.74656712  0.37995541  1
  V  V32  1  0.37837571  0.36501326  0.50615260  1
  V  V33  1  0.74837577  0.12818564  0.87325319  1
  V  V34  1  0.74045506  0.87954144  0.61724503  1
  V  V35  1  0.62615902  0.11828380  0.50929097  1
  V  V36  1  0.12164829  0.50263476  0.62077811  1
  V  V37  1  0.74228566  0.38491283  0.62798481  1
  V  V38  1  0.61612584  0.25486665  0.86878555  1
  V  V39  1  0.87792080  0.37131269  -0.00471943  1
  V  V40  1  0.74903858  0.12370135  0.37461179  1
  V  V41  1  0.74135165  0.00233275  0.74185081  1
  V  V42  1  0.87674231  0.00131968  0.37289151  1
  V  V43  1  0.47472441  0.38275807  0.87019726  1
  V  V44  1  0.12413574  0.74734066  0.87719699  1
  V  V45  1  0.24978155  -0.00014559  0.74949263  1
  V  V46  1  0.75759061  0.63852518  0.89045795  1
  V  V47  1  0.12405060  0.49436540  0.12800802  1
  V  V48  1  0.63117220  0.37752646  0.24734488  1
  V  V49  1  0.38700689  0.74328574  0.12680042  1
  V  V50  1  0.12756063  -0.00178013  0.12621438  1
  V  V51  1  0.00007593  0.62479476  0.13106926  1
  V  V52  1  0.24987784  0.36778079  0.62627621  1
  V  V53  1  0.49969624  0.36651738  0.37213611  1
  V  V54  1  0.62229975  0.12659601  0.00064735  1
  V  V55  1  0.38226383  0.73802133  0.62834237  1
  V  V56  1  0.37722235  0.11601304  0.25094396  1
  V  V57  1  0.49451653  0.11962767  0.62394861  1
  V  V58  1  0.74481297  -0.00208891  0.23769192  1
  V  V59  1  0.88067970  0.49771320  0.87109199  1
  V  V60  1  0.24559540  0.75060017  0.00018259  1
  V  V61  1  0.75104050  0.74338428  0.49006418  1
  V  V62  1  0.12115518  0.25079751  0.87545846  1
  V  V63  1  0.12167643  0.87554735  0.75353044  1
  V  V64  1  0.49945914  0.75201522  0.27518635  1
  V  V65  1  0.38105332  0.49744423  0.38013015  1
  V  V66  1  0.37154911  0.13160921  0.74532153  1
  V  V67  1  0.25506143  0.12057415  0.37554229  1
  V  V68  1  0.25022038  0.49585851  0.25514723  1
  V  V69  1  0.25432056  0.25731630  0.00195538  1
  V  V70  1  0.37973743  0.87202815  -0.00291084  1
  V  V71  1  0.12122281  0.37084708  0.26709876  1
  V  V72  1  0.00381875  0.87441160  0.37634444  1
  V  V73  1  0.00292637  0.25254462  0.26052071  1
  V  V74  1  0.25309946  0.87676425  0.12647257  1
  V  V75  1  -0.00144914  0.75419984  0.75143459  1
  V  V76  1  0.00051584  0.49913653  0.49015722  1
  V  V77  1  0.00084682  0.12686477  0.62386122  1
  V  V78  1  0.87328736  0.25313595  0.62548505  1
  V  V79  1  0.62903770  0.75034073  0.89009474  1
  V  V80  1  0.24980940  0.74460062  0.50419828  1
  V  V81  1  0.62070700  0.24376677  0.37124681  1
  V  V82  1  0.50206199  0.12496253  0.12894205  1
  V  V83  1  0.87804349  -0.00903308  0.87292335  1
  V  V84  1  0.50261371  -0.00085780  -0.00110060  1
  Zn  Zn85  1  0.25402124  -0.00323192  0.25875650  1
  Zn  Zn86  1  0.37358968  -0.00337362  0.87134727  1
  Zn  Zn87  1  0.49696526  0.24861738  0.73921540  1
  Zn  Zn88  1  0.73941266  0.50615754  0.75819751  1
  Zn  Zn89  1  0.62331797  0.87574483  0.74216788  1
  Zn  Zn90  1  0.84937621  0.75578827  0.12085263  1
  Zn  Zn91  1  0.75836469  0.39838915  0.14271153  1
  Zn  Zn92  1  0.87484807  0.12654025  0.24832794  1
  Zn  Zn93  1  0.62598384  0.75485188  0.37877798  1
  Zn  Zn94  1  0.61660605  0.38703026  0.74913066  1
  Zn  Zn95  1  0.74877082  0.25037065  0.50177168  1
  Zn  Zn96  1  0.56662742  0.55695131  0.07449743  1
  Zn  Zn97  1  0.37494469  0.62006171  0.24673527  1
  Zn  Zn98  1  0.87545660  0.75163926  0.62200610  1
  Zn  Zn99  1  0.85050143  0.87040711  0.00477917  1
  Zn  Zn100  1  0.29159715  0.57919085  0.90327753  1
  Zn  Zn101  1  0.00197706  0.00064773  0.49880425  1
  Zn  Zn102  1  0.41225921  0.43273013  0.02500945  1
  Zn  Zn103  1  0.62699935  0.87670297  0.25220836  1
  Zn  Zn104  1  0.25101447  0.37191526  0.12683708  1
  Zn  Zn105  1  0.74463139  0.25080058  0.00317640  1
  Zn  Zn106  1  0.57499844  0.55645630  0.68247444  1
  Zn  Zn107  1  0.18956151  0.18888453  0.19031693  1
  Zn  Zn108  1  0.18565394  0.18867844  0.68472822  1
  Zn  Zn109  1  0.18683216  0.68599342  0.18923400  1
  Zn  Zn110  1  0.18442001  0.68789484  0.68387704  1
  Zn  Zn111  1  0.68677776  0.18779835  0.18803300  1
  Zn  Zn112  1  0.68775915  0.19064768  0.68523436  1
  Zn  Zn113  1  0.67541448  0.68291783  0.16770756  1
  Zn  Zn114  1  0.69114958  0.69100666  0.67613488  1
  Zn  Zn115  1  0.31271743  0.30720483  0.31326810  1
  Zn  Zn116  1  0.30281823  0.30819243  0.80659096  1
  Zn  Zn117  1  0.31537008  0.81146786  0.31110483  1
  Zn  Zn118  1  0.34496695  0.75937720  0.84018650  1
  Zn  Zn119  1  0.81412148  0.30965557  0.31543182  1
  Zn  Zn120  1  0.80886104  0.31706606  0.81380638  1
  Zn  Zn121  1  0.81143521  0.81431590  0.30763146  1
  Zn  Zn122  1  0.80983056  0.81559312  0.80680730  1
  Zn  Zn123  1  0.18686776  0.43627568  0.44110579  1
  Zn  Zn124  1  0.18308388  0.43212452  0.93440893  1
  Zn  Zn125  1  0.19048497  0.93757201  0.44075230  1
  Zn  Zn126  1  0.18548875  0.93477820  0.93682962  1
  Zn  Zn127  1  0.68418134  0.43377755  0.43847265  1
  Zn  Zn128  1  0.72023604  0.46754080  0.97978266  1
  Zn  Zn129  1  0.68515890  0.93642660  0.42986368  1
  Zn  Zn130  1  0.68420612  0.94370885  0.92743022  1
  Zn  Zn131  1  0.31729302  0.06102691  0.06257156  1
  Zn  Zn132  1  0.31445401  0.06089840  0.56070097  1
  Zn  Zn133  1  0.30191279  0.56684976  0.07319131  1
  Zn  Zn134  1  0.31282573  0.55759445  0.56541377  1
  Zn  Zn135  1  0.81548109  0.06241094  0.05633020  1
  Zn  Zn136  1  0.81491230  0.06207074  0.56001804  1
  Zn  Zn137  1  0.82250788  0.57007914  0.06715345  1
  Zn  Zn138  1  0.81075163  0.56311067  0.56007796  1
  Zn  Zn139  1  0.44222255  0.43292502  0.19712520  1
  Zn  Zn140  1  0.43111022  0.43182274  0.69202561  1
  Zn  Zn141  1  0.48472482  0.90457247  0.15584817  1
  Zn  Zn142  1  0.43591962  0.94251728  0.67995426  1
  Zn  Zn143  1  0.93839115  0.43553081  0.19089947  1
  Zn  Zn144  1  0.93432758  0.43945479  0.68426539  1
  Zn  Zn145  1  0.93669907  0.93870505  0.18931409  1
  Zn  Zn146  1  0.93603058  0.93917803  0.68463271  1
  Zn  Zn147  1  0.06476916  0.06353788  0.31186480  1
  Zn  Zn148  1  0.06236941  0.06477994  0.81188824  1
  Zn  Zn149  1  0.06410139  0.56196934  0.31432178  1
  Zn  Zn150  1  0.06184426  0.56663544  0.80833893  1
  Zn  Zn151  1  0.56235182  0.06142694  0.31176729  1
  Zn  Zn152  1  0.55960066  0.06315625  0.81221368  1
  Zn  Zn153  1  0.58418074  0.58399805  0.28113159  1
  Zn  Zn154  1  0.58051166  0.54553310  0.89312168  1
  Zn  Zn155  1  0.43665342  0.18394489  0.43984718  1
  Zn  Zn156  1  0.43648267  0.19192725  0.93848955  1
  Zn  Zn157  1  0.43505658  0.67960419  0.44251831  1
  Zn  Zn158  1  0.43484884  0.62243275  0.95287119  1
  Zn  Zn159  1  0.93553352  0.18834054  0.43854042  1
  Zn  Zn160  1  0.93808843  0.18258581  0.93743673  1
  Zn  Zn161  1  0.93507053  0.68401297  0.43472702  1
  Zn  Zn162  1  0.93850370  0.68828742  0.93442687  1
  Zn  Zn163  1  0.06170890  0.31223013  0.06689584  1
  Zn  Zn164  1  0.06087432  0.31378726  0.56266227  1
  Zn  Zn165  1  -0.00243660  0.80957892  0.05936218  1
  Zn  Zn166  1  0.06444392  0.81228950  0.56365277  1
  Zn  Zn167  1  0.56894793  0.39086794  0.05052295  1
  Zn  Zn168  1  0.56413295  0.30461038  0.56085895  1
  Zn  Zn169  1  0.67338434  0.84010512  0.07757199  1
  Zn  Zn170  1  0.56293850  0.81054657  0.55724260  1
  O  O171  1  0.12158168  0.11903263  0.12148699  1
  O  O172  1  0.12097731  0.12020320  0.61570144  1
  O  O173  1  0.12168650  0.61031683  0.12243715  1
  O  O174  1  0.11367987  0.61487470  0.62755119  1
  O  O175  1  0.61344587  0.13525592  0.11410730  1
  O  O176  1  0.62326718  0.12437127  0.61254684  1
  O  O177  1  0.60898314  0.59951803  0.16911793  1
  O  O178  1  0.62994713  0.62235164  0.60778517  1
  O  O179  1  0.38035992  0.37532828  0.38305646  1
  O  O180  1  0.37546232  0.37007503  0.86662176  1
  O  O181  1  0.35979243  0.87444915  0.39327217  1
  O  O182  1  0.38489215  0.86426968  0.88223260  1
  O  O183  1  0.87100627  0.38668611  0.38357612  1
  O  O184  1  0.87702594  0.38609545  0.87958016  1
  O  O185  1  0.88136047  0.88188995  0.38254773  1
  O  O186  1  0.86994609  0.88920239  0.87374162  1
  O  O187  1  0.24816026  0.01584978  0.37923868  1
  O  O188  1  0.24861912  0.00564877  0.86739358  1
  O  O189  1  0.25666025  0.50181217  0.37461631  1
  O  O190  1  0.23407826  0.49688977  0.85480169  1
  O  O191  1  0.75957275  0.00989938  0.37061255  1
  O  O192  1  0.75824203  0.01240331  0.86307739  1
  O  O193  1  0.76008920  0.49923463  0.37856701  1
  O  O194  1  0.76833650  0.51704772  0.87993004  1
  O  O195  1  0.24138354  0.49460510  0.13772279  1
  O  O196  1  0.23905945  0.49049993  0.63013430  1
  O  O197  1  0.24806420  0.98810310  0.12368288  1
  O  O198  1  0.24390391  0.99337621  0.62856317  1
  O  O199  1  0.74703377  0.49541709  0.09067396  1
  O  O200  1  0.75497295  0.48695251  0.62822175  1
  O  O201  1  0.75930789  1.01150037  0.14066898  1
  O  O202  1  0.75887005  0.99271344  0.63138895  1
  O  O203  1  0.00936271  0.36475772  0.24684547  1
  O  O204  1  0.00531072  0.36610713  0.74193475  1
  O  O205  1  0.00859833  0.86895189  0.25902252  1
  O  O206  1  0.00885121  0.86625313  0.73972576  1
  O  O207  1  0.50749958  0.36765288  0.26761403  1
  O  O208  1  0.49847003  0.36572780  0.75726952  1
  O  O209  1  0.47429255  0.85084181  0.25680522  1
  O  O210  1  0.50177719  0.88759449  0.75940776  1
  O  O211  1  0.49489347  0.11907303  0.23652247  1
  O  O212  1  0.48789789  0.12005676  0.74136323  1
  O  O213  1  0.48412770  0.64499143  0.26662917  1
  O  O214  1  0.50731275  0.63266506  0.74589192  1
  O  O215  1  1.00184630  0.13033055  0.23809055  1
  O  O216  1  0.99512303  0.13355476  0.74288125  1
  O  O217  1  0.99659982  0.62576344  0.24553442  1
  O  O218  1  0.99103871  0.63254411  0.73873456  1
  O  O219  1  0.36305977  0.24001075  0.01368093  1
  O  O220  1  0.36616013  0.25944041  0.49885481  1
  O  O221  1  0.36167540  0.75903318  0.01304736  1
  O  O222  1  0.36649726  0.75620913  0.50804817  1
  O  O223  1  0.88297835  0.25725979  0.00638436  1
  O  O224  1  0.87396629  0.25978823  0.50552996  1
  O  O225  1  0.90044615  0.76257749  0.00737860  1
  O  O226  1  0.87105740  0.75762599  0.49904483  1
  O  O227  1  0.13204750  0.24213781  0.50474634  1
  O  O228  1  0.12901753  0.24470608  0.99664335  1
  O  O229  1  0.14175713  0.75613464  0.49668920  1
  O  O230  1  0.12416688  0.74670346  0.98983880  1
  O  O231  1  0.62948566  0.23702062  0.49019066  1
  O  O232  1  0.62700597  0.23634013  0.98138804  1
  O  O233  1  0.63415696  0.74215637  0.49848800  1
  O  O234  1  0.62440812  0.76131104  0.98602241  1
  O  O235  1  0.48256063  0.24003061  0.11985470  1
  O  O236  1  0.50550896  0.22877696  0.62288089  1
  O  O237  1  0.48346437  0.74799723  0.12823899  1
  O  O238  1  0.49573562  0.75390131  0.63352210  1
  O  O239  1  0.99266060  0.24271009  0.13040595  1
  O  O240  1  0.99323004  0.24627547  0.63411047  1
  O  O241  1  1.02034848  0.73036351  0.13763843  1
  O  O242  1  1.00081928  0.74225053  0.63156536  1
  O  O243  1  -0.00316334  0.24190752  0.35938675  1
  O  O244  1  0.00447681  0.24222278  0.86204207  1
  O  O245  1  0.00840851  0.75289107  0.37298981  1
  O  O246  1  0.00821753  0.74773316  0.85819188  1
  O  O247  1  0.50906830  0.25445106  0.38487785  1
  O  O248  1  0.50780763  0.24580934  0.86562100  1
  O  O249  1  0.49395924  0.75370155  0.37795400  1
  O  O250  1  0.51827277  0.75851416  0.85506606  1
  O  O251  1  0.24526808  0.13269069  0.49697127  1
  O  O252  1  0.24560223  0.13083092  0.99476183  1
  O  O253  1  0.25256731  0.63217317  0.49640691  1
  O  O254  1  0.23541284  0.63560427  1.00210171  1
  O  O255  1  0.74217516  0.12215389  0.49332479  1
  O  O256  1  0.74290894  0.12553192  0.98919548  1
  O  O257  1  0.74420126  0.63395052  0.50133321  1
  O  O258  1  0.77207411  0.64132112  0.98857614  1
  O  O259  1  0.24435362  0.36123248  0.00091702  1
  O  O260  1  0.25515298  0.36779369  0.50567683  1
  O  O261  1  0.25491584  0.87105931  0.00740282  1
  O  O262  1  0.25493505  0.87011525  0.51323273  1
  O  O263  1  0.77154721  0.36371814  -0.00624616  1
  O  O264  1  0.75862225  0.37513814  0.51072562  1
  O  O265  1  0.74245188  0.89410199  0.00649165  1
  O  O266  1  0.75904818  0.87322414  0.50185512  1
  O  O267  1  0.12987140  0.49192539  0.24579866  1
  O  O268  1  0.12232222  0.49282770  0.73833862  1
  O  O269  1  0.13049374  0.99497627  0.24420851  1
  O  O270  1  0.12845987  0.99409877  0.74418545  1
  O  O271  1  0.62128737  0.47380424  0.26695356  1
  O  O272  1  0.62481834  0.50172368  0.76857071  1
  O  O273  1  0.64298259  1.00656830  0.25277683  1
  O  O274  1  0.63924128  1.00074440  0.75239834  1
  O  O275  1  0.37016252  0.01684049  0.24594783  1
  O  O276  1  0.36352871  0.00718023  0.75033571  1
  O  O277  1  0.36749169  0.49613272  0.26207572  1
  O  O278  1  0.35337148  0.49869528  0.74364000  1
  O  O279  1  0.87230404  0.00382973  0.26098368  1
  O  O280  1  0.87148014  0.00718332  0.75528410  1
  O  O281  1  0.87776975  0.50378613  0.26338240  1
  O  O282  1  0.87584678  0.50919291  0.75717807  1
  O  O283  1  0.12450776  0.37742456  0.36628851  1
  O  O284  1  0.12320102  0.36686775  0.85983033  1
  O  O285  1  0.12384485  0.86926927  0.37159292  1
  O  O286  1  0.12810967  0.86823929  0.85890434  1
  O  O287  1  0.61816145  0.36096110  0.37631135  1
  O  O288  1  0.62059201  0.35459508  0.86992516  1
  O  O289  1  0.62793091  0.86938796  0.36518382  1
  O  O290  1  0.61952747  0.86733038  0.86621366  1
  O  O291  1  0.37979940  0.13137292  0.13149779  1
  O  O292  1  0.38079759  0.12058972  0.63271931  1
  O  O293  1  0.36881384  0.63911757  0.12777602  1
  O  O294  1  0.37066325  0.63921268  0.62099475  1
  O  O295  1  0.88707529  0.13158242  0.12313541  1
  O  O296  1  0.88050810  0.13281413  0.62870316  1
  O  O297  1  0.88673182  0.63251195  0.13623011  1
  O  O298  1  0.88243384  0.62611940  0.62985718  1
  O  O299  1  0.25597775  0.24991990  0.11658075  1
  O  O300  1  0.24273308  0.26149239  0.61529000  1
  O  O301  1  0.24416259  0.76175563  0.11685635  1
  O  O302  1  0.25605592  0.75617874  0.62199244  1
  O  O303  1  0.76674087  0.24398136  0.12268416  1
  O  O304  1  0.75856271  0.25922499  0.62377679  1
  O  O305  1  0.73846166  0.76086867  0.13012786  1
  O  O306  1  0.75666507  0.76345713  0.61145277  1
  O  O307  1  0.25009877  0.24140846  0.38832583  1
  O  O308  1  0.24167940  0.24297162  0.88236888  1
  O  O309  1  0.24926821  0.73903933  0.38429839  1
  O  O310  1  0.23818736  0.76041071  0.89258227  1
  O  O311  1  0.74733939  0.23603903  0.37920339  1
  O  O312  1  0.74236951  0.23880642  0.87084923  1
  O  O313  1  0.75484274  0.75415654  0.38756163  1
  O  O314  1  0.73883810  0.75101284  0.86815132  1
  O  O315  1  0.00887755  0.12094942  0.00996062  1
  O  O316  1  0.00798730  0.12638000  0.50528483  1
  O  O317  1  0.00331890  0.61308528  0.00952694  1
  O  O318  1  -0.00568981  0.61723640  0.51058869  1
  O  O319  1  0.50429334  0.12054897  0.00417209  1
  O  O320  1  0.50497397  0.11408328  0.50395545  1
  O  O321  1  0.53584679  0.61591309  -0.01797629  1
  O  O322  1  0.50571552  0.60908227  0.50001310  1
  O  O323  1  0.49344394  0.37570336  0.49729192  1
  O  O324  1  0.48636623  0.35768861  0.97427833  1
  O  O325  1  0.49267309  0.88741041  0.50435247  1
  O  O326  1  0.49152963  0.88448729  0.98639803  1
  O  O327  1  0.98510477  0.38439795  0.50872839  1
  O  O328  1  0.99525654  0.38697480  1.00519089  1
  O  O329  1  0.99410751  0.87517553  0.49385428  1
  O  O330  1  1.02245424  0.89585528  0.99117415  1
  O  O331  1  0.48522286  0.48620018  0.38738960  1
  O  O332  1  0.48578222  0.48141487  0.86652169  1
  O  O333  1  0.49696800  1.00605376  0.38856683  1
  O  O334  1  0.49503005  0.99412920  0.88130984  1
  O  O335  1  0.99952515  0.50291932  0.38868574  1
  O  O336  1  0.99207637  0.50812966  0.88287937  1
  O  O337  1  0.99367823  0.99466153  0.37521860  1
  O  O338  1  0.98934932  1.01279454  0.88274740  1
  O  O339  1  0.00747061  0.00931082  0.11826161  1
  O  O340  1  0.00657876  0.00868855  0.62272417  1
  O  O341  1  0.00571667  0.50701378  0.12117037  1
  O  O342  1  0.00373634  0.50713807  0.61685643  1
  O  O343  1  0.48967626  0.01123324  0.10504870  1
  O  O344  1  0.50122502  0.01208174  0.61379265  1
  O  O345  1  0.49249262  0.46835467  0.10459720  1
  O  O346  1  0.49910643  0.49119076  0.61931497  1
  O  O347  1  0.24273145  0.38273380  0.25343276  1
  O  O348  1  0.23765074  0.37949383  0.74066293  1
  O  O349  1  0.24659253  0.87652203  0.24297950  1
  O  O350  1  0.24059836  0.88096298  0.73701828  1
  O  O351  1  0.73815835  0.36907665  0.25335863  1
  O  O352  1  0.74805346  0.38035770  0.73857762  1
  O  O353  1  0.75484344  0.89440938  0.24966030  1
  O  O354  1  0.75077215  0.88525066  0.73520480  1
  O  O355  1  0.25526336  0.12522488  0.26069673  1
  O  O356  1  0.25197284  0.12042486  0.75394428  1
  O  O357  1  0.25005932  0.60937202  0.25886188  1
  O  O358  1  0.24182877  0.60911948  0.74313704  1
  O  O359  1  0.75415506  0.11936478  0.25900809  1
  O  O360  1  0.75680982  0.12008243  0.75165371  1
  O  O361  1  0.76297794  0.62844166  0.24761016  1
  O  O362  1  0.76459753  0.62831027  0.74862948  1
  O  O363  1  0.36667231  0.13390413  0.36429058  1
  O  O364  1  0.36492627  0.12371658  0.86750577  1
  O  O365  1  0.36189547  0.61101042  0.38018117  1
  O  O366  1  0.36582689  0.65466539  0.87541554  1
  O  O367  1  0.86801671  0.11687104  0.37595623  1
  O  O368  1  0.86584555  0.12063454  0.86924576  1
  O  O369  1  0.87868841  0.60872494  0.36796375  1
  O  O370  1  0.87443207  0.62424473  0.86297820  1
  O  O371  1  0.12586725  0.38602733  0.13069094  1
  O  O372  1  0.12856425  0.38082161  0.63322488  1
  O  O373  1  0.13564215  0.88488665  0.13345497  1
  O  O374  1  0.13161937  0.88032225  0.63217451  1
  O  O375  1  0.63086464  0.36282256  0.14374249  1
  O  O376  1  0.63926460  0.36793356  0.62632358  1
  O  O377  1  0.59622347  0.88433488  0.14397619  1
  O  O378  1  0.63798123  0.87720415  0.61925401  1
  O  O379  1  0.11649856  0.26051216  0.24385111  1
  O  O380  1  0.11605275  0.25702806  0.75232183  1
  O  O381  1  0.12285946  0.75366318  0.26113188  1
  O  O382  1  0.11998323  0.75690801  0.75388329  1
  O  O383  1  0.62912463  0.25270851  0.26639996  1
  O  O384  1  0.62109507  0.24438010  0.76064678  1
  O  O385  1  0.60416598  0.75044354  0.25887929  1
  O  O386  1  0.61569816  0.75481330  0.74014362  1
  O  O387  1  0.36674320  0.24178492  0.23327505  1
  O  O388  1  0.37069428  0.23487517  0.74825410  1
  O  O389  1  0.36661224  0.74468383  0.23539396  1
  O  O390  1  0.39993069  0.75653514  0.73951710  1
  O  O391  1  0.88385400  0.24910211  0.24240178  1
  O  O392  1  0.88100258  0.24716743  0.74706952  1
  O  O393  1  0.88443469  0.74135418  0.25285607  1
  O  O394  1  0.88327320  0.74648452  0.74528928  1
  O  O395  1  0.37866602  0.48596504  0.49820483  1
  O  O396  1  0.36077448  0.52509750  0.98613765  1
  O  O397  1  0.38732223  0.99120176  0.50453068  1
  O  O398  1  0.37682626  0.98623355  0.99343874  1
  O  O399  1  0.87985410  0.49541950  0.48910635  1
  O  O400  1  0.88735365  0.49313359  0.99233046  1
  O  O401  1  0.87865316  0.99364571  0.48778831  1
  O  O402  1  0.88666128  0.99920570  0.99042030  1
  O  O403  1  0.12437898  0.01056111  0.00482658  1
  O  O404  1  0.12384457  0.00824863  0.50737229  1
  O  O405  1  0.11998260  0.50158483  0.00648045  1
  O  O406  1  0.11548837  0.49148673  0.51269473  1
  O  O407  1  0.61330268  0.01685720  -0.01147916  1
  O  O408  1  0.61249314  0.00575931  0.49455971  1
  O  O409  1  0.61103548  0.47777697  -0.01349146  1
  O  O410  1  0.61335083  0.50348515  0.49522721  1
  O  O411  1  0.37095993  0.36250657  0.12410828  1
  O  O412  1  0.36179762  0.37544249  0.61794467  1
  O  O413  1  0.37134458  0.86671261  0.11588096  1
  O  O414  1  0.36729667  0.86799547  0.61890788  1
  O  O415  1  0.87488270  0.36783857  0.11855081  1
  O  O416  1  0.86562148  0.37129532  0.61879300  1
  O  O417  1  0.90330573  0.86302794  0.11586363  1
  O  O418  1  0.87249355  0.87726099  0.60850765  1
  O  O419  1  0.13080546  0.12251692  0.38830115  1
  O  O420  1  0.13252518  0.13118202  0.87936780  1
  O  O421  1  0.13857791  0.62737476  0.37503922  1
  O  O422  1  0.12024852  0.63845210  0.87852744  1
  O  O423  1  0.63186168  0.12686487  0.38220631  1
  O  O424  1  0.63193302  0.12925349  0.87626983  1
  O  O425  1  0.62086178  0.62963819  0.38814860  1
  O  O426  1  0.64579997  0.64304124  0.87115980  1
