# generated using pymatgen
data_V85Zn86O256
_symmetry_space_group_name_H-M   'P 1'
_cell_length_a   16.92965516
_cell_length_b   16.91433478
_cell_length_c   16.92852129
_cell_angle_alpha   89.94363111
_cell_angle_beta   90.07672906
_cell_angle_gamma   89.97631755
_symmetry_Int_Tables_number   1
_chemical_formula_structural   V85Zn86O256
_chemical_formula_sum   'V85 Zn86 O256'
_cell_volume   4847.54022438
_cell_formula_units_Z   1
loop_
 _symmetry_equiv_pos_site_id
 _symmetry_equiv_pos_as_xyz
  1  'x, y, z'
loop_
 _atom_site_type_symbol
 _atom_site_label
 _atom_site_symmetry_multiplicity
 _atom_site_fract_x
 _atom_site_fract_y
 _atom_site_fract_z
 _atom_site_occupancy
  V  V0  1  0.24750818  0.37128113  0.60685357  1
  V  V1  1  0.13257094  0.75031837  0.37767676  1
  V  V2  1  0.50386136  0.62204739  0.12738942  1
  V  V3  1  0.37695001  0.50033530  0.87392757  1
  V  V4  1  0.74144922  0.37625300  0.62196317  1
  V  V5  1  0.87461889  -0.00521677  0.38013573  1
  V  V6  1  0.12661400  0.63226667  -0.00277732  1
  V  V7  1  -0.00160755  0.62811252  0.12622638  1
  V  V8  1  0.62516623  0.25483187  0.37620000  1
  V  V9  1  0.37929178  0.37393117  -0.00008815  1
  V  V10  1  0.38389136  0.87208118  0.50561629  1
  V  V11  1  0.38079616  0.00171511  0.38114556  1
  V  V12  1  -0.00193863  0.86838959  0.37764747  1
  V  V13  1  0.25023092  0.37429873  0.12277566  1
  V  V14  1  0.24963335  0.88047529  0.12297007  1
  V  V15  1  0.12284956  0.37433657  0.24773124  1
  V  V16  1  0.37120643  0.62019078  0.25519863  1
  V  V17  1  0.62011812  0.63627724  0.49490389  1
  V  V18  1  0.50847638  0.49944910  0.00362241  1
  V  V19  1  0.74711342  0.86795278  0.12197236  1
  V  V20  1  0.38009110  0.24220252  0.12230769  1
  V  V21  1  0.62806985  0.63321309  0.00351177  1
  V  V22  1  0.76261483  0.86720548  0.62726386  1
  V  V23  1  0.62574004  0.87187801  0.25823603  1
  V  V24  1  0.61997645  -0.00144476  0.61959633  1
  V  V25  1  0.37709329  -0.00161669  0.88262457  1
  V  V26  1  0.50000977  0.87482408  0.88578460  1
  V  V27  1  0.24879036  0.00274880  0.25482864  1
  V  V28  1  0.61705612  0.50012027  0.62329745  1
  V  V29  1  0.12323958  0.12056421  0.00344556  1
  V  V30  1  0.12585080  -0.00062415  0.62600250  1
  V  V31  1  -0.00247111  0.25098647  0.25245062  1
  V  V32  1  -0.00035992  0.50082329  -0.00196092  1
  V  V33  1  0.87582083  0.00365979  0.87891652  1
  V  V34  1  0.24856174  0.62678607  0.87261741  1
  V  V35  1  0.24994155  0.24961724  -0.00081474  1
  V  V36  1  0.87252642  0.12668122  0.75307662  1
  V  V37  1  0.24914112  0.12682481  0.87399523  1
  V  V38  1  0.48513295  0.49786643  0.49528417  1
  V  V39  1  -0.00019288  0.12501206  0.62304034  1
  V  V40  1  0.37719518  0.75631998  0.12417744  1
  V  V41  1  0.86864999  0.24874963  0.12167793  1
  V  V42  1  0.48715808  0.37892017  0.37561077  1
  V  V43  1  0.87069351  0.37253009  -0.00143274  1
  V  V44  1  0.74902622  0.50007850  0.25550754  1
  V  V45  1  0.25407688  0.75540859  -0.00431122  1
  V  V46  1  0.75702353  0.62558475  0.37798899  1
  V  V47  1  0.12633973  0.86536236  0.75506281  1
  V  V48  1  0.24902998  0.00082999  0.75054035  1
  V  V49  1  0.13365977  0.24640929  0.37760858  1
  V  V50  1  0.50253281  0.75012954  0.26061561  1
  V  V51  1  0.74095094  0.49901259  0.75041994  1
  V  V52  1  0.13777421  0.12537359  0.49616690  1
  V  V53  1  0.00213245  0.26002234  0.74731571  1
  V  V54  1  0.74306590  0.38065371  0.12313863  1
  V  V55  1  -0.00616256  0.63385412  0.62411970  1
  V  V56  1  0.61766820  0.00362692  0.12525790  1
  V  V57  1  0.37232493  0.12555802  0.25553854  1
  V  V58  1  0.63838170  0.24306970  0.87037236  1
  V  V59  1  0.00397911  0.86845331  0.87858734  1
  V  V60  1  0.50396277  0.25447334  0.74592352  1
  V  V61  1  0.76870270  0.75281065  0.49949259  1
  V  V62  1  0.00032350  0.11823328  0.12673959  1
  V  V63  1  0.12742787  0.49991273  0.12226894  1
  V  V64  1  0.37746722  0.12731249  0.74875054  1
  V  V65  1  0.12507142  0.87829961  0.24723794  1
  V  V66  1  0.87070032  0.86848335  0.00087880  1
  V  V67  1  0.25307468  0.86736134  0.62517019  1
  V  V68  1  0.74802815  0.63474607  0.87810155  1
  V  V69  1  0.37189189  0.25468501  0.61208932  1
  V  V70  1  0.50226954  0.24591689  0.24663915  1
  V  V71  1  0.87321903  0.25294086  0.61881042  1
  V  V72  1  0.74944608  -0.00181752  0.25101672  1
  V  V73  1  0.50953518  0.37506660  0.86938128  1
  V  V74  1  -0.00115169  -0.00470856  0.50034811  1
  V  V75  1  0.12409662  0.61818127  0.50119380  1
  V  V76  1  0.87320932  0.50283570  0.87176539  1
  V  V77  1  0.11461903  0.49332723  0.62726935  1
  V  V78  1  0.24641358  0.48601158  0.75142306  1
  V  V79  1  0.49416536  0.75072835  0.74530589  1
  V  V80  1  0.75013561  0.00118505  0.75151634  1
  V  V81  1  0.63345760  0.13071017  0.00434972  1
  V  V82  1  0.75058290  0.12580556  0.37761881  1
  V  V83  1  0.12337527  0.25635891  0.87134308  1
  V  V84  1  -0.00597455  0.38776617  0.38134117  1
  Zn  Zn85  1  0.25636215  0.49420133  0.25385647  1
  Zn  Zn86  1  0.25446271  0.74555764  0.50701005  1
  Zn  Zn87  1  0.62524877  0.75464613  0.87747288  1
  Zn  Zn88  1  0.86724909  0.63363274  0.74365283  1
  Zn  Zn89  1  0.61601468  0.11968954  0.49553348  1
  Zn  Zn90  1  0.36957377  0.62940419  0.74077614  1
  Zn  Zn91  1  0.49871223  0.00650031  0.00382329  1
  Zn  Zn92  1  0.00200400  -0.00201422  0.00529751  1
  Zn  Zn93  1  0.86836925  0.74592736  0.12595230  1
  Zn  Zn94  1  0.74937032  0.25117530  0.49821877  1
  Zn  Zn95  1  0.49707141  0.12135080  0.61797505  1
  Zn  Zn96  1  0.00240249  0.37984541  0.87047429  1
  Zn  Zn97  1  0.87491323  0.12361705  0.25046720  1
  Zn  Zn98  1  0.49107276  0.63057078  0.61961463  1
  Zn  Zn99  1  -0.00325463  0.74941901  0.75231695  1
  Zn  Zn100  1  0.25614055  0.61446420  0.38467099  1
  Zn  Zn101  1  0.50639379  0.87782880  0.38274921  1
  Zn  Zn102  1  0.87107607  0.39013594  0.49564652  1
  Zn  Zn103  1  0.62090793  0.38219642  0.24562774  1
  Zn  Zn104  1  -0.00223772  0.74894093  0.25032552  1
  Zn  Zn105  1  0.87743262  0.62364823  0.25339258  1
  Zn  Zn106  1  0.62516914  0.87393622  0.75329538  1
  Zn  Zn107  1  0.18665737  0.18712518  0.18796119  1
  Zn  Zn108  1  0.18655065  0.19022138  0.68513414  1
  Zn  Zn109  1  0.18723650  0.69261647  0.18604728  1
  Zn  Zn110  1  0.18522291  0.68306342  0.68889123  1
  Zn  Zn111  1  0.68898207  0.18777047  0.18947954  1
  Zn  Zn112  1  0.68761073  0.18522696  0.68672423  1
  Zn  Zn113  1  0.68496989  0.68632649  0.19096825  1
  Zn  Zn114  1  0.67880867  0.68798111  0.68804126  1
  Zn  Zn115  1  0.31094734  0.31206971  0.31047276  1
  Zn  Zn116  1  0.31872517  0.31132814  0.81214180  1
  Zn  Zn117  1  0.31533282  0.81298144  0.31531373  1
  Zn  Zn118  1  0.31527967  0.81486281  0.81570822  1
  Zn  Zn119  1  0.81308960  0.31409449  0.30946960  1
  Zn  Zn120  1  0.81447116  0.31893666  0.80514750  1
  Zn  Zn121  1  0.81489573  0.80665781  0.31410773  1
  Zn  Zn122  1  0.81669603  0.81329459  0.81152418  1
  Zn  Zn123  1  0.18274207  0.43894107  0.43382603  1
  Zn  Zn124  1  0.18798483  0.43832875  0.93729638  1
  Zn  Zn125  1  0.19208000  0.93833228  0.43770200  1
  Zn  Zn126  1  0.18841638  0.93925335  0.93802099  1
  Zn  Zn127  1  0.68301823  0.43952108  0.43816550  1
  Zn  Zn128  1  0.68710976  0.43828952  0.93773178  1
  Zn  Zn129  1  0.69273424  0.93274840  0.44142556  1
  Zn  Zn130  1  0.68780565  0.94182003  0.93785263  1
  Zn  Zn131  1  0.31115707  0.06373688  0.06599777  1
  Zn  Zn132  1  0.31628529  0.05871034  0.56438888  1
  Zn  Zn133  1  0.31723964  0.56415585  0.06369475  1
  Zn  Zn134  1  0.30974185  0.55998892  0.56728101  1
  Zn  Zn135  1  0.80812496  0.06012828  0.06165753  1
  Zn  Zn136  1  0.81046761  0.06086594  0.56256362  1
  Zn  Zn137  1  0.81070991  0.55918335  0.06345874  1
  Zn  Zn138  1  0.80648752  0.56473343  0.56438951  1
  Zn  Zn139  1  0.43971018  0.43531206  0.18632617  1
  Zn  Zn140  1  0.43207918  0.43837264  0.68571355  1
  Zn  Zn141  1  0.43789621  0.93703337  0.19031294  1
  Zn  Zn142  1  0.43781665  0.93448298  0.69381904  1
  Zn  Zn143  1  0.93323831  0.44116329  0.18797132  1
  Zn  Zn144  1  0.92940064  0.44139667  0.68417869  1
  Zn  Zn145  1  0.93443216  0.93564487  0.19097817  1
  Zn  Zn146  1  0.93932341  0.93579621  0.69069186  1
  Zn  Zn147  1  0.06341882  0.06181273  0.31337847  1
  Zn  Zn148  1  0.05941509  0.06348013  0.81315202  1
  Zn  Zn149  1  0.07279229  0.56360902  0.30819544  1
  Zn  Zn150  1  0.06489657  0.56329725  0.80901505  1
  Zn  Zn151  1  0.56174215  0.06440415  0.31218504  1
  Zn  Zn152  1  0.56346293  0.06480398  0.81162802  1
  Zn  Zn153  1  0.56801719  0.56084629  0.31332247  1
  Zn  Zn154  1  0.56271371  0.56682669  0.81195306  1
  Zn  Zn155  1  0.43956148  0.18525354  0.43666180  1
  Zn  Zn156  1  0.44608669  0.18446589  0.93652024  1
  Zn  Zn157  1  0.43553562  0.69015513  0.43930178  1
  Zn  Zn158  1  0.43582273  0.68849637  0.93654486  1
  Zn  Zn159  1  0.94083716  0.18511351  0.43698584  1
  Zn  Zn160  1  0.93700724  0.18875868  0.93731200  1
  Zn  Zn161  1  0.93930716  0.56662742  0.44144438  1
  Zn  Zn162  1  0.93603838  0.68896000  0.93671699  1
  Zn  Zn163  1  0.05732709  0.30927916  0.06032331  1
  Zn  Zn164  1  0.06455590  0.31262595  0.55886477  1
  Zn  Zn165  1  0.06480025  0.81314769  0.06215419  1
  Zn  Zn166  1  0.06591939  0.81171525  0.56051873  1
  Zn  Zn167  1  0.56491395  0.30663019  0.05796594  1
  Zn  Zn168  1  0.56002731  0.31225009  0.55738254  1
  Zn  Zn169  1  0.56112359  0.81443753  0.06602371  1
  Zn  Zn170  1  0.56635681  0.81714814  0.56859327  1
  O  O171  1  0.11343640  0.13392768  0.11570410  1
  O  O172  1  0.11838389  0.11978383  0.61927869  1
  O  O173  1  0.12213502  0.61921431  0.11749328  1
  O  O174  1  0.11954259  0.61520164  0.62007711  1
  O  O175  1  0.63087904  0.12074068  0.11444869  1
  O  O176  1  0.62879348  0.10977846  0.62267364  1
  O  O177  1  0.61183529  0.62835164  0.12014599  1
  O  O178  1  0.61610239  0.61885866  0.61286099  1
  O  O179  1  0.38835367  0.37174313  0.36943457  1
  O  O180  1  0.38750065  0.37810649  0.88219821  1
  O  O181  1  0.37748920  0.88205759  0.38734764  1
  O  O182  1  0.38269758  0.88869513  0.87400228  1
  O  O183  1  0.89089484  0.37036467  0.37430616  1
  O  O184  1  0.87415866  0.38634777  0.88009005  1
  O  O185  1  0.88576274  0.88216446  0.37201066  1
  O  O186  1  0.88204343  0.88294026  0.88334955  1
  O  O187  1  0.26224504  -0.00588677  0.36143789  1
  O  O188  1  0.25757158  0.00729537  0.87044347  1
  O  O189  1  0.23808040  0.50465625  0.36452666  1
  O  O190  1  0.25490756  0.50482380  0.86994097  1
  O  O191  1  0.75731366  0.00411048  0.37372011  1
  O  O192  1  0.76235932  -0.00696253  0.86057213  1
  O  O193  1  0.74576312  0.50641070  0.36443284  1
  O  O194  1  0.75304503  0.50519316  0.86705914  1
  O  O195  1  0.24564494  0.49175831  0.12276698  1
  O  O196  1  0.24280209  0.48545733  0.63222307  1
  O  O197  1  0.25737787  0.98690573  0.13355462  1
  O  O198  1  0.24556822  0.99093021  0.63313151  1
  O  O199  1  0.75077519  0.49002949  0.13416893  1
  O  O200  1  0.73852064  0.49665113  0.63120885  1
  O  O201  1  0.74115408  0.99204993  0.13298554  1
  O  O202  1  0.74671674  0.99069913  0.63312604  1
  O  O203  1  0.00269057  0.36988489  0.25441219  1
  O  O204  1  -0.00900163  0.36338598  0.74971750  1
  O  O205  1  0.00911570  0.87590621  0.25767205  1
  O  O206  1  0.00982211  0.87574073  0.75912728  1
  O  O207  1  0.50113268  0.36703829  0.25721795  1
  O  O208  1  0.49498915  0.36727029  0.75832265  1
  O  O209  1  0.50807050  0.86634249  0.25081535  1
  O  O210  1  0.50075885  0.86582330  0.76191973  1
  O  O211  1  0.49139002  0.13864333  0.25340403  1
  O  O212  1  0.49259879  0.13418308  0.74486026  1
  O  O213  1  0.49506493  0.62993029  0.24561482  1
  O  O214  1  0.49606984  0.63988045  0.75374173  1
  O  O215  1  0.99957133  0.13288243  0.24397982  1
  O  O216  1  0.99010555  0.13241196  0.74259142  1
  O  O217  1  1.00086604  0.62514066  0.23973152  1
  O  O218  1  1.00428343  0.62771098  0.73574606  1
  O  O219  1  0.37381161  0.25099351  0.00556567  1
  O  O220  1  0.37525349  0.24567516  0.51330389  1
  O  O221  1  0.36467966  0.74495253  0.01091661  1
  O  O222  1  0.37125213  0.76650742  0.49705864  1
  O  O223  1  0.87944085  0.26011440  0.00748149  1
  O  O224  1  0.87544399  0.24914054  0.51199959  1
  O  O225  1  0.87726807  0.76446100  0.00310133  1
  O  O226  1  0.86326785  0.74580663  0.50390466  1
  O  O227  1  0.11720342  0.23774866  0.48964691  1
  O  O228  1  0.12796177  0.24158118  0.99216708  1
  O  O229  1  0.13055698  0.74282841  0.49322726  1
  O  O230  1  0.13653579  0.73846963  1.00479943  1
  O  O231  1  0.62686365  0.24827503  0.48612724  1
  O  O232  1  0.62639432  0.24015225  0.98631860  1
  O  O233  1  0.62154680  0.73781765  0.50417249  1
  O  O234  1  0.61871275  0.73706788  0.99982341  1
  O  O235  1  0.49165773  0.25645896  0.13307628  1
  O  O236  1  0.49221829  0.25453820  0.63248287  1
  O  O237  1  0.49264731  0.74473295  0.13235923  1
  O  O238  1  0.50240128  0.75383431  0.64186858  1
  O  O239  1  0.99023996  0.24466389  0.13466807  1
  O  O240  1  0.99346722  0.24768622  0.62955798  1
  O  O241  1  1.00297287  0.73669137  0.12376894  1
  O  O242  1  1.00675206  0.73636297  0.62507904  1
  O  O243  1  0.00338636  0.25400806  0.36293696  1
  O  O244  1  0.00617453  0.25189528  0.86540546  1
  O  O245  1  0.01370003  0.76482861  0.37520163  1
  O  O246  1  0.00230635  0.76438514  0.87918070  1
  O  O247  1  0.50541702  0.25990070  0.36794608  1
  O  O248  1  0.50769422  0.25694516  0.86465433  1
  O  O249  1  0.49753795  0.75407759  0.36355817  1
  O  O250  1  0.49970273  0.75980517  0.87256037  1
  O  O251  1  0.23678529  0.11865480  0.50589639  1
  O  O252  1  0.24291530  0.13124539  0.99611163  1
  O  O253  1  0.23874023  0.62699257  0.50227817  1
  O  O254  1  0.24506219  0.63125216  0.99570477  1
  O  O255  1  0.74815724  0.12691666  0.48760249  1
  O  O256  1  0.73425932  0.11924135  0.99527199  1
  O  O257  1  0.73931951  0.63694860  0.49906487  1
  O  O258  1  0.73841374  0.61623277  0.99258805  1
  O  O259  1  0.25805530  0.36874573  0.00297770  1
  O  O260  1  0.24640326  0.37425608  0.50866460  1
  O  O261  1  0.24404217  0.86682540  0.00814642  1
  O  O262  1  0.25749124  0.87350568  0.51070303  1
  O  O263  1  0.76168777  0.38296749  0.00738124  1
  O  O264  1  0.75144772  0.37224461  0.50664418  1
  O  O265  1  0.75812309  0.88261676  0.00968748  1
  O  O266  1  0.74903972  0.86114527  0.51156448  1
  O  O267  1  0.12595231  0.49182971  0.23548850  1
  O  O268  1  0.13464912  0.50052985  0.74079419  1
  O  O269  1  0.13393998  0.98887111  0.25626285  1
  O  O270  1  0.13031006  0.99646031  0.74515759  1
  O  O271  1  0.64014701  0.49990443  0.24677768  1
  O  O272  1  0.62707313  0.50620855  0.73519290  1
  O  O273  1  0.62976862  0.99570005  0.24398852  1
  O  O274  1  0.63671713  1.00120323  0.74408975  1
  O  O275  1  0.36926896  0.00796906  0.25378276  1
  O  O276  1  0.36996347  0.00923757  0.75756806  1
  O  O277  1  0.37634847  0.51663840  0.24160725  1
  O  O278  1  0.36628970  0.50130020  0.75907679  1
  O  O279  1  0.86848850  0.00117198  0.26244952  1
  O  O280  1  0.87215190  0.00791417  0.75627580  1
  O  O281  1  0.85721054  0.50552128  0.24532810  1
  O  O282  1  0.86462577  0.50751488  0.75731462  1
  O  O283  1  0.11019888  0.36694554  0.36929079  1
  O  O284  1  0.12241351  0.36103973  0.88154541  1
  O  O285  1  0.12301304  0.87017811  0.36936836  1
  O  O286  1  0.11671679  0.88437269  0.86679894  1
  O  O287  1  0.61864658  0.36740947  0.36949809  1
  O  O288  1  0.61510389  0.36408490  0.88154518  1
  O  O289  1  0.62463783  0.88295401  0.36291361  1
  O  O290  1  0.61666370  0.87633266  0.87422441  1
  O  O291  1  0.37253406  0.13617603  0.13376594  1
  O  O292  1  0.37247131  0.13170910  0.63622161  1
  O  O293  1  0.38546621  0.63484806  0.13180838  1
  O  O294  1  0.37865380  0.62276522  0.62756250  1
  O  O295  1  0.87961279  0.13234649  0.12455682  1
  O  O296  1  0.88002311  0.13189047  0.62943939  1
  O  O297  1  0.88525093  0.62630177  0.12069749  1
  O  O298  1  0.89130004  0.62017969  0.62570227  1
  O  O299  1  0.25734561  0.25469246  0.11780440  1
  O  O300  1  0.25453957  0.26455841  0.63003457  1
  O  O301  1  0.25748742  0.75951537  0.11871298  1
  O  O302  1  0.24570015  0.76394942  0.62986125  1
  O  O303  1  0.76371171  0.25792914  0.13314154  1
  O  O304  1  0.75504886  0.25882993  0.62510367  1
  O  O305  1  0.74658639  0.76379238  0.12796799  1
  O  O306  1  0.74436285  0.76041244  0.61926140  1
  O  O307  1  0.23285630  0.25476951  0.36925326  1
  O  O308  1  0.24428187  0.24563662  0.87883000  1
  O  O309  1  0.24063141  0.74619460  0.37537383  1
  O  O310  1  0.25566914  0.74262584  0.88578841  1
  O  O311  1  0.74357356  0.24349367  0.37244350  1
  O  O312  1  0.73609577  0.25774191  0.86343418  1
  O  O313  1  0.75159782  0.74456683  0.39091074  1
  O  O314  1  0.74851454  0.73771631  0.87343637  1
  O  O315  1  0.00614507  0.12559998  0.00876372  1
  O  O316  1  0.00596119  0.11264915  0.50488095  1
  O  O317  1  0.00965259  0.62167174  0.00248048  1
  O  O318  1  0.01257127  0.62349721  0.51301135  1
  O  O319  1  0.52134477  0.12158905  -0.00688766  1
  O  O320  1  0.50237799  0.12426853  0.50495035  1
  O  O321  1  0.50393234  0.61843793  0.00734357  1
  O  O322  1  0.50739778  0.61901433  0.49506981  1
  O  O323  1  0.50187979  0.38203580  0.48407641  1
  O  O324  1  0.49830018  0.38125021  0.99456272  1
  O  O325  1  0.48858644  0.87382995  0.50244733  1
  O  O326  1  0.50285721  0.88162094  0.99038134  1
  O  O327  1  0.99771119  0.37247730  0.48351795  1
  O  O328  1  0.98871313  0.38208645  0.99752049  1
  O  O329  1  1.00717479  0.88706366  0.49364248  1
  O  O330  1  0.99552267  0.87951910  0.99640039  1
  O  O331  1  0.50427684  0.48646088  0.37782591  1
  O  O332  1  0.49797419  0.49292955  0.87915941  1
  O  O333  1  0.48513624  0.99695757  0.36632216  1
  O  O334  1  0.49263401  0.99395386  0.87219634  1
  O  O335  1  1.00267667  0.49193562  0.37184469  1
  O  O336  1  0.99143981  0.50080122  0.87740609  1
  O  O337  1  0.99457279  0.99233231  0.38119243  1
  O  O338  1  0.98932816  0.99278441  0.87665485  1
  O  O339  1  -0.00594398  0.01449349  0.12747963  1
  O  O340  1  0.00448652  0.00222049  0.61793505  1
  O  O341  1  0.00569074  0.50912274  0.11787027  1
  O  O342  1  0.01107665  0.50440079  0.63237046  1
  O  O343  1  0.51342084  -0.00247148  0.12657127  1
  O  O344  1  0.51758525  -0.00196553  0.63585024  1
  O  O345  1  0.49516085  0.50860146  0.11569430  1
  O  O346  1  0.50404000  0.49516858  0.61474801  1
  O  O347  1  0.24238372  0.37308998  0.23849907  1
  O  O348  1  0.25091348  0.38399441  0.75371337  1
  O  O349  1  0.24534123  0.87995565  0.24373633  1
  O  O350  1  0.24473841  0.88084343  0.74768442  1
  O  O351  1  0.74889184  0.38528411  0.24407066  1
  O  O352  1  0.75161521  0.39139959  0.74006772  1
  O  O353  1  0.74346711  0.87878577  0.24557936  1
  O  O354  1  0.74978264  0.88056789  0.74118813  1
  O  O355  1  0.25705313  0.11420911  0.24302930  1
  O  O356  1  0.25619102  0.12264706  0.75511154  1
  O  O357  1  0.26644863  0.62729529  0.24284566  1
  O  O358  1  0.24931113  0.61679223  0.75916209  1
  O  O359  1  0.75097939  0.11718545  0.26132220  1
  O  O360  1  0.76488934  0.11708599  0.74313847  1
  O  O361  1  0.74781848  0.61862481  0.26003909  1
  O  O362  1  0.74603132  0.61640663  0.75705785  1
  O  O363  1  0.37385066  0.11991314  0.36344438  1
  O  O364  1  0.37132535  0.12409871  0.86410472  1
  O  O365  1  0.37364552  0.63095457  0.35896184  1
  O  O366  1  0.36269274  0.61734626  0.87690462  1
  O  O367  1  0.86853055  0.11766242  0.37349438  1
  O  O368  1  0.88084520  0.11750504  0.86590132  1
  O  O369  1  0.86092594  0.62445758  0.37596198  1
  O  O370  1  0.86592593  0.61452920  0.88051715  1
  O  O371  1  0.12867475  0.37863407  0.12477940  1
  O  O372  1  0.13497011  0.37931063  0.62228784  1
  O  O373  1  0.13476924  0.87119146  0.13549715  1
  O  O374  1  0.13159694  0.88150979  0.63331140  1
  O  O375  1  0.63991120  0.36487376  0.12401728  1
  O  O376  1  0.63394987  0.38155942  0.61879366  1
  O  O377  1  0.63033261  0.88329842  0.13245961  1
  O  O378  1  0.63586163  0.88565094  0.63084846  1
  O  O379  1  0.11588795  0.25512393  0.25346481  1
  O  O380  1  0.11327138  0.24329838  0.75809919  1
  O  O381  1  0.12418258  0.76021643  0.25765122  1
  O  O382  1  0.12370171  0.76274647  0.75052714  1
  O  O383  1  0.61703517  0.25065507  0.25777397  1
  O  O384  1  0.61623545  0.24393620  0.75869386  1
  O  O385  1  0.61504593  0.75993679  0.24564011  1
  O  O386  1  0.61178791  0.75222094  0.75701772  1
  O  O387  1  0.37942914  0.24327515  0.24307638  1
  O  O388  1  0.38412428  0.24353944  0.74457288  1
  O  O389  1  0.38222286  0.74265598  0.24339259  1
  O  O390  1  0.38895972  0.74958230  0.75748000  1
  O  O391  1  0.88244088  0.24736307  0.24240261  1
  O  O392  1  0.87963814  0.24474933  0.73967052  1
  O  O393  1  0.87953810  0.74399251  0.24450548  1
  O  O394  1  0.88305503  0.74405247  0.75705122  1
  O  O395  1  0.38603847  0.50402950  0.49796059  1
  O  O396  1  0.38572788  0.49522255  0.99388946  1
  O  O397  1  0.36937249  0.98855522  0.49121054  1
  O  O398  1  0.37770250  1.01333011  0.98667927  1
  O  O399  1  0.87182209  0.50210046  0.50133669  1
  O  O400  1  0.88060314  0.49401850  0.99198932  1
  O  O401  1  0.88301061  1.00353174  0.48916776  1
  O  O402  1  0.87675435  0.99364461  0.99265080  1
  O  O403  1  0.12340320  0.01607609  -0.00389811  1
  O  O404  1  0.11916504  0.00489407  0.50440429  1
  O  O405  1  0.12081203  0.50847741  0.00433843  1
  O  O406  1  0.12747127  0.50658012  0.51292788  1
  O  O407  1  0.62484533  0.00974102  0.00877278  1
  O  O408  1  0.63201563  -0.00245488  0.51598336  1
  O  O409  1  0.61266762  0.50814381  -0.00388019  1
  O  O410  1  0.61889179  0.51002814  0.50895916  1
  O  O411  1  0.37084176  0.36431466  0.11952391  1
  O  O412  1  0.35793002  0.36836184  0.62760629  1
  O  O413  1  0.36847805  0.86396389  0.13071807  1
  O  O414  1  0.36857486  0.88396444  0.61418395  1
  O  O415  1  0.86869987  0.36929287  0.11709615  1
  O  O416  1  0.86298235  0.36865152  0.62244172  1
  O  O417  1  0.86565663  0.87625442  0.11848979  1
  O  O418  1  0.86161324  0.87910973  0.62721305  1
  O  O419  1  0.12038578  0.13293723  0.38360471  1
  O  O420  1  0.12851428  0.13450119  0.88083012  1
  O  O421  1  0.12285449  0.63420823  0.38406452  1
  O  O422  1  0.13824414  0.61904675  0.88409624  1
  O  O423  1  0.63314056  0.13178009  0.37466073  1
  O  O424  1  0.62772656  0.13738561  0.87854956  1
  O  O425  1  0.63497052  0.62072170  0.38978660  1
  O  O426  1  0.63217540  0.62599395  0.88515221  1
