# generated using pymatgen
data_V85Zn86O256
_symmetry_space_group_name_H-M   'P 1'
_cell_length_a   16.94275182
_cell_length_b   16.93824242
_cell_length_c   16.93334462
_cell_angle_alpha   89.90286662
_cell_angle_beta   89.92331767
_cell_angle_gamma   89.98559246
_symmetry_Int_Tables_number   1
_chemical_formula_structural   V85Zn86O256
_chemical_formula_sum   'V85 Zn86 O256'
_cell_volume   4859.52716407
_cell_formula_units_Z   1
loop_
 _symmetry_equiv_pos_site_id
 _symmetry_equiv_pos_as_xyz
  1  'x, y, z'
loop_
 _atom_site_type_symbol
 _atom_site_label
 _atom_site_symmetry_multiplicity
 _atom_site_fract_x
 _atom_site_fract_y
 _atom_site_fract_z
 _atom_site_occupancy
  V  V0  1  0.50641588  0.24875856  0.74179767  1
  V  V1  1  0.12784843  0.74779073  0.87916661  1
  V  V2  1  0.87374450  0.36671524  0.49885015  1
  V  V3  1  0.62182325  0.87461898  0.25047172  1
  V  V4  1  0.24950576  0.12528861  0.37475893  1
  V  V5  1  -0.00163827  0.75093419  0.75025686  1
  V  V6  1  0.25657363  0.62826726  0.87168252  1
  V  V7  1  0.56452098  0.55714625  0.55466957  1
  V  V8  1  0.37253946  0.24951311  0.12189436  1
  V  V9  1  0.50019655  0.87245069  0.87662771  1
  V  V10  1  0.74810068  0.74895604  0.49919040  1
  V  V11  1  -0.05416425  0.43293798  0.83487233  1
  V  V12  1  0.75217205  0.12439129  0.87457821  1
  V  V13  1  0.63181365  0.39177237  0.74807191  1
  V  V14  1  0.00261712  0.50477584  0.00057849  1
  V  V15  1  0.63468833  0.62698258  0.01146235  1
  V  V16  1  0.37057847  0.00404008  0.87656142  1
  V  V17  1  0.12597432  0.50109568  0.62157101  1
  V  V18  1  0.74252715  0.38612394  0.13006065  1
  V  V19  1  0.37501862  0.86944732  0.00834860  1
  V  V20  1  0.74608473  0.62456056  0.37741145  1
  V  V21  1  0.87653759  0.00291330  0.87208401  1
  V  V22  1  0.61815378  0.75315762  0.38319822  1
  V  V23  1  0.00374922  0.63728210  0.11956575  1
  V  V24  1  0.37415367  0.12285029  0.25071862  1
  V  V25  1  0.50158434  0.37612436  0.87565141  1
  V  V26  1  0.25206055  0.25310358  0.50037511  1
  V  V27  1  0.12266254  0.12822774  0.50157075  1
  V  V28  1  0.75059303  0.24345055  0.50884124  1
  V  V29  1  0.62605041  0.25061210  0.87369126  1
  V  V30  1  0.24531450  0.49263913  0.25244417  1
  V  V31  1  0.49359284  0.73784288  0.74821556  1
  V  V32  1  0.24615174  0.87057843  0.12673983  1
  V  V33  1  0.48926828  -0.00332779  0.50738551  1
  V  V34  1  -0.01146825  0.24671443  0.75054273  1
  V  V35  1  0.87336099  0.50067856  0.37454161  1
  V  V36  1  -0.00197206  0.00007341  0.00016290  1
  V  V37  1  0.61999700  0.00450036  0.62714600  1
  V  V38  1  0.25497939  0.37511723  0.62257372  1
  V  V39  1  0.25675406  0.50686437  0.74865902  1
  V  V40  1  0.37909501  0.50493455  0.87517772  1
  V  V41  1  -0.00011779  -0.00313541  0.49628219  1
  V  V42  1  0.25043318  0.24749414  -0.01077903  1
  V  V43  1  0.75025420  0.87351524  0.62591432  1
  V  V44  1  0.25055948  0.00732113  0.75292854  1
  V  V45  1  0.24321652  0.62906480  0.37550911  1
  V  V46  1  -0.00035292  0.12696687  0.12564772  1
  V  V47  1  0.61832598  0.12104600  0.49469235  1
  V  V48  1  0.12376762  0.50348029  0.12496787  1
  V  V49  1  0.87443484  0.62858523  0.24133930  1
  V  V50  1  0.75430289  0.62186600  0.86559794  1
  V  V51  1  0.12870307  0.12306810  -0.00648539  1
  V  V52  1  0.87577640  -0.01280725  0.37151757  1
  V  V53  1  0.87999686  0.38006322  0.00175346  1
  V  V54  1  0.38181376  0.25489428  0.62116463  1
  V  V55  1  0.50082394  -0.00057854  0.00066323  1
  V  V56  1  0.87212091  0.86477325  0.00739477  1
  V  V57  1  0.12448639  0.37514931  0.75535452  1
  V  V58  1  0.00551075  0.74923456  0.27216978  1
  V  V59  1  0.37831690  0.12785086  0.74889767  1
  V  V60  1  0.87447986  0.12654256  0.25291957  1
  V  V61  1  0.75405288  0.00513854  0.74917918  1
  V  V62  1  0.12217059  0.24955316  0.87289298  1
  V  V63  1  0.75117926  0.38523792  0.62536540  1
  V  V64  1  0.48729973  0.87395853  0.38206122  1
  V  V65  1  -0.00078354  0.62540589  0.62469474  1
  V  V66  1  0.62674170  0.12571016  0.00210262  1
  V  V67  1  0.74626390  0.00078797  0.24734958  1
  V  V68  1  0.24884480  0.75887103  0.50091768  1
  V  V69  1  0.12066954  0.87289817  0.26183181  1
  V  V70  1  0.62556320  0.87108833  0.75248846  1
  V  V71  1  0.75109390  0.25168771  0.00606033  1
  V  V72  1  0.12875717  0.87578079  0.74924356  1
  V  V73  1  0.12402845  0.00358944  0.62710271  1
  V  V74  1  0.25299183  0.74049446  0.00388841  1
  V  V75  1  0.37531107  0.48046322  0.38553889  1
  V  V76  1  0.87367068  0.74864243  0.62788059  1
  V  V77  1  0.87804741  0.87416635  0.49645581  1
  V  V78  1  0.23865008  0.37147740  0.12353856  1
  V  V79  1  0.50167134  0.12683697  0.12534381  1
  V  V80  1  0.12450010  0.25292130  0.36431614  1
  V  V81  1  0.61600658  0.28515129  0.38476296  1
  V  V82  1  0.48870161  0.74534217  0.24840304  1
  V  V83  1  -0.01531409  0.12968959  0.62784929  1
  V  V84  1  0.00181160  0.37495377  0.36751141  1
  Zn  Zn85  1  0.63787945  0.75373456  0.88607672  1
  Zn  Zn86  1  0.26224711  0.88132837  0.61904524  1
  Zn  Zn87  1  0.00101281  0.49908809  0.49720579  1
  Zn  Zn88  1  0.86910683  0.60163105  0.75018755  1
  Zn  Zn89  1  0.74711798  0.12878961  0.37419049  1
  Zn  Zn90  1  0.58280726  0.42013109  0.24395815  1
  Zn  Zn91  1  0.11845108  0.63433935  0.49275284  1
  Zn  Zn92  1  0.50893463  0.49993140  0.00677735  1
  Zn  Zn93  1  0.37992139  0.74558871  0.61926861  1
  Zn  Zn94  1  0.36981415  0.62275692  0.24922618  1
  Zn  Zn95  1  0.12459117  -0.00169628  0.12598542  1
  Zn  Zn96  1  0.49539190  0.61422189  0.12525006  1
  Zn  Zn97  1  0.37414411  0.37590473  -0.00221103  1
  Zn  Zn98  1  0.37110191  0.00022303  0.38154676  1
  Zn  Zn99  1  0.62712323  -0.00265196  0.12431077  1
  Zn  Zn100  1  0.24806868  -0.00295762  0.24998943  1
  Zn  Zn101  1  0.50362064  0.25197582  0.26006643  1
  Zn  Zn102  1  -0.00041530  0.87406773  0.87604287  1
  Zn  Zn103  1  0.73646174  0.50188442  0.25104057  1
  Zn  Zn104  1  -0.00057416  0.25394180  0.24685149  1
  Zn  Zn105  1  0.74362944  0.84895099  0.11379783  1
  Zn  Zn106  1  0.87215100  0.25295874  0.13078690  1
  Zn  Zn107  1  0.18690907  0.18482346  0.18356685  1
  Zn  Zn108  1  0.18640996  0.18774252  0.68855190  1
  Zn  Zn109  1  0.18580449  0.68579798  0.18823476  1
  Zn  Zn110  1  0.18897362  0.68864623  0.68343544  1
  Zn  Zn111  1  0.68322383  0.19466418  0.19554189  1
  Zn  Zn112  1  0.68763379  0.18709157  0.68383018  1
  Zn  Zn113  1  0.68125838  0.68335738  0.19404727  1
  Zn  Zn114  1  0.67868332  0.67956869  0.68672392  1
  Zn  Zn115  1  0.31142091  0.31070346  0.30437447  1
  Zn  Zn116  1  0.31413431  0.31581507  0.81024901  1
  Zn  Zn117  1  0.30744454  0.81073860  0.31919703  1
  Zn  Zn118  1  0.31700624  0.81629266  0.80934393  1
  Zn  Zn119  1  0.80194949  0.31117481  0.31713951  1
  Zn  Zn120  1  0.80638879  0.31036956  0.81170504  1
  Zn  Zn121  1  0.79751719  0.79471513  0.28142651  1
  Zn  Zn122  1  0.81346354  0.81245697  0.81931479  1
  Zn  Zn123  1  0.18736816  0.43608745  0.43740762  1
  Zn  Zn124  1  0.18612033  0.43982149  0.93819221  1
  Zn  Zn125  1  0.18551284  0.93985311  0.43784767  1
  Zn  Zn126  1  0.18883417  0.93466194  0.93734502  1
  Zn  Zn127  1  0.67810566  0.43522379  0.43498973  1
  Zn  Zn128  1  0.69123967  0.44411679  0.93890932  1
  Zn  Zn129  1  0.68689584  0.93754679  0.43494019  1
  Zn  Zn130  1  0.68982003  0.93678243  0.93967140  1
  Zn  Zn131  1  0.31029369  0.05963151  0.06369417  1
  Zn  Zn132  1  0.31195358  0.07008164  0.56907212  1
  Zn  Zn133  1  0.32065203  0.56171728  0.06714461  1
  Zn  Zn134  1  0.31128375  0.56452059  0.56061764  1
  Zn  Zn135  1  0.81418610  0.06021659  0.06590720  1
  Zn  Zn136  1  0.81086933  0.06029961  0.56146493  1
  Zn  Zn137  1  0.81412718  0.56485610  0.05706041  1
  Zn  Zn138  1  0.81215538  0.56189081  0.55901686  1
  Zn  Zn139  1  0.42415317  0.43795653  0.18348476  1
  Zn  Zn140  1  0.44152160  0.44536452  0.68599243  1
  Zn  Zn141  1  0.43679860  0.93829265  0.18933813  1
  Zn  Zn142  1  0.43628102  0.93005432  0.68655057  1
  Zn  Zn143  1  0.93352097  0.44149433  0.18659623  1
  Zn  Zn144  1  0.93943401  0.42909363  0.66908777  1
  Zn  Zn145  1  0.93921350  0.93397689  0.18775555  1
  Zn  Zn146  1  0.93851833  0.93712663  0.68646308  1
  Zn  Zn147  1  0.06248802  0.06017459  0.31261292  1
  Zn  Zn148  1  0.06015235  0.06620240  0.81268928  1
  Zn  Zn149  1  0.06285604  0.55903470  0.30798975  1
  Zn  Zn150  1  0.07165816  0.57105557  0.80758287  1
  Zn  Zn151  1  0.55661378  0.06016254  0.31437625  1
  Zn  Zn152  1  0.56148229  0.06326914  0.81251625  1
  Zn  Zn153  1  0.55267195  0.56953222  0.34170320  1
  Zn  Zn154  1  0.56998796  0.56608959  0.82493079  1
  Zn  Zn155  1  0.44042893  0.18865271  0.44179842  1
  Zn  Zn156  1  0.43860869  0.18793412  0.93462126  1
  Zn  Zn157  1  0.41614545  0.65372594  0.47237307  1
  Zn  Zn158  1  0.44297044  0.68693677  0.94125729  1
  Zn  Zn159  1  0.93727897  0.18438692  0.43449612  1
  Zn  Zn160  1  0.93621615  0.18912630  0.93556576  1
  Zn  Zn161  1  0.93356132  0.68566057  0.43916873  1
  Zn  Zn162  1  0.93405816  0.68349900  0.93286654  1
  Zn  Zn163  1  0.06001303  0.31257894  0.05831462  1
  Zn  Zn164  1  0.06153965  0.31140488  0.56090006  1
  Zn  Zn165  1  0.06487280  0.81424547  0.06145282  1
  Zn  Zn166  1  0.06823378  0.81410570  0.56066715  1
  Zn  Zn167  1  0.56276621  0.31690497  0.06773697  1
  Zn  Zn168  1  0.54754705  0.36490145  0.56596898  1
  Zn  Zn169  1  0.56279258  0.80599346  0.06652407  1
  Zn  Zn170  1  0.56033357  0.81367893  0.56598020  1
  O  O171  1  0.11665549  0.12168494  0.11409527  1
  O  O172  1  0.12033929  0.12037371  0.61872264  1
  O  O173  1  0.11675407  0.61586786  0.12447249  1
  O  O174  1  0.11673831  0.61652832  0.62585298  1
  O  O175  1  0.61732743  0.12620117  0.12090461  1
  O  O176  1  0.63107314  0.11076422  0.61519309  1
  O  O177  1  0.62176389  0.62814134  0.11557840  1
  O  O178  1  0.60702180  0.62123545  0.62049604  1
  O  O179  1  0.35885649  0.37997498  0.37753676  1
  O  O180  1  0.38620989  0.38140899  0.87353173  1
  O  O181  1  0.38375449  0.88112309  0.37118061  1
  O  O182  1  0.38268082  0.88386621  0.88343729  1
  O  O183  1  0.87642087  0.38131552  0.38130175  1
  O  O184  1  0.87224071  0.37426335  0.88527971  1
  O  O185  1  0.87305583  0.88440002  0.37637440  1
  O  O186  1  0.87749009  0.88770805  0.88547459  1
  O  O187  1  0.25077192  0.01359479  0.37561501  1
  O  O188  1  0.26305809  -0.00307815  0.87060697  1
  O  O189  1  0.24692465  0.50195807  0.36585178  1
  O  O190  1  0.25473259  0.50802299  0.86755278  1
  O  O191  1  0.75884756  0.00270143  0.36586664  1
  O  O192  1  0.75631317  0.00453737  0.86870322  1
  O  O193  1  0.75846641  0.50967455  0.37852183  1
  O  O194  1  0.75035760  0.52001584  0.87794087  1
  O  O195  1  0.24143182  0.49182175  0.12656103  1
  O  O196  1  0.24618026  0.49533245  0.63088809  1
  O  O197  1  0.24673178  0.98518242  0.12599630  1
  O  O198  1  0.24277700  1.00144146  0.63374221  1
  O  O199  1  0.75367156  0.48907415  0.12451490  1
  O  O200  1  0.76348731  0.48452922  0.62692911  1
  O  O201  1  0.74939026  0.99857962  0.13985633  1
  O  O202  1  0.74531057  0.99298910  0.63277233  1
  O  O203  1  -0.00922803  0.37294742  0.26310011  1
  O  O204  1  0.00500183  0.37300476  0.75705012  1
  O  O205  1  0.00928538  0.86128905  0.24760683  1
  O  O206  1  0.01011508  0.86892743  0.75178115  1
  O  O207  1  0.49144294  0.36087365  0.23370268  1
  O  O208  1  0.51258836  0.37031471  0.75829789  1
  O  O209  1  0.50590917  0.87269426  0.25872539  1
  O  O210  1  0.50941786  0.87547674  0.76215389  1
  O  O211  1  0.49164601  0.12660846  0.24263903  1
  O  O212  1  0.49612873  0.13992668  0.75115141  1
  O  O213  1  0.49494360  0.64135840  0.26217334  1
  O  O214  1  0.50733584  0.64057430  0.76151064  1
  O  O215  1  0.99356263  0.12478147  0.24181527  1
  O  O216  1  1.00381576  0.13409802  0.73946831  1
  O  O217  1  0.99903522  0.63588175  0.24474259  1
  O  O218  1  0.99859010  0.63365973  0.74054848  1
  O  O219  1  0.36567174  0.24822988  0.00210861  1
  O  O220  1  0.36984447  0.24454218  0.51393721  1
  O  O221  1  0.36665323  0.76060039  -0.00729901  1
  O  O222  1  0.35166034  0.75148842  0.48516667  1
  O  O223  1  0.86361041  0.25639638  0.00057668  1
  O  O224  1  0.86342494  0.25494958  0.48844562  1
  O  O225  1  0.88488915  0.76727101  -0.00393667  1
  O  O226  1  0.87076227  0.75704359  0.50714553  1
  O  O227  1  0.13147015  0.24456708  0.49239158  1
  O  O228  1  0.12919690  0.24256735  0.99236646  1
  O  O229  1  0.13710325  0.74850685  0.50113477  1
  O  O230  1  0.13567741  0.75906495  0.98517733  1
  O  O231  1  0.63089929  0.22595869  0.49605813  1
  O  O232  1  0.63584908  0.24842100  0.99563988  1
  O  O233  1  0.63393333  0.76021055  0.49212686  1
  O  O234  1  0.62387624  0.73780689  1.00084008  1
  O  O235  1  0.49316964  0.23630220  0.11750317  1
  O  O236  1  0.49286342  0.27165044  0.63095983  1
  O  O237  1  0.50142856  0.75027254  0.14700011  1
  O  O238  1  0.50325528  0.75592752  0.64534518  1
  O  O239  1  0.99706114  0.23893873  0.12518067  1
  O  O240  1  1.00531339  0.24110502  0.63474963  1
  O  O241  1  1.00581772  0.73875698  0.12559565  1
  O  O242  1  0.99786287  0.74387884  0.63133439  1
  O  O243  1  0.00852184  0.25537745  0.37370473  1
  O  O244  1  0.00987207  0.24409516  0.86583150  1
  O  O245  1  0.00835401  0.74370290  0.37039378  1
  O  O246  1  0.01035909  0.74854140  0.86660039  1
  O  O247  1  0.51511222  0.24680576  0.37967426  1
  O  O248  1  0.50643385  0.25761904  0.86592431  1
  O  O249  1  0.50690660  0.76047868  0.37261973  1
  O  O250  1  0.50196199  0.76348540  0.86879374  1
  O  O251  1  0.24484069  0.13225946  0.49356885  1
  O  O252  1  0.23965994  0.13245522  1.00476602  1
  O  O253  1  0.24125102  0.63147449  0.48903989  1
  O  O254  1  0.25463925  0.63665420  0.99269939  1
  O  O255  1  0.74277736  0.12702985  0.49867573  1
  O  O256  1  0.74657335  0.13233809  0.99917474  1
  O  O257  1  0.76059012  0.64174954  0.49332111  1
  O  O258  1  0.74201497  0.62760133  0.99618954  1
  O  O259  1  0.24811261  0.36401953  0.00260172  1
  O  O260  1  0.24038428  0.36800425  0.51625899  1
  O  O261  1  0.25672067  0.86687159  0.00625723  1
  O  O262  1  0.24297616  0.86502800  0.50057386  1
  O  O263  1  0.75529032  0.37102647  0.00967375  1
  O  O264  1  0.75500605  0.36595968  0.50701074  1
  O  O265  1  0.76482755  0.87779289  0.00285449  1
  O  O266  1  0.75676289  0.86718314  0.50357092  1
  O  O267  1  0.13067461  0.49879259  0.23482759  1
  O  O268  1  0.13293681  0.49448055  0.74061080  1
  O  O269  1  0.12363159  0.98645917  0.24750537  1
  O  O270  1  0.13264084  0.99616527  0.75055089  1
  O  O271  1  0.62486431  0.51890805  0.26610132  1
  O  O272  1  0.62205602  0.48950035  0.75348555  1
  O  O273  1  0.62910904  0.99511618  0.24912490  1
  O  O274  1  0.62976506  0.99254605  0.74578306  1
  O  O275  1  0.37128814  0.01214259  0.25214916  1
  O  O276  1  0.37117727  0.00801210  0.75567447  1
  O  O277  1  0.35410331  0.49746590  0.25627253  1
  O  O278  1  0.36829403  0.49635296  0.76020424  1
  O  O279  1  0.86917353  0.00272912  0.25487448  1
  O  O280  1  0.86619334  -0.00657169  0.75896574  1
  O  O281  1  0.87640442  0.51090058  0.26211728  1
  O  O282  1  0.89383788  0.48601504  0.75936480  1
  O  O283  1  0.11438106  0.36506913  0.37982917  1
  O  O284  1  0.13025497  0.37112781  0.86152983  1
  O  O285  1  0.12608521  0.87792442  0.36056470  1
  O  O286  1  0.12462144  0.86859531  0.86420788  1
  O  O287  1  0.65461685  0.37292409  0.33838851  1
  O  O288  1  0.62416802  0.37116871  0.86609539  1
  O  O289  1  0.61429315  0.87161354  0.37074888  1
  O  O290  1  0.61874613  0.87528043  0.87073840  1
  O  O291  1  0.37979163  0.12781714  0.13029838  1
  O  O292  1  0.37448781  0.13783763  0.64015503  1
  O  O293  1  0.37924387  0.62532595  0.13482426  1
  O  O294  1  0.39214642  0.63536576  0.58777777  1
  O  O295  1  0.88151877  0.12583427  0.13632901  1
  O  O296  1  0.88552416  0.12164437  0.62291083  1
  O  O297  1  0.88484808  0.61778154  0.13678965  1
  O  O298  1  0.88179373  0.62892121  0.63128458  1
  O  O299  1  0.24948512  0.25383932  0.11332430  1
  O  O300  1  0.25696282  0.25800537  0.62382985  1
  O  O301  1  0.24323658  0.75957884  0.11643538  1
  O  O302  1  0.25242235  0.74988719  0.61130256  1
  O  O303  1  0.75043057  0.25867074  0.12000228  1
  O  O304  1  0.74670672  0.25574885  0.61312654  1
  O  O305  1  0.76282049  0.75733292  0.17446059  1
  O  O306  1  0.75139847  0.75348582  0.61905816  1
  O  O307  1  0.24326812  0.24151316  0.37742315  1
  O  O308  1  0.24432299  0.25357523  0.88306756  1
  O  O309  1  0.24321927  0.73591815  0.37838080  1
  O  O310  1  0.24761555  0.74555295  0.87723351  1
  O  O311  1  0.73363437  0.24946263  0.39050914  1
  O  O312  1  0.74497198  0.24288882  0.88324347  1
  O  O313  1  0.74454492  0.74712750  0.38136018  1
  O  O314  1  0.75158736  0.73699935  0.87296401  1
  O  O315  1  0.00426039  0.11923408  0.00621637  1
  O  O316  1  0.00263809  0.11782982  0.50737882  1
  O  O317  1  -0.00558419  0.61760282  0.00741714  1
  O  O318  1  0.00001864  0.62339490  0.51224355  1
  O  O319  1  0.50600107  0.11996001  0.00475447  1
  O  O320  1  0.51203599  0.11450404  0.50161933  1
  O  O321  1  0.51406286  0.62334673  0.00042149  1
  O  O322  1  0.52073795  0.60656225  0.47382129  1
  O  O323  1  0.58437678  0.35893465  0.45979020  1
  O  O324  1  0.50216519  0.37324882  0.98552341  1
  O  O325  1  0.50336986  0.88431588  0.49339737  1
  O  O326  1  0.49349455  0.87740333  0.99732332  1
  O  O327  1  0.99060981  0.37308091  0.48996843  1
  O  O328  1  0.99026821  0.38254505  0.99734213  1
  O  O329  1  0.99525738  0.88906144  0.50887028  1
  O  O330  1  0.99457116  0.88506980  0.99825183  1
  O  O331  1  0.47444185  0.49022818  0.36701820  1
  O  O332  1  0.49358474  0.49344452  0.87601725  1
  O  O333  1  0.49526495  0.99221776  0.38741390  1
  O  O334  1  0.49281061  0.99145172  0.87978751  1
  O  O335  1  0.99404155  0.49257398  0.37645592  1
  O  O336  1  1.00992127  0.50357085  0.88107383  1
  O  O337  1  0.99121334  1.00532686  0.38642778  1
  O  O338  1  0.99267321  1.00021620  0.88099397  1
  O  O339  1  -0.00028417  0.01033758  0.11723708  1
  O  O340  1  0.00499756  0.00895669  0.62045833  1
  O  O341  1  0.00639834  0.50733894  0.11981405  1
  O  O342  1  0.00897905  0.50760378  0.62283560  1
  O  O343  1  0.49985733  0.01143934  0.11915939  1
  O  O344  1  0.50982238  -0.00601421  0.62099151  1
  O  O345  1  0.49428314  0.49722853  0.11968173  1
  O  O346  1  0.50765376  0.47398239  0.59782346  1
  O  O347  1  0.24539198  0.37924894  0.23664036  1
  O  O348  1  0.24336905  0.38428775  0.74248314  1
  O  O349  1  0.23850350  0.87195996  0.24474118  1
  O  O350  1  0.24444944  0.88815944  0.75140567  1
  O  O351  1  0.76799193  0.38146397  0.23085152  1
  O  O352  1  0.73919664  0.37141397  0.74373341  1
  O  O353  1  0.73110251  0.88747440  0.26168462  1
  O  O354  1  0.74301668  0.88448866  0.74930066  1
  O  O355  1  0.25430908  0.12229407  0.25690878  1
  O  O356  1  0.25737529  0.11475838  0.74929633  1
  O  O357  1  0.24571935  0.61737064  0.25978418  1
  O  O358  1  0.24901039  0.61433572  0.75336358  1
  O  O359  1  0.75694607  0.11894055  0.25234210  1
  O  O360  1  0.74431076  0.11181794  0.75421749  1
  O  O361  1  0.76142492  0.62284746  0.26079970  1
  O  O362  1  0.75104407  0.62513289  0.75744181  1
  O  O363  1  0.36706529  0.12732148  0.36836128  1
  O  O364  1  0.38195798  0.11644872  0.86264836  1
  O  O365  1  0.35403044  0.61017119  0.37415303  1
  O  O366  1  0.36560463  0.61977156  0.87709858  1
  O  O367  1  0.87396425  0.11514609  0.36379958  1
  O  O368  1  0.86794377  0.11178198  0.88078532  1
  O  O369  1  0.86851677  0.61874411  0.37015538  1
  O  O370  1  0.86343046  0.62710525  0.86620392  1
  O  O371  1  0.13197143  0.38029357  0.11804720  1
  O  O372  1  0.12858566  0.38086699  0.63631884  1
  O  O373  1  0.13141258  0.87713839  0.13235290  1
  O  O374  1  0.12812439  0.88334310  0.63800616  1
  O  O375  1  0.63959471  0.37382597  0.13132130  1
  O  O376  1  0.63602466  0.37166559  0.64223341  1
  O  O377  1  0.62706940  0.87616222  0.13503397  1
  O  O378  1  0.63168924  0.88392440  0.63404557  1
  O  O379  1  0.12263974  0.24399096  0.26110121  1
  O  O380  1  0.12010405  0.25829195  0.75433741  1
  O  O381  1  0.11372700  0.75920187  0.24842641  1
  O  O382  1  0.12044044  0.75768966  0.75466147  1
  O  O383  1  0.62101876  0.24005527  0.27865107  1
  O  O384  1  0.61948246  0.25136536  0.75489752  1
  O  O385  1  0.61361356  0.75883290  0.26439607  1
  O  O386  1  0.61992442  0.76353358  0.75209016  1
  O  O387  1  0.37258298  0.23576707  0.24011254  1
  O  O388  1  0.38344248  0.24559875  0.74507093  1
  O  O389  1  0.38690063  0.75348335  0.25856019  1
  O  O390  1  0.39050608  0.74850939  0.75434021  1
  O  O391  1  0.87452618  0.23952029  0.25266404  1
  O  O392  1  0.88906211  0.25495808  0.75648534  1
  O  O393  1  0.89698701  0.73978306  0.26117551  1
  O  O394  1  0.88999884  0.75919400  0.74485596  1
  O  O395  1  0.36120263  0.49217724  0.48519123  1
  O  O396  1  0.37154879  0.49572940  0.98384608  1
  O  O397  1  0.38629067  1.00929855  0.50507137  1
  O  O398  1  0.37980320  0.99501714  0.99255325  1
  O  O399  1  0.87770503  0.49190441  0.48889030  1
  O  O400  1  0.88934583  0.49293626  1.00091007  1
  O  O401  1  0.88015413  0.99472549  0.49226640  1
  O  O402  1  0.88503717  0.99728862  0.99469426  1
  O  O403  1  0.11467117  0.00496892  -0.00244490  1
  O  O404  1  0.11623634  0.00644492  0.50444557  1
  O  O405  1  0.11279938  0.49515416  0.00898704  1
  O  O406  1  0.12343029  0.49840107  0.51408707  1
  O  O407  1  0.61910787  0.00587285  0.00241019  1
  O  O408  1  0.61986625  0.00267440  0.50992603  1
  O  O409  1  0.62511325  0.51913197  -0.00610320  1
  O  O410  1  0.64330241  0.51208125  0.51142891  1
  O  O411  1  0.35654904  0.36480447  0.11692885  1
  O  O412  1  0.36430835  0.36753667  0.63542155  1
  O  O413  1  0.36849013  0.88007435  0.11428412  1
  O  O414  1  0.37235336  0.86128781  0.63027282  1
  O  O415  1  0.87090729  0.37289422  0.11351050  1
  O  O416  1  0.86957875  0.36792931  0.60739202  1
  O  O417  1  0.87477252  0.88029594  0.10992513  1
  O  O418  1  0.86841989  0.86906524  0.61957358  1
  O  O419  1  0.13046856  0.13114120  0.38038715  1
  O  O420  1  0.12311491  0.12974240  0.88684780  1
  O  O421  1  0.13755842  0.61206986  0.37686979  1
  O  O422  1  0.14198848  0.63635821  0.87003752  1
  O  O423  1  0.62853090  0.10733917  0.39194415  1
  O  O424  1  0.63076568  0.12961873  0.88244981  1
  O  O425  1  0.64059892  0.64045521  0.37384868  1
  O  O426  1  0.63867878  0.63343640  0.88341077  1
