# generated using pymatgen
data_V85Zn86O256
_symmetry_space_group_name_H-M   'P 1'
_cell_length_a   16.93075810
_cell_length_b   16.93819327
_cell_length_c   16.93912776
_cell_angle_alpha   90.05327458
_cell_angle_beta   90.04021655
_cell_angle_gamma   90.04177841
_symmetry_Int_Tables_number   1
_chemical_formula_structural   V85Zn86O256
_chemical_formula_sum   'V85 Zn86 O256'
_cell_volume   4857.73838494
_cell_formula_units_Z   1
loop_
 _symmetry_equiv_pos_site_id
 _symmetry_equiv_pos_as_xyz
  1  'x, y, z'
loop_
 _atom_site_type_symbol
 _atom_site_label
 _atom_site_symmetry_multiplicity
 _atom_site_fract_x
 _atom_site_fract_y
 _atom_site_fract_z
 _atom_site_occupancy
  V  V0  1  0.87558171  0.12648938  0.25148822  1
  V  V1  1  0.00152108  0.73789394  0.74775764  1
  V  V2  1  0.12744920  0.37528445  0.25176696  1
  V  V3  1  0.75051501  0.88203825  0.63111891  1
  V  V4  1  0.61690943  0.24888054  0.87128671  1
  V  V5  1  0.50232185  0.87750462  0.38096184  1
  V  V6  1  0.73841213  0.25112201  0.49811294  1
  V  V7  1  0.48672412  0.87958312  0.87594065  1
  V  V8  1  0.25896064  0.61115913  0.87424507  1
  V  V9  1  0.13389828  0.74987205  0.37626436  1
  V  V10  1  0.12453396  0.49863157  0.12366523  1
  V  V11  1  0.38580853  0.49871296  0.38714659  1
  V  V12  1  0.87658114  0.87490953  0.50091252  1
  V  V13  1  0.00031430  0.87399422  0.87422927  1
  V  V14  1  0.25431387  0.62572486  0.37883599  1
  V  V15  1  0.25367664  0.13628776  0.87449840  1
  V  V16  1  0.12429346  0.87530581  0.75070806  1
  V  V17  1  0.00159867  0.12543897  0.12576693  1
  V  V18  1  0.38462404  0.62259012  0.24700663  1
  V  V19  1  0.25547897  0.00060476  0.75776908  1
  V  V20  1  0.38341517  0.24682111  0.13806010  1
  V  V21  1  0.74547424  0.49672411  0.24881409  1
  V  V22  1  0.61946637  0.61912479  0.50327638  1
  V  V23  1  0.00322083  0.00102391  -0.00083422  1
  V  V24  1  0.37822491  0.26269476  0.62916310  1
  V  V25  1  0.00023020  0.38007719  0.37489331  1
  V  V26  1  0.38300669  0.74666997  0.12296257  1
  V  V27  1  0.87192736  0.00001384  0.87238974  1
  V  V28  1  0.12553156  0.61942308  -0.00179499  1
  V  V29  1  0.61213392  0.36477524  0.24755050  1
  V  V30  1  0.74738812  0.73670652  -0.00281552  1
  V  V31  1  0.62694998  0.74060888  0.87694785  1
  V  V32  1  0.62426422  0.37073081  0.74479774  1
  V  V33  1  0.62800394  0.88217500  0.75751426  1
  V  V34  1  0.37423352  0.36771197  -0.00449803  1
  V  V35  1  0.05195719  0.45746963  0.55690652  1
  V  V36  1  0.50137386  0.36729992  0.38618097  1
  V  V37  1  0.25762583  0.26358578  0.50487136  1
  V  V38  1  0.62013022  0.12091472  0.00281690  1
  V  V39  1  0.12858537  0.87564307  0.24750722  1
  V  V40  1  0.00060592  0.00107878  0.49952716  1
  V  V41  1  0.49661103  0.37527229  0.87197065  1
  V  V42  1  0.74122426  0.12776928  0.37398134  1
  V  V43  1  0.12839662  0.13608618  -0.00260801  1
  V  V44  1  0.12643926  0.00041568  0.62722367  1
  V  V45  1  0.87563857  0.87372825  -0.00014041  1
  V  V46  1  0.87373428  0.25074488  0.12617464  1
  V  V47  1  0.86127007  0.62647327  0.75644243  1
  V  V48  1  0.87008619  0.12004971  0.74792455  1
  V  V49  1  0.75258279  0.62504657  0.37583865  1
  V  V50  1  -0.00273233  0.12303980  0.62592011  1
  V  V51  1  0.49466816  0.51009807  -0.00224662  1
  V  V52  1  0.25656878  0.75363929  -0.00278333  1
  V  V53  1  0.11633081  0.63153530  0.50976582  1
  V  V54  1  0.86472341  0.25334122  0.62635127  1
  V  V55  1  0.87719117  0.74845982  0.12323594  1
  V  V56  1  0.87812104  0.62207563  0.24892771  1
  V  V57  1  0.61869427  -0.00208680  0.61953950  1
  V  V58  1  0.00246950  0.87458122  0.37336101  1
  V  V59  1  0.74806310  0.87577594  0.12414616  1
  V  V60  1  0.48334171  -0.00210253  0.00085571  1
  V  V61  1  0.86457057  0.38050571  0.50552082  1
  V  V62  1  0.26019393  0.87608243  0.12170377  1
  V  V63  1  0.25870002  0.00410883  0.25029053  1
  V  V64  1  0.38370261  0.00301894  0.38243466  1
  V  V65  1  0.25625517  0.12724630  0.37363632  1
  V  V66  1  0.88250824  0.37737274  0.00007136  1
  V  V67  1  0.25291568  0.86838644  0.61964926  1
  V  V68  1  0.62491055  0.75065910  0.37226145  1
  V  V69  1  0.74734284  0.25211043  -0.00028858  1
  V  V70  1  0.49408235  0.11984820  0.61528513  1
  V  V71  1  0.24861796  0.49063345  0.72672325  1
  V  V72  1  0.87622112  0.49999839  0.37828616  1
  V  V73  1  0.74674630  0.11995940  0.87049822  1
  V  V74  1  0.00233122  0.62142600  0.12073399  1
  V  V75  1  0.38405682  0.12452228  0.75324938  1
  V  V76  1  0.87794630  0.74374357  0.62538061  1
  V  V77  1  0.74570972  0.49387956  0.75047432  1
  V  V78  1  0.12618792  0.74767682  0.87623610  1
  V  V79  1  0.87566071  0.50360241  0.87992819  1
  V  V80  1  0.61969052  0.51259040  0.11838882  1
  V  V81  1  0.25120816  0.36643108  0.12066576  1
  V  V82  1  0.75251063  0.75049432  0.50021640  1
  V  V83  1  0.87537376  0.00173456  0.37449907  1
  V  V84  1  0.12971304  0.12548407  0.49979258  1
  Zn  Zn85  1  0.12306590  0.25553623  0.86755812  1
  Zn  Zn86  1  0.49613384  0.61918760  0.62872058  1
  Zn  Zn87  1  0.00321237  0.74893161  0.24821620  1
  Zn  Zn88  1  0.00139710  0.37658125  0.87231863  1
  Zn  Zn89  1  0.50302489  0.75067253  0.24519468  1
  Zn  Zn90  1  0.37720083  0.87106096  0.49971805  1
  Zn  Zn91  1  0.62186173  -0.00133990  0.12566219  1
  Zn  Zn92  1  0.61702819  0.12188483  0.49421092  1
  Zn  Zn93  1  0.74545980  0.37474125  0.12425392  1
  Zn  Zn94  1  0.37899432  0.74291103  0.61860038  1
  Zn  Zn95  1  0.25598391  0.50017835  0.24874937  1
  Zn  Zn96  1  0.49691370  0.74813106  0.74670013  1
  Zn  Zn97  1  0.12753006  0.25370064  0.37719447  1
  Zn  Zn98  1  -0.00045482  0.25379030  0.75128976  1
  Zn  Zn99  1  0.62362018  0.87707330  0.24848382  1
  Zn  Zn100  1  0.74978685  0.00035269  0.24659702  1
  Zn  Zn101  1  0.37655312  0.62225719  0.74751965  1
  Zn  Zn102  1  0.12918993  0.00127080  0.12365608  1
  Zn  Zn103  1  0.00087531  0.25002037  0.25419433  1
  Zn  Zn104  1  0.62432063  0.48895698  0.61910456  1
  Zn  Zn105  1  0.12185642  0.37937554  0.74660802  1
  Zn  Zn106  1  0.49447471  0.12528570  0.13669655  1
  Zn  Zn107  1  0.18855839  0.18954267  0.18785986  1
  Zn  Zn108  1  0.19169815  0.19162581  0.68880514  1
  Zn  Zn109  1  0.19548966  0.68793377  0.18960324  1
  Zn  Zn110  1  0.19043307  0.68417046  0.69084157  1
  Zn  Zn111  1  0.68543169  0.18595094  0.18653250  1
  Zn  Zn112  1  0.68307464  0.18443875  0.68730457  1
  Zn  Zn113  1  0.69024548  0.68720658  0.18658741  1
  Zn  Zn114  1  0.68444060  0.69388766  0.68886450  1
  Zn  Zn115  1  0.31547812  0.31724976  0.31570889  1
  Zn  Zn116  1  0.31156817  0.31743956  0.80637827  1
  Zn  Zn117  1  0.31754708  0.81318077  0.31162706  1
  Zn  Zn118  1  0.31202207  0.80705804  0.80618248  1
  Zn  Zn119  1  0.80952578  0.31263698  0.31462585  1
  Zn  Zn120  1  0.81067851  0.31145729  0.81480451  1
  Zn  Zn121  1  0.81466425  0.81136230  0.30968086  1
  Zn  Zn122  1  0.80949652  0.81154283  0.81349170  1
  Zn  Zn123  1  0.19482997  0.44383816  0.43472080  1
  Zn  Zn124  1  0.18587789  0.43286013  0.93791230  1
  Zn  Zn125  1  0.18998949  0.94025665  0.43632034  1
  Zn  Zn126  1  0.18975910  0.93963359  0.93711591  1
  Zn  Zn127  1  0.68370645  0.43493950  0.43216502  1
  Zn  Zn128  1  0.68751925  0.44003755  0.93342816  1
  Zn  Zn129  1  0.68866176  0.93851656  0.43731748  1
  Zn  Zn130  1  0.68534815  0.93625119  0.94206763  1
  Zn  Zn131  1  0.30965997  0.06756652  0.06191827  1
  Zn  Zn132  1  0.31255201  0.05943018  0.56406630  1
  Zn  Zn133  1  0.31341690  0.55994066  0.06192937  1
  Zn  Zn134  1  0.31070400  0.56695349  0.55928328  1
  Zn  Zn135  1  0.81245783  0.06363218  0.06008497  1
  Zn  Zn136  1  0.80737819  0.06222380  0.56058517  1
  Zn  Zn137  1  0.81072057  0.55869960  0.06400456  1
  Zn  Zn138  1  0.80708887  0.56149837  0.56797934  1
  Zn  Zn139  1  0.43826654  0.43866645  0.18461156  1
  Zn  Zn140  1  0.43931707  0.44997432  0.68948568  1
  Zn  Zn141  1  0.44157737  0.94031100  0.19382259  1
  Zn  Zn142  1  0.43709485  0.93715514  0.69112079  1
  Zn  Zn143  1  0.93835841  0.43700747  0.18642513  1
  Zn  Zn144  1  0.93139483  0.43725477  0.69262787  1
  Zn  Zn145  1  0.93763261  0.93889736  0.18682445  1
  Zn  Zn146  1  0.93735617  0.93583997  0.68916696  1
  Zn  Zn147  1  0.06697679  0.06266975  0.31225728  1
  Zn  Zn148  1  0.06251376  0.06726072  0.81270115  1
  Zn  Zn149  1  0.06454992  0.56177295  0.31253306  1
  Zn  Zn150  1  0.06332095  0.55609835  0.81042909  1
  Zn  Zn151  1  0.56208438  0.06253111  0.30313748  1
  Zn  Zn152  1  0.56039421  0.05753938  0.81150331  1
  Zn  Zn153  1  0.56239112  0.56245006  0.31239581  1
  Zn  Zn154  1  0.55848086  0.55925079  0.81123924  1
  Zn  Zn155  1  0.43577607  0.18954901  0.43590765  1
  Zn  Zn156  1  0.43456585  0.18875675  0.94104561  1
  Zn  Zn157  1  0.43673971  0.69348844  0.44125055  1
  Zn  Zn158  1  0.43886813  0.69212217  0.93386198  1
  Zn  Zn159  1  0.93466016  0.19278398  0.43905917  1
  Zn  Zn160  1  0.93744919  0.18991998  0.93558440  1
  Zn  Zn161  1  0.94296197  0.68910741  0.43554349  1
  Zn  Zn162  1  0.93786357  0.68442296  0.93702888  1
  Zn  Zn163  1  0.06086536  0.31176357  0.06337192  1
  Zn  Zn164  1  0.05956558  0.29507888  0.56468606  1
  Zn  Zn165  1  0.06733714  0.81063766  0.06351007  1
  Zn  Zn166  1  0.06513558  0.81024881  0.56333709  1
  Zn  Zn167  1  0.56020421  0.31577463  0.06181871  1
  Zn  Zn168  1  0.55540129  0.30863396  0.56492626  1
  Zn  Zn169  1  0.56270808  0.81448033  0.05578653  1
  Zn  Zn170  1  0.56207514  0.80818791  0.56208856  1
  O  O171  1  0.12067412  0.12302139  0.11731394  1
  O  O172  1  0.12178191  0.12087341  0.61504296  1
  O  O173  1  0.12278361  0.61906608  0.12135264  1
  O  O174  1  0.12677516  0.63434259  0.60889695  1
  O  O175  1  0.62155534  0.12533786  0.11191679  1
  O  O176  1  0.61300742  0.11522171  0.62701610  1
  O  O177  1  0.62602868  0.61148739  0.12724271  1
  O  O178  1  0.63183552  0.63107701  0.60741752  1
  O  O179  1  0.38797263  0.38910508  0.37019152  1
  O  O180  1  0.38373213  0.36711974  0.88182071  1
  O  O181  1  0.38371085  0.88324124  0.37541003  1
  O  O182  1  0.38844123  0.87057482  0.87141819  1
  O  O183  1  0.88178432  0.37924129  0.38381775  1
  O  O184  1  0.87358574  0.38123623  0.88489927  1
  O  O185  1  0.88169023  0.88009734  0.37933528  1
  O  O186  1  0.87963059  0.87956616  0.88001585  1
  O  O187  1  0.25520267  0.00822089  0.36858366  1
  O  O188  1  0.24370290  0.00768706  0.86213142  1
  O  O189  1  0.26463102  0.50668210  0.36950265  1
  O  O190  1  0.25212605  0.51243732  0.88347431  1
  O  O191  1  0.76111439  0.00730952  0.37508645  1
  O  O192  1  0.75594809  0.01204663  0.88576463  1
  O  O193  1  0.75562312  0.50488794  0.36598867  1
  O  O194  1  0.76052393  0.49868782  0.86450460  1
  O  O195  1  0.23888524  0.49292109  0.12734234  1
  O  O196  1  0.24551473  0.50007311  0.62797151  1
  O  O197  1  0.25115369  0.99446794  0.13195522  1
  O  O198  1  0.24258748  0.99456366  0.63600057  1
  O  O199  1  0.73813270  0.49695582  0.13104934  1
  O  O200  1  0.74337904  0.50253328  0.64359978  1
  O  O201  1  0.75115645  0.98914300  0.12153323  1
  O  O202  1  0.74574650  0.98711683  0.62336649  1
  O  O203  1  0.00684065  0.37370937  0.25829332  1
  O  O204  1  0.00086606  0.37300289  0.75115380  1
  O  O205  1  0.01042127  0.87583893  0.25456769  1
  O  O206  1  0.00464780  0.86714508  0.75722220  1
  O  O207  1  0.50938008  0.37688250  0.25338260  1
  O  O208  1  0.50686443  0.38109242  0.76612903  1
  O  O209  1  0.50349607  0.86993978  0.26188431  1
  O  O210  1  0.50719520  0.87605459  0.76343501  1
  O  O211  1  0.48906319  0.11817748  0.24683821  1
  O  O212  1  0.48799628  0.11978579  0.74464526  1
  O  O213  1  0.48892928  0.63059833  0.25295069  1
  O  O214  1  0.49574982  0.62924170  0.75321121  1
  O  O215  1  0.99622506  0.12671946  0.24517016  1
  O  O216  1  0.98920260  0.12527719  0.74198228  1
  O  O217  1  0.99799914  0.62502939  0.23830222  1
  O  O218  1  0.99082565  0.63542971  0.75485911  1
  O  O219  1  0.37683473  0.26391372  0.00933610  1
  O  O220  1  0.36418668  0.24837931  0.51116293  1
  O  O221  1  0.36331633  0.74593933  0.00586841  1
  O  O222  1  0.37239848  0.75752017  0.50376492  1
  O  O223  1  0.86559597  0.25447739  0.00535837  1
  O  O224  1  0.86634374  0.26070549  0.50694776  1
  O  O225  1  0.86975853  0.75484953  0.00334467  1
  O  O226  1  0.87461551  0.75440593  0.50756732  1
  O  O227  1  0.13774506  0.24169666  0.50008078  1
  O  O228  1  0.12264262  0.23813308  1.00020547  1
  O  O229  1  0.12332702  0.74145988  0.48995037  1
  O  O230  1  0.13521875  0.73872133  0.99824378  1
  O  O231  1  0.63562404  0.24477233  0.50672220  1
  O  O232  1  0.62975208  0.24350465  0.99405993  1
  O  O233  1  0.63447354  0.74314924  0.48818716  1
  O  O234  1  0.63325918  0.75438053  0.98701329  1
  O  O235  1  0.48722256  0.25006701  0.12286284  1
  O  O236  1  0.48443510  0.23832417  0.62281201  1
  O  O237  1  0.48662141  0.75656756  0.12086382  1
  O  O238  1  0.50235978  0.74221817  0.62821200  1
  O  O239  1  0.99207343  0.24200172  0.12737409  1
  O  O240  1  0.98162211  0.23868416  0.62362128  1
  O  O241  1  0.99582979  0.74158816  0.12605921  1
  O  O242  1  0.98985318  0.75841283  0.63635908  1
  O  O243  1  0.00321407  0.26605727  0.37870957  1
  O  O244  1  0.00166825  0.25288305  0.87074619  1
  O  O245  1  0.01294267  0.75732347  0.36957855  1
  O  O246  1  0.00592710  0.75421273  0.86916065  1
  O  O247  1  0.49297668  0.26765304  0.37725746  1
  O  O248  1  0.51063549  0.25609904  0.88216280  1
  O  O249  1  0.51160250  0.75584445  0.37198420  1
  O  O250  1  0.51111006  0.76474017  0.87961675  1
  O  O251  1  0.24357423  0.12828714  0.49388469  1
  O  O252  1  0.23882412  0.11640809  0.98695598  1
  O  O253  1  0.23675188  0.61987507  0.48386112  1
  O  O254  1  0.24487266  0.63082604  0.99192349  1
  O  O255  1  0.75005016  0.13279251  0.49004675  1
  O  O256  1  0.74243861  0.13396991  0.99422148  1
  O  O257  1  0.74931414  0.63378245  0.49316579  1
  O  O258  1  0.75357956  0.63771403  1.00449091  1
  O  O259  1  0.26141714  0.38315456  0.00966776  1
  O  O260  1  0.24644729  0.36138130  0.49640775  1
  O  O261  1  0.24365368  0.86634955  0.00879175  1
  O  O262  1  0.24357301  0.88068940  0.51811854  1
  O  O263  1  0.75261712  0.36185129  -0.00160331  1
  O  O264  1  0.75422760  0.36539713  0.49272635  1
  O  O265  1  0.75714220  0.86808889  0.00886849  1
  O  O266  1  0.75861776  0.86895972  0.50590668  1
  O  O267  1  0.12748595  0.48941116  0.24341083  1
  O  O268  1  0.14199842  0.49989770  0.75213923  1
  O  O269  1  0.13540738  0.98904729  0.25062198  1
  O  O270  1  0.12858091  0.99582040  0.74496834  1
  O  O271  1  0.62919921  0.49632786  0.23963517  1
  O  O272  1  0.63253768  0.48755540  0.75770806  1
  O  O273  1  0.63314316  0.99448418  0.24337708  1
  O  O274  1  0.62355253  0.98888540  0.74072801  1
  O  O275  1  0.36248791  -0.00475865  0.26089416  1
  O  O276  1  0.36530975  0.00971944  0.74817439  1
  O  O277  1  0.37596827  0.50889464  0.25208304  1
  O  O278  1  0.35396922  0.50241843  0.74858320  1
  O  O279  1  0.87438235  0.00926340  0.25590697  1
  O  O280  1  0.87769160  0.01146512  0.75593762  1
  O  O281  1  0.86640720  0.50317347  0.25357681  1
  O  O282  1  0.86574485  0.50970703  0.75576166  1
  O  O283  1  0.11934256  0.37901233  0.36830971  1
  O  O284  1  0.11948547  0.37309442  0.87422595  1
  O  O285  1  0.12475924  0.86919238  0.36863567  1
  O  O286  1  0.12034855  0.86817313  0.87030775  1
  O  O287  1  0.61142655  0.38355316  0.35912062  1
  O  O288  1  0.61887835  0.36436435  0.87143501  1
  O  O289  1  0.62310261  0.86712552  0.37372377  1
  O  O290  1  0.62065864  0.87320842  0.86937248  1
  O  O291  1  0.37151073  0.14451025  0.11786863  1
  O  O292  1  0.38083963  0.12468320  0.63163827  1
  O  O293  1  0.36612636  0.63426827  0.13449303  1
  O  O294  1  0.37563052  0.62552821  0.62685499  1
  O  O295  1  0.88046707  0.12941107  0.13129952  1
  O  O296  1  0.87482329  0.12676178  0.63214260  1
  O  O297  1  0.88519438  0.62515580  0.12785997  1
  O  O298  1  0.86875577  0.63925834  0.63290649  1
  O  O299  1  0.25519153  0.26215037  0.12612840  1
  O  O300  1  0.26188047  0.24564634  0.61197435  1
  O  O301  1  0.25712838  0.75727780  0.11688034  1
  O  O302  1  0.24521346  0.76759794  0.63186851  1
  O  O303  1  0.75531983  0.25032451  0.11623368  1
  O  O304  1  0.75902368  0.24015171  0.61587909  1
  O  O305  1  0.75723270  0.75475337  0.11760581  1
  O  O306  1  0.75719029  0.76144469  0.62021954  1
  O  O307  1  0.25274748  0.24446440  0.38610293  1
  O  O308  1  0.24689602  0.23901220  0.86847887  1
  O  O309  1  0.24075141  0.74479399  0.36950883  1
  O  O310  1  0.24314164  0.74550025  0.88152104  1
  O  O311  1  0.75471443  0.23933936  0.38480004  1
  O  O312  1  0.74229055  0.23868128  0.88267612  1
  O  O313  1  0.74756002  0.74555116  0.37971135  1
  O  O314  1  0.73735465  0.75502149  0.88347761  1
  O  O315  1  0.00513412  0.11760569  0.00431894  1
  O  O316  1  0.00740206  0.12233188  0.50417659  1
  O  O317  1  0.00969590  0.62965941  0.01233083  1
  O  O318  1  0.01663087  0.62481200  0.49401807  1
  O  O319  1  0.50412499  0.11273755  0.00047114  1
  O  O320  1  0.49891754  0.12563538  0.51007466  1
  O  O321  1  0.49342842  0.60916048  -0.00621575  1
  O  O322  1  0.51896003  0.62712092  0.49374884  1
  O  O323  1  0.51247481  0.37794171  0.48498990  1
  O  O324  1  0.49317438  0.38078219  0.99182028  1
  O  O325  1  0.50405322  0.87288667  0.48535389  1
  O  O326  1  0.50116460  0.88830794  0.98887190  1
  O  O327  1  0.99522559  0.38396432  0.49801972  1
  O  O328  1  0.98512634  0.37262209  1.00191999  1
  O  O329  1  0.99618503  0.87972762  0.49398278  1
  O  O330  1  0.99801270  0.88099146  0.99518358  1
  O  O331  1  0.49027787  0.49527009  0.37218649  1
  O  O332  1  0.50871103  0.48972681  0.89143661  1
  O  O333  1  0.49251285  0.99281962  0.37328277  1
  O  O334  1  0.50097955  0.98856492  0.88487356  1
  O  O335  1  0.99213638  0.48944620  0.37012857  1
  O  O336  1  0.98121070  0.50020208  0.87084304  1
  O  O337  1  0.99611815  0.99502179  0.38010417  1
  O  O338  1  0.99429809  0.99580675  0.88135274  1
  O  O339  1  0.00256688  0.00657682  0.11617457  1
  O  O340  1  0.00564985  0.00347101  0.61933296  1
  O  O341  1  0.01440031  0.50580529  0.12818362  1
  O  O342  1  -0.00876766  0.50667364  0.61772057  1
  O  O343  1  0.49848915  -0.00188053  0.11101924  1
  O  O344  1  0.50685347  0.00525288  0.62738101  1
  O  O345  1  0.51153811  0.49730552  0.11305977  1
  O  O346  1  0.51340434  0.50560061  0.62906522  1
  O  O347  1  0.24251507  0.37774252  0.24338549  1
  O  O348  1  0.24443739  0.38643696  0.74440464  1
  O  O349  1  0.24539710  0.88189792  0.24336463  1
  O  O350  1  0.24305725  0.88319014  0.74518578  1
  O  O351  1  0.74181628  0.38635485  0.25216625  1
  O  O352  1  0.73925144  0.38136163  0.75628124  1
  O  O353  1  0.75517148  0.87410381  0.23380018  1
  O  O354  1  0.74266261  0.87254634  0.74220271  1
  O  O355  1  0.24119044  0.11673196  0.26132682  1
  O  O356  1  0.25677224  0.11789217  0.75611084  1
  O  O357  1  0.25893619  0.62362679  0.26193408  1
  O  O358  1  0.24696521  0.61694552  0.76409764  1
  O  O359  1  0.75754221  0.12568403  0.25695131  1
  O  O360  1  0.75452012  0.12494731  0.76067476  1
  O  O361  1  0.75600012  0.61399248  0.25402092  1
  O  O362  1  0.75742882  0.62357634  0.74959758  1
  O  O363  1  0.36366944  0.11804601  0.38096613  1
  O  O364  1  0.36789790  0.13160739  0.86587449  1
  O  O365  1  0.37230533  0.61795228  0.36972408  1
  O  O366  1  0.35992044  0.62990141  0.87559866  1
  O  O367  1  0.87146219  0.12119544  0.36941439  1
  O  O368  1  0.86559138  0.12154626  0.86807739  1
  O  O369  1  0.87306854  0.62036319  0.36950509  1
  O  O370  1  0.87421811  0.61917432  0.86783914  1
  O  O371  1  0.12999248  0.38009385  0.12908429  1
  O  O372  1  0.10556098  0.39054195  0.61166448  1
  O  O373  1  0.13534878  0.87674624  0.13272410  1
  O  O374  1  0.13089219  0.88071850  0.63190125  1
  O  O375  1  0.62483509  0.38273741  0.13541831  1
  O  O376  1  0.61978717  0.36688734  0.64140425  1
  O  O377  1  0.63540890  0.87299759  0.12449891  1
  O  O378  1  0.63152423  0.87931408  0.63190506  1
  O  O379  1  0.12367096  0.26317010  0.25329696  1
  O  O380  1  0.12002030  0.25661644  0.74387120  1
  O  O381  1  0.12766797  0.76186427  0.25453298  1
  O  O382  1  0.11708936  0.75265405  0.75530393  1
  O  O383  1  0.63026317  0.26717836  0.24654983  1
  O  O384  1  0.63003731  0.25453269  0.76254019  1
  O  O385  1  0.62873757  0.74962544  0.26156986  1
  O  O386  1  0.62494236  0.76246973  0.76247241  1
  O  O387  1  0.37068927  0.25550363  0.23621636  1
  O  O388  1  0.36538722  0.23944478  0.73456108  1
  O  O389  1  0.37522527  0.74195017  0.24013664  1
  O  O390  1  0.37705565  0.74536636  0.74087444  1
  O  O391  1  0.87616194  0.24378403  0.24509161  1
  O  O392  1  0.87005969  0.23848149  0.74244945  1
  O  O393  1  0.87801688  0.73967210  0.24174106  1
  O  O394  1  0.87965163  0.74445490  0.74617277  1
  O  O395  1  0.37462841  0.50288702  0.48480654  1
  O  O396  1  0.38965648  0.48891707  1.00940920  1
  O  O397  1  0.36697066  0.99291017  0.48587244  1
  O  O398  1  0.38479271  1.00316383  0.99956614  1
  O  O399  1  0.86382163  0.48873520  0.49598707  1
  O  O400  1  0.86632185  0.48919996  0.99327983  1
  O  O401  1  0.88169738  0.99502839  0.49526482  1
  O  O402  1  0.88664250  0.99632750  0.99426284  1
  O  O403  1  0.11344439  0.00565583  -0.00092043  1
  O  O404  1  0.12006604  0.00747459  0.50437840  1
  O  O405  1  0.12857108  0.51245739  0.00789313  1
  O  O406  1  0.12054781  0.51068760  0.49704354  1
  O  O407  1  0.61697843  0.00870672  0.00245043  1
  O  O408  1  0.63153813  0.00166877  0.51527777  1
  O  O409  1  0.61791982  0.49437204  0.01218954  1
  O  O410  1  0.63908888  0.51623604  0.50023526  1
  O  O411  1  0.36879735  0.36780151  0.12037501  1
  O  O412  1  0.38414104  0.36051562  0.63272659  1
  O  O413  1  0.36401805  0.86832744  0.13175886  1
  O  O414  1  0.35996233  0.88031235  0.62486457  1
  O  O415  1  0.86962742  0.37019459  0.11878560  1
  O  O416  1  0.87349685  0.36581986  0.61693348  1
  O  O417  1  0.87281482  0.86851646  0.11774526  1
  O  O418  1  0.86874169  0.86826163  0.62228469  1
  O  O419  1  0.13271722  0.12723217  0.38616410  1
  O  O420  1  0.13182019  0.12844354  0.88167148  1
  O  O421  1  0.13247465  0.63318994  0.37526763  1
  O  O422  1  0.13027125  0.62829516  0.88342033  1
  O  O423  1  0.63840661  0.11592917  0.37610494  1
  O  O424  1  0.62799859  0.12828359  0.88192195  1
  O  O425  1  0.63343167  0.63042314  0.38099474  1
  O  O426  1  0.62163652  0.64272976  0.87153177  1
