# generated using pymatgen
data_V85Zn86O256
_symmetry_space_group_name_H-M   'P 1'
_cell_length_a   16.93613882
_cell_length_b   16.92410396
_cell_length_c   16.92890745
_cell_angle_alpha   90.03879488
_cell_angle_beta   89.99584780
_cell_angle_gamma   90.02297132
_symmetry_Int_Tables_number   1
_chemical_formula_structural   V85Zn86O256
_chemical_formula_sum   'V85 Zn86 O256'
_cell_volume   4852.31386046
_cell_formula_units_Z   1
loop_
 _symmetry_equiv_pos_site_id
 _symmetry_equiv_pos_as_xyz
  1  'x, y, z'
loop_
 _atom_site_type_symbol
 _atom_site_label
 _atom_site_symmetry_multiplicity
 _atom_site_fract_x
 _atom_site_fract_y
 _atom_site_fract_z
 _atom_site_occupancy
  V  V0  1  0.75012382  0.87931036  0.12548914  1
  V  V1  1  0.24841880  0.37894079  0.62349422  1
  V  V2  1  0.62848162  0.49776438  0.14697364  1
  V  V3  1  0.23553205  0.74883066  0.49658750  1
  V  V4  1  0.74903084  0.37780433  0.14388757  1
  V  V5  1  0.74693036  0.00920004  0.28214926  1
  V  V6  1  0.37675988  0.23980771  0.13150905  1
  V  V7  1  0.75213748  0.12165079  0.85983231  1
  V  V8  1  0.62548889  0.24883295  0.87641466  1
  V  V9  1  0.87049594  0.00080355  0.85661502  1
  V  V10  1  0.87438678  0.37705530  0.00230541  1
  V  V11  1  0.74831224  0.49985358  0.73773684  1
  V  V12  1  0.24885815  0.25635582  -0.00633640  1
  V  V13  1  0.37333130  0.49589585  0.87899516  1
  V  V14  1  0.87333366  0.75051202  0.12787331  1
  V  V15  1  0.25134146  0.00584412  0.24627441  1
  V  V16  1  0.49938836  0.12242457  0.62253689  1
  V  V17  1  0.37341833  0.62761161  0.25302492  1
  V  V18  1  -0.00285184  0.00180875  -0.00482490  1
  V  V19  1  0.37659693  0.87197818  0.49374651  1
  V  V20  1  0.87523735  0.49972009  0.87733027  1
  V  V21  1  0.36542965  0.00016266  0.87111471  1
  V  V22  1  0.39225215  0.37942812  0.49976479  1
  V  V23  1  0.61479823  0.62325770  0.50077157  1
  V  V24  1  0.74904106  0.25010633  0.00114406  1
  V  V25  1  0.63273815  0.87704717  0.75142326  1
  V  V26  1  -0.00956000  0.50108108  0.49313447  1
  V  V27  1  0.87462938  0.87831706  0.49227491  1
  V  V28  1  0.00186453  0.62668332  0.12067779  1
  V  V29  1  0.24743051  0.50752559  0.75119323  1
  V  V30  1  0.25319904  0.25479762  0.49886696  1
  V  V31  1  0.25326389  0.49906193  0.25570747  1
  V  V32  1  0.23734431  0.62766222  0.37668008  1
  V  V33  1  0.62530784  0.37629763  0.75019733  1
  V  V34  1  0.74890272  0.62392025  0.87535891  1
  V  V35  1  0.26123805  0.37515840  0.12309874  1
  V  V36  1  0.23985860  0.12893369  0.87151473  1
  V  V37  1  0.49755397  0.24955071  0.75358856  1
  V  V38  1  -0.00606094  0.25221451  0.75515072  1
  V  V39  1  0.87301843  0.87555012  -0.00219935  1
  V  V40  1  0.61486394  0.75661741  0.37592393  1
  V  V41  1  0.12500588  0.50437047  0.61399896  1
  V  V42  1  0.49539661  0.00613894  0.00095472  1
  V  V43  1  0.88367370  0.62756421  0.75144814  1
  V  V44  1  -0.00020095  0.75109820  0.25937352  1
  V  V45  1  0.36998708  0.86779061  -0.00103266  1
  V  V46  1  0.62318809  0.74834774  0.87614222  1
  V  V47  1  0.12745733  0.50585410  0.12145036  1
  V  V48  1  0.62398796  0.62093376  0.00224046  1
  V  V49  1  -0.00154524  0.87008700  0.86438023  1
  V  V50  1  0.49788866  0.87604226  0.87601117  1
  V  V51  1  0.13224541  0.00186833  0.63370988  1
  V  V52  1  0.36750304  0.12299037  0.75001820  1
  V  V53  1  0.87281944  0.24779700  0.12503240  1
  V  V54  1  0.87408509  0.11784666  0.26275597  1
  V  V55  1  0.49837034  0.74983217  0.74812704  1
  V  V56  1  0.74845089  0.75006706  0.50001046  1
  V  V57  1  0.87713410  0.75000891  0.62765572  1
  V  V58  1  0.62802890  0.00022507  0.62929686  1
  V  V59  1  0.62676580  0.00192209  0.12282917  1
  V  V60  1  0.86950626  0.61725898  0.25310671  1
  V  V61  1  0.12660391  0.37420051  0.24990064  1
  V  V62  1  0.62513438  0.12637137  -0.00087175  1
  V  V63  1  0.25622713  0.12656506  0.37155184  1
  V  V64  1  0.00195866  0.24751813  0.24894549  1
  V  V65  1  -0.00866170  0.13136161  0.62918106  1
  V  V66  1  0.24681446  0.86862167  0.11944500  1
  V  V67  1  0.12892440  0.12170468  0.50245406  1
  V  V68  1  0.61783705  0.87777460  0.25238154  1
  V  V69  1  0.49840601  0.49143036  0.00288424  1
  V  V70  1  0.39436709  0.49990177  0.38026934  1
  V  V71  1  0.12584875  0.86788290  0.25547037  1
  V  V72  1  0.38031987  -0.00235883  0.36848207  1
  V  V73  1  0.13356202  0.86949626  0.75231204  1
  V  V74  1  0.50032377  0.62641933  0.13289980  1
  V  V75  1  -0.00215725  0.12421373  0.12386740  1
  V  V76  1  0.74679954  0.62330570  0.37395576  1
  V  V77  1  0.78800507  0.24777719  0.51062741  1
  V  V78  1  -0.00604023  0.37463999  0.37817286  1
  V  V79  1  0.12504609  0.74037666  0.88447672  1
  V  V80  1  0.50011669  -0.00099803  0.49843131  1
  V  V81  1  0.12298730  0.00158569  0.12309706  1
  V  V82  1  0.55733686  0.29798738  0.30247852  1
  V  V83  1  0.00312442  0.62627999  0.61887645  1
  V  V84  1  0.37181566  0.74868504  0.62322114  1
  Zn  Zn85  1  0.25175368  0.87812650  0.62595627  1
  Zn  Zn86  1  0.25215880  0.62702811  0.89259809  1
  Zn  Zn87  1  0.12881829  0.24953839  0.37343092  1
  Zn  Zn88  1  -0.00259777  0.00304178  0.49657481  1
  Zn  Zn89  1  0.49437670  0.12811153  0.15047775  1
  Zn  Zn90  1  0.49367337  0.75934986  0.25022915  1
  Zn  Zn91  1  0.11951145  0.13412891  -0.00700397  1
  Zn  Zn92  1  0.37007062  0.74606419  0.12208154  1
  Zn  Zn93  1  0.76071220  0.36353068  0.62522162  1
  Zn  Zn94  1  0.00558449  0.36778041  0.88104251  1
  Zn  Zn95  1  0.49757729  0.61843606  0.62352255  1
  Zn  Zn96  1  0.60932315  0.47778669  0.59858263  1
  Zn  Zn97  1  0.49409808  0.37098458  0.88138828  1
  Zn  Zn98  1  0.37321701  0.62598257  0.75257322  1
  Zn  Zn99  1  0.74835051  0.74921624  0.00164160  1
  Zn  Zn100  1  0.12551138  0.37270879  0.75829940  1
  Zn  Zn101  1  0.75375796  0.87894726  0.62785895  1
  Zn  Zn102  1  0.00394039  0.88014055  0.37827007  1
  Zn  Zn103  1  0.67281751  0.15196935  0.43441305  1
  Zn  Zn104  1  0.37358345  0.25203423  0.62626434  1
  Zn  Zn105  1  0.84667644  0.48010675  0.37126264  1
  Zn  Zn106  1  0.00485577  0.50190921  -0.00164177  1
  Zn  Zn107  1  0.18809444  0.18815647  0.18253128  1
  Zn  Zn108  1  0.18283428  0.19461710  0.68894637  1
  Zn  Zn109  1  0.18282153  0.68753562  0.06382423  1
  Zn  Zn110  1  0.18419799  0.69065854  0.68880175  1
  Zn  Zn111  1  0.67910354  0.18355252  0.19526614  1
  Zn  Zn112  1  0.68718293  0.18884615  0.67883810  1
  Zn  Zn113  1  0.68519859  0.69020047  0.18995082  1
  Zn  Zn114  1  0.68968034  0.68705135  0.68584858  1
  Zn  Zn115  1  0.32185375  0.31528818  0.31350230  1
  Zn  Zn116  1  0.30982481  0.31611753  0.81121812  1
  Zn  Zn117  1  0.30763661  0.81222300  0.31241245  1
  Zn  Zn118  1  0.30816915  0.80803262  0.81562075  1
  Zn  Zn119  1  0.81000655  0.29674183  0.31525045  1
  Zn  Zn120  1  0.81597269  0.31067391  0.81075488  1
  Zn  Zn121  1  0.80577418  0.81529658  0.31307503  1
  Zn  Zn122  1  0.81205973  0.80915504  0.81309219  1
  Zn  Zn123  1  0.18697009  0.44002548  0.43589243  1
  Zn  Zn124  1  0.18894029  0.43793155  0.93875718  1
  Zn  Zn125  1  0.19019768  0.93854629  0.43681980  1
  Zn  Zn126  1  0.18480447  0.93934969  0.93528761  1
  Zn  Zn127  1  0.67117910  0.32900777  0.43255425  1
  Zn  Zn128  1  0.68783781  0.43665840  0.93802097  1
  Zn  Zn129  1  0.68202328  0.95173791  0.43372249  1
  Zn  Zn130  1  0.68852074  0.93864313  0.93629777  1
  Zn  Zn131  1  0.30920816  0.06557163  0.05796391  1
  Zn  Zn132  1  0.31308828  0.06093830  0.56197026  1
  Zn  Zn133  1  0.31707638  0.55729499  0.06510381  1
  Zn  Zn134  1  0.31318926  0.56631404  0.55787588  1
  Zn  Zn135  1  0.81318230  0.06385130  0.05842744  1
  Zn  Zn136  1  0.81209873  0.05967558  0.56557794  1
  Zn  Zn137  1  0.80949408  0.56127694  0.06662470  1
  Zn  Zn138  1  0.82077710  0.53834885  0.57315308  1
  Zn  Zn139  1  0.44252070  0.43613123  0.19295367  1
  Zn  Zn140  1  0.43580534  0.43916946  0.68830335  1
  Zn  Zn141  1  0.43499064  0.94083219  0.18269566  1
  Zn  Zn142  1  0.43597894  0.93486535  0.68772706  1
  Zn  Zn143  1  0.93808229  0.43810910  0.18953446  1
  Zn  Zn144  1  0.93720265  0.43349121  0.68713899  1
  Zn  Zn145  1  0.93512739  0.93962469  0.19198884  1
  Zn  Zn146  1  0.94469086  0.93775946  0.67944868  1
  Zn  Zn147  1  0.06430093  0.05878028  0.31560646  1
  Zn  Zn148  1  0.05866149  0.06057592  0.80648901  1
  Zn  Zn149  1  0.06028100  0.56200603  0.30703689  1
  Zn  Zn150  1  0.06348469  0.55520239  0.81005181  1
  Zn  Zn151  1  0.56286462  0.07202391  0.31420752  1
  Zn  Zn152  1  0.55913303  0.06298423  0.81260474  1
  Zn  Zn153  1  0.61232888  0.49400121  0.36318115  1
  Zn  Zn154  1  0.55803198  0.56002405  0.81033493  1
  Zn  Zn155  1  0.43816819  0.18629118  0.43657941  1
  Zn  Zn156  1  0.43069557  0.18939259  0.94120092  1
  Zn  Zn157  1  0.43490917  0.68923568  0.43378538  1
  Zn  Zn158  1  0.43767136  0.68111862  0.93829784  1
  Zn  Zn159  1  0.94566686  0.18493065  0.43661340  1
  Zn  Zn160  1  0.93239126  0.18574362  0.93254982  1
  Zn  Zn161  1  0.93566502  0.68650141  0.43880111  1
  Zn  Zn162  1  0.93863589  0.69025922  0.93838635  1
  Zn  Zn163  1  0.06561879  0.31487398  0.06272534  1
  Zn  Zn164  1  0.06241275  0.31124022  0.56263980  1
  Zn  Zn165  1  0.05466144  0.81801097  0.06445999  1
  Zn  Zn166  1  0.05849229  0.81391951  0.56727087  1
  Zn  Zn167  1  0.56308048  0.31416495  0.07418067  1
  Zn  Zn168  1  0.56700497  0.29669477  0.56540831  1
  Zn  Zn169  1  0.55933674  0.81195728  0.06272100  1
  Zn  Zn170  1  0.55966098  0.81508745  0.56358379  1
  O  O171  1  0.11523244  0.11829878  0.12140913  1
  O  O172  1  0.12425622  0.11862310  0.62012182  1
  O  O173  1  0.11447906  0.61904916  0.13067378  1
  O  O174  1  0.11031122  0.62131844  0.63101297  1
  O  O175  1  0.62815719  0.11612063  0.11520131  1
  O  O176  1  0.60779049  0.11522717  0.63530861  1
  O  O177  1  0.61979540  0.61981740  0.12074576  1
  O  O178  1  0.62184312  0.63979436  0.60508547  1
  O  O179  1  0.37608271  0.39039175  0.38333517  1
  O  O180  1  0.37584393  0.38986042  0.87135087  1
  O  O181  1  0.36982097  0.88535515  0.38078803  1
  O  O182  1  0.37533667  0.88198153  0.87968584  1
  O  O183  1  0.89009439  0.37299573  0.36388724  1
  O  O184  1  0.87708425  0.38375518  0.88412186  1
  O  O185  1  0.88042943  0.85971227  0.39099544  1
  O  O186  1  0.88077996  0.87801938  0.87780543  1
  O  O187  1  0.25775948  0.00661788  0.36612568  1
  O  O188  1  0.25987639  0.00875233  0.87852222  1
  O  O189  1  0.25621964  0.50666700  0.36976644  1
  O  O190  1  0.25510240  0.50480299  0.86770605  1
  O  O191  1  0.77676241  -0.02971637  0.36896967  1
  O  O192  1  0.75883011  0.00817989  0.87820430  1
  O  O193  1  0.73699614  0.51957181  0.37315964  1
  O  O194  1  0.75939419  0.50546626  0.87178216  1
  O  O195  1  0.24678528  0.49214250  0.13565730  1
  O  O196  1  0.24470729  0.49904547  0.62766908  1
  O  O197  1  0.24508654  0.99544881  0.13052220  1
  O  O198  1  0.23801727  0.99743466  0.62266518  1
  O  O199  1  0.73995247  0.49065921  0.12502257  1
  O  O200  1  0.72152615  0.51935671  0.64018672  1
  O  O201  1  0.74154675  0.98971358  0.11485008  1
  O  O202  1  0.73208621  0.99892741  0.62256000  1
  O  O203  1  0.00904180  0.36896461  0.25311630  1
  O  O204  1  0.00059128  0.36577360  0.74864299  1
  O  O205  1  0.00991429  0.87157412  0.24959469  1
  O  O206  1  0.00712938  0.87638276  0.76061536  1
  O  O207  1  0.50567404  0.35170815  0.23335309  1
  O  O208  1  0.50514457  0.36222019  0.75325690  1
  O  O209  1  0.51348943  0.87868199  0.24013760  1
  O  O210  1  0.50398899  0.86492739  0.75698614  1
  O  O211  1  0.53173410  0.15509419  0.25157069  1
  O  O212  1  0.48840552  0.13284524  0.74832975  1
  O  O213  1  0.48908723  0.62690437  0.23843796  1
  O  O214  1  0.49959350  0.64102910  0.75239984  1
  O  O215  1  0.99589583  0.12650445  0.24212010  1
  O  O216  1  1.00441698  0.13547404  0.73807258  1
  O  O217  1  0.99130983  0.63396874  0.24300491  1
  O  O218  1  0.98733322  0.61730888  0.74222265  1
  O  O219  1  0.35717003  0.24660122  0.00895049  1
  O  O220  1  0.36638939  0.25883905  0.50129528  1
  O  O221  1  0.38117902  0.76464887  -0.00151714  1
  O  O222  1  0.37030504  0.75622805  0.50532588  1
  O  O223  1  0.86938290  0.25648002  0.00503350  1
  O  O224  1  0.88698807  0.25338681  0.50698873  1
  O  O225  1  0.87296221  0.75783895  0.00876135  1
  O  O226  1  0.86700502  0.75435659  0.50797754  1
  O  O227  1  0.13816746  0.24035131  0.49964494  1
  O  O228  1  0.14067229  0.24923861  1.00599226  1
  O  O229  1  0.13698962  0.75955361  0.50341236  1
  O  O230  1  0.11920966  0.75495612  0.98969503  1
  O  O231  1  0.62458785  0.23862476  0.49102901  1
  O  O232  1  0.62911237  0.24617748  0.99664546  1
  O  O233  1  0.63039070  0.75405508  0.49280854  1
  O  O234  1  0.62221871  0.73743052  0.99606438  1
  O  O235  1  0.47944325  0.24469392  0.10838074  1
  O  O236  1  0.49492319  0.23890179  0.63595742  1
  O  O237  1  0.49594464  0.74078803  0.12716275  1
  O  O238  1  0.49035008  0.75112597  0.63366882  1
  O  O239  1  0.99476352  0.24414977  0.12941158  1
  O  O240  1  1.00268969  0.23717702  0.62844366  1
  O  O241  1  0.99343806  0.74550709  0.13416940  1
  O  O242  1  0.98677228  0.74045594  0.62083811  1
  O  O243  1  0.00804117  0.25674453  0.36731672  1
  O  O244  1  -0.00356696  0.24840811  0.86152922  1
  O  O245  1  -0.00002157  0.75042056  0.36205940  1
  O  O246  1  0.00988940  0.75955935  0.87911576  1
  O  O247  1  0.49769598  0.25633988  0.37367245  1
  O  O248  1  0.50369006  0.24902757  0.87047963  1
  O  O249  1  0.51080338  0.75163233  0.37124613  1
  O  O250  1  0.50376984  0.75624630  0.87094132  1
  O  O251  1  0.24860330  0.13330796  0.49424639  1
  O  O252  1  0.24459818  0.13278855  0.98830162  1
  O  O253  1  0.25148359  0.63658737  0.49002886  1
  O  O254  1  0.24937377  0.62127035  1.00550715  1
  O  O255  1  0.76461247  0.14058400  0.50544466  1
  O  O256  1  0.74361561  0.13280484  0.99347009  1
  O  O257  1  0.74329155  0.63881153  0.49378825  1
  O  O258  1  0.74080789  0.62610050  0.99605195  1
  O  O259  1  0.24815059  0.36899597  0.01075642  1
  O  O260  1  0.25423405  0.36939075  0.50358951  1
  O  O261  1  0.25796202  0.88501755  0.00717512  1
  O  O262  1  0.25995917  0.86810143  0.50036998  1
  O  O263  1  0.76022529  0.36901303  0.00431545  1
  O  O264  1  0.75495201  0.35283203  0.50652441  1
  O  O265  1  0.75509884  0.87235249  0.00603459  1
  O  O266  1  0.75894825  0.86541931  0.50274098  1
  O  O267  1  0.13240278  0.49323317  0.24175421  1
  O  O268  1  0.13130555  0.49865679  0.73479697  1
  O  O269  1  0.13247475  0.99226149  0.24183504  1
  O  O270  1  0.12111797  0.98501731  0.74533786  1
  O  O271  1  0.62057923  0.50951682  0.24457504  1
  O  O272  1  0.63488330  0.48571445  0.76655908  1
  O  O273  1  0.63377613  0.99482398  0.23441515  1
  O  O274  1  0.61178895  0.98771225  0.74283059  1
  O  O275  1  0.36484454  -0.00457243  0.25656456  1
  O  O276  1  0.37979096  0.00860131  0.75981877  1
  O  O277  1  0.37421613  0.50295920  0.26155316  1
  O  O278  1  0.36465793  0.50387173  0.75734666  1
  O  O279  1  0.85902649  0.00952255  0.24137285  1
  O  O280  1  0.87732455  -0.00917762  0.75781405  1
  O  O281  1  0.87903504  0.51357016  0.25687876  1
  O  O282  1  0.86535269  0.50971177  0.76172554  1
  O  O283  1  0.12240520  0.37430137  0.36146317  1
  O  O284  1  0.11492386  0.39242640  0.87087835  1
  O  O285  1  0.12913346  0.87752925  0.35873172  1
  O  O286  1  0.11895831  0.86989906  0.86741587  1
  O  O287  1  0.60242104  0.37814297  0.36088041  1
  O  O288  1  0.62424969  0.36422140  0.86846021  1
  O  O289  1  0.62873249  0.87129943  0.36307507  1
  O  O290  1  0.61820751  0.87048563  0.87080756  1
  O  O291  1  0.37494867  0.13381345  0.12462704  1
  O  O292  1  0.38161019  0.12381735  0.63396355  1
  O  O293  1  0.38249440  0.62489761  0.13439659  1
  O  O294  1  0.37677893  0.63762834  0.62597267  1
  O  O295  1  0.88273645  0.12933182  0.12625406  1
  O  O296  1  0.89463591  0.11433265  0.62509383  1
  O  O297  1  0.87669850  0.63070459  0.13459778  1
  O  O298  1  0.88166133  0.62705935  0.63194745  1
  O  O299  1  0.25730400  0.25632131  0.11806063  1
  O  O300  1  0.25217645  0.26095198  0.61752075  1
  O  O301  1  0.24895865  0.76520051  0.12307599  1
  O  O302  1  0.25550804  0.75135609  0.61677208  1
  O  O303  1  0.75369153  0.25707106  0.12058851  1
  O  O304  1  0.76074274  0.24761325  0.61722417  1
  O  O305  1  0.75254211  0.76367705  0.12520646  1
  O  O306  1  0.76010298  0.75140572  0.61787053  1
  O  O307  1  0.25277005  0.24413436  0.38017967  1
  O  O308  1  0.25353694  0.24346542  0.88169650  1
  O  O309  1  0.25409842  0.74089416  0.38494582  1
  O  O310  1  0.23139440  0.74696327  0.87586041  1
  O  O311  1  0.75672395  0.24618033  0.39913523  1
  O  O312  1  0.74633822  0.24322176  0.88068293  1
  O  O313  1  0.73867919  0.74739419  0.38176401  1
  O  O314  1  0.74078360  0.74225006  0.87804273  1
  O  O315  1  -0.00064447  0.11869122  0.00281482  1
  O  O316  1  0.01342020  0.12611121  0.51058141  1
  O  O317  1  -0.00916493  0.62290850  0.01673029  1
  O  O318  1  -0.00185502  0.61726664  0.50724506  1
  O  O319  1  0.50467108  0.11386132  -0.00569473  1
  O  O320  1  0.49020713  0.11381638  0.51178710  1
  O  O321  1  0.50573050  0.61680144  0.01211778  1
  O  O322  1  0.51169077  0.63458859  0.50063088  1
  O  O323  1  0.49016954  0.37277896  0.51639879  1
  O  O324  1  0.50908946  0.38814098  1.00098655  1
  O  O325  1  0.48457985  0.88189223  0.50308829  1
  O  O326  1  0.49258576  0.88711475  0.99707342  1
  O  O327  1  1.00944836  0.38376227  0.48788243  1
  O  O328  1  0.98646580  0.37729349  1.00347559  1
  O  O329  1  0.98691109  0.87308920  0.50048616  1
  O  O330  1  0.99296825  0.88366575  0.98972008  1
  O  O331  1  0.49144458  0.50848052  0.37342638  1
  O  O332  1  0.49270887  0.49874617  0.88517804  1
  O  O333  1  0.48758691  1.00830627  0.38239048  1
  O  O334  1  0.48953166  0.99479828  0.88197257  1
  O  O335  1  1.00715678  0.49048126  0.38022204  1
  O  O336  1  0.98429703  0.50543326  0.87912508  1
  O  O337  1  1.00466892  0.99518603  0.38316862  1
  O  O338  1  0.99184626  0.99437236  0.87893892  1
  O  O339  1  0.00133504  0.00425703  0.11571777  1
  O  O340  1  0.01473361  0.00979367  0.62044310  1
  O  O341  1  0.00914235  0.50924962  0.12929429  1
  O  O342  1  0.00681328  0.50581906  0.61337473  1
  O  O343  1  0.50616149  0.00874438  0.11823810  1
  O  O344  1  0.50131440  0.00437727  0.61889734  1
  O  O345  1  0.50805612  0.50530082  0.12120250  1
  O  O346  1  0.51119361  0.50773710  0.64398147  1
  O  O347  1  0.24522656  0.37952578  0.24624341  1
  O  O348  1  0.24888275  0.38716348  0.73970337  1
  O  O349  1  0.23990520  0.88149408  0.24171667  1
  O  O350  1  0.23715694  0.87340487  0.75001118  1
  O  O351  1  0.76538996  0.37612164  0.24221122  1
  O  O352  1  0.74326494  0.38229326  0.75017191  1
  O  O353  1  0.74072123  0.88541188  0.24087833  1
  O  O354  1  0.73607382  0.87118687  0.75052861  1
  O  O355  1  0.24303826  0.11387929  0.25580067  1
  O  O356  1  0.26079783  0.13400649  0.75408677  1
  O  O357  1  0.26552943  0.61575532  0.25738687  1
  O  O358  1  0.24854069  0.61542344  0.75066295  1
  O  O359  1  0.76025230  0.11563386  0.24883202  1
  O  O360  1  0.74194105  0.12799114  0.76116643  1
  O  O361  1  0.75950161  0.63622602  0.25864512  1
  O  O362  1  0.75491326  0.61938262  0.75743432  1
  O  O363  1  0.36257892  0.11561481  0.37932880  1
  O  O364  1  0.36564038  0.11832396  0.86880831  1
  O  O365  1  0.37111157  0.61523584  0.37074165  1
  O  O366  1  0.37258243  0.61392887  0.87296391  1
  O  O367  1  0.88393147  0.12443250  0.36174539  1
  O  O368  1  0.86447959  0.11283170  0.87506630  1
  O  O369  1  0.86239854  0.63147451  0.36697308  1
  O  O370  1  0.86963466  0.62273378  0.87021601  1
  O  O371  1  0.13345076  0.38097674  0.13602380  1
  O  O372  1  0.13724029  0.38443786  0.62092744  1
  O  O373  1  0.12905580  0.88297036  0.12997445  1
  O  O374  1  0.12428329  0.87929970  0.63858382  1
  O  O375  1  0.63703775  0.38539087  0.12579270  1
  O  O376  1  0.62987194  0.36950078  0.63796896  1
  O  O377  1  0.63098231  0.88182819  0.12629912  1
  O  O378  1  0.62419075  0.88087318  0.63584034  1
  O  O379  1  0.12089942  0.25741300  0.24837232  1
  O  O380  1  0.10693819  0.25773657  0.74229776  1
  O  O381  1  0.11693596  0.76775984  0.24340989  1
  O  O382  1  0.12282512  0.76302570  0.75992046  1
  O  O383  1  0.64828086  0.26036825  0.27061417  1
  O  O384  1  0.61737049  0.25420271  0.75608413  1
  O  O385  1  0.62265059  0.76139924  0.25727390  1
  O  O386  1  0.61771921  0.75634787  0.75468874  1
  O  O387  1  0.36621536  0.24906559  0.23114762  1
  O  O388  1  0.38193981  0.24430087  0.74998627  1
  O  O389  1  0.37498623  0.74215096  0.24862982  1
  O  O390  1  0.37963070  0.75072502  0.74315488  1
  O  O391  1  0.88113512  0.23761518  0.24232571  1
  O  O392  1  0.89179842  0.25629161  0.74465676  1
  O  O393  1  0.88203578  0.74890803  0.24502141  1
  O  O394  1  0.86926667  0.73936029  0.74161865  1
  O  O395  1  0.37514806  0.49523062  0.48827627  1
  O  O396  1  0.38753832  0.50041584  0.99425159  1
  O  O397  1  0.37984691  0.99188595  0.49292146  1
  O  O398  1  0.38057640  0.99520689  0.99313648  1
  O  O399  1  0.88710097  0.50715668  0.48100535  1
  O  O400  1  0.87366122  0.49287577  0.99577288  1
  O  O401  1  0.87498380  0.98090898  0.50816782  1
  O  O402  1  0.88421670  0.99427552  0.99327623  1
  O  O403  1  0.11041364  0.00093588  0.00256041  1
  O  O404  1  0.13071062  0.01137437  0.50684245  1
  O  O405  1  0.12314345  0.49543552  0.01815187  1
  O  O406  1  0.12034209  0.50151599  0.50943422  1
  O  O407  1  0.61618852  0.00258208  0.00648191  1
  O  O408  1  0.60679379  -0.01122257  0.51299463  1
  O  O409  1  0.62011694  0.51041956  0.00344273  1
  O  O410  1  0.62283399  0.52032774  0.49000006  1
  O  O411  1  0.36418643  0.37068620  0.12918360  1
  O  O412  1  0.36282156  0.37846859  0.61760186  1
  O  O413  1  0.36513693  0.87577683  0.11592739  1
  O  O414  1  0.37158246  0.86519660  0.61870531  1
  O  O415  1  0.86955380  0.37115782  0.11972850  1
  O  O416  1  0.84820671  0.43568217  0.62392432  1
  O  O417  1  0.86717961  0.87240976  0.12086144  1
  O  O418  1  0.87463614  0.86526333  0.61952561  1
  O  O419  1  0.13921821  0.12559911  0.38371422  1
  O  O420  1  0.13705219  0.11775366  0.87092886  1
  O  O421  1  0.13868773  0.62258848  0.36467520  1
  O  O422  1  0.11920468  0.63863192  0.87175358  1
  O  O423  1  0.66007097  0.06055752  0.37098126  1
  O  O424  1  0.62998463  0.12853646  0.88077667  1
  O  O425  1  0.63009269  0.63930225  0.38693125  1
  O  O426  1  0.62709711  0.62787479  0.88370175  1
