# generated using pymatgen
data_V85Zn86O256
_symmetry_space_group_name_H-M   'P 1'
_cell_length_a   16.96140045
_cell_length_b   16.96253176
_cell_length_c   16.97114019
_cell_angle_alpha   89.97870698
_cell_angle_beta   90.09125887
_cell_angle_gamma   89.92851104
_symmetry_Int_Tables_number   1
_chemical_formula_structural   V85Zn86O256
_chemical_formula_sum   'V85 Zn86 O256'
_cell_volume   4882.72745151
_cell_formula_units_Z   1
loop_
 _symmetry_equiv_pos_site_id
 _symmetry_equiv_pos_as_xyz
  1  'x, y, z'
loop_
 _atom_site_type_symbol
 _atom_site_label
 _atom_site_symmetry_multiplicity
 _atom_site_fract_x
 _atom_site_fract_y
 _atom_site_fract_z
 _atom_site_occupancy
  V  V0  1  0.37761596  0.49004429  0.87234662  1
  V  V1  1  -0.00254800  0.36907555  0.36665878  1
  V  V2  1  0.37330206  0.13249109  0.74824737  1
  V  V3  1  0.62646969  0.75359781  0.87483870  1
  V  V4  1  0.75165720  0.12097913  0.36105709  1
  V  V5  1  0.87667543  0.24885111  0.14332772  1
  V  V6  1  0.50246954  0.87389880  0.37442283  1
  V  V7  1  0.75602345  0.24965652  -0.00024255  1
  V  V8  1  0.75080585  0.24751555  0.50050881  1
  V  V9  1  0.24933826  -0.00135379  0.74147098  1
  V  V10  1  0.75648891  0.62784524  0.38039453  1
  V  V11  1  0.63050173  0.88158740  0.25043646  1
  V  V12  1  0.75594356  0.62784257  0.87163665  1
  V  V13  1  0.50162575  0.75209610  0.75014585  1
  V  V14  1  0.24064636  0.50095197  0.74237012  1
  V  V15  1  0.37660992  0.87653964  -0.00012111  1
  V  V16  1  0.87803595  0.37555834  0.50013691  1
  V  V17  1  0.87369312  0.50183705  0.37558177  1
  V  V18  1  0.74767335  0.12103229  0.87411377  1
  V  V19  1  0.12136879  0.74887810  0.87361149  1
  V  V20  1  0.13106827  0.38123953  0.24789878  1
  V  V21  1  0.01202168  0.50128141  0.50768072  1
  V  V22  1  0.31338832  0.56532806  0.31775734  1
  V  V23  1  0.87998696  0.24792789  0.62358344  1
  V  V24  1  0.12592652  0.14422153  -0.00145474  1
  V  V25  1  0.87315147  0.88518791  0.49712245  1
  V  V26  1  0.00014019  0.87320028  0.37116928  1
  V  V27  1  0.62288312  0.25201249  0.37462729  1
  V  V28  1  0.12477810  0.00135101  0.12405067  1
  V  V29  1  0.37620365  -0.00160698  0.37510560  1
  V  V30  1  0.36062777  0.25180305  0.12551966  1
  V  V31  1  0.49204066  0.37912699  0.37422535  1
  V  V32  1  0.49710625  0.74650214  0.25018807  1
  V  V33  1  0.37685901  0.62519053  0.75123423  1
  V  V34  1  -0.00118996  0.49165233  -0.02412007  1
  V  V35  1  0.36831822  0.75370124  0.62677138  1
  V  V36  1  0.49746782  0.12709217  0.12638327  1
  V  V37  1  0.24266397  0.37430866  0.62397896  1
  V  V38  1  0.37373480  0.00252715  0.87277424  1
  V  V39  1  0.87750783  0.11864231  0.74851282  1
  V  V40  1  0.24142159  0.74922762  0.49220906  1
  V  V41  1  0.25061583  0.87544646  0.12265195  1
  V  V42  1  0.49560991  0.62458863  0.12617717  1
  V  V43  1  -0.00206597  0.87126075  0.87053913  1
  V  V44  1  0.12625320  0.86117511  0.24914744  1
  V  V45  1  0.62505820  0.62422915  0.00222596  1
  V  V46  1  0.87731986  0.63970413  0.75060411  1
  V  V47  1  0.50661087  -0.00248234  0.50249073  1
  V  V48  1  -0.00059948  0.60456650  0.12115709  1
  V  V49  1  0.87329412  0.00279382  0.35506415  1
  V  V50  1  0.50357837  0.12233867  0.62487921  1
  V  V51  1  0.75386077  0.88273693  0.12828017  1
  V  V52  1  0.49294602  0.50068068  0.49955011  1
  V  V53  1  0.50185266  0.00316231  0.00052596  1
  V  V54  1  0.75123687  0.38245867  0.62428174  1
  V  V55  1  0.36255296  0.37605020  0.00464319  1
  V  V56  1  0.12611779  0.87764903  0.75012916  1
  V  V57  1  0.37237096  0.12462280  0.25101653  1
  V  V58  1  -0.00318852  0.12796383  0.13819020  1
  V  V59  1  0.25129320  0.62543287  0.87387223  1
  V  V60  1  0.87493223  0.74717970  0.60650133  1
  V  V61  1  0.61195048  0.25302636  0.87634510  1
  V  V62  1  0.74145676  -0.00133885  0.74333285  1
  V  V63  1  0.00241329  0.00186244  -0.00151144  1
  V  V64  1  0.24436001  0.12237642  0.38486174  1
  V  V65  1  0.63215570  0.74926208  0.37694158  1
  V  V66  1  0.00820138  0.25017854  0.76166570  1
  V  V67  1  0.25197293  0.75159696  0.00079468  1
  V  V68  1  0.74372163  0.87201131  0.61920078  1
  V  V69  1  0.87144366  0.62965648  0.24169478  1
  V  V70  1  0.62504191  0.12506505  0.00095953  1
  V  V71  1  0.37373282  0.87338611  0.50440150  1
  V  V72  1  0.01202197  0.63235180  0.62614012  1
  V  V73  1  0.50305440  0.62492738  0.62610448  1
  V  V74  1  0.24852091  -0.00220062  0.24961388  1
  V  V75  1  0.87839524  0.86988401  0.00489101  1
  V  V76  1  0.11931548  0.24378884  0.37539331  1
  V  V77  1  0.00624770  0.11580283  0.61221770  1
  V  V78  1  -0.00234792  0.74927918  0.23442646  1
  V  V79  1  0.50005430  0.49101891  -0.00165985  1
  V  V80  1  0.62913856  0.11947144  0.50426926  1
  V  V81  1  0.80578580  0.45408904  0.80726165  1
  V  V82  1  0.62968499  0.62534953  0.50107098  1
  V  V83  1  0.61382381  0.38252152  0.75443209  1
  V  V84  1  0.75442643  0.74839678  0.01020517  1
  Zn  Zn85  1  0.23554428  0.13281161  0.87292520  1
  Zn  Zn86  1  0.50275314  0.25191792  0.74578697  1
  Zn  Zn87  1  0.87709089  0.37702485  -0.00563077  1
  Zn  Zn88  1  0.62502372  0.37952629  0.24851436  1
  Zn  Zn89  1  0.63017607  0.00557148  0.13149751  1
  Zn  Zn90  1  0.62943049  0.50394769  0.63160868  1
  Zn  Zn91  1  0.87293541  -0.00306091  0.87550266  1
  Zn  Zn92  1  0.11402391  0.38104103  0.75676970  1
  Zn  Zn93  1  0.50276144  0.87583330  0.87455292  1
  Zn  Zn94  1  0.74778259  0.49925733  0.24457939  1
  Zn  Zn95  1  0.24743697  0.24635967  0.50196172  1
  Zn  Zn96  1  0.13072684  1.00393679  0.60821220  1
  Zn  Zn97  1  0.62384526  0.87820682  0.74432250  1
  Zn  Zn98  1  0.37224128  0.37276757  0.49970058  1
  Zn  Zn99  1  0.37332690  0.74935066  0.13087044  1
  Zn  Zn100  1  0.24765586  0.39537452  0.13111489  1
  Zn  Zn101  1  0.74835616  0.37681073  0.12582089  1
  Zn  Zn102  1  0.16906295  0.60134868  0.43767280  1
  Zn  Zn103  1  0.49813057  0.25382737  0.25034008  1
  Zn  Zn104  1  0.37591553  0.25179615  0.61959822  1
  Zn  Zn105  1  0.13000064  0.61819656  0.00868012  1
  Zn  Zn106  1  0.62608621  0.49452030  0.12719540  1
  Zn  Zn107  1  0.18069905  0.18921647  0.19460762  1
  Zn  Zn108  1  0.18621656  0.18640124  0.68383657  1
  Zn  Zn109  1  0.18154621  0.56818706  0.19099840  1
  Zn  Zn110  1  0.18857033  0.69519980  0.68825644  1
  Zn  Zn111  1  0.68574926  0.19353261  0.18619368  1
  Zn  Zn112  1  0.68739612  0.19071058  0.68728653  1
  Zn  Zn113  1  0.68499086  0.68751728  0.18993780  1
  Zn  Zn114  1  0.69289301  0.69057111  0.68799962  1
  Zn  Zn115  1  0.31063918  0.30957029  0.31371908  1
  Zn  Zn116  1  0.26029770  0.32287117  0.83568696  1
  Zn  Zn117  1  0.31178454  0.80643060  0.31456608  1
  Zn  Zn118  1  0.31224217  0.81571777  0.81341204  1
  Zn  Zn119  1  0.80647072  0.31390376  0.31396044  1
  Zn  Zn120  1  0.80962283  0.29126673  0.81076550  1
  Zn  Zn121  1  0.81557701  0.80961951  0.31145278  1
  Zn  Zn122  1  0.81234034  0.81296675  0.81187973  1
  Zn  Zn123  1  0.18912169  0.43092099  0.43250457  1
  Zn  Zn124  1  0.17927387  0.43968589  0.93958175  1
  Zn  Zn125  1  0.19022475  0.93229270  0.43398911  1
  Zn  Zn126  1  0.18788694  0.94232354  0.93252578  1
  Zn  Zn127  1  0.68486755  0.43931078  0.43785539  1
  Zn  Zn128  1  0.68306111  0.43179832  0.94503005  1
  Zn  Zn129  1  0.69327208  0.93808645  0.43695442  1
  Zn  Zn130  1  0.68932370  0.93758677  0.93902148  1
  Zn  Zn131  1  0.31000095  0.06548236  0.06023262  1
  Zn  Zn132  1  0.31667537  0.05934298  0.56364890  1
  Zn  Zn133  1  0.31565354  0.56456161  0.06214858  1
  Zn  Zn134  1  0.31220838  0.56426791  0.56413598  1
  Zn  Zn135  1  0.81670327  0.06329729  0.06424178  1
  Zn  Zn136  1  0.81327702  0.05916983  0.56167087  1
  Zn  Zn137  1  0.81710214  0.55696734  0.05902194  1
  Zn  Zn138  1  0.81840828  0.56313899  0.56145476  1
  Zn  Zn139  1  0.43525148  0.44205590  0.19176663  1
  Zn  Zn140  1  0.43241344  0.43766597  0.68220508  1
  Zn  Zn141  1  0.43933242  0.93660806  0.18739627  1
  Zn  Zn142  1  0.44092115  0.93952982  0.68697535  1
  Zn  Zn143  1  0.92966109  0.43349096  0.19027195  1
  Zn  Zn144  1  0.94443645  0.43693362  0.68457926  1
  Zn  Zn145  1  0.93912620  0.93826460  0.18303722  1
  Zn  Zn146  1  0.93519530  0.93477134  0.68561221  1
  Zn  Zn147  1  0.06338258  0.05469441  0.31583248  1
  Zn  Zn148  1  0.06131943  0.06363720  0.81372303  1
  Zn  Zn149  1  0.05182783  0.55935817  0.31308846  1
  Zn  Zn150  1  0.06254896  0.56968655  0.80848979  1
  Zn  Zn151  1  0.56316134  0.06428333  0.31474853  1
  Zn  Zn152  1  0.56055520  0.06332253  0.81452791  1
  Zn  Zn153  1  0.56137084  0.56086325  0.31269721  1
  Zn  Zn154  1  0.56408969  0.56233818  0.81557599  1
  Zn  Zn155  1  0.43595980  0.18847759  0.43951147  1
  Zn  Zn156  1  0.40209157  0.21349178  0.91451868  1
  Zn  Zn157  1  0.43884764  0.68696475  0.43845022  1
  Zn  Zn158  1  0.43890575  0.68641780  0.93790573  1
  Zn  Zn159  1  0.93623252  0.18365751  0.43371960  1
  Zn  Zn160  1  0.93781789  0.18306921  0.93913498  1
  Zn  Zn161  1  0.97892985  0.68236085  0.42771952  1
  Zn  Zn162  1  0.93781797  0.68547521  0.94143214  1
  Zn  Zn163  1  0.05427768  0.31892421  0.06696062  1
  Zn  Zn164  1  0.06570261  0.30984308  0.56116665  1
  Zn  Zn165  1  0.06588646  0.80967782  0.06118397  1
  Zn  Zn166  1  0.07768360  0.85002964  0.54252226  1
  Zn  Zn167  1  0.55947217  0.31030979  0.06423272  1
  Zn  Zn168  1  0.56423540  0.31258273  0.56250608  1
  Zn  Zn169  1  0.56539876  0.81413602  0.06527134  1
  Zn  Zn170  1  0.56263945  0.80793887  0.56132952  1
  O  O171  1  0.11698508  0.12206370  0.11768570  1
  O  O172  1  0.11151860  0.12069702  0.62301120  1
  O  O173  1  0.10292998  0.62702176  0.12481563  1
  O  O174  1  0.11112381  0.63372537  0.63055021  1
  O  O175  1  0.61646994  0.12519114  0.12024161  1
  O  O176  1  0.62262558  0.12889023  0.61181293  1
  O  O177  1  0.61928474  0.62819825  0.11136766  1
  O  O178  1  0.62428328  0.62700358  0.61813809  1
  O  O179  1  0.38805407  0.36811998  0.37890312  1
  O  O180  1  0.36681398  0.38789572  0.88369955  1
  O  O181  1  0.38377663  0.87868376  0.38167014  1
  O  O182  1  0.37830612  0.88741167  0.88046353  1
  O  O183  1  0.87982547  0.37948168  0.37971733  1
  O  O184  1  0.85802829  0.38650707  0.86179064  1
  O  O185  1  0.87363913  0.88616903  0.37657843  1
  O  O186  1  0.88083144  0.87423525  0.88588733  1
  O  O187  1  0.25533758  0.00191546  0.36899422  1
  O  O188  1  0.25987778  0.00957543  0.86877497  1
  O  O189  1  0.24369284  0.52105797  0.38674234  1
  O  O190  1  0.25821403  0.51410479  0.86968783  1
  O  O191  1  0.76301040  0.00752157  0.37611015  1
  O  O192  1  0.75244336  0.00450796  0.86764889  1
  O  O193  1  0.76173744  0.50632858  0.37751386  1
  O  O194  1  0.74833234  0.50761436  0.87552651  1
  O  O195  1  0.24084575  0.50782225  0.11796273  1
  O  O196  1  0.25402006  0.49170721  0.63220244  1
  O  O197  1  0.24566323  0.99448858  0.12916992  1
  O  O198  1  0.24765162  1.00223770  0.63689054  1
  O  O199  1  0.74695416  0.49790812  0.12329801  1
  O  O200  1  0.75067242  0.48616951  0.61881505  1
  O  O201  1  0.74882663  0.98716189  0.11897318  1
  O  O202  1  0.75645028  0.98709444  0.63244588  1
  O  O203  1  0.00396630  0.37851441  0.26322079  1
  O  O204  1  -0.00053612  0.35607339  0.74382684  1
  O  O205  1  0.00548296  0.86923652  0.24710558  1
  O  O206  1  0.00116256  0.88200915  0.76687992  1
  O  O207  1  0.50210751  0.37435298  0.26046460  1
  O  O208  1  0.51103492  0.37301716  0.74286340  1
  O  O209  1  0.50991354  0.86973712  0.25573249  1
  O  O210  1  0.50507047  0.86719055  0.75157745  1
  O  O211  1  0.49178319  0.12344801  0.24276463  1
  O  O212  1  0.49668772  0.12182771  0.73861280  1
  O  O213  1  0.51017721  0.63509764  0.23854035  1
  O  O214  1  0.49768323  0.63288204  0.74648578  1
  O  O215  1  1.00576060  0.11765029  0.23656250  1
  O  O216  1  0.99190595  0.13114265  0.74386913  1
  O  O217  1  0.99081885  0.62968030  0.23602769  1
  O  O218  1  0.98941995  0.62073362  0.73567222  1
  O  O219  1  0.38713810  0.26760320  0.01444853  1
  O  O220  1  0.36652145  0.25062731  0.50218164  1
  O  O221  1  0.37042585  0.76175150  -0.00478060  1
  O  O222  1  0.37506769  0.75569562  0.50903372  1
  O  O223  1  0.86426453  0.25224048  -0.00479615  1
  O  O224  1  0.87093003  0.25422194  0.50670476  1
  O  O225  1  0.86576356  0.75771331  -0.00275436  1
  O  O226  1  0.87386758  0.75279939  0.50636110  1
  O  O227  1  0.12952268  0.25493250  0.48277244  1
  O  O228  1  0.11922216  0.24217526  1.00646000  1
  O  O229  1  0.14392873  0.76218468  0.50936692  1
  O  O230  1  0.13539795  0.74835805  0.98998931  1
  O  O231  1  0.63077722  0.24254216  0.49126372  1
  O  O232  1  0.63118381  0.24447704  0.99381022  1
  O  O233  1  0.62026299  0.73551767  0.49018084  1
  O  O234  1  0.63114245  0.74413760  0.99369308  1
  O  O235  1  0.49321041  0.23653731  0.12769591  1
  O  O236  1  0.50213303  0.23521784  0.62297138  1
  O  O237  1  0.50224755  0.74485472  0.13331838  1
  O  O238  1  0.49414417  0.74343705  0.63164433  1
  O  O239  1  0.98431947  0.24268020  0.12279503  1
  O  O240  1  0.99150368  0.23949351  0.62759347  1
  O  O241  1  0.99760866  0.74832372  0.13115653  1
  O  O242  1  0.98863165  0.73446298  0.62086444  1
  O  O243  1  0.00355522  0.25826631  0.38021983  1
  O  O244  1  -0.00791242  0.24570586  0.85922820  1
  O  O245  1  -0.01520966  0.76732445  0.35185211  1
  O  O246  1  0.01000656  0.75784682  0.88354792  1
  O  O247  1  0.50860939  0.25618416  0.37655840  1
  O  O248  1  0.50931568  0.24514995  0.87286706  1
  O  O249  1  0.51234466  0.75331500  0.36933396  1
  O  O250  1  0.50934368  0.75157003  0.86993002  1
  O  O251  1  0.25112583  0.11734358  0.48762308  1
  O  O252  1  0.22795430  0.12097499  1.00279140  1
  O  O253  1  0.24939220  0.64289317  0.50913948  1
  O  O254  1  0.25054337  0.63524766  0.98986916  1
  O  O255  1  0.74455075  0.12853734  0.49582404  1
  O  O256  1  0.74547270  0.12987673  0.99575509  1
  O  O257  1  0.74588970  0.62143313  0.48787300  1
  O  O258  1  0.74636827  0.63130929  0.99182365  1
  O  O259  1  0.26003319  0.38228574  0.00744574  1
  O  O260  1  0.24999929  0.37752700  0.51317610  1
  O  O261  1  0.25639574  0.87171720  -0.00021652  1
  O  O262  1  0.26867521  0.86552473  0.49690080  1
  O  O263  1  0.75489864  0.36271536  0.00126524  1
  O  O264  1  0.75452921  0.36771387  0.50738988  1
  O  O265  1  0.75810553  0.86802562  0.00596208  1
  O  O266  1  0.75897627  0.87499038  0.50736987  1
  O  O267  1  0.11966119  0.48707384  0.25544233  1
  O  O268  1  0.13785155  0.50217280  0.75231528  1
  O  O269  1  0.13145596  0.99067624  0.24138957  1
  O  O270  1  0.13482258  0.99524770  0.75546975  1
  O  O271  1  0.62882047  0.50014191  0.24650870  1
  O  O272  1  0.62541084  0.49068317  0.75062966  1
  O  O273  1  0.62174886  0.98556671  0.25249055  1
  O  O274  1  0.63764668  0.99932481  0.75384077  1
  O  O275  1  0.36900635  0.00261392  0.25542628  1
  O  O276  1  0.36829526  0.00299523  0.75472811  1
  O  O277  1  0.36438938  0.49994583  0.25900336  1
  O  O278  1  0.37143364  0.50673293  0.75735234  1
  O  O279  1  0.87083497  -0.00304101  0.25672670  1
  O  O280  1  0.86653088  0.00794114  0.75061368  1
  O  O281  1  0.87371064  0.51094595  0.25881972  1
  O  O282  1  0.87016917  0.50694796  0.74856173  1
  O  O283  1  0.11576182  0.36890734  0.36690243  1
  O  O284  1  0.15854654  0.36623565  0.86030163  1
  O  O285  1  0.11123373  0.87964108  0.36016031  1
  O  O286  1  0.11662319  0.86981702  0.87223264  1
  O  O287  1  0.61713429  0.36546216  0.37829999  1
  O  O288  1  0.62979055  0.36553755  0.86573389  1
  O  O289  1  0.62484295  0.86709977  0.37074474  1
  O  O290  1  0.62662828  0.86231841  0.87596368  1
  O  O291  1  0.37910244  0.13103861  0.12866989  1
  O  O292  1  0.38528722  0.12278066  0.63158605  1
  O  O293  1  0.39227939  0.63335261  0.11453893  1
  O  O294  1  0.38276235  0.63394710  0.63278970  1
  O  O295  1  0.88298976  0.13796395  0.12048509  1
  O  O296  1  0.87960568  0.12991510  0.63085917  1
  O  O297  1  0.88549206  0.62166030  0.13053464  1
  O  O298  1  0.87106323  0.63413241  0.63316426  1
  O  O299  1  0.25977336  0.24933204  0.13096132  1
  O  O300  1  0.25069668  0.26056991  0.62425402  1
  O  O301  1  0.25477257  0.75745577  0.10695427  1
  O  O302  1  0.26526145  0.75227665  0.62264787  1
  O  O303  1  0.76239872  0.24598067  0.11664763  1
  O  O304  1  0.76198850  0.25764687  0.62265648  1
  O  O305  1  0.74312250  0.75723650  0.11324846  1
  O  O306  1  0.76283852  0.76108582  0.62944729  1
  O  O307  1  0.24224434  0.23666774  0.37520290  1
  O  O308  1  0.29452374  0.22796665  0.87701014  1
  O  O309  1  0.25090130  0.75043979  0.39199328  1
  O  O310  1  0.24802782  0.74300207  0.88168192  1
  O  O311  1  0.74463622  0.24117625  0.38254337  1
  O  O312  1  0.73879748  0.23999891  0.88295976  1
  O  O313  1  0.74002644  0.74284701  0.37146238  1
  O  O314  1  0.74412548  0.74458616  0.88327647  1
  O  O315  1  0.00780335  0.11786487  0.00683643  1
  O  O316  1  -0.00726398  0.12336210  0.51433175  1
  O  O317  1  -0.00220380  0.61357921  0.00938245  1
  O  O318  1  -0.01260201  0.61378066  0.51873467  1
  O  O319  1  0.50330366  0.11285351  0.00838409  1
  O  O320  1  0.50882310  0.11765364  0.50381882  1
  O  O321  1  0.50947926  0.61981507  0.00452369  1
  O  O322  1  0.50887714  0.61974852  0.50598052  1
  O  O323  1  0.50196684  0.38495278  0.49607675  1
  O  O324  1  0.49298226  0.38856932  1.00459797  1
  O  O325  1  0.49661304  0.87796196  0.49358078  1
  O  O326  1  0.49599276  0.88711825  1.00317156  1
  O  O327  1  0.99537994  0.38207269  0.49735813  1
  O  O328  1  0.99754399  0.38656181  0.99421154  1
  O  O329  1  0.98179126  0.85978149  0.48072682  1
  O  O330  1  0.99453579  0.88010792  0.99498422  1
  O  O331  1  0.50757279  0.48989853  0.38653891  1
  O  O332  1  0.48867925  0.50844223  0.88531548  1
  O  O333  1  0.49536213  0.99437428  0.38218575  1
  O  O334  1  0.49689299  0.99527782  0.88468672  1
  O  O335  1  0.98579261  0.48959967  0.38403343  1
  O  O336  1  0.99927304  0.50213302  0.87723389  1
  O  O337  1  0.98351815  0.98843753  0.36647061  1
  O  O338  1  0.99687761  0.99290610  0.88363859  1
  O  O339  1  0.00428791  0.00752736  0.11699195  1
  O  O340  1  -0.00175907  0.01466542  0.63155820  1
  O  O341  1  -0.00260528  0.50448729  0.12547382  1
  O  O342  1  -0.00242013  0.51090791  0.61760299  1
  O  O343  1  0.50053085  0.01073050  0.11983786  1
  O  O344  1  0.50069155  0.01086616  0.61570986  1
  O  O345  1  0.50066925  0.50908882  0.11700386  1
  O  O346  1  0.50537667  0.50866163  0.61953156  1
  O  O347  1  0.23495962  0.37533785  0.25344068  1
  O  O348  1  0.25690272  0.38707927  0.73545735  1
  O  O349  1  0.24389390  0.87543876  0.24492942  1
  O  O350  1  0.24036123  0.88694777  0.75944700  1
  O  O351  1  0.74562547  0.37891546  0.24717967  1
  O  O352  1  0.75092564  0.38288727  0.74767957  1
  O  O353  1  0.74384388  0.86573125  0.23853914  1
  O  O354  1  0.74969276  0.88283327  0.74191070  1
  O  O355  1  0.25433646  0.11636899  0.25686000  1
  O  O356  1  0.25765198  0.11776775  0.74941435  1
  O  O357  1  0.25493806  0.62428307  0.25870529  1
  O  O358  1  0.25634528  0.62151175  0.75418077  1
  O  O359  1  0.74062422  0.12554598  0.26263039  1
  O  O360  1  0.75668476  0.11843707  0.75071707  1
  O  O361  1  0.75607547  0.62592652  0.26060886  1
  O  O362  1  0.75739647  0.62881941  0.76364025  1
  O  O363  1  0.36827222  0.11686941  0.36999448  1
  O  O364  1  0.39213745  0.10827037  0.86155323  1
  O  O365  1  0.37906229  0.62481718  0.36731981  1
  O  O366  1  0.36818932  0.62147334  0.86953472  1
  O  O367  1  0.86827950  0.11054280  0.37545015  1
  O  O368  1  0.86713934  0.12275864  0.86451157  1
  O  O369  1  0.87194444  0.61877282  0.36923388  1
  O  O370  1  0.86774614  0.63189088  0.86597821  1
  O  O371  1  0.12361449  0.36691563  0.14549216  1
  O  O372  1  0.13793110  0.37044297  0.63279136  1
  O  O373  1  0.13223038  0.88031077  0.12852633  1
  O  O374  1  0.11197303  0.87336518  0.65057296  1
  O  O375  1  0.62720234  0.37346423  0.12733834  1
  O  O376  1  0.63701557  0.37278617  0.63626159  1
  O  O377  1  0.63417432  0.87870586  0.13376680  1
  O  O378  1  0.63907371  0.86682101  0.62380663  1
  O  O379  1  0.12476031  0.26156145  0.26555863  1
  O  O380  1  0.10960991  0.24263711  0.74980291  1
  O  O381  1  0.11460689  0.76139081  0.24401460  1
  O  O382  1  0.13404745  0.75972061  0.76714113  1
  O  O383  1  0.62124479  0.24878363  0.26538829  1
  O  O384  1  0.62535424  0.25792135  0.75972502  1
  O  O385  1  0.61801201  0.75884078  0.25746150  1
  O  O386  1  0.62075482  0.75036718  0.75949548  1
  O  O387  1  0.37689323  0.24243513  0.24309054  1
  O  O388  1  0.38375530  0.23473401  0.74236302  1
  O  O389  1  0.39283144  0.75954470  0.24910830  1
  O  O390  1  0.38125463  0.74796931  0.74553410  1
  O  O391  1  0.87093930  0.24748056  0.24129485  1
  O  O392  1  0.88067863  0.23689910  0.74036173  1
  O  O393  1  0.87843541  0.73632526  0.24695876  1
  O  O394  1  0.87492252  0.74282681  0.74290942  1
  O  O395  1  0.39019592  0.50200168  0.50483739  1
  O  O396  1  0.38260924  0.49579920  0.99311990  1
  O  O397  1  0.38370791  0.99058120  0.49594194  1
  O  O398  1  0.38081529  0.99770575  0.99252231  1
  O  O399  1  0.88027897  0.49200562  0.49372435  1
  O  O400  1  0.89205151  0.49617944  0.99706940  1
  O  O401  1  0.87420716  0.98778302  0.49367219  1
  O  O402  1  0.88708303  0.99316112  0.99899003  1
  O  O403  1  0.11330638  -0.00263112  0.00594946  1
  O  O404  1  0.11493535  -0.04533668  0.51002995  1
  O  O405  1  0.10593876  0.50435268  -0.00488536  1
  O  O406  1  0.11307098  0.50104401  0.49258303  1
  O  O407  1  0.61772173  0.00588587  0.00235796  1
  O  O408  1  0.61931819  0.00809446  0.49317876  1
  O  O409  1  0.61643280  0.50859567  -0.00119007  1
  O  O410  1  0.61978845  0.51281997  0.50341584  1
  O  O411  1  0.37067271  0.36967760  0.12286243  1
  O  O412  1  0.36401102  0.37150321  0.62038338  1
  O  O413  1  0.36892710  0.87483013  0.11705660  1
  O  O414  1  0.38601415  0.86635326  0.61544998  1
  O  O415  1  0.87432408  0.35805667  0.12283754  1
  O  O416  1  0.87023078  0.36645955  0.62185584  1
  O  O417  1  0.86952237  0.87708002  0.11276308  1
  O  O418  1  0.87272207  0.86735295  0.61425617  1
  O  O419  1  0.13196904  0.12940775  0.36942831  1
  O  O420  1  0.11983493  0.12549647  0.89320034  1
  O  O421  1  0.08017153  0.63845007  0.38522739  1
  O  O422  1  0.13402749  0.63364385  0.87539446  1
  O  O423  1  0.63105231  0.13016862  0.38515568  1
  O  O424  1  0.62882349  0.13118715  0.88147595  1
  O  O425  1  0.63472955  0.63077189  0.38100240  1
  O  O426  1  0.63186622  0.63433157  0.88469751  1
