# generated using pymatgen
data_V85Zn86O256
_symmetry_space_group_name_H-M   'P 1'
_cell_length_a   16.93629901
_cell_length_b   16.93353945
_cell_length_c   16.93562968
_cell_angle_alpha   89.91166589
_cell_angle_beta   89.99627345
_cell_angle_gamma   89.95325506
_symmetry_Int_Tables_number   1
_chemical_formula_structural   V85Zn86O256
_chemical_formula_sum   'V85 Zn86 O256'
_cell_volume   4856.98702785
_cell_formula_units_Z   1
loop_
 _symmetry_equiv_pos_site_id
 _symmetry_equiv_pos_as_xyz
  1  'x, y, z'
loop_
 _atom_site_type_symbol
 _atom_site_label
 _atom_site_symmetry_multiplicity
 _atom_site_fract_x
 _atom_site_fract_y
 _atom_site_fract_z
 _atom_site_occupancy
  V  V0  1  0.25518643  0.11991765  0.37573277  1
  V  V1  1  0.87396752  0.49067403  0.87319211  1
  V  V2  1  -0.00901587  0.12961626  0.62477317  1
  V  V3  1  0.26283172  0.49949942  0.74798183  1
  V  V4  1  0.62034779  0.62114456  0.00972776  1
  V  V5  1  0.61975365  0.01101941  0.62591439  1
  V  V6  1  0.87765351  0.36577431  0.50254353  1
  V  V7  1  0.62625648  0.74911899  0.87320836  1
  V  V8  1  0.00173197  0.01363701  0.00468878  1
  V  V9  1  0.25465305  0.62569015  0.37673082  1
  V  V10  1  0.62668871  0.87510196  0.74792296  1
  V  V11  1  0.12912659  0.74668285  0.87862682  1
  V  V12  1  0.75176167  0.24706405  0.00737626  1
  V  V13  1  0.87488409  -0.00678780  0.37836454  1
  V  V14  1  0.87517799  0.87333383  0.00119868  1
  V  V15  1  0.87449528  0.50588020  0.37234400  1
  V  V16  1  0.87884897  0.12249807  0.24181942  1
  V  V17  1  0.12460107  0.00057588  0.62914390  1
  V  V18  1  0.37992798  0.13035353  0.76386697  1
  V  V19  1  0.49717548  0.74571306  0.74894589  1
  V  V20  1  0.50069860  0.37580059  0.37480765  1
  V  V21  1  0.37548427  0.24674257  0.12373397  1
  V  V22  1  0.12306790  0.01129976  0.12360723  1
  V  V23  1  0.25764930  -0.00325409  0.25185386  1
  V  V24  1  0.23641640  0.24713726  -0.00193689  1
  V  V25  1  0.12802545  0.61595617  0.50649261  1
  V  V26  1  0.87464971  0.00218826  0.87422107  1
  V  V27  1  0.62411156  0.00781453  0.11849431  1
  V  V28  1  0.49384314  0.00785136  -0.00505795  1
  V  V29  1  0.63372357  0.62408528  0.49791324  1
  V  V30  1  0.25797470  -0.00129916  0.75844516  1
  V  V31  1  0.62465333  0.38202070  0.74670471  1
  V  V32  1  0.25236467  0.87241254  0.63118271  1
  V  V33  1  0.87583376  0.75248692  0.61565279  1
  V  V34  1  0.12605847  0.74905206  0.37768988  1
  V  V35  1  0.74501070  0.12681973  0.87907806  1
  V  V36  1  0.12851587  0.87498355  0.75420879  1
  V  V37  1  0.49103425  0.38582135  0.87164856  1
  V  V38  1  0.75072215  0.12518471  0.37648916  1
  V  V39  1  -0.00057545  0.75004510  0.75024815  1
  V  V40  1  0.37620109  0.74392788  0.62822428  1
  V  V41  1  0.49195847  0.50385029  0.01243110  1
  V  V42  1  0.49255801  0.87650943  0.37181832  1
  V  V43  1  0.87469987  0.62551331  0.75116794  1
  V  V44  1  0.74373863  0.87469610  0.12603259  1
  V  V45  1  0.12605080  0.50059012  0.12675891  1
  V  V46  1  0.50634483  0.62068590  0.62613973  1
  V  V47  1  0.26462565  0.37029125  0.61943747  1
  V  V48  1  0.50691824  0.49866830  0.50060966  1
  V  V49  1  0.24985736  0.86172374  0.11767118  1
  V  V50  1  0.49968779  0.75483458  0.23609128  1
  V  V51  1  0.63032780  0.25332136  0.37355865  1
  V  V52  1  0.00043027  0.49567372  0.00187600  1
  V  V53  1  0.12660378  0.12707994  0.50191625  1
  V  V54  1  0.63173840  0.38189997  0.23745374  1
  V  V55  1  0.81806479  0.42511544  0.05510981  1
  V  V56  1  0.75250161  0.87565091  0.61399697  1
  V  V57  1  0.74880106  0.37446568  0.62427570  1
  V  V58  1  0.13014686  0.62644647  -0.00066700  1
  V  V59  1  0.00095103  0.87522362  0.87843370  1
  V  V60  1  0.12225327  0.38166055  0.73681753  1
  V  V61  1  0.00040702  0.25017582  0.75069721  1
  V  V62  1  0.37824376  0.49842290  0.38017842  1
  V  V63  1  0.74163572  -0.00404160  0.25090255  1
  V  V64  1  -0.00509179  0.74639010  0.25258529  1
  V  V65  1  -0.00378727  0.62664501  0.12846666  1
  V  V66  1  0.12695532  0.37299105  0.25443871  1
  V  V67  1  0.12271286  0.87501161  0.25043216  1
  V  V68  1  0.75016779  0.62268702  0.87902090  1
  V  V69  1  0.25369710  0.50071092  0.25092626  1
  V  V70  1  0.00211546  0.24355284  0.24720708  1
  V  V71  1  0.49374990  -0.00453952  0.50095351  1
  V  V72  1  0.26172976  0.61669001  0.87253223  1
  V  V73  1  0.25217855  0.74897979  0.50306392  1
  V  V74  1  0.00232194  0.61518804  0.62689129  1
  V  V75  1  0.62291190  0.75476405  0.37307005  1
  V  V76  1  0.43904477  0.18398867  0.57555307  1
  V  V77  1  0.00962514  0.36851363  0.88025983  1
  V  V78  1  0.38296061  0.62823920  0.23766887  1
  V  V79  1  0.23509408  0.12705434  0.87971270  1
  V  V80  1  0.25237588  0.37401989  0.12374070  1
  V  V81  1  0.62031157  0.25059923  0.87984627  1
  V  V82  1  0.49099460  0.87840860  0.87388950  1
  V  V83  1  0.75057641  0.00204307  0.75004230  1
  V  V84  1  -0.00254143  -0.00768928  0.50250819  1
  Zn  Zn85  1  0.75143228  0.49615635  0.24393014  1
  Zn  Zn86  1  0.87427617  0.75337656  0.13061337  1
  Zn  Zn87  1  0.75596040  0.63044744  0.34497211  1
  Zn  Zn88  1  0.74819652  0.75134537  0.00015556  1
  Zn  Zn89  1  0.88060638  0.24903853  0.11864622  1
  Zn  Zn90  1  0.75473731  0.24434223  0.50789344  1
  Zn  Zn91  1  0.62286797  0.12830245  0.50186792  1
  Zn  Zn92  1  0.37868965  0.11968642  0.24793572  1
  Zn  Zn93  1  -0.00031080  0.37325599  0.37653316  1
  Zn  Zn94  1  0.75471012  0.75070019  0.49102229  1
  Zn  Zn95  1  0.37130973  0.87682082  0.49774329  1
  Zn  Zn96  1  0.86985125  0.13650050  0.74681055  1
  Zn  Zn97  1  0.36911494  0.37803223  -0.00610931  1
  Zn  Zn98  1  0.12885844  0.24883861  0.37650958  1
  Zn  Zn99  1  0.50179058  0.12645563  0.12472832  1
  Zn  Zn100  1  0.50299437  0.24888019  0.24434308  1
  Zn  Zn101  1  0.25984066  0.25038326  0.50258736  1
  Zn  Zn102  1  0.37649418  0.86678631  0.01013911  1
  Zn  Zn103  1  0.00262165  0.49495441  0.50117590  1
  Zn  Zn104  1  -0.00350610  0.87030161  0.38204045  1
  Zn  Zn105  1  0.74527402  0.50380612  0.74180981  1
  Zn  Zn106  1  0.49826467  0.25027569  0.74805858  1
  Zn  Zn107  1  0.19126333  0.18710890  0.18891480  1
  Zn  Zn108  1  0.18512421  0.19201577  0.69163808  1
  Zn  Zn109  1  0.18519528  0.68580812  0.19120279  1
  Zn  Zn110  1  0.18732216  0.68406936  0.69238241  1
  Zn  Zn111  1  0.68753274  0.18709006  0.19097521  1
  Zn  Zn112  1  0.68727135  0.19534258  0.69231643  1
  Zn  Zn113  1  0.67929733  0.69413713  0.18863811  1
  Zn  Zn114  1  0.68858524  0.68700333  0.68512045  1
  Zn  Zn115  1  0.31398802  0.30948840  0.31394935  1
  Zn  Zn116  1  0.30811109  0.30838003  0.81072318  1
  Zn  Zn117  1  0.31459911  0.81173555  0.30956400  1
  Zn  Zn118  1  0.32773892  0.79538466  0.84273134  1
  Zn  Zn119  1  0.81517534  0.31361688  0.31185827  1
  Zn  Zn120  1  0.81226102  0.31168173  0.81225104  1
  Zn  Zn121  1  0.81120963  0.81516629  0.31194945  1
  Zn  Zn122  1  0.81232563  0.81217752  0.81089172  1
  Zn  Zn123  1  0.19183475  0.43656454  0.43959346  1
  Zn  Zn124  1  0.18623265  0.43668518  0.93508942  1
  Zn  Zn125  1  0.18620719  0.93709201  0.43871961  1
  Zn  Zn126  1  0.18716867  0.94170987  0.94034355  1
  Zn  Zn127  1  0.69307506  0.43914710  0.43452666  1
  Zn  Zn128  1  0.67744826  0.44110847  0.93319656  1
  Zn  Zn129  1  0.67869303  0.93931618  0.43692950  1
  Zn  Zn130  1  0.68337721  0.93925116  0.93853919  1
  Zn  Zn131  1  0.31228869  0.05892953  0.06120442  1
  Zn  Zn132  1  0.30811612  0.05729540  0.56532883  1
  Zn  Zn133  1  0.31220368  0.56282597  0.05991584  1
  Zn  Zn134  1  0.31736026  0.55847608  0.56718179  1
  Zn  Zn135  1  0.81124710  0.06176041  0.06029350  1
  Zn  Zn136  1  0.81252078  0.05994954  0.56134334  1
  Zn  Zn137  1  0.78444015  0.59919885  0.10794928  1
  Zn  Zn138  1  0.81589095  0.55671090  0.56094593  1
  Zn  Zn139  1  0.43831147  0.43376414  0.19026906  1
  Zn  Zn140  1  0.43940796  0.43762009  0.68527720  1
  Zn  Zn141  1  0.43769980  0.93325929  0.18146094  1
  Zn  Zn142  1  0.43594043  0.93714722  0.68979196  1
  Zn  Zn143  1  0.94375863  0.43782377  0.19480663  1
  Zn  Zn144  1  0.93220805  0.43451860  0.68781055  1
  Zn  Zn145  1  0.93735040  0.93793362  0.18818486  1
  Zn  Zn146  1  0.93621977  0.93729418  0.68864077  1
  Zn  Zn147  1  0.06453575  0.06111387  0.31509839  1
  Zn  Zn148  1  0.06061203  0.06244506  0.81255863  1
  Zn  Zn149  1  0.06207839  0.56122788  0.31663351  1
  Zn  Zn150  1  0.06415343  0.55721233  0.81247754  1
  Zn  Zn151  1  0.56161705  0.06215132  0.31166357  1
  Zn  Zn152  1  0.56314880  0.06456744  0.81487561  1
  Zn  Zn153  1  0.56583498  0.56499990  0.30986186  1
  Zn  Zn154  1  0.56135925  0.56262757  0.81417173  1
  Zn  Zn155  1  0.44004731  0.18395809  0.41404456  1
  Zn  Zn156  1  0.43237004  0.19198466  0.93929532  1
  Zn  Zn157  1  0.43967211  0.68715499  0.43760832  1
  Zn  Zn158  1  0.43770262  0.68907031  0.94108760  1
  Zn  Zn159  1  0.94090342  0.18434450  0.43125098  1
  Zn  Zn160  1  0.93196510  0.19147739  0.93436925  1
  Zn  Zn161  1  0.93994830  0.68279028  0.43873849  1
  Zn  Zn162  1  0.93931804  0.68520883  0.94081509  1
  Zn  Zn163  1  0.06127640  0.31088955  0.06766340  1
  Zn  Zn164  1  0.06291423  0.30974746  0.56456232  1
  Zn  Zn165  1  0.06507270  0.81456662  0.06328823  1
  Zn  Zn166  1  0.06606058  0.80841086  0.56604971  1
  Zn  Zn167  1  0.56029062  0.31461016  0.05726350  1
  Zn  Zn168  1  0.57130826  0.31895261  0.55676037  1
  Zn  Zn169  1  0.56614182  0.81714543  0.05711580  1
  Zn  Zn170  1  0.56492058  0.81309784  0.56054942  1
  O  O171  1  0.12688352  0.10972825  0.13085909  1
  O  O172  1  0.11962263  0.11893306  0.62089219  1
  O  O173  1  0.11921259  0.62122650  0.11780365  1
  O  O174  1  0.11532113  0.63128871  0.61794313  1
  O  O175  1  0.62483950  0.11191511  0.12819831  1
  O  O176  1  0.63116440  0.11431105  0.62636583  1
  O  O177  1  0.62292827  0.62973739  0.10837822  1
  O  O178  1  0.61406489  0.63041760  0.61566014  1
  O  O179  1  0.38619830  0.38614283  0.36728543  1
  O  O180  1  0.38813709  0.36754778  0.87342466  1
  O  O181  1  0.38721910  0.87023985  0.37845691  1
  O  O182  1  0.39504059  0.89165778  0.84835862  1
  O  O183  1  0.87461988  0.38243758  0.38677037  1
  O  O184  1  0.88544440  0.38693990  0.86765047  1
  O  O185  1  0.87680508  0.88847295  0.37326364  1
  O  O186  1  0.87883530  0.88087199  0.88129849  1
  O  O187  1  0.24268714  0.00425683  0.36389777  1
  O  O188  1  0.24599462  0.01163248  0.86913680  1
  O  O189  1  0.26070587  0.50404075  0.37079596  1
  O  O190  1  0.24456002  0.50388686  0.86077820  1
  O  O191  1  0.75305210  0.00315397  0.36950217  1
  O  O192  1  0.75135803  0.00789933  0.87099798  1
  O  O193  1  0.76138413  0.50798496  0.37122986  1
  O  O194  1  0.75691489  0.50901979  0.87613627  1
  O  O195  1  0.24568768  0.49483687  0.13126931  1
  O  O196  1  0.25479792  0.48784146  0.63596850  1
  O  O197  1  0.23765231  0.99334919  0.13161142  1
  O  O198  1  0.24294387  0.99329225  0.63569308  1
  O  O199  1  0.76152296  0.48581318  0.11348703  1
  O  O200  1  0.75686038  0.48360562  0.62703648  1
  O  O201  1  0.74363525  0.99593133  0.13028419  1
  O  O202  1  0.74396738  0.99325020  0.63003885  1
  O  O203  1  0.01192168  0.36679513  0.25414134  1
  O  O204  1  0.00820905  0.37279820  0.75250937  1
  O  O205  1  0.01052433  0.86890161  0.25185097  1
  O  O206  1  0.00674928  0.87165922  0.75882119  1
  O  O207  1  0.51144778  0.37468971  0.26001371  1
  O  O208  1  0.50429222  0.37401979  0.75756248  1
  O  O209  1  0.49345057  0.86278254  0.25572675  1
  O  O210  1  0.51343389  0.86915122  0.74940153  1
  O  O211  1  0.49636765  0.12861261  0.24696529  1
  O  O212  1  0.48445960  0.12500663  0.75512127  1
  O  O213  1  0.49015212  0.63552836  0.25137638  1
  O  O214  1  0.50836353  0.63360345  0.74021581  1
  O  O215  1  0.99081599  0.12951369  0.25730569  1
  O  O216  1  1.00063466  0.13288271  0.74262266  1
  O  O217  1  1.01005655  0.63377982  0.24078272  1
  O  O218  1  0.99627259  0.62917332  0.74488618  1
  O  O219  1  0.36438307  0.25423651  0.01022257  1
  O  O220  1  0.38364229  0.23679634  0.50798323  1
  O  O221  1  0.36588178  0.77181754  -0.04817868  1
  O  O222  1  0.36917864  0.75043030  0.50968282  1
  O  O223  1  0.86234416  0.25173567  0.00162836  1
  O  O224  1  0.87544738  0.26190045  0.49136253  1
  O  O225  1  0.87610204  0.76375341  -0.00012431  1
  O  O226  1  0.87477598  0.74743719  0.51139182  1
  O  O227  1  0.12558869  0.23568159  0.49991156  1
  O  O228  1  0.13703432  0.24966174  1.00769421  1
  O  O229  1  0.13244518  0.74053349  0.49657967  1
  O  O230  1  0.11939724  0.74047904  0.98981366  1
  O  O231  1  0.63006818  0.24721945  0.48664837  1
  O  O232  1  0.63386247  0.25840742  0.98717657  1
  O  O233  1  0.62724797  0.74222046  0.49099400  1
  O  O234  1  0.62231117  0.73958219  0.99020836  1
  O  O235  1  0.49097729  0.24835151  0.12138422  1
  O  O236  1  0.50274953  0.24779990  0.62447821  1
  O  O237  1  0.50309656  0.75961905  0.13699751  1
  O  O238  1  0.49546823  0.74506044  0.62964794  1
  O  O239  1  0.99825183  0.25080685  0.14062403  1
  O  O240  1  1.00382504  0.23852215  0.63317491  1
  O  O241  1  1.00352129  0.74431575  0.13457008  1
  O  O242  1  0.99258007  0.74444234  0.63121983  1
  O  O243  1  0.00657039  0.25138032  0.36334022  1
  O  O244  1  -0.00147114  0.26004715  0.86948016  1
  O  O245  1  0.00669587  0.74968026  0.37110585  1
  O  O246  1  0.00790040  0.75347808  0.87010367  1
  O  O247  1  0.51017930  0.25986321  0.37039505  1
  O  O248  1  0.50588564  0.26018170  0.87778922  1
  O  O249  1  0.50531900  0.75687385  0.36932198  1
  O  O250  1  0.50850565  0.75727531  0.86416699  1
  O  O251  1  0.24342114  0.12311019  0.49552700  1
  O  O252  1  0.25364382  0.12847740  0.98639152  1
  O  O253  1  0.24617704  0.62816291  0.49937522  1
  O  O254  1  0.23758919  0.61700486  0.99000105  1
  O  O255  1  0.74983567  0.12410500  0.48822689  1
  O  O256  1  0.75252574  0.13108997  0.98759130  1
  O  O257  1  0.73800497  0.62576715  0.50690889  1
  O  O258  1  0.73743939  0.62696596  0.99842700  1
  O  O259  1  0.24882163  0.36821046  0.00461034  1
  O  O260  1  0.25027835  0.37348435  0.51470812  1
  O  O261  1  0.24676989  0.87867635  0.01518474  1
  O  O262  1  0.24947717  0.86826698  0.51057172  1
  O  O263  1  0.75172780  0.37109106  -0.00368155  1
  O  O264  1  0.75994893  0.37221707  0.50508630  1
  O  O265  1  0.75800057  0.87514428  0.00497536  1
  O  O266  1  0.74446529  0.87482566  0.51109143  1
  O  O267  1  0.13160181  0.49397964  0.24669558  1
  O  O268  1  0.12977498  0.48568416  0.74905137  1
  O  O269  1  0.12794413  0.99149652  0.24193717  1
  O  O270  1  0.13344409  0.99465196  0.74787780  1
  O  O271  1  0.62739597  0.48670689  0.25158350  1
  O  O272  1  0.62703034  0.48690250  0.75661923  1
  O  O273  1  0.63726451  1.00097549  0.24389522  1
  O  O274  1  0.62893889  0.99388891  0.74385537  1
  O  O275  1  0.36026952  -0.00354491  0.24269536  1
  O  O276  1  0.36282084  0.01463775  0.74134992  1
  O  O277  1  0.37612404  0.51142402  0.25786531  1
  O  O278  1  0.36181237  0.49476933  0.75118585  1
  O  O279  1  0.86792165  0.00516733  0.25665902  1
  O  O280  1  0.86627052  -0.00035684  0.75755348  1
  O  O281  1  0.87399443  0.49064594  0.26775162  1
  O  O282  1  0.87316130  0.50749558  0.75881673  1
  O  O283  1  0.12828772  0.37469380  0.36478671  1
  O  O284  1  0.11291060  0.38048315  0.86330627  1
  O  O285  1  0.12279378  0.86760820  0.36812912  1
  O  O286  1  0.12252096  0.86611548  0.87410272  1
  O  O287  1  0.62168789  0.36893408  0.36980501  1
  O  O288  1  0.61285508  0.37036326  0.86834713  1
  O  O289  1  0.61521741  0.86163280  0.37922334  1
  O  O290  1  0.62165403  0.86977640  0.86488252  1
  O  O291  1  0.37420151  0.13257650  0.12612332  1
  O  O292  1  0.37511949  0.12824376  0.63326115  1
  O  O293  1  0.36988173  0.62373009  0.13933434  1
  O  O294  1  0.38826812  0.63630376  0.62108809  1
  O  O295  1  0.87063210  0.12263714  0.13881809  1
  O  O296  1  0.88696246  0.11872304  0.62772081  1
  O  O297  1  0.89299424  0.63352393  0.11436706  1
  O  O298  1  0.88152386  0.63232420  0.62973212  1
  O  O299  1  0.25469503  0.25485001  0.11904408  1
  O  O300  1  0.24624489  0.26531468  0.62436920  1
  O  O301  1  0.24004512  0.76287941  0.12700442  1
  O  O302  1  0.25887053  0.75051398  0.62602665  1
  O  O303  1  0.74922360  0.24275451  0.11049517  1
  O  O304  1  0.74946846  0.26382797  0.62394612  1
  O  O305  1  0.75206807  0.75967102  0.12222857  1
  O  O306  1  0.75880640  0.75843948  0.62362273  1
  O  O307  1  0.25013501  0.24005257  0.38214297  1
  O  O308  1  0.25087530  0.23741962  0.88263054  1
  O  O309  1  0.24714618  0.74492996  0.38136440  1
  O  O310  1  0.23206966  0.73277272  0.85699093  1
  O  O311  1  0.74634558  0.24052040  0.37460259  1
  O  O312  1  0.74412843  0.24456609  0.88145060  1
  O  O313  1  0.74264538  0.74604526  0.37171952  1
  O  O314  1  0.74728922  0.73860187  0.87654249  1
  O  O315  1  -0.00951455  0.11229390  -0.00357562  1
  O  O316  1  0.00617645  0.11727541  0.50705777  1
  O  O317  1  0.01101575  0.61699104  0.00577973  1
  O  O318  1  0.01038685  0.62403105  0.51025319  1
  O  O319  1  0.49412090  0.11118601  -0.00054347  1
  O  O320  1  0.49551502  0.12386972  0.50651720  1
  O  O321  1  0.50603371  0.61400185  -0.00728871  1
  O  O322  1  0.51100349  0.61981755  0.50519656  1
  O  O323  1  0.50651539  0.38467821  0.48625040  1
  O  O324  1  0.49879365  0.38889558  0.98888115  1
  O  O325  1  0.49833355  0.88104357  0.49254626  1
  O  O326  1  0.49747969  0.88108708  0.98905315  1
  O  O327  1  0.99162196  0.37450668  0.49959857  1
  O  O328  1  1.00827941  0.38142200  0.99236525  1
  O  O329  1  1.00875679  0.88811426  0.50305784  1
  O  O330  1  0.99353029  0.88151160  0.99586241  1
  O  O331  1  0.49628607  0.49640963  0.37912970  1
  O  O332  1  0.49945335  0.48854112  0.87834628  1
  O  O333  1  0.50838332  0.98850609  0.38497237  1
  O  O334  1  0.51038665  0.99354527  0.88840111  1
  O  O335  1  0.98989837  0.49723427  0.37851115  1
  O  O336  1  0.99157880  0.49548191  0.88298780  1
  O  O337  1  0.99297427  0.99815967  0.38496172  1
  O  O338  1  0.99632757  0.99408608  0.88268572  1
  O  O339  1  0.01303665  -0.00520338  0.11951923  1
  O  O340  1  0.00539867  0.00535820  0.62150536  1
  O  O341  1  0.00601644  0.50717937  0.12331174  1
  O  O342  1  -0.00577039  0.51234260  0.62478524  1
  O  O343  1  0.50766154  -0.00251298  0.11451348  1
  O  O344  1  0.51071491  -0.00778873  0.61849355  1
  O  O345  1  0.49726931  0.49620312  0.11092657  1
  O  O346  1  0.49557900  0.50861764  0.61429130  1
  O  O347  1  0.24587338  0.38114591  0.24591797  1
  O  O348  1  0.24130698  0.38022560  0.74415840  1
  O  O349  1  0.23994638  0.87822336  0.24540596  1
  O  O350  1  0.24723530  0.88365742  0.75120175  1
  O  O351  1  0.73687372  0.37592242  0.25181229  1
  O  O352  1  0.74257283  0.37615767  0.74443616  1
  O  O353  1  0.75539774  0.88493540  0.23927732  1
  O  O354  1  0.74028395  0.87926085  0.74421761  1
  O  O355  1  0.24890827  0.11363329  0.25830182  1
  O  O356  1  0.25501928  0.12160617  0.76072896  1
  O  O357  1  0.25962797  0.62049966  0.25618143  1
  O  O358  1  0.24439319  0.60611313  0.75418030  1
  O  O359  1  0.75702348  0.11730206  0.26002399  1
  O  O360  1  0.75092502  0.12173769  0.75920612  1
  O  O361  1  0.75213848  0.61492433  0.22632567  1
  O  O362  1  0.75556273  0.62400183  0.75926517  1
  O  O363  1  0.36061821  0.11956481  0.36944237  1
  O  O364  1  0.36697722  0.12460032  0.86588229  1
  O  O365  1  0.37152883  0.61888618  0.36813167  1
  O  O366  1  0.36029038  0.62505953  0.87603875  1
  O  O367  1  0.86825348  0.11358147  0.36842831  1
  O  O368  1  0.86567102  0.11802047  0.87000154  1
  O  O369  1  0.87201606  0.61158014  0.38018540  1
  O  O370  1  0.86889081  0.61599107  0.87480265  1
  O  O371  1  0.13157018  0.37997955  0.13764884  1
  O  O372  1  0.12968882  0.37688852  0.63436715  1
  O  O373  1  0.13213281  0.88047646  0.13377283  1
  O  O374  1  0.13226970  0.87809189  0.63475262  1
  O  O375  1  0.62045168  0.36983234  0.13969309  1
  O  O376  1  0.63287152  0.37390986  0.63464824  1
  O  O377  1  0.63814739  0.88501721  0.11936174  1
  O  O378  1  0.63323734  0.88123788  0.63109212  1
  O  O379  1  0.12209131  0.25679419  0.25142884  1
  O  O380  1  0.11381693  0.26571877  0.74861749  1
  O  O381  1  0.11795934  0.75640779  0.25805635  1
  O  O382  1  0.11656100  0.75543553  0.75500486  1
  O  O383  1  0.62624731  0.25858480  0.25911020  1
  O  O384  1  0.62002220  0.26119086  0.76192739  1
  O  O385  1  0.60745425  0.74666298  0.25776640  1
  O  O386  1  0.61948970  0.75734304  0.75143570  1
  O  O387  1  0.37544325  0.24923789  0.23575854  1
  O  O388  1  0.37610235  0.23460205  0.75059222  1
  O  O389  1  0.38614624  0.73783942  0.25323627  1
  O  O390  1  0.39038641  0.75224265  0.74533767  1
  O  O391  1  0.88242073  0.24051189  0.24906424  1
  O  O392  1  0.89229951  0.25309654  0.75358237  1
  O  O393  1  0.89098970  0.75548937  0.25130121  1
  O  O394  1  0.88065694  0.74403554  0.74348040  1
  O  O395  1  0.38840303  0.50802452  0.48743031  1
  O  O396  1  0.38690992  0.49904819  0.99955812  1
  O  O397  1  0.38884993  0.99748844  0.50918685  1
  O  O398  1  0.39039169  0.99061951  1.00562941  1
  O  O399  1  0.87846045  0.48932985  0.48954694  1
  O  O400  1  0.87719301  0.48958390  0.99576850  1
  O  O401  1  0.88545697  1.00309874  0.49220830  1
  O  O402  1  0.88053059  0.99035005  0.99570200  1
  O  O403  1  0.11663764  -0.00219397  0.01478232  1
  O  O404  1  0.11924779  0.00912737  0.50743312  1
  O  O405  1  0.12064093  0.50568860  0.00774137  1
  O  O406  1  0.12441551  0.51231244  0.49608739  1
  O  O407  1  0.61198794  -0.00343667  0.00847105  1
  O  O408  1  0.61339224  0.00625695  0.50817063  1
  O  O409  1  0.61202091  0.51327644  -0.00504758  1
  O  O410  1  0.61509736  0.50845315  0.49091440  1
  O  O411  1  0.36650239  0.36956898  0.12370763  1
  O  O412  1  0.36368501  0.37096842  0.62837253  1
  O  O413  1  0.35527725  0.87164239  0.12736801  1
  O  O414  1  0.36961716  0.86220594  0.62632268  1
  O  O415  1  0.87715066  0.37334604  0.12155835  1
  O  O416  1  0.87129867  0.37617375  0.60935545  1
  O  O417  1  0.86609809  0.87631243  0.11710126  1
  O  O418  1  0.86501057  0.86533949  0.63189498  1
  O  O419  1  0.13522906  0.12315751  0.38485741  1
  O  O420  1  0.13626199  0.12540237  0.87257814  1
  O  O421  1  0.13419419  0.62997138  0.38293953  1
  O  O422  1  0.12551857  0.62860685  0.88269564  1
  O  O423  1  0.63391080  0.13283537  0.37491570  1
  O  O424  1  0.63308839  0.13667296  0.87017613  1
  O  O425  1  0.62929531  0.63563021  0.37988925  1
  O  O426  1  0.63425615  0.62856907  0.87959102  1
