# generated using pymatgen
data_V85Zn86O256
_symmetry_space_group_name_H-M   'P 1'
_cell_length_a   16.91721951
_cell_length_b   16.92848414
_cell_length_c   16.93533081
_cell_angle_alpha   89.95618921
_cell_angle_beta   90.03311982
_cell_angle_gamma   89.96385374
_symmetry_Int_Tables_number   1
_chemical_formula_structural   V85Zn86O256
_chemical_formula_sum   'V85 Zn86 O256'
_cell_volume   4849.98565256
_cell_formula_units_Z   1
loop_
 _symmetry_equiv_pos_site_id
 _symmetry_equiv_pos_as_xyz
  1  'x, y, z'
loop_
 _atom_site_type_symbol
 _atom_site_label
 _atom_site_symmetry_multiplicity
 _atom_site_fract_x
 _atom_site_fract_y
 _atom_site_fract_z
 _atom_site_occupancy
  V  V0  1  0.87461128  0.49861624  0.87384303  1
  V  V1  1  0.75477770  0.24609476  -0.00793714  1
  V  V2  1  0.87172863  0.11847883  0.24907249  1
  V  V3  1  0.00049371  0.12989082  0.61634193  1
  V  V4  1  -0.00212424  0.49936121  0.50239496  1
  V  V5  1  0.75146088  0.37795467  0.11374201  1
  V  V6  1  0.25047476  0.00265056  0.75201416  1
  V  V7  1  0.87148855  -0.00439516  0.37472421  1
  V  V8  1  0.37451700  0.49913314  0.87411258  1
  V  V9  1  0.25181338  0.12937912  0.88130684  1
  V  V10  1  0.49769760  0.12376323  0.62475827  1
  V  V11  1  0.88443444  0.62521650  0.24749315  1
  V  V12  1  0.87860516  0.63656530  0.74701241  1
  V  V13  1  0.12121961  0.87414317  0.75241453  1
  V  V14  1  0.24345091  0.62669207  0.87325344  1
  V  V15  1  0.62549508  0.50516707  0.12010300  1
  V  V16  1  0.74746248  0.12276547  0.37384850  1
  V  V17  1  0.24513432  0.36863604  0.12161702  1
  V  V18  1  0.37196537  0.75127237  0.62487915  1
  V  V19  1  0.37406982  0.86618173  0.01072581  1
  V  V20  1  0.13000486  0.25104010  0.88338558  1
  V  V21  1  0.50560000  0.75534498  0.74627053  1
  V  V22  1  0.25080245  0.62125403  0.37375952  1
  V  V23  1  0.87667436  0.25613503  0.11815181  1
  V  V24  1  -0.00135047  0.49907570  0.01092500  1
  V  V25  1  -0.00321013  0.87017587  0.87097664  1
  V  V26  1  0.74866954  0.75376938  0.51644968  1
  V  V27  1  0.73818386  0.49524129  0.74047982  1
  V  V28  1  0.37584660  0.00119449  0.87982570  1
  V  V29  1  0.12680213  0.75344074  0.36671290  1
  V  V30  1  0.37177740  0.62633248  0.74896349  1
  V  V31  1  0.50227943  0.00187604  0.00405993  1
  V  V32  1  0.12141372  0.37714882  0.24977894  1
  V  V33  1  0.24176109  0.24636906  0.50091681  1
  V  V34  1  0.37488864  0.63219715  0.24273736  1
  V  V35  1  0.12449235  0.00760509  0.62018070  1
  V  V36  1  0.62294434  0.62443598  0.49598300  1
  V  V37  1  0.87708380  0.86916037  0.51325378  1
  V  V38  1  0.37154027  0.36837145  -0.00039496  1
  V  V39  1  0.50383966  0.35558098  0.36804525  1
  V  V40  1  0.74660233  0.50054054  0.25027288  1
  V  V41  1  -0.00399389  0.25108206  0.25320759  1
  V  V42  1  0.37512069  0.12846015  0.74860848  1
  V  V43  1  0.24578503  0.11753992  0.37529686  1
  V  V44  1  0.50288673  0.50389539  -0.00142016  1
  V  V45  1  0.12420701  0.62387376  0.50090941  1
  V  V46  1  0.24675346  0.49730717  0.24369659  1
  V  V47  1  0.50346007  0.62188370  0.62222885  1
  V  V48  1  0.26401541  0.37021870  0.62756328  1
  V  V49  1  0.50668183  0.37426950  0.87264539  1
  V  V50  1  0.63048097  -0.01458021  0.62651552  1
  V  V51  1  0.12481241  0.49612348  0.62586410  1
  V  V52  1  0.25258971  0.50104833  0.74898075  1
  V  V53  1  0.37505898  0.36912041  0.50020115  1
  V  V54  1  0.74342289  0.62333538  0.87586111  1
  V  V55  1  0.63300116  0.86826405  0.25842541  1
  V  V56  1  0.63334970  0.00043879  0.13291728  1
  V  V57  1  0.24986017  0.87742343  0.62668918  1
  V  V58  1  0.74769601  0.25316144  0.49946961  1
  V  V59  1  0.50346949  0.87669790  0.87136034  1
  V  V60  1  0.12604375  -0.01335111  0.13435735  1
  V  V61  1  0.49471379  -0.00250046  0.49101066  1
  V  V62  1  0.00292475  0.12453187  0.12437802  1
  V  V63  1  0.25149873  0.74974841  0.49903838  1
  V  V64  1  0.50461980  0.25016382  0.74610974  1
  V  V65  1  0.88016178  0.74551665  0.12324638  1
  V  V66  1  0.62752959  0.12442369  0.50031050  1
  V  V67  1  -0.00005109  0.24795770  0.75283419  1
  V  V68  1  0.11938827  0.62240224  0.01387781  1
  V  V69  1  0.50391256  0.13402130  0.13193060  1
  V  V70  1  0.87038972  0.25831969  0.62841213  1
  V  V71  1  0.87253868  0.00905181  0.87433897  1
  V  V72  1  0.37917432  0.25219748  0.13621350  1
  V  V73  1  0.74478990  0.74726890  0.00023062  1
  V  V74  1  0.74373937  -0.00513189  0.75563816  1
  V  V75  1  0.62849633  0.24299798  0.87188529  1
  V  V76  1  0.74673302  0.63829432  0.37209249  1
  V  V77  1  0.49904132  0.63299751  0.12041730  1
  V  V78  1  -0.00425088  0.37552868  0.87818116  1
  V  V79  1  0.00053405  0.87340847  0.36767202  1
  V  V80  1  0.62490201  0.75180237  0.87470614  1
  V  V81  1  0.87173570  0.49507820  0.37618990  1
  V  V82  1  0.87342349  0.87635361  -0.00101456  1
  V  V83  1  0.13657901  0.12375163  0.00619059  1
  V  V84  1  0.38073752  0.49782028  0.37242763  1
  Zn  Zn85  1  0.61473326  0.36315628  0.24512994  1
  Zn  Zn86  1  0.38223070  0.12070234  0.26256028  1
  Zn  Zn87  1  0.63053122  0.12266929  -0.00286991  1
  Zn  Zn88  1  0.00055711  0.00309556  0.49863878  1
  Zn  Zn89  1  0.75439751  0.87900476  0.12974050  1
  Zn  Zn90  1  0.70756839  0.37752871  0.62730039  1
  Zn  Zn91  1  -0.00359174  0.37403872  0.37809341  1
  Zn  Zn92  1  0.00175331  0.00087921  -0.00198479  1
  Zn  Zn93  1  0.86476153  0.12861180  0.75255432  1
  Zn  Zn94  1  0.25804288  -0.01140169  0.26110293  1
  Zn  Zn95  1  0.12916615  0.37362360  0.75324698  1
  Zn  Zn96  1  0.11803863  0.24539967  0.38175822  1
  Zn  Zn97  1  0.25062165  0.74649621  0.00319935  1
  Zn  Zn98  1  0.86525419  0.38108209  0.50660911  1
  Zn  Zn99  1  0.36932333  0.88331104  0.49147071  1
  Zn  Zn100  1  0.49867194  0.86529177  0.37242276  1
  Zn  Zn101  1  0.50699513  0.49510877  0.49884638  1
  Zn  Zn102  1  0.00607738  0.74962057  0.24208469  1
  Zn  Zn103  1  0.24914626  0.86105236  0.14142613  1
  Zn  Zn104  1  0.11633424  0.74639240  0.87583258  1
  Zn  Zn105  1  -0.01337495  0.64192985  0.62257943  1
  Zn  Zn106  1  0.50504192  0.74851698  0.25372255  1
  Zn  Zn107  1  0.18867509  0.18840069  0.19252515  1
  Zn  Zn108  1  0.18698015  0.19113497  0.68975615  1
  Zn  Zn109  1  0.19128560  0.68812688  0.18418708  1
  Zn  Zn110  1  0.15937898  0.69925561  0.67588593  1
  Zn  Zn111  1  0.68813215  0.18850888  0.18540480  1
  Zn  Zn112  1  0.68705417  0.18190684  0.68668041  1
  Zn  Zn113  1  0.69063271  0.68684692  0.18274473  1
  Zn  Zn114  1  0.68579613  0.68290888  0.68928622  1
  Zn  Zn115  1  0.31001420  0.30823189  0.31573581  1
  Zn  Zn116  1  0.31711993  0.31095980  0.81258252  1
  Zn  Zn117  1  0.31738018  0.81730529  0.31434759  1
  Zn  Zn118  1  0.31319724  0.81282615  0.81637856  1
  Zn  Zn119  1  0.78036588  0.29777978  0.29615290  1
  Zn  Zn120  1  0.81119389  0.31885767  0.80967358  1
  Zn  Zn121  1  0.81396845  0.81460590  0.31049687  1
  Zn  Zn122  1  0.80933181  0.81683780  0.80989475  1
  Zn  Zn123  1  0.18729762  0.43340163  0.43443578  1
  Zn  Zn124  1  0.18417586  0.44014100  0.94013906  1
  Zn  Zn125  1  0.18436607  0.93549022  0.43801722  1
  Zn  Zn126  1  0.18813202  0.94022245  0.94201911  1
  Zn  Zn127  1  0.68307596  0.43871846  0.43638233  1
  Zn  Zn128  1  0.68608446  0.43620024  0.93479887  1
  Zn  Zn129  1  0.69042511  0.93597599  0.44041392  1
  Zn  Zn130  1  0.68729358  0.93697740  0.93754741  1
  Zn  Zn131  1  0.32772921  0.04595865  0.09617751  1
  Zn  Zn132  1  0.31132522  0.06792476  0.56211933  1
  Zn  Zn133  1  0.31071529  0.55925077  0.06172468  1
  Zn  Zn134  1  0.31584587  0.55904846  0.56150383  1
  Zn  Zn135  1  0.81434199  0.06655312  0.05989736  1
  Zn  Zn136  1  0.81461107  0.06102995  0.56680212  1
  Zn  Zn137  1  0.81602792  0.56484651  0.05867596  1
  Zn  Zn138  1  0.80819039  0.56587222  0.56458892  1
  Zn  Zn139  1  0.43729664  0.43941149  0.18746318  1
  Zn  Zn140  1  0.49345895  0.41702123  0.66427157  1
  Zn  Zn141  1  0.44301626  0.93941688  0.19327960  1
  Zn  Zn142  1  0.43719377  0.93956800  0.68466446  1
  Zn  Zn143  1  0.93175687  0.43564885  0.18927241  1
  Zn  Zn144  1  0.93715611  0.44019791  0.69269730  1
  Zn  Zn145  1  0.93912346  0.93745152  0.18634081  1
  Zn  Zn146  1  0.93708003  0.94232998  0.69106972  1
  Zn  Zn147  1  0.06296516  0.06398936  0.31545766  1
  Zn  Zn148  1  0.06061904  0.06268139  0.81278322  1
  Zn  Zn149  1  0.06338575  0.56024904  0.31430181  1
  Zn  Zn150  1  0.06128121  0.56156804  0.81080049  1
  Zn  Zn151  1  0.56668962  0.06269338  0.31038142  1
  Zn  Zn152  1  0.56579928  0.06146375  0.81112706  1
  Zn  Zn153  1  0.56368029  0.56423810  0.31033844  1
  Zn  Zn154  1  0.56129035  0.56687098  0.81185237  1
  Zn  Zn155  1  0.43013865  0.18499938  0.44062440  1
  Zn  Zn156  1  0.44045120  0.18739660  0.94250665  1
  Zn  Zn157  1  0.43713721  0.69174617  0.43140401  1
  Zn  Zn158  1  0.43781281  0.68673873  0.93451219  1
  Zn  Zn159  1  0.92951349  0.19053440  0.43839458  1
  Zn  Zn160  1  0.94211943  0.18627910  0.94063537  1
  Zn  Zn161  1  0.93517487  0.68717842  0.43550564  1
  Zn  Zn162  1  0.93473156  0.68493800  0.93562129  1
  Zn  Zn163  1  0.06243348  0.31455509  0.06260835  1
  Zn  Zn164  1  0.06163718  0.31825488  0.56582763  1
  Zn  Zn165  1  0.05950640  0.80901991  0.05596564  1
  Zn  Zn166  1  0.06205441  0.81458043  0.55999204  1
  Zn  Zn167  1  0.56569067  0.31512190  0.05808818  1
  Zn  Zn168  1  0.55739027  0.30279623  0.55231278  1
  Zn  Zn169  1  0.56518916  0.81719725  0.06386547  1
  Zn  Zn170  1  0.56322667  0.80805142  0.55644572  1
  O  O171  1  0.12246833  0.12150295  0.12095073  1
  O  O172  1  0.11520638  0.11920347  0.63404869  1
  O  O173  1  0.12298082  0.62219143  0.11239723  1
  O  O174  1  0.14358251  0.60211194  0.61440416  1
  O  O175  1  0.62292774  0.11772964  0.12389872  1
  O  O176  1  0.61734735  0.11592665  0.61647366  1
  O  O177  1  0.61837992  0.61213342  0.12787224  1
  O  O178  1  0.61348145  0.63215883  0.61479450  1
  O  O179  1  0.38263959  0.37874805  0.37762986  1
  O  O180  1  0.38212793  0.37937883  0.88250833  1
  O  O181  1  0.38457566  0.87606201  0.38034358  1
  O  O182  1  0.38582502  0.88261301  0.88243409  1
  O  O183  1  0.86944270  0.39031235  0.37651082  1
  O  O184  1  0.88685420  0.38255538  0.87238656  1
  O  O185  1  0.88005922  0.88024624  0.38212684  1
  O  O186  1  0.87862881  0.88431831  0.87955421  1
  O  O187  1  0.24506934  0.01253106  0.37992357  1
  O  O188  1  0.25617043  0.00863565  0.87176725  1
  O  O189  1  0.25892411  0.49988966  0.36516450  1
  O  O190  1  0.25205486  0.50777343  0.86978445  1
  O  O191  1  0.76372170  0.00682318  0.38217893  1
  O  O192  1  0.75385591  -0.00199316  0.86476634  1
  O  O193  1  0.75321577  0.50638662  0.36618611  1
  O  O194  1  0.75516473  0.50544193  0.87078620  1
  O  O195  1  0.25582645  0.48614109  0.13707089  1
  O  O196  1  0.24981188  0.48686569  0.62962372  1
  O  O197  1  0.23131345  0.98863569  0.12056405  1
  O  O198  1  0.24339633  0.99942281  0.63103953  1
  O  O199  1  0.74468979  0.49775980  0.12442174  1
  O  O200  1  0.74892351  0.49758321  0.63681090  1
  O  O201  1  0.73650750  1.00190814  0.11690343  1
  O  O202  1  0.73591981  0.99997929  0.62907562  1
  O  O203  1  0.00356509  0.36946580  0.25114515  1
  O  O204  1  0.00284664  0.36481591  0.75865259  1
  O  O205  1  -0.00692264  0.86939210  0.26355205  1
  O  O206  1  0.00951149  0.88115712  0.75714634  1
  O  O207  1  0.49774996  0.37434884  0.26267949  1
  O  O208  1  0.48667843  0.36054177  0.76177908  1
  O  O209  1  0.51642060  0.87283088  0.24754751  1
  O  O210  1  0.49255810  0.86742548  0.75851723  1
  O  O211  1  0.50081974  0.12302340  0.23722266  1
  O  O212  1  0.49505352  0.12755694  0.74400870  1
  O  O213  1  0.49201524  0.62178083  0.23790355  1
  O  O214  1  0.49335563  0.63322542  0.74224588  1
  O  O215  1  0.99099685  0.13286227  0.24627154  1
  O  O216  1  0.99722484  0.13844853  0.74656577  1
  O  O217  1  0.98748118  0.62573293  0.25550221  1
  O  O218  1  0.98225419  0.62054968  0.75103390  1
  O  O219  1  0.37977552  0.26488342  0.00505422  1
  O  O220  1  0.36244721  0.26227252  0.49759975  1
  O  O221  1  0.37936314  0.76421414  -0.00410225  1
  O  O222  1  0.36185899  0.74687763  0.50515506  1
  O  O223  1  0.87059797  0.24708755  0.00757952  1
  O  O224  1  0.86602789  0.25594923  0.51133948  1
  O  O225  1  0.86731289  0.75524397  0.00346885  1
  O  O226  1  0.86608587  0.75935249  0.49892815  1
  O  O227  1  0.13691335  0.25990349  0.50165776  1
  O  O228  1  0.12031338  0.24280036  0.99024847  1
  O  O229  1  0.13741123  0.74450241  0.48850107  1
  O  O230  1  0.12235872  0.73407784  0.99467009  1
  O  O231  1  0.63233072  0.23306358  0.50033244  1
  O  O232  1  0.63510935  0.25022828  0.99033320  1
  O  O233  1  0.64122057  0.74412717  0.50013492  1
  O  O234  1  0.63791859  0.75682365  0.99494433  1
  O  O235  1  0.49668668  0.24532985  0.12037275  1
  O  O236  1  0.50061959  0.23297077  0.63193583  1
  O  O237  1  0.50761740  0.73526512  0.12336058  1
  O  O238  1  0.49300597  0.74577306  0.62958284  1
  O  O239  1  0.99256357  0.24607455  0.13002988  1
  O  O240  1  0.99514684  0.24800506  0.63384461  1
  O  O241  1  0.98570492  0.75197677  0.12422464  1
  O  O242  1  1.05365709  0.73021810  0.63024437  1
  O  O243  1  -0.00419300  0.25331815  0.36746211  1
  O  O244  1  0.00518255  0.25666494  0.87141187  1
  O  O245  1  0.00846682  0.75548274  0.37512947  1
  O  O246  1  -0.00422108  0.76511990  0.87766799  1
  O  O247  1  0.49770207  0.25668945  0.37605809  1
  O  O248  1  0.50724192  0.25564904  0.87017709  1
  O  O249  1  0.50593843  0.74930737  0.36851192  1
  O  O250  1  0.50390521  0.75643575  0.86692060  1
  O  O251  1  0.25133973  0.13548872  0.49293185  1
  O  O252  1  0.24013887  0.12130152  0.99837145  1
  O  O253  1  0.24699439  0.62911378  0.49309011  1
  O  O254  1  0.23490994  0.61708249  0.99308259  1
  O  O255  1  0.74463765  0.12801683  0.49718574  1
  O  O256  1  0.74914500  0.14130632  1.00051743  1
  O  O257  1  0.74634296  0.63607679  0.49373283  1
  O  O258  1  0.75554557  0.63475824  0.98820425  1
  O  O259  1  0.25718006  0.38271201  0.00989516  1
  O  O260  1  0.25685391  0.37103250  0.50689325  1
  O  O261  1  0.26809293  0.87455391  -0.00517761  1
  O  O262  1  0.24935189  0.86676150  0.50746555  1
  O  O263  1  0.74906158  0.37013103  0.00810849  1
  O  O264  1  0.74304591  0.36755552  0.50695051  1
  O  O265  1  0.76101613  0.86801125  -0.00179571  1
  O  O266  1  0.76022725  0.86172424  0.49819500  1
  O  O267  1  0.13382759  0.49138213  0.25378962  1
  O  O268  1  0.13313777  0.49694377  0.74275478  1
  O  O269  1  0.12400727  1.00417450  0.23554186  1
  O  O270  1  0.13127217  0.99487290  0.74539707  1
  O  O271  1  0.63289978  0.49555258  0.24108470  1
  O  O272  1  0.63923603  0.50593942  0.75364801  1
  O  O273  1  0.62568451  0.99354200  0.23700491  1
  O  O274  1  0.63183712  1.00008334  0.73900934  1
  O  O275  1  0.36305311  0.01604876  0.21339266  1
  O  O276  1  0.37243832  0.01006400  0.75833618  1
  O  O277  1  0.36715267  0.50392339  0.25606173  1
  O  O278  1  0.36629859  0.50943828  0.75808073  1
  O  O279  1  0.87988682  0.00818775  0.25858738  1
  O  O280  1  0.86483228  0.00368786  0.75758734  1
  O  O281  1  0.86960372  0.50854457  0.25644525  1
  O  O282  1  0.86587273  0.50531633  0.76069285  1
  O  O283  1  0.12091087  0.37059710  0.36201917  1
  O  O284  1  0.11722393  0.36790602  0.87581084  1
  O  O285  1  0.11408653  0.86426827  0.38154732  1
  O  O286  1  0.11411677  0.87954323  0.87216913  1
  O  O287  1  0.60536847  0.37919589  0.37428474  1
  O  O288  1  0.61172613  0.36659010  0.87706183  1
  O  O289  1  0.62524180  0.88365903  0.36055749  1
  O  O290  1  0.61101526  0.87042356  0.87893499  1
  O  O291  1  0.38854967  0.14178169  0.11442796  1
  O  O292  1  0.38383516  0.11855142  0.63723987  1
  O  O293  1  0.38525465  0.61471517  0.13135391  1
  O  O294  1  0.37713287  0.63462953  0.62920115  1
  O  O295  1  0.88048914  0.13147251  0.13209838  1
  O  O296  1  0.88216852  0.13814492  0.62812426  1
  O  O297  1  0.86870352  0.63279378  0.13530381  1
  O  O298  1  0.87350868  0.62293882  0.64083742  1
  O  O299  1  0.25873868  0.26182284  0.12889195  1
  O  O300  1  0.24797781  0.26293637  0.62138676  1
  O  O301  1  0.24882321  0.75130139  0.11546078  1
  O  O302  1  0.25086146  0.75542933  0.61740911  1
  O  O303  1  0.75813639  0.25919987  0.11294344  1
  O  O304  1  0.75300040  0.25405716  0.61888293  1
  O  O305  1  0.75960658  0.75228018  0.11484666  1
  O  O306  1  0.74993887  0.74675349  0.61477778  1
  O  O307  1  0.24343910  0.24413587  0.38503854  1
  O  O308  1  0.24098917  0.24416777  0.87179308  1
  O  O309  1  0.24523046  0.74236238  0.38123110  1
  O  O310  1  0.25329922  0.73518041  0.88174374  1
  O  O311  1  0.76473285  0.23660497  0.39411376  1
  O  O312  1  0.74171997  0.26013679  0.87990746  1
  O  O313  1  0.75657560  0.73969678  0.37962741  1
  O  O314  1  0.74467505  0.74462000  0.87866646  1
  O  O315  1  0.01145017  0.12341835  0.00906143  1
  O  O316  1  -0.00479104  0.12751238  0.51284163  1
  O  O317  1  0.00943040  0.61339224  -0.00708958  1
  O  O318  1  0.00306339  0.61522074  0.50334065  1
  O  O319  1  0.50632689  0.11713265  0.00914756  1
  O  O320  1  0.50551026  0.11784504  0.50588140  1
  O  O321  1  0.49361015  0.61199817  0.00375564  1
  O  O322  1  0.50764931  0.62913013  0.50542866  1
  O  O323  1  0.49057249  0.37421802  0.48497302  1
  O  O324  1  0.49323210  0.38441147  0.99244930  1
  O  O325  1  0.50313156  0.89022245  0.50012465  1
  O  O326  1  0.49271463  0.88096799  0.99493205  1
  O  O327  1  0.99454956  0.38804270  0.49968056  1
  O  O328  1  1.00537236  0.38922052  0.99254493  1
  O  O329  1  0.98906909  0.87285773  0.49183346  1
  O  O330  1  0.98711244  0.87757029  0.99214465  1
  O  O331  1  0.48806624  0.49971318  0.37488467  1
  O  O332  1  0.49726727  0.49394412  0.87888233  1
  O  O333  1  0.50529919  1.00498828  0.39014805  1
  O  O334  1  0.49851804  0.99493641  0.88257485  1
  O  O335  1  0.99041279  0.49965397  0.38462912  1
  O  O336  1  0.99296938  0.49175310  0.87670604  1
  O  O337  1  0.99226565  0.99314033  0.37854917  1
  O  O338  1  0.98981948  0.99191635  0.87524397  1
  O  O339  1  0.00895419  0.00686041  0.12362296  1
  O  O340  1  0.00590914  0.01332582  0.62727225  1
  O  O341  1  -0.01074663  0.49676098  0.10921137  1
  O  O342  1  0.00956681  0.50082192  0.62060868  1
  O  O343  1  0.51385073  0.00772019  0.11877278  1
  O  O344  1  0.51095643  0.00723157  0.62104110  1
  O  O345  1  0.50732722  0.50345233  0.11627193  1
  O  O346  1  0.48604860  0.51928758  0.61673730  1
  O  O347  1  0.24202899  0.37816659  0.24555810  1
  O  O348  1  0.25438666  0.38028110  0.74342705  1
  O  O349  1  0.24572030  0.87645376  0.25349762  1
  O  O350  1  0.24855993  0.88552209  0.74748747  1
  O  O351  1  0.76213863  0.39495767  0.23288629  1
  O  O352  1  0.74724686  0.39036164  0.74556953  1
  O  O353  1  0.73919412  0.87655007  0.24792922  1
  O  O354  1  0.75385303  0.89362209  0.74630580  1
  O  O355  1  0.25012266  0.12375509  0.26568142  1
  O  O356  1  0.25833166  0.12314955  0.75678572  1
  O  O357  1  0.25546707  0.61409656  0.25209917  1
  O  O358  1  0.25166244  0.62119470  0.75709515  1
  O  O359  1  0.76390474  0.12718019  0.25870275  1
  O  O360  1  0.75068608  0.10624254  0.74334070  1
  O  O361  1  0.75520434  0.61734569  0.25499999  1
  O  O362  1  0.75662910  0.61555375  0.75584518  1
  O  O363  1  0.35673619  0.12924411  0.37539610  1
  O  O364  1  0.37252491  0.11967937  0.87339380  1
  O  O365  1  0.36814751  0.61507661  0.36742395  1
  O  O366  1  0.36751713  0.61808270  0.87114006  1
  O  O367  1  0.86983248  0.11583914  0.36958379  1
  O  O368  1  0.88024096  0.11262863  0.87578961  1
  O  O369  1  0.86598779  0.61636874  0.36848638  1
  O  O370  1  0.86478855  0.61903492  0.86602173  1
  O  O371  1  0.13219038  0.36938879  0.13695924  1
  O  O372  1  0.13549738  0.38427142  0.62895542  1
  O  O373  1  0.11691550  0.88491244  0.12086032  1
  O  O374  1  0.13065288  0.88613711  0.63511532  1
  O  O375  1  0.63302335  0.38546315  0.12571300  1
  O  O376  1  0.59447588  0.37886001  0.62421779  1
  O  O377  1  0.63008508  0.88772330  0.13065343  1
  O  O378  1  0.62008915  0.88752540  0.62185439  1
  O  O379  1  0.10825831  0.25496202  0.24986056  1
  O  O380  1  0.11727605  0.25136591  0.76343079  1
  O  O381  1  0.12296283  0.73729605  0.26348089  1
  O  O382  1  0.14074611  0.77180495  0.76338899  1
  O  O383  1  0.67205207  0.26740258  0.26020159  1
  O  O384  1  0.61318296  0.24456638  0.75523723  1
  O  O385  1  0.62907805  0.76527054  0.24202952  1
  O  O386  1  0.61193521  0.74666477  0.75403402  1
  O  O387  1  0.37333979  0.24665366  0.23863243  1
  O  O388  1  0.38751972  0.23528591  0.75810748  1
  O  O389  1  0.37543467  0.73372563  0.25099079  1
  O  O390  1  0.38291694  0.74595018  0.74577750  1
  O  O391  1  0.88039792  0.24485411  0.24111042  1
  O  O392  1  0.88033193  0.24881866  0.74698404  1
  O  O393  1  0.87418621  0.74194554  0.24098850  1
  O  O394  1  0.86909596  0.73534279  0.75490746  1
  O  O395  1  0.37388081  0.48862320  0.48758293  1
  O  O396  1  0.38167043  0.49034896  0.99402255  1
  O  O397  1  0.39226270  1.00228064  0.50927808  1
  O  O398  1  0.38817969  0.99342798  1.00144877  1
  O  O399  1  0.87856148  0.50207666  0.49520795  1
  O  O400  1  0.88700938  0.50819720  0.98511815  1
  O  O401  1  0.87672662  0.98713552  0.49593522  1
  O  O402  1  0.87429125  0.99327234  0.99299341  1
  O  O403  1  0.12149567  0.00842911  0.00926858  1
  O  O404  1  0.12004576  -0.00500421  0.51667971  1
  O  O405  1  0.10982570  0.50973385  -0.00303889  1
  O  O406  1  0.11659360  0.50011788  0.50386224  1
  O  O407  1  0.61655889  -0.00079755  0.00793664  1
  O  O408  1  0.62044508  0.00571007  0.50918151  1
  O  O409  1  0.61488171  0.49548686  0.00593485  1
  O  O410  1  0.62451715  0.51801916  0.49655058  1
  O  O411  1  0.37067273  0.36927584  0.11906066  1
  O  O412  1  0.37495845  0.38019077  0.61287105  1
  O  O413  1  0.37824306  0.87672004  0.11200613  1
  O  O414  1  0.36767967  0.86893921  0.62085124  1
  O  O415  1  0.86888082  0.36427758  0.12350341  1
  O  O416  1  0.87786662  0.36376042  0.62794785  1
  O  O417  1  0.87299346  0.87038579  0.11591533  1
  O  O418  1  0.88457157  0.87585253  0.61199871  1
  O  O419  1  0.13635103  0.12912178  0.37578478  1
  O  O420  1  0.12943638  0.13112526  0.88368975  1
  O  O421  1  0.13153438  0.62773976  0.38294695  1
  O  O422  1  0.13068894  0.62563291  0.87748887  1
  O  O423  1  0.64036201  0.11647305  0.38140414  1
  O  O424  1  0.62078938  0.13849454  0.87740834  1
  O  O425  1  0.63638447  0.62243782  0.37951856  1
  O  O426  1  0.63601232  0.63274414  0.87178127  1
