# generated using pymatgen
data_V85Zn86O256
_symmetry_space_group_name_H-M   'P 1'
_cell_length_a   16.94112569
_cell_length_b   16.93169375
_cell_length_c   16.94920750
_cell_angle_alpha   90.00235492
_cell_angle_beta   90.02153106
_cell_angle_gamma   89.96203266
_symmetry_Int_Tables_number   1
_chemical_formula_structural   V85Zn86O256
_chemical_formula_sum   'V85 Zn86 O256'
_cell_volume   4861.74234786
_cell_formula_units_Z   1
loop_
 _symmetry_equiv_pos_site_id
 _symmetry_equiv_pos_as_xyz
  1  'x, y, z'
loop_
 _atom_site_type_symbol
 _atom_site_label
 _atom_site_symmetry_multiplicity
 _atom_site_fract_x
 _atom_site_fract_y
 _atom_site_fract_z
 _atom_site_occupancy
  V  V0  1  0.00447450  0.11963255  0.12653016  1
  V  V1  1  0.88041146  -0.00904051  0.37514566  1
  V  V2  1  0.50836404  0.12641794  0.12454096  1
  V  V3  1  -0.00210040  0.01360478  0.50541576  1
  V  V4  1  0.24575667  0.12871450  0.87185626  1
  V  V5  1  0.24467786  0.25190490  -0.00208561  1
  V  V6  1  0.12623964  0.50461605  0.12795051  1
  V  V7  1  0.62181713  -0.01053567  0.62661193  1
  V  V8  1  0.87497711  0.37578447  -0.00521870  1
  V  V9  1  0.37835722  0.75208239  0.12747883  1
  V  V10  1  0.62834463  0.49967014  0.12298374  1
  V  V11  1  0.88834688  0.86979663  0.50026755  1
  V  V12  1  0.74481679  -0.00900141  0.74967905  1
  V  V13  1  0.37823693  0.25029128  0.12516246  1
  V  V14  1  0.37421957  0.12528661  0.25586736  1
  V  V15  1  0.24547778  0.00594257  0.25886905  1
  V  V16  1  0.37249436  0.50300590  0.86525891  1
  V  V17  1  0.87783576  -0.00752584  0.87316738  1
  V  V18  1  0.50029348  0.62853914  0.12384293  1
  V  V19  1  0.00052430  0.75362158  0.25257029  1
  V  V20  1  0.50708751  0.00596748  -0.00082769  1
  V  V21  1  0.74894469  0.74938626  0.00128097  1
  V  V22  1  0.62874765  -0.00972027  0.12511399  1
  V  V23  1  0.86957138  0.75523725  0.12789334  1
  V  V24  1  0.24777705  0.75216817  -0.00077894  1
  V  V25  1  0.37437087  0.26221618  0.62210734  1
  V  V26  1  0.62507831  0.25036821  0.37352864  1
  V  V27  1  0.87638940  0.87290304  0.00009528  1
  V  V28  1  0.25347660  0.37786989  0.12752620  1
  V  V29  1  0.75283989  0.24931425  0.50143082  1
  V  V30  1  0.74285774  0.12121328  0.87819585  1
  V  V31  1  0.37644986  0.13393239  0.74966395  1
  V  V32  1  0.87627454  0.49759395  0.85794699  1
  V  V33  1  0.00249474  0.50724336  0.49623932  1
  V  V34  1  0.75678084  0.37767925  0.63289101  1
  V  V35  1  0.87656637  0.24836217  0.12447778  1
  V  V36  1  0.62941603  0.49891710  0.63194389  1
  V  V37  1  0.25910543  0.50704292  0.25021754  1
  V  V38  1  0.37741120  0.49557023  0.38797831  1
  V  V39  1  0.87336916  0.74152744  0.62843718  1
  V  V40  1  0.49981460  0.38029624  0.38555362  1
  V  V41  1  -0.00033409  0.62581838  0.12697030  1
  V  V42  1  0.00357124  -0.00537194  -0.00004766  1
  V  V43  1  0.87644255  0.11967286  0.74342089  1
  V  V44  1  0.14477637  0.12380960  0.49725639  1
  V  V45  1  -0.00162140  0.49778946  -0.00271912  1
  V  V46  1  0.24936358  0.00392626  0.75035598  1
  V  V47  1  0.75422123  0.61855999  0.86078305  1
  V  V48  1  0.11990167  0.75401685  0.37543962  1
  V  V49  1  0.50218586  0.36867266  0.86648850  1
  V  V50  1  0.50119423  -0.00342527  0.49067218  1
  V  V51  1  0.24493859  0.87793954  0.62730637  1
  V  V52  1  -0.00811509  0.74577707  0.76064803  1
  V  V53  1  0.25817823  0.26990938  0.49362858  1
  V  V54  1  0.88840321  0.24612538  0.62166598  1
  V  V55  1  0.61988532  0.61927900  0.49627196  1
  V  V56  1  0.74362255  0.75158038  0.49710999  1
  V  V57  1  0.62536919  0.12326267  0.50044085  1
  V  V58  1  0.12682810  0.37445396  0.24700384  1
  V  V59  1  0.74979798  -0.01485632  0.24924329  1
  V  V60  1  0.62713944  0.75239084  0.86628189  1
  V  V61  1  0.74494612  0.62513010  0.37442469  1
  V  V62  1  0.87379784  0.38251830  0.49531719  1
  V  V63  1  0.50117505  0.62308810  0.62773598  1
  V  V64  1  0.39704935  0.64562734  0.27427182  1
  V  V65  1  0.12045566  0.88212059  0.24983549  1
  V  V66  1  0.24296119  0.62480677  0.37731849  1
  V  V67  1  0.00475636  0.24396529  0.77348550  1
  V  V68  1  0.87296147  0.12133451  0.25040345  1
  V  V69  1  0.50172876  0.13097775  0.62816676  1
  V  V70  1  0.24485216  0.74843409  0.50451855  1
  V  V71  1  0.37666994  0.37675672  0.00148936  1
  V  V72  1  0.87354365  0.62287792  0.25412545  1
  V  V73  1  0.50540546  0.87772235  0.86660818  1
  V  V74  1  0.11466793  0.87877476  0.75903413  1
  V  V75  1  0.12564449  0.12216419  0.00229366  1
  V  V76  1  0.74235187  0.24568257  -0.00054453  1
  V  V77  1  0.75345881  0.49829707  0.25274765  1
  V  V78  1  0.50092320  0.50001185  -0.00227711  1
  V  V79  1  0.24554131  0.88625255  0.12423884  1
  V  V80  1  0.24786829  0.62687122  0.87016461  1
  V  V81  1  0.60703639  0.86385345  0.26218036  1
  V  V82  1  -0.00455416  0.37685322  0.36958318  1
  V  V83  1  0.37820333  0.87954766  -0.00119723  1
  V  V84  1  0.37483497  0.87638586  0.49476678  1
  Zn  Zn85  1  0.74735280  0.87139936  0.62569704  1
  Zn  Zn86  1  0.11550038  0.75522352  0.88162791  1
  Zn  Zn87  1  0.00063256  0.61953677  0.63429320  1
  Zn  Zn88  1  0.11456027  0.01838205  0.63344465  1
  Zn  Zn89  1  0.12382633  0.62852177  0.00210837  1
  Zn  Zn90  1  0.37207892  0.63042741  0.74865827  1
  Zn  Zn91  1  0.50097075  0.25402800  0.24997292  1
  Zn  Zn92  1  0.21671318  0.41417073  0.64769377  1
  Zn  Zn93  1  0.37833729  0.00366007  0.87349917  1
  Zn  Zn94  1  0.75016723  0.37320410  0.12590750  1
  Zn  Zn95  1  0.15968684  0.57545760  0.56041887  1
  Zn  Zn96  1  0.62781093  0.62579062  -0.00402372  1
  Zn  Zn97  1  0.13198762  0.24314194  0.36854934  1
  Zn  Zn98  1  0.12628428  0.38062112  0.77802445  1
  Zn  Zn99  1  0.37421246  0.00159452  0.37547856  1
  Zn  Zn100  1  0.62933903  0.36804360  0.74888778  1
  Zn  Zn101  1  0.50054033  0.75484391  0.74753576  1
  Zn  Zn102  1  0.37657622  0.75361019  0.62885482  1
  Zn  Zn103  1  0.62536965  0.37553406  0.25017832  1
  Zn  Zn104  1  0.62062088  0.24284037  0.86904894  1
  Zn  Zn105  1  0.75066180  0.12106546  0.37563565  1
  Zn  Zn106  1  0.00215496  0.24804823  0.24955533  1
  Zn  Zn107  1  0.18784379  0.18766660  0.18367178  1
  Zn  Zn108  1  0.16651030  0.23346718  0.66483144  1
  Zn  Zn109  1  0.19329285  0.69112840  0.19024499  1
  Zn  Zn110  1  0.17989024  0.69271393  0.69226450  1
  Zn  Zn111  1  0.69030791  0.18173255  0.18860277  1
  Zn  Zn112  1  0.68886918  0.18687476  0.68948824  1
  Zn  Zn113  1  0.68437960  0.68922914  0.18686143  1
  Zn  Zn114  1  0.68557229  0.68850983  0.68554422  1
  Zn  Zn115  1  0.31627315  0.31293964  0.31278781  1
  Zn  Zn116  1  0.31070211  0.31544274  0.81136851  1
  Zn  Zn117  1  0.30822021  0.81649010  0.31407867  1
  Zn  Zn118  1  0.31430438  0.81353496  0.81254763  1
  Zn  Zn119  1  0.81109153  0.31100279  0.31216279  1
  Zn  Zn120  1  0.81684897  0.30767333  0.81235368  1
  Zn  Zn121  1  0.80919671  0.81053767  0.31652908  1
  Zn  Zn122  1  0.81206205  0.81197485  0.81475964  1
  Zn  Zn123  1  0.18488558  0.43576898  0.43092013  1
  Zn  Zn124  1  0.18978180  0.44407015  0.94166317  1
  Zn  Zn125  1  0.18257608  0.93790769  0.43819464  1
  Zn  Zn126  1  0.18829550  0.94194983  0.93621428  1
  Zn  Zn127  1  0.68693240  0.43986868  0.43923919  1
  Zn  Zn128  1  0.69026976  0.43666916  0.93588561  1
  Zn  Zn129  1  0.68913378  0.93371132  0.43489220  1
  Zn  Zn130  1  0.68885646  0.93395547  0.93982556  1
  Zn  Zn131  1  0.31695518  0.06426853  0.06564332  1
  Zn  Zn132  1  0.31520022  0.06291580  0.56762551  1
  Zn  Zn133  1  0.31645274  0.56782593  0.06114313  1
  Zn  Zn134  1  0.32536046  0.55784074  0.56465728  1
  Zn  Zn135  1  0.80984686  0.05916526  0.06379001  1
  Zn  Zn136  1  0.81098777  0.05977564  0.56255266  1
  Zn  Zn137  1  0.81269817  0.56597093  0.06106515  1
  Zn  Zn138  1  0.81374745  0.56047455  0.56149337  1
  Zn  Zn139  1  0.44171886  0.44223941  0.19605849  1
  Zn  Zn140  1  0.44075339  0.44342910  0.68543691  1
  Zn  Zn141  1  0.43718986  0.94010287  0.18798797  1
  Zn  Zn142  1  0.43343580  0.94252308  0.68337363  1
  Zn  Zn143  1  0.93656602  0.43583325  0.18337714  1
  Zn  Zn144  1  0.98777917  0.44614108  0.70055675  1
  Zn  Zn145  1  0.93834429  0.93587556  0.18485784  1
  Zn  Zn146  1  0.93658946  0.93131909  0.68237212  1
  Zn  Zn147  1  0.06032185  0.06023062  0.31865175  1
  Zn  Zn148  1  0.06157209  0.06541080  0.81637259  1
  Zn  Zn149  1  0.06125118  0.56069373  0.31518758  1
  Zn  Zn150  1  0.06767169  0.56327314  0.81592431  1
  Zn  Zn151  1  0.56442700  0.06262928  0.30963754  1
  Zn  Zn152  1  0.56244525  0.06338221  0.80899319  1
  Zn  Zn153  1  0.56497797  0.56113875  0.31278735  1
  Zn  Zn154  1  0.56613084  0.56106566  0.81024658  1
  Zn  Zn155  1  0.43916881  0.18977514  0.43859812  1
  Zn  Zn156  1  0.43485210  0.18735830  0.93900704  1
  Zn  Zn157  1  0.43297000  0.68554257  0.44517148  1
  Zn  Zn158  1  0.43768154  0.69013853  0.93694460  1
  Zn  Zn159  1  0.93902407  0.19011089  0.43045115  1
  Zn  Zn160  1  0.92394644  0.17456812  0.94302208  1
  Zn  Zn161  1  0.93173635  0.68983875  0.43358352  1
  Zn  Zn162  1  0.93368871  0.68172468  0.93705911  1
  Zn  Zn163  1  0.05711884  0.30757390  -0.04929413  1
  Zn  Zn164  1  0.06290398  0.31259281  0.55187689  1
  Zn  Zn165  1  0.06139844  0.81408029  0.06696940  1
  Zn  Zn166  1  0.06602630  0.80076616  0.57256950  1
  Zn  Zn167  1  0.56457360  0.31487946  0.05982096  1
  Zn  Zn168  1  0.56523782  0.31257777  0.56396395  1
  Zn  Zn169  1  0.56487473  0.81477329  0.06090223  1
  Zn  Zn170  1  0.56061311  0.80893539  0.55770772  1
  O  O171  1  0.11115200  0.12546462  0.12069752  1
  O  O172  1  0.12733600  0.13182873  0.60193336  1
  O  O173  1  0.12010239  0.62172240  0.12856401  1
  O  O174  1  0.10763073  0.65684526  0.61391428  1
  O  O175  1  0.61365728  0.11423982  0.13223942  1
  O  O176  1  0.61897114  0.11861888  0.61884031  1
  O  O177  1  0.61947280  0.61596748  0.11951911  1
  O  O178  1  0.62067961  0.61825075  0.61990144  1
  O  O179  1  0.39082393  0.38167217  0.36826380  1
  O  O180  1  0.38391745  0.38278357  0.88020432  1
  O  O181  1  0.36821521  0.87781311  0.39025636  1
  O  O182  1  0.38193201  0.87796944  0.88710215  1
  O  O183  1  0.88308884  0.36721767  0.38214053  1
  O  O184  1  0.86753282  0.38463667  0.88405876  1
  O  O185  1  0.87211991  0.87970834  0.38563283  1
  O  O186  1  0.87251578  0.88532849  0.88276505  1
  O  O187  1  0.25122467  -0.00260371  0.36186258  1
  O  O188  1  0.25443659  0.00769345  0.86558732  1
  O  O189  1  0.25573361  0.50487073  0.36939248  1
  O  O190  1  0.26149733  0.51431044  0.88611784  1
  O  O191  1  0.76157311  0.00017803  0.36843837  1
  O  O192  1  0.75465807  0.00192927  0.86944125  1
  O  O193  1  0.74635611  0.51136725  0.36541032  1
  O  O194  1  0.75789133  0.51094526  0.87562429  1
  O  O195  1  0.24877357  0.50048172  0.13085296  1
  O  O196  1  0.23810342  0.51617518  0.61636624  1
  O  O197  1  0.25457449  0.98978368  0.13040527  1
  O  O198  1  0.24466002  0.99784803  0.63751244  1
  O  O199  1  0.74240483  0.50132526  0.12910351  1
  O  O200  1  0.74549528  0.48878766  0.61930821  1
  O  O201  1  0.74022249  1.00203657  0.13457072  1
  O  O202  1  0.74025232  0.99771156  0.63194971  1
  O  O203  1  0.00784867  0.37525640  0.25193790  1
  O  O204  1  -0.00150650  0.34391057  0.75500833  1
  O  O205  1  0.01002298  0.86877701  0.24439206  1
  O  O206  1  0.00671447  0.86913212  0.74931762  1
  O  O207  1  0.50734792  0.37254829  0.25964532  1
  O  O208  1  0.49926927  0.37959982  0.76519755  1
  O  O209  1  0.50739467  0.87782114  0.25179088  1
  O  O210  1  0.49346899  0.88113559  0.76378240  1
  O  O211  1  0.49389862  0.12761233  0.24110492  1
  O  O212  1  0.48960140  0.12067245  0.74053710  1
  O  O213  1  0.49985107  0.61016535  0.22895882  1
  O  O214  1  0.50236200  0.62733235  0.73920725  1
  O  O215  1  0.98974780  0.11994603  0.24354256  1
  O  O216  1  0.98356263  0.12752188  0.75739215  1
  O  O217  1  0.99132335  0.62935224  0.24696790  1
  O  O218  1  1.00026967  0.64306113  0.75276386  1
  O  O219  1  0.36889324  0.25656588  0.00765038  1
  O  O220  1  0.36538632  0.24950972  0.50373062  1
  O  O221  1  0.36939176  0.75960416  0.00769677  1
  O  O222  1  0.36188721  0.75825366  0.50397535  1
  O  O223  1  0.86750463  0.25507734  0.00682955  1
  O  O224  1  0.86902047  0.25243289  0.50319165  1
  O  O225  1  0.87146070  0.75479675  0.00692789  1
  O  O226  1  0.86730976  0.75443194  0.50525624  1
  O  O227  1  0.14339941  0.24145778  0.49274993  1
  O  O228  1  0.13221697  0.23357799  1.00427169  1
  O  O229  1  0.13762000  0.76495613  0.48883313  1
  O  O230  1  0.13287146  0.75249631  1.00009477  1
  O  O231  1  0.63307324  0.24549366  0.49135113  1
  O  O232  1  0.63923767  0.25339556  0.99531966  1
  O  O233  1  0.63714042  0.73826961  0.50513211  1
  O  O234  1  0.63422050  0.74965425  0.99144872  1
  O  O235  1  0.49874910  0.24297345  0.12382571  1
  O  O236  1  0.49333408  0.23740680  0.61551542  1
  O  O237  1  0.49157760  0.74151784  0.11545460  1
  O  O238  1  0.50225494  0.73936516  0.62816717  1
  O  O239  1  0.98353920  0.23523473  0.12866239  1
  O  O240  1  0.98842059  0.24605122  0.62037514  1
  O  O241  1  0.99197567  0.74376929  0.13257762  1
  O  O242  1  0.98632585  0.75398089  0.63926036  1
  O  O243  1  0.00509030  0.26224766  0.36931759  1
  O  O244  1  -0.00723596  0.24038742  0.87763649  1
  O  O245  1  0.01273404  0.74514006  0.37044203  1
  O  O246  1  -0.00637253  0.75073646  0.86576096  1
  O  O247  1  0.50888003  0.25933812  0.37411119  1
  O  O248  1  0.50038362  0.26534345  0.88424996  1
  O  O249  1  0.45790137  0.70289363  0.33544409  1
  O  O250  1  0.50968004  0.75929529  0.87661515  1
  O  O251  1  0.24496698  0.11697586  0.49265853  1
  O  O252  1  0.24445077  0.12917634  0.99826489  1
  O  O253  1  0.24737383  0.63499344  0.49430256  1
  O  O254  1  0.25017255  0.63814162  0.99540871  1
  O  O255  1  0.74430918  0.13183516  0.49827171  1
  O  O256  1  0.75847575  0.13189078  0.99021694  1
  O  O257  1  0.74583809  0.62914741  0.49112282  1
  O  O258  1  0.75139731  0.63651986  0.99045054  1
  O  O259  1  0.25712920  0.36904987  0.00863449  1
  O  O260  1  0.24814810  0.36930092  0.50178879  1
  O  O261  1  0.25685556  0.87410915  0.00544822  1
  O  O262  1  0.25275319  0.87417163  0.50943002  1
  O  O263  1  0.75862498  0.36646855  0.00248760  1
  O  O264  1  0.75739402  0.36766925  0.50215438  1
  O  O265  1  0.76301056  0.86114194  -0.00476611  1
  O  O266  1  0.75596535  0.86398414  0.50001967  1
  O  O267  1  0.13483730  0.49752438  0.24608955  1
  O  O268  1  0.08824437  0.48455062  0.74189396  1
  O  O269  1  0.12988419  0.99352659  0.25363180  1
  O  O270  1  0.12913282  0.99777819  0.74982953  1
  O  O271  1  0.63752594  0.50147052  0.24048590  1
  O  O272  1  0.62566248  0.49322366  0.73627740  1
  O  O273  1  0.63235328  0.99203338  0.24527542  1
  O  O274  1  0.63305050  1.00491425  0.73886838  1
  O  O275  1  0.36655473  0.00752710  0.25121714  1
  O  O276  1  0.36550685  0.01180552  0.74989324  1
  O  O277  1  0.37426637  0.51671431  0.26059307  1
  O  O278  1  0.37790769  0.50573144  0.76241169  1
  O  O279  1  0.87032061  -0.00022887  0.25617100  1
  O  O280  1  0.87055888  0.00113541  0.75502992  1
  O  O281  1  0.86234023  0.50842963  0.24021532  1
  O  O282  1  0.89390722  0.48946640  0.76084557  1
  O  O283  1  0.11898237  0.37338565  0.35956481  1
  O  O284  1  0.12402129  0.37225159  0.89086081  1
  O  O285  1  0.13124737  0.86633907  0.36153922  1
  O  O286  1  0.13071925  0.87569703  0.86287338  1
  O  O287  1  0.61817889  0.36949832  0.37498234  1
  O  O288  1  0.61163178  0.37754593  0.87455073  1
  O  O289  1  0.62388862  0.87590341  0.36167019  1
  O  O290  1  0.61681656  0.86624182  0.88004087  1
  O  O291  1  0.38768461  0.13016484  0.13179638  1
  O  O292  1  0.38364823  0.13112447  0.63177593  1
  O  O293  1  0.38333706  0.63592498  0.13119054  1
  O  O294  1  0.38989777  0.62808857  0.62643628  1
  O  O295  1  0.88040329  0.12597873  0.13168262  1
  O  O296  1  0.86679508  0.13160175  0.63401911  1
  O  O297  1  0.87843124  0.63456760  0.13490618  1
  O  O298  1  0.87797160  0.63775956  0.61886327  1
  O  O299  1  0.25641522  0.25491522  0.11432916  1
  O  O300  1  0.26381130  0.24121585  0.60376628  1
  O  O301  1  0.25607216  0.76060289  0.11451299  1
  O  O302  1  0.25012034  0.76001856  0.61920898  1
  O  O303  1  0.75843481  0.24537223  0.11807078  1
  O  O304  1  0.75579455  0.25470339  0.61280518  1
  O  O305  1  0.75868238  0.74259805  0.11508307  1
  O  O306  1  0.75523428  0.75038458  0.61790200  1
  O  O307  1  0.25303538  0.25473812  0.38819241  1
  O  O308  1  0.25826076  0.24231012  0.89121597  1
  O  O309  1  0.24262430  0.74345548  0.38141941  1
  O  O310  1  0.25116959  0.74829275  0.88857341  1
  O  O311  1  0.74438285  0.24793269  0.38582256  1
  O  O312  1  0.75493259  0.23770276  0.88313646  1
  O  O313  1  0.75305917  0.73571354  0.38322138  1
  O  O314  1  0.74604326  0.74099352  0.87951881  1
  O  O315  1  0.00578684  0.11741453  0.00718296  1
  O  O316  1  -0.00411709  0.11487552  0.49803049  1
  O  O317  1  -0.00166482  0.61870895  0.01150545  1
  O  O318  1  -0.00901256  0.60745492  0.48623085  1
  O  O319  1  0.49638564  0.11385838  0.00655636  1
  O  O320  1  0.50559700  0.11742036  0.50655677  1
  O  O321  1  0.50063556  0.61667465  0.00644949  1
  O  O322  1  0.50989765  0.63223330  0.51136344  1
  O  O323  1  0.50545272  0.37265587  0.48459929  1
  O  O324  1  0.49575389  0.38401441  0.99313433  1
  O  O325  1  0.48858037  0.88332036  0.50681684  1
  O  O326  1  0.49412344  0.88539950  0.99426519  1
  O  O327  1  0.99340005  0.38074593  0.48921740  1
  O  O328  1  0.98434043  0.38246949  1.00415275  1
  O  O329  1  0.99018296  0.87557142  0.50627413  1
  O  O330  1  0.98812405  0.88056708  1.00544656  1
  O  O331  1  0.49460199  0.48918951  0.37239508  1
  O  O332  1  0.49489074  0.49556587  0.88266973  1
  O  O333  1  0.49966380  1.00466351  0.38805777  1
  O  O334  1  0.50157142  0.99615279  0.88302273  1
  O  O335  1  0.99918436  0.48653815  0.37915876  1
  O  O336  1  0.98955874  0.51104007  0.89312187  1
  O  O337  1  0.98687537  0.99769323  0.38508022  1
  O  O338  1  0.99062618  1.00517589  0.88959105  1
  O  O339  1  -0.00844338  0.00721120  0.11087924  1
  O  O340  1  0.00054727  -0.00291787  0.61296516  1
  O  O341  1  0.00451004  0.50636138  0.11904532  1
  O  O342  1  -0.00881514  0.50469295  0.60130988  1
  O  O343  1  0.50663171  0.00657092  0.11813517  1
  O  O344  1  0.50619249  0.00956058  0.61785583  1
  O  O345  1  0.50607894  0.50341130  0.11354151  1
  O  O346  1  0.51018261  0.51265210  0.62492774  1
  O  O347  1  0.24724959  0.38316221  0.24615525  1
  O  O348  1  0.23709780  0.36493519  0.74766581  1
  O  O349  1  0.24400516  0.88494453  0.24176527  1
  O  O350  1  0.24554754  0.88505350  0.74594513  1
  O  O351  1  0.74800777  0.38394444  0.24804371  1
  O  O352  1  0.75640608  0.36980534  0.73526262  1
  O  O353  1  0.74654833  0.88289971  0.25173736  1
  O  O354  1  0.75250323  0.88728681  0.74913157  1
  O  O355  1  0.25910611  0.11576331  0.23894351  1
  O  O356  1  0.25506140  0.12025338  0.75952018  1
  O  O357  1  0.26506504  0.62770306  0.26116388  1
  O  O358  1  0.24915148  0.63665487  0.76635488  1
  O  O359  1  0.76110624  0.11216447  0.25132107  1
  O  O360  1  0.75999049  0.11311445  0.75642439  1
  O  O361  1  0.75374240  0.62096846  0.25479922  1
  O  O362  1  0.74993553  0.62846048  0.76239969  1
  O  O363  1  0.38235388  0.12545039  0.35911028  1
  O  O364  1  0.36666627  0.12549007  0.86813958  1
  O  O365  1  0.35823195  0.61265232  0.38326685  1
  O  O366  1  0.36914491  0.61919234  0.87618609  1
  O  O367  1  0.87449978  0.11620751  0.36496040  1
  O  O368  1  0.86380568  0.10882911  0.86871509  1
  O  O369  1  0.86648319  0.62762648  0.35951526  1
  O  O370  1  0.86227450  0.61427481  0.87586152  1
  O  O371  1  0.13499676  0.38678889  0.13806926  1
  O  O372  1  0.12741790  0.34258172  0.63678871  1
  O  O373  1  0.13510748  0.87130058  0.13643572  1
  O  O374  1  0.13539486  0.87615517  0.63711038  1
  O  O375  1  0.62745336  0.38784494  0.12541393  1
  O  O376  1  0.63621776  0.38176087  0.62248015  1
  O  O377  1  0.61933081  0.88606150  0.13485851  1
  O  O378  1  0.62440794  0.88636610  0.62033235  1
  O  O379  1  0.12520680  0.25931550  0.24838454  1
  O  O380  1  0.10351403  0.22526109  0.76092814  1
  O  O381  1  0.12228641  0.75819201  0.25690573  1
  O  O382  1  0.10909911  0.76143739  0.75796888  1
  O  O383  1  0.62986749  0.24878123  0.26385940  1
  O  O384  1  0.63055430  0.25354547  0.75583672  1
  O  O385  1  0.62456165  0.76565127  0.24441688  1
  O  O386  1  0.62424198  0.75083051  0.76238021  1
  O  O387  1  0.37573857  0.24309193  0.24095924  1
  O  O388  1  0.37012726  0.23915454  0.74131295  1
  O  O389  1  0.36163477  0.75275632  0.23208394  1
  O  O390  1  0.38093739  0.74940878  0.74739495  1
  O  O391  1  0.87293612  0.23810643  0.24321073  1
  O  O392  1  0.88219889  0.23765645  0.74297556  1
  O  O393  1  0.87789324  0.74574449  0.24440413  1
  O  O394  1  0.88344727  0.75720059  0.74405583  1
  O  O395  1  0.37799207  0.49496386  0.48729713  1
  O  O396  1  0.38438901  0.49594354  0.99496517  1
  O  O397  1  0.38341618  0.99506290  0.49979443  1
  O  O398  1  0.38418870  0.99410320  0.99926603  1
  O  O399  1  0.87909830  0.48676787  0.49536020  1
  O  O400  1  0.87977069  0.49155403  1.00017361  1
  O  O401  1  0.87964978  0.99176099  0.49481308  1
  O  O402  1  0.87773809  0.99086298  0.99393571  1
  O  O403  1  0.11710735  0.00884998  -0.00073607  1
  O  O404  1  0.11713331  0.01079934  0.50090529  1
  O  O405  1  0.11590654  0.50461133  0.01245116  1
  O  O406  1  0.10833845  0.49795884  0.49090963  1
  O  O407  1  0.61824263  -0.00601685  0.00992132  1
  O  O408  1  0.62022446  0.00306152  0.50544369  1
  O  O409  1  0.61851719  0.50176472  0.00478790  1
  O  O410  1  0.63080877  0.51359361  0.51004538  1
  O  O411  1  0.37294620  0.37210668  0.12328630  1
  O  O412  1  0.38274933  0.36199367  0.63132301  1
  O  O413  1  0.37092207  0.87240503  0.11512650  1
  O  O414  1  0.36137139  0.87828948  0.61688865  1
  O  O415  1  0.87176770  0.36313523  0.11909322  1
  O  O416  1  0.86931276  0.36295774  0.61128005  1
  O  O417  1  0.87557644  0.86226312  0.11904377  1
  O  O418  1  0.86815693  0.86416566  0.61504615  1
  O  O419  1  0.11641139  0.12802420  0.39194679  1
  O  O420  1  0.13914677  0.11960797  0.88568058  1
  O  O421  1  0.13606041  0.63319797  0.36750187  1
  O  O422  1  0.13291720  0.63070338  0.88233446  1
  O  O423  1  0.62673560  0.13249768  0.38136720  1
  O  O424  1  0.63847757  0.12180797  0.87340744  1
  O  O425  1  0.63066753  0.62253157  0.38353000  1
  O  O426  1  0.63654113  0.62927644  0.87591601  1
