# generated using pymatgen
data_V85Zn86O256
_symmetry_space_group_name_H-M   'P 1'
_cell_length_a   16.98071862
_cell_length_b   16.95870125
_cell_length_c   16.96501442
_cell_angle_alpha   89.92473268
_cell_angle_beta   90.03861895
_cell_angle_gamma   90.08304145
_symmetry_Int_Tables_number   1
_chemical_formula_structural   V85Zn86O256
_chemical_formula_sum   'V85 Zn86 O256'
_cell_volume   4885.42059849
_cell_formula_units_Z   1
loop_
 _symmetry_equiv_pos_site_id
 _symmetry_equiv_pos_as_xyz
  1  'x, y, z'
loop_
 _atom_site_type_symbol
 _atom_site_label
 _atom_site_symmetry_multiplicity
 _atom_site_fract_x
 _atom_site_fract_y
 _atom_site_fract_z
 _atom_site_occupancy
  V  V0  1  0.74670167  0.61494487  0.36592016  1
  V  V1  1  0.89919430  0.77080036  0.60235112  1
  V  V2  1  0.49679177  0.62013070  0.11940564  1
  V  V3  1  0.62808124  0.38134693  0.25205110  1
  V  V4  1  0.49490185  0.49607380  0.50151226  1
  V  V5  1  0.62023179  0.49820696  0.11725314  1
  V  V6  1  0.74979719  0.24947989  -0.00025085  1
  V  V7  1  -0.00308555  0.49856853  -0.00001068  1
  V  V8  1  0.75102583  0.62653248  0.86612821  1
  V  V9  1  0.25123638  0.62715308  0.37711878  1
  V  V10  1  0.49478463  0.87620617  0.87181654  1
  V  V11  1  0.24732956  0.75108541  -0.00109327  1
  V  V12  1  0.76092190  0.25132783  0.50131240  1
  V  V13  1  0.12521267  0.35794345  0.75244097  1
  V  V14  1  0.62416199  0.24883367  0.87293165  1
  V  V15  1  0.88734135  0.13054606  0.74921783  1
  V  V16  1  -0.00742966  0.62137950  0.63253733  1
  V  V17  1  0.75141082  0.75115358  0.49548440  1
  V  V18  1  0.25144055  0.12858459  0.38500037  1
  V  V19  1  0.25961280  0.25660475  0.49767591  1
  V  V20  1  0.87582771  0.50242844  0.86502312  1
  V  V21  1  -0.00037222  0.87596246  0.87542679  1
  V  V22  1  0.12074717  0.49962299  0.12890966  1
  V  V23  1  0.12362554  0.37411642  0.26236159  1
  V  V24  1  0.86652211  0.61319205  0.24557927  1
  V  V25  1  0.25916646  0.87042424  0.63192214  1
  V  V26  1  0.50078255  0.25127935  0.25014972  1
  V  V27  1  0.62270071  0.88778363  0.24544958  1
  V  V28  1  0.63155368  0.24259342  0.37649252  1
  V  V29  1  0.74729737  0.00039774  0.74830608  1
  V  V30  1  0.74875161  0.12517457  0.87198810  1
  V  V31  1  0.25315699  -0.00068255  0.25523975  1
  V  V32  1  0.49489038  0.24895252  0.74794004  1
  V  V33  1  0.62382756  0.62641927  0.49589829  1
  V  V34  1  0.25430322  0.11639762  0.87313266  1
  V  V35  1  0.80764184  0.06463016  0.30174969  1
  V  V36  1  0.38013225  0.38597326  0.00120821  1
  V  V37  1  0.38200249  0.87092300  0.49886558  1
  V  V38  1  0.12992709  0.88442307  0.75167677  1
  V  V39  1  0.62739524  0.86301308  0.75358296  1
  V  V40  1  0.26123654  0.37794633  0.63031498  1
  V  V41  1  0.75074258  0.38225073  0.12893805  1
  V  V42  1  0.25036761  0.87563754  0.12558126  1
  V  V43  1  0.13054490  0.00728019  0.61139354  1
  V  V44  1  0.37437259  0.49512874  0.37602343  1
  V  V45  1  0.13019587  0.50121589  0.63768521  1
  V  V46  1  0.87387757  0.00157989  0.87291631  1
  V  V47  1  0.74232049  0.88712639  0.12201181  1
  V  V48  1  0.88600840  0.25773788  0.62711287  1
  V  V49  1  0.87268290  0.37504740  -0.00213955  1
  V  V50  1  0.12858010  0.00797783  0.12200661  1
  V  V51  1  0.49448029  0.00058916  -0.00691788  1
  V  V52  1  0.74105168  0.74893884  -0.00812580  1
  V  V53  1  0.48684075  0.74526526  0.75352427  1
  V  V54  1  0.12378618  0.62364176  0.50503715  1
  V  V55  1  0.49832507  0.12134277  0.61745288  1
  V  V56  1  0.62294291  -0.00089792  0.61314689  1
  V  V57  1  0.00260324  0.00589694  -0.00108562  1
  V  V58  1  0.50350950  0.11812192  0.12441892  1
  V  V59  1  0.62599705  0.11819665  0.00081636  1
  V  V60  1  0.37425161  0.12520919  0.25037273  1
  V  V61  1  0.37604423  0.75101067  0.12545389  1
  V  V62  1  0.12313588  0.75099536  0.87902483  1
  V  V63  1  0.62813586  0.37438501  0.74660094  1
  V  V64  1  0.24852884  0.37347842  0.12419555  1
  V  V65  1  -0.00529769  0.49778648  0.49684615  1
  V  V66  1  0.12064197  0.75329891  0.37740752  1
  V  V67  1  -0.00341441  0.11949800  0.12626070  1
  V  V68  1  0.87278933  0.24774955  0.13261401  1
  V  V69  1  0.24799010  0.50084884  0.25168480  1
  V  V70  1  0.75156902  0.87382297  0.61809221  1
  V  V71  1  0.49791568  0.37419832  0.37750600  1
  V  V72  1  0.62685170  0.50149421  0.62424696  1
  V  V73  1  0.07266260  0.19168860  0.43366512  1
  V  V74  1  0.87091710  0.87535543  -0.00101246  1
  V  V75  1  -0.00704117  0.74551303  0.75556458  1
  V  V76  1  0.87125906  0.74663803  0.12005441  1
  V  V77  1  0.11878589  0.87117104  0.25317685  1
  V  V78  1  0.37624042  0.25085841  0.12113457  1
  V  V79  1  0.00614307  0.24624566  0.24797395  1
  V  V80  1  0.25074977  0.61645453  0.87402057  1
  V  V81  1  0.61784615  0.62342777  -0.01015688  1
  V  V82  1  0.50155663  0.38262347  0.87900332  1
  V  V83  1  0.12251021  0.62390061  0.00360996  1
  V  V84  1  0.49150872  0.63221007  0.62269010  1
  Zn  Zn85  1  0.37606906  0.10685077  0.75157948  1
  Zn  Zn86  1  0.62420928  0.12221226  0.49357459  1
  Zn  Zn87  1  0.37507242  0.50048365  0.87149626  1
  Zn  Zn88  1  0.75622435  0.50511468  0.74346153  1
  Zn  Zn89  1  0.86524220  0.49311539  0.37489377  1
  Zn  Zn90  1  0.50379398  0.87768356  0.37762756  1
  Zn  Zn91  1  0.50441085  0.75033334  0.24801193  1
  Zn  Zn92  1  -0.00788001  0.36533012  0.38547953  1
  Zn  Zn93  1  0.38447153  0.00436156  0.38844260  1
  Zn  Zn94  1  0.35870738  0.62014437  0.73747042  1
  Zn  Zn95  1  -0.00257267  0.36545225  0.86665073  1
  Zn  Zn96  1  0.37281190  0.87835721  -0.00431589  1
  Zn  Zn97  1  -0.03011767  0.75831783  0.27509578  1
  Zn  Zn98  1  -0.03000866  0.08542454  0.58551431  1
  Zn  Zn99  1  0.24712568  0.24266568  -0.00140390  1
  Zn  Zn100  1  0.11937795  0.23601577  0.89054700  1
  Zn  Zn101  1  0.62140606  0.75061057  0.36702819  1
  Zn  Zn102  1  0.37726864  0.62561662  0.25018127  1
  Zn  Zn103  1  0.75569805  0.37980790  0.61914331  1
  Zn  Zn104  1  0.37744695  0.24841549  0.62212153  1
  Zn  Zn105  1  -0.00255365  0.62956978  0.13140622  1
  Zn  Zn106  1  0.25651236  0.74455161  0.51179995  1
  Zn  Zn107  1  0.18832120  0.18712177  0.18890520  1
  Zn  Zn108  1  0.19697391  0.18372089  0.68911650  1
  Zn  Zn109  1  0.18776825  0.68709337  0.18998989  1
  Zn  Zn110  1  0.18163575  0.69339796  0.69443846  1
  Zn  Zn111  1  0.68437898  0.19117310  0.18598154  1
  Zn  Zn112  1  0.68933035  0.18707780  0.68203948  1
  Zn  Zn113  1  0.68399889  0.68863950  0.18256418  1
  Zn  Zn114  1  0.68970322  0.68876779  0.68069405  1
  Zn  Zn115  1  0.31094847  0.31169025  0.31249143  1
  Zn  Zn116  1  0.30970223  0.30688119  0.81600409  1
  Zn  Zn117  1  0.31307934  0.81132705  0.31408587  1
  Zn  Zn118  1  0.31653323  0.93810897  0.81015754  1
  Zn  Zn119  1  0.81488678  0.31084330  0.31680045  1
  Zn  Zn120  1  0.81271051  0.31392396  0.80909448  1
  Zn  Zn121  1  0.79406732  0.80282293  0.30215914  1
  Zn  Zn122  1  0.81436124  0.81102204  0.80803435  1
  Zn  Zn123  1  0.18647822  0.43855281  0.44514423  1
  Zn  Zn124  1  0.18516894  0.42699568  0.94270337  1
  Zn  Zn125  1  0.19512876  0.93451059  0.44150291  1
  Zn  Zn126  1  0.18596052  0.94069780  0.93950124  1
  Zn  Zn127  1  0.68517885  0.43210583  0.44083715  1
  Zn  Zn128  1  0.68870063  0.43991469  0.93552160  1
  Zn  Zn129  1  0.69370550  0.93928659  0.42960984  1
  Zn  Zn130  1  0.68089589  0.93728533  0.93380995  1
  Zn  Zn131  1  0.31329823  0.06388784  0.05836967  1
  Zn  Zn132  1  0.31348090  0.05623920  0.56888190  1
  Zn  Zn133  1  0.31064963  0.56152970  0.06108760  1
  Zn  Zn134  1  0.31245447  0.55697477  0.56074967  1
  Zn  Zn135  1  0.81676631  0.06259240  0.06647257  1
  Zn  Zn136  1  0.80245797  0.06890317  0.56004666  1
  Zn  Zn137  1  0.80795369  0.56253551  0.05615457  1
  Zn  Zn138  1  0.81472490  0.57065206  0.56092850  1
  Zn  Zn139  1  0.43826469  0.43969066  0.18957593  1
  Zn  Zn140  1  0.43828831  0.44283161  0.69388716  1
  Zn  Zn141  1  0.43830527  0.93903920  0.18679098  1
  Zn  Zn142  1  0.44461821  0.93184050  0.67816051  1
  Zn  Zn143  1  0.93908871  0.43264251  0.19006037  1
  Zn  Zn144  1  0.94335518  0.43450528  0.68724485  1
  Zn  Zn145  1  0.93247294  0.93768437  0.28219721  1
  Zn  Zn146  1  0.94090907  0.93933812  0.68423241  1
  Zn  Zn147  1  0.06423031  0.05786022  0.30793081  1
  Zn  Zn148  1  0.06787190  0.06584664  0.81402944  1
  Zn  Zn149  1  0.05603745  0.57235435  0.31375566  1
  Zn  Zn150  1  0.06365013  0.56066266  0.81596037  1
  Zn  Zn151  1  0.56225813  0.05804343  0.31125012  1
  Zn  Zn152  1  0.55904757  0.05841355  0.80498267  1
  Zn  Zn153  1  0.56065742  0.56212312  0.30706471  1
  Zn  Zn154  1  0.56100472  0.56196290  0.80889074  1
  Zn  Zn155  1  0.43779662  0.18804826  0.43782414  1
  Zn  Zn156  1  0.43360184  0.18917617  0.93473397  1
  Zn  Zn157  1  0.43738697  0.69334239  0.43483017  1
  Zn  Zn158  1  0.43485597  0.69290404  0.93634833  1
  Zn  Zn159  1  0.92598926  0.04593632  0.42691212  1
  Zn  Zn160  1  0.93841229  0.18944950  0.93792366  1
  Zn  Zn161  1  0.93406347  0.83171394  0.43878213  1
  Zn  Zn162  1  0.93357278  0.68419141  0.93959131  1
  Zn  Zn163  1  0.06002729  0.31394187  0.06333484  1
  Zn  Zn164  1  0.06647872  0.31846053  0.56912429  1
  Zn  Zn165  1  0.05851720  0.81831331  0.06764956  1
  Zn  Zn166  1  0.07640309  0.80929547  0.56872331  1
  Zn  Zn167  1  0.56284689  0.30858466  0.06061937  1
  Zn  Zn168  1  0.56393303  0.31170756  0.56096784  1
  Zn  Zn169  1  0.56211387  0.81023468  0.05949274  1
  Zn  Zn170  1  0.56441893  0.81030470  0.56384691  1
  O  O171  1  0.12033740  0.11374271  0.12778717  1
  O  O172  1  0.13872265  0.10694193  0.62637791  1
  O  O173  1  0.12183108  0.61524593  0.12313136  1
  O  O174  1  0.12390301  0.61924429  0.62258051  1
  O  O175  1  0.61385548  0.13595528  0.11231511  1
  O  O176  1  0.61886920  0.11370166  0.62481938  1
  O  O177  1  0.61807069  0.61534355  0.11436552  1
  O  O178  1  0.61970612  0.61904691  0.61310223  1
  O  O179  1  0.37903505  0.38814275  0.36911300  1
  O  O180  1  0.38316175  0.37468924  0.88407016  1
  O  O181  1  0.37105223  0.87562326  0.38923678  1
  O  O182  1  0.39026733  0.87151049  0.87751923  1
  O  O183  1  0.88285284  0.38341430  0.36570446  1
  O  O184  1  0.87484554  0.38254676  0.88039925  1
  O  O185  1  0.89119330  0.84609761  0.33992637  1
  O  O186  1  0.87962304  0.88171200  0.87853361  1
  O  O187  1  0.25265910  0.00889058  0.36837407  1
  O  O188  1  0.25484764  0.00657530  0.87948018  1
  O  O189  1  0.25591138  0.50686893  0.37482354  1
  O  O190  1  0.24626070  0.51504393  0.88642713  1
  O  O191  1  0.76663789  -0.00037880  0.37090081  1
  O  O192  1  0.75388473  0.00448219  0.86893009  1
  O  O193  1  0.74369101  0.51095564  0.38307737  1
  O  O194  1  0.75852382  0.50775666  0.87139329  1
  O  O195  1  0.24120449  0.49528026  0.13117494  1
  O  O196  1  0.24469613  0.48679777  0.62154687  1
  O  O197  1  0.24439046  0.99792916  0.12959504  1
  O  O198  1  0.24128965  0.98383963  0.62580522  1
  O  O199  1  0.74130466  0.48732896  0.11813327  1
  O  O200  1  0.74295742  0.50223936  0.62399489  1
  O  O201  1  0.74535701  0.98474772  0.10888413  1
  O  O202  1  0.74264952  0.99230402  0.63034609  1
  O  O203  1  0.00878029  0.36265703  0.24952690  1
  O  O204  1  0.02120036  0.37830686  0.74903506  1
  O  O205  1  0.01777819  0.86527839  0.23828559  1
  O  O206  1  0.00666043  0.86870394  0.75881437  1
  O  O207  1  0.50654865  0.37085675  0.25625932  1
  O  O208  1  0.51175847  0.36931009  0.75519362  1
  O  O209  1  0.51503725  0.87237666  0.23882917  1
  O  O210  1  0.50671874  0.85995287  0.75193083  1
  O  O211  1  0.49530380  0.13064981  0.24038218  1
  O  O212  1  0.50207950  0.13476706  0.73927257  1
  O  O213  1  0.49854894  0.62664381  0.23339284  1
  O  O214  1  0.50808297  0.63686364  0.74071614  1
  O  O215  1  1.01069134  0.13784297  0.23882198  1
  O  O216  1  0.98629637  0.12061669  0.75553100  1
  O  O217  1  0.98415146  0.63632442  0.25005566  1
  O  O218  1  1.00530424  0.63183277  0.74508860  1
  O  O219  1  0.37671624  0.25866958  0.01274347  1
  O  O220  1  0.36359113  0.25188923  0.50103373  1
  O  O221  1  0.36465674  0.75248756  0.01006702  1
  O  O222  1  0.37055459  0.76195927  0.49918181  1
  O  O223  1  0.86877441  0.25584695  0.01050157  1
  O  O224  1  0.86229369  0.24884297  0.51438826  1
  O  O225  1  0.86454001  0.75577317  0.00013070  1
  O  O226  1  0.85956579  0.74708821  0.50047924  1
  O  O227  1  0.13010768  0.24957549  0.49732088  1
  O  O228  1  0.13770221  0.27431645  0.99895859  1
  O  O229  1  0.13362058  0.74050558  0.49557504  1
  O  O230  1  0.12746364  0.74621165  1.00067274  1
  O  O231  1  0.62874792  0.24977251  0.48871489  1
  O  O232  1  0.63065303  0.24103059  0.99243464  1
  O  O233  1  0.63289134  0.74128129  0.49848700  1
  O  O234  1  0.63072688  0.73712397  0.99968503  1
  O  O235  1  0.49333891  0.24344566  0.12997852  1
  O  O236  1  0.50045391  0.24394185  0.63143978  1
  O  O237  1  0.48955559  0.74208586  0.12202199  1
  O  O238  1  0.50666656  0.74114066  0.63689028  1
  O  O239  1  0.99338772  0.24351276  0.12968188  1
  O  O240  1  0.98537966  0.25309036  0.61758747  1
  O  O241  1  0.97877169  0.74993877  0.11633464  1
  O  O242  1  1.00647892  0.73772016  0.63887098  1
  O  O243  1  0.01362795  0.24820802  0.36820728  1
  O  O244  1  0.00657712  0.25396048  0.88143266  1
  O  O245  1  0.01874011  0.75002125  0.38277775  1
  O  O246  1  0.00167723  0.75355686  0.87310461  1
  O  O247  1  0.50390384  0.25734834  0.36927787  1
  O  O248  1  0.50701568  0.25711378  0.86707128  1
  O  O249  1  0.50283904  0.75807518  0.36753841  1
  O  O250  1  0.50001261  0.75400609  0.86115349  1
  O  O251  1  0.25682838  0.13101281  0.48932576  1
  O  O252  1  0.25850148  0.12691372  0.98493620  1
  O  O253  1  0.24189675  0.62276499  0.49536928  1
  O  O254  1  0.24014774  0.63136444  0.99904541  1
  O  O255  1  0.73988885  0.14493968  0.50439892  1
  O  O256  1  0.74288455  0.12879860  0.99562563  1
  O  O257  1  0.74032492  0.63104037  0.49394996  1
  O  O258  1  0.73993711  0.63038781  0.98809939  1
  O  O259  1  0.26390402  0.37711010  0.01057003  1
  O  O260  1  0.24324774  0.36707228  0.51528005  1
  O  O261  1  0.24978411  0.86704595  0.00700085  1
  O  O262  1  0.25643322  0.86769634  0.51519608  1
  O  O263  1  0.75374656  0.36913714  0.00600061  1
  O  O264  1  0.74319067  0.35875517  0.50418876  1
  O  O265  1  0.74633483  0.86646923  0.00127353  1
  O  O266  1  0.74432622  0.86501104  0.50680850  1
  O  O267  1  0.12564977  0.49817826  0.24558737  1
  O  O268  1  0.12634260  0.50102464  0.73948071  1
  O  O269  1  0.13814252  0.99250864  0.24226736  1
  O  O270  1  0.12569747  0.98544439  0.75438852  1
  O  O271  1  0.61998615  0.48747678  0.23739353  1
  O  O272  1  0.62439712  0.49480374  0.73636151  1
  O  O273  1  0.62470381  0.98715390  0.24183215  1
  O  O274  1  0.63160051  0.98948689  0.74052383  1
  O  O275  1  0.36232868  0.00617096  0.24492166  1
  O  O276  1  0.39146651  -0.00554155  0.75162274  1
  O  O277  1  0.36688669  0.50285897  0.25761595  1
  O  O278  1  0.38267970  0.51238803  0.75878482  1
  O  O279  1  0.86139744  0.00891978  0.23323372  1
  O  O280  1  0.86750645  0.00717763  0.75413782  1
  O  O281  1  0.87552495  0.51051667  0.24172325  1
  O  O282  1  0.87646056  0.49587859  0.76105226  1
  O  O283  1  0.12190638  0.38412135  0.36412270  1
  O  O284  1  0.12993237  0.37856704  0.85625246  1
  O  O285  1  0.13930928  0.86445752  0.36612155  1
  O  O286  1  0.11926257  0.86928783  0.87268736  1
  O  O287  1  0.61900372  0.36976995  0.36573738  1
  O  O288  1  0.62039892  0.36997328  0.86864725  1
  O  O289  1  0.62950076  0.87488682  0.35579411  1
  O  O290  1  0.61374230  0.87698166  0.86209392  1
  O  O291  1  0.38152615  0.13379966  0.12940652  1
  O  O292  1  0.38386557  0.12618309  0.62904158  1
  O  O293  1  0.38145857  0.63028362  0.12267541  1
  O  O294  1  0.38771818  0.62139565  0.62096804  1
  O  O295  1  0.88600826  0.13544934  0.12015015  1
  O  O296  1  0.87604402  0.13891152  0.63518894  1
  O  O297  1  0.87110206  0.62975447  0.12460310  1
  O  O298  1  0.89150102  0.64151150  0.61718830  1
  O  O299  1  0.26102640  0.25584399  0.12712763  1
  O  O300  1  0.25386647  0.25999869  0.61773759  1
  O  O301  1  0.25423910  0.75246763  0.11723477  1
  O  O302  1  0.24386095  0.76481571  0.62955035  1
  O  O303  1  0.75633046  0.25798294  0.11947330  1
  O  O304  1  0.75495485  0.25547852  0.61683741  1
  O  O305  1  0.75391631  0.74843867  0.10623320  1
  O  O306  1  0.75812690  0.75724867  0.61496605  1
  O  O307  1  0.25136567  0.24406935  0.38343206  1
  O  O308  1  0.24536344  0.23901030  0.87842503  1
  O  O309  1  0.24718568  0.73461352  0.37570393  1
  O  O310  1  0.24130498  0.74021410  0.89314766  1
  O  O311  1  0.74241873  0.25475058  0.38705606  1
  O  O312  1  0.74463533  0.24518813  0.87970375  1
  O  O313  1  0.74186534  0.73544502  0.38082529  1
  O  O314  1  0.75586913  0.74261546  0.88270186  1
  O  O315  1  -0.00504386  0.11236708  0.00742860  1
  O  O316  1  0.01051470  0.13435709  0.48715167  1
  O  O317  1  0.00401533  0.61340400  0.00287460  1
  O  O318  1  0.01640901  0.61456420  0.51401208  1
  O  O319  1  0.50538829  0.12055859  0.00299351  1
  O  O320  1  0.50369820  0.13078135  0.51301327  1
  O  O321  1  0.50614507  0.63022661  0.00723919  1
  O  O322  1  0.50632079  0.62134609  0.50500312  1
  O  O323  1  0.50604404  0.38561724  0.49097012  1
  O  O324  1  0.49349312  0.36750182  0.99029975  1
  O  O325  1  0.48617293  0.86951223  0.50413968  1
  O  O326  1  0.50366514  0.88303039  0.98992953  1
  O  O327  1  1.00977294  0.39363634  0.50084459  1
  O  O328  1  0.98959427  0.38821571  1.00364618  1
  O  O329  1  0.96971051  0.83807815  0.54228916  1
  O  O330  1  0.99260979  0.88570499  0.99582593  1
  O  O331  1  0.49268400  0.49631461  0.37994250  1
  O  O332  1  0.50378569  0.48537240  0.87406852  1
  O  O333  1  0.49389757  0.99050049  0.36569255  1
  O  O334  1  0.50673808  0.99120465  0.88280208  1
  O  O335  1  1.00234162  0.50669666  0.39281180  1
  O  O336  1  0.99312390  0.49639299  0.88359814  1
  O  O337  1  0.99747864  0.98852748  0.36171071  1
  O  O338  1  0.99554756  0.99727441  0.88288465  1
  O  O339  1  0.00833257  0.01125714  0.11960823  1
  O  O340  1  0.02501202  -0.00103255  0.63629941  1
  O  O341  1  0.00600408  0.50246146  0.11967969  1
  O  O342  1  0.00823023  0.50622141  0.62154630  1
  O  O343  1  0.49850096  0.01387455  0.11784524  1
  O  O344  1  0.51303381  0.00750952  0.62510516  1
  O  O345  1  0.50751821  0.50693713  0.12428016  1
  O  O346  1  0.50692478  0.50662345  0.61686941  1
  O  O347  1  0.24204171  0.38082591  0.24497751  1
  O  O348  1  0.24275796  0.36931850  0.73763511  1
  O  O349  1  0.24723661  0.88277742  0.24435330  1
  O  O350  1  0.24463665  0.87289467  0.74258455  1
  O  O351  1  0.73971734  0.36729811  0.23900083  1
  O  O352  1  0.73624322  0.37972793  0.74887898  1
  O  O353  1  0.73760241  0.87221976  0.22912900  1
  O  O354  1  0.74260550  0.87908267  0.74471079  1
  O  O355  1  0.25379260  0.11945121  0.25995570  1
  O  O356  1  0.25965337  0.12592971  0.76362240  1
  O  O357  1  0.25049685  0.61670056  0.25987626  1
  O  O358  1  0.24531731  0.63314134  0.77057880  1
  O  O359  1  0.74265306  0.12587577  0.25292525  1
  O  O360  1  0.75379782  0.11861164  0.75503775  1
  O  O361  1  0.74946756  0.62284668  0.25492453  1
  O  O362  1  0.74287194  0.62589207  0.76184324  1
  O  O363  1  0.36848502  0.12442279  0.36761879  1
  O  O364  1  0.36525189  0.12977957  0.86907413  1
  O  O365  1  0.36814334  0.61486686  0.37479914  1
  O  O366  1  0.35641270  0.62499603  0.88462863  1
  O  O367  1  0.87352924  0.11996190  0.35643778  1
  O  O368  1  0.86646407  0.12091034  0.87037832  1
  O  O369  1  0.85855303  0.61425372  0.35959973  1
  O  O370  1  0.86382276  0.61459940  0.87948059  1
  O  O371  1  0.12703292  0.38835849  0.13554477  1
  O  O372  1  0.13453925  0.38200837  0.63708016  1
  O  O373  1  0.13277127  0.88335074  0.13226151  1
  O  O374  1  0.13596651  0.88034771  0.63559090  1
  O  O375  1  0.62952488  0.37968868  0.12808613  1
  O  O376  1  0.62455041  0.38481314  0.63152314  1
  O  O377  1  0.63552859  0.87020032  0.12641726  1
  O  O378  1  0.63418220  0.88013653  0.62982140  1
  O  O379  1  0.11831460  0.26249182  0.24130460  1
  O  O380  1  0.12678847  0.25797750  0.74739680  1
  O  O381  1  0.13119488  0.75753870  0.26065411  1
  O  O382  1  0.11412571  0.76003234  0.76179417  1
  O  O383  1  0.61828557  0.26190552  0.25456507  1
  O  O384  1  0.61911598  0.25756541  0.75215886  1
  O  O385  1  0.62444498  0.76005554  0.24679601  1
  O  O386  1  0.62517884  0.76098870  0.74388874  1
  O  O387  1  0.38053784  0.24694949  0.24057521  1
  O  O388  1  0.39084232  0.25598512  0.74788445  1
  O  O389  1  0.37309744  0.74718374  0.23610934  1
  O  O390  1  0.38929922  0.73819186  0.74971245  1
  O  O391  1  0.88497470  0.25599042  0.23675397  1
  O  O392  1  0.86918939  0.24319922  0.73792618  1
  O  O393  1  0.86173138  0.73356758  0.23222270  1
  O  O394  1  0.89117059  0.75756115  0.73792269  1
  O  O395  1  0.38776726  0.50188493  0.49226748  1
  O  O396  1  0.37666415  0.48909993  0.99833281  1
  O  O397  1  0.36668806  0.97924918  0.50224611  1
  O  O398  1  0.39089227  0.99687534  1.00508893  1
  O  O399  1  0.89250711  0.50717107  0.50351598  1
  O  O400  1  0.87988599  0.49546863  0.99155395  1
  O  O401  1  0.89373007  1.01592352  0.52808625  1
  O  O402  1  0.88101720  0.99428874  0.99355471  1
  O  O403  1  0.11422185  -0.00686173  0.01144680  1
  O  O404  1  0.12693748  -0.00531616  0.51206678  1
  O  O405  1  0.11577421  0.50016113  0.00913308  1
  O  O406  1  0.12063243  0.50700227  0.51325003  1
  O  O407  1  0.61645647  0.01347787  -0.00399961  1
  O  O408  1  0.63327755  0.00005662  0.50923658  1
  O  O409  1  0.62715529  0.50568433  0.00979661  1
  O  O410  1  0.61567436  0.50557017  0.50767752  1
  O  O411  1  0.37312960  0.36965791  0.12058806  1
  O  O412  1  0.36366331  0.37668880  0.63002650  1
  O  O413  1  0.36867781  0.86717552  0.12211316  1
  O  O414  1  0.36487430  0.87243512  0.61873954  1
  O  O415  1  0.86631058  0.37015576  0.12013197  1
  O  O416  1  0.87235586  0.36311391  0.63356557  1
  O  O417  1  0.85368034  0.86300087  0.11289145  1
  O  O418  1  0.85866040  0.87129385  0.63599433  1
  O  O419  1  0.13194742  0.12906544  0.37476027  1
  O  O420  1  0.14394670  0.12258958  0.87269096  1
  O  O421  1  0.13261771  0.62937675  0.38464134  1
  O  O422  1  0.13119837  0.62986577  0.88466989  1
  O  O423  1  0.61643057  0.14003176  0.37202289  1
  O  O424  1  0.62928429  0.12958063  0.87923654  1
  O  O425  1  0.62412294  0.62233894  0.38438480  1
  O  O426  1  0.63100168  0.61478818  0.88501168  1
