# generated using pymatgen
data_V85Zn86O256
_symmetry_space_group_name_H-M   'P 1'
_cell_length_a   16.93638933
_cell_length_b   16.93778683
_cell_length_c   16.94137507
_cell_angle_alpha   90.00076092
_cell_angle_beta   89.94575256
_cell_angle_gamma   90.02430252
_symmetry_Int_Tables_number   1
_chemical_formula_structural   V85Zn86O256
_chemical_formula_sum   'V85 Zn86 O256'
_cell_volume   4859.88413364
_cell_formula_units_Z   1
loop_
 _symmetry_equiv_pos_site_id
 _symmetry_equiv_pos_as_xyz
  1  'x, y, z'
loop_
 _atom_site_type_symbol
 _atom_site_label
 _atom_site_symmetry_multiplicity
 _atom_site_fract_x
 _atom_site_fract_y
 _atom_site_fract_z
 _atom_site_occupancy
  V  V0  1  0.25658441  0.00240623  0.25320512  1
  V  V1  1  0.62620590  0.49894819  0.13218010  1
  V  V2  1  0.12492330  0.25077965  0.37677565  1
  V  V3  1  0.25370370  0.62344728  0.86393946  1
  V  V4  1  0.75091943  0.24216979  -0.01060624  1
  V  V5  1  0.25733212  0.74691704  0.00366901  1
  V  V6  1  -0.00019888  0.87324462  0.86837269  1
  V  V7  1  0.75238022  0.12698728  0.37808841  1
  V  V8  1  0.62343057  0.75408924  0.36761464  1
  V  V9  1  0.00157971  0.49665906  -0.00023915  1
  V  V10  1  0.49673692  0.63546892  0.12475704  1
  V  V11  1  0.24848446  0.87279309  0.62413237  1
  V  V12  1  0.38337983  0.88148607  0.49687393  1
  V  V13  1  0.50546144  0.37189998  0.87405087  1
  V  V14  1  0.12687649  0.62449745  0.00039845  1
  V  V15  1  0.62345589  0.87013522  0.74726572  1
  V  V16  1  0.12995338  0.48681832  0.63149619  1
  V  V17  1  0.12475410  0.62266624  0.49921847  1
  V  V18  1  0.86425905  0.00214839  0.87681605  1
  V  V19  1  0.37364172  0.74340922  0.62770215  1
  V  V20  1  0.50550622  0.37367482  0.36079212  1
  V  V21  1  0.00264350  0.37303696  0.86392610  1
  V  V22  1  0.50310271  0.24942310  0.74361413  1
  V  V23  1  0.62675004  -0.00251012  0.14517196  1
  V  V24  1  0.75085285  0.87171729  0.61915238  1
  V  V25  1  0.87715350  0.50147186  0.36646877  1
  V  V26  1  0.61987819  0.00255040  0.61676642  1
  V  V27  1  0.24834287  -0.00314307  0.75059358  1
  V  V28  1  0.12593705  0.87476111  0.25179898  1
  V  V29  1  0.37786581  0.50384261  0.86791636  1
  V  V30  1  0.87272117  0.25430421  0.61006687  1
  V  V31  1  0.87741935  0.74670023  0.63604575  1
  V  V32  1  0.50379591  0.50272401  -0.00056342  1
  V  V33  1  0.25820310  0.87050232  0.12626943  1
  V  V34  1  0.49960673  0.87184083  0.87488294  1
  V  V35  1  0.87281166  0.13540917  0.75445987  1
  V  V36  1  -0.00401329  0.12831378  0.62846184  1
  V  V37  1  0.12574935  0.74882691  0.37596767  1
  V  V38  1  0.75690959  0.51044570  0.75890785  1
  V  V39  1  0.00018605  0.12364865  0.12705830  1
  V  V40  1  0.12109497  0.25061159  0.86575433  1
  V  V41  1  0.25102196  0.74522105  0.49618435  1
  V  V42  1  0.37243600  0.50571304  0.37755925  1
  V  V43  1  0.87096683  0.11853373  0.25299951  1
  V  V44  1  0.12399473  0.37469733  0.25091791  1
  V  V45  1  -0.00655295  -0.00029243  0.49290415  1
  V  V46  1  0.63224610  0.63304017  0.50004283  1
  V  V47  1  0.12062212  -0.00223781  0.62437969  1
  V  V48  1  0.74710243  0.00592261  0.75012072  1
  V  V49  1  -0.00044512  0.62812667  0.63894860  1
  V  V50  1  0.25040441  0.24539303  0.00539127  1
  V  V51  1  0.37394184  -0.00026091  0.87814862  1
  V  V52  1  0.87363259  0.37612179  -0.00217453  1
  V  V53  1  -0.00742648  0.37357722  0.38087444  1
  V  V54  1  0.12299833  0.74896073  0.86811259  1
  V  V55  1  0.24944170  0.50410300  0.25557196  1
  V  V56  1  0.49352364  0.12482432  0.61669614  1
  V  V57  1  0.37259157  0.63073780  0.24861769  1
  V  V58  1  0.12644239  0.49816089  0.12494457  1
  V  V59  1  0.37738735  0.14350305  0.24771789  1
  V  V60  1  0.24990751  0.25411209  0.50170278  1
  V  V61  1  0.86793836  0.86953939  0.00595475  1
  V  V62  1  0.00082941  0.74053515  0.24754322  1
  V  V63  1  0.62952578  0.64228202  -0.00768276  1
  V  V64  1  0.75543675  0.37497891  0.61688591  1
  V  V65  1  0.12754104  -0.00098718  0.12512970  1
  V  V66  1  0.87259328  0.87003990  0.49498082  1
  V  V67  1  0.87296183  0.24934520  0.12597787  1
  V  V68  1  0.50872975  -0.00132618  0.00243310  1
  V  V69  1  0.86593773  0.74132713  0.12641813  1
  V  V70  1  0.63191257  0.50092282  0.62598560  1
  V  V71  1  0.31740407  0.31035270  0.67026518  1
  V  V72  1  0.62953003  0.25713313  0.35426452  1
  V  V73  1  0.49735097  0.13724675  0.12401198  1
  V  V74  1  0.37385202  0.12419844  0.74638079  1
  V  V75  1  0.50093162  0.62621828  0.62610831  1
  V  V76  1  0.49738221  0.74448556  0.75266840  1
  V  V77  1  0.25334483  0.37323558  0.12516967  1
  V  V78  1  -0.00003817  -0.00248884  -0.00097899  1
  V  V79  1  0.50234488  0.49984280  0.49920992  1
  V  V80  1  0.62918334  0.14240273  0.50222077  1
  V  V81  1  0.37863487  0.36967955  0.00717281  1
  V  V82  1  0.75696706  0.62755622  0.37219979  1
  V  V83  1  0.37737083  0.37059244  0.49938078  1
  V  V84  1  -0.00748624  0.49902933  0.50428582  1
  Zn  Zn85  1  0.24645429  0.12193051  0.87709644  1
  Zn  Zn86  1  0.63038095  0.23853546  0.86946887  1
  Zn  Zn87  1  0.25344069  0.48843738  0.74539857  1
  Zn  Zn88  1  0.25236084  0.12700727  0.37629564  1
  Zn  Zn89  1  0.38242295  0.00810487  0.37996664  1
  Zn  Zn90  1  0.11943352  0.86894338  0.74606460  1
  Zn  Zn91  1  0.75150910  0.49730070  0.24987635  1
  Zn  Zn92  1  -0.00414396  0.62058802  0.12839236  1
  Zn  Zn93  1  -0.00035645  0.25069683  0.25084209  1
  Zn  Zn94  1  0.74355785  0.87523205  0.13994822  1
  Zn  Zn95  1  0.74203823  0.36940781  0.13005009  1
  Zn  Zn96  1  0.80801906  -0.04272897  0.31306568  1
  Zn  Zn97  1  0.51543030  0.89530306  0.36780804  1
  Zn  Zn98  1  0.76085368  0.66724566  -0.11798626  1
  Zn  Zn99  1  0.63249596  0.11729637  -0.00448100  1
  Zn  Zn100  1  0.12529036  0.12490099  0.50011192  1
  Zn  Zn101  1  0.49650467  0.75823091  0.24765533  1
  Zn  Zn102  1  0.12536219  0.12481962  -0.00093799  1
  Zn  Zn103  1  0.37757492  0.87111523  0.00479111  1
  Zn  Zn104  1  0.63147868  0.37421492  0.75083836  1
  Zn  Zn105  1  0.87799319  0.51480648  0.87340566  1
  Zn  Zn106  1  -0.00659298  0.87782632  0.37103792  1
  Zn  Zn107  1  0.18808187  0.18765209  0.18741172  1
  Zn  Zn108  1  0.18182875  0.17970705  0.69082880  1
  Zn  Zn109  1  0.18727296  0.68560375  0.18742459  1
  Zn  Zn110  1  0.18572182  0.68300404  0.68571883  1
  Zn  Zn111  1  0.69009993  0.17895069  0.18296580  1
  Zn  Zn112  1  0.68930280  0.18911029  0.68635366  1
  Zn  Zn113  1  0.68700324  0.68010923  0.18930636  1
  Zn  Zn114  1  0.69152541  0.68931219  0.68925928  1
  Zn  Zn115  1  0.31212326  0.31841078  0.31634006  1
  Zn  Zn116  1  0.31657275  0.30951321  0.83436102  1
  Zn  Zn117  1  0.31186216  0.81440631  0.31597665  1
  Zn  Zn118  1  0.31273452  0.81152930  0.81196813  1
  Zn  Zn119  1  0.81005486  0.31271993  0.30995356  1
  Zn  Zn120  1  0.81346975  0.32247007  0.80952840  1
  Zn  Zn121  1  0.81269232  0.79572652  0.30969844  1
  Zn  Zn122  1  0.81841514  0.81916749  0.80576895  1
  Zn  Zn123  1  0.18680647  0.43559335  0.44184174  1
  Zn  Zn124  1  0.18938922  0.43410204  0.93452562  1
  Zn  Zn125  1  0.18914214  0.93653605  0.43747003  1
  Zn  Zn126  1  0.18692286  0.93392267  0.93940348  1
  Zn  Zn127  1  0.68961531  0.43793844  0.43648663  1
  Zn  Zn128  1  0.68708168  0.43635598  0.94193860  1
  Zn  Zn129  1  0.68365616  0.94180226  0.44242421  1
  Zn  Zn130  1  0.70264820  0.87416607  0.92101993  1
  Zn  Zn131  1  0.31667909  0.06152294  0.06436317  1
  Zn  Zn132  1  0.30821163  0.06476861  0.56331615  1
  Zn  Zn133  1  0.31478620  0.56025538  0.06176240  1
  Zn  Zn134  1  0.31062183  0.56199080  0.56287489  1
  Zn  Zn135  1  0.81038052  0.05960913  0.06472731  1
  Zn  Zn136  1  0.81006893  0.06256934  0.56005116  1
  Zn  Zn137  1  0.80935250  0.56528298  0.05512263  1
  Zn  Zn138  1  0.81364162  0.56510770  0.56086894  1
  Zn  Zn139  1  0.43856517  0.44425506  0.18604158  1
  Zn  Zn140  1  0.44631004  0.44338433  0.69095934  1
  Zn  Zn141  1  0.44088227  0.94080351  0.19190103  1
  Zn  Zn142  1  0.43614721  0.93678677  0.68479052  1
  Zn  Zn143  1  0.93570878  0.43403577  0.18810758  1
  Zn  Zn144  1  0.93504646  0.44026044  0.68699534  1
  Zn  Zn145  1  0.93995970  0.93120867  0.18692566  1
  Zn  Zn146  1  0.93378413  0.94009896  0.68653877  1
  Zn  Zn147  1  0.06457196  0.06503044  0.31137582  1
  Zn  Zn148  1  0.05935345  0.06372359  0.81176634  1
  Zn  Zn149  1  0.06449963  0.56188758  0.31734982  1
  Zn  Zn150  1  0.06584137  0.55771522  0.81285376  1
  Zn  Zn151  1  0.55597145  0.07273881  0.31792057  1
  Zn  Zn152  1  0.56274188  0.06104416  0.81206986  1
  Zn  Zn153  1  0.55972111  0.56779872  0.31350859  1
  Zn  Zn154  1  0.56884642  0.56433412  0.81285678  1
  Zn  Zn155  1  0.44200049  0.19138975  0.43253156  1
  Zn  Zn156  1  0.44076397  0.18454170  0.93611916  1
  Zn  Zn157  1  0.44022318  0.68738186  0.43871482  1
  Zn  Zn158  1  0.43842324  0.68641572  0.93664395  1
  Zn  Zn159  1  0.93754148  0.18520138  0.43824915  1
  Zn  Zn160  1  0.93816985  0.18581321  0.93705898  1
  Zn  Zn161  1  0.93905093  0.68923483  0.44317867  1
  Zn  Zn162  1  0.94021379  0.68807324  0.93908127  1
  Zn  Zn163  1  0.06362896  0.31080176  0.05894978  1
  Zn  Zn164  1  0.05748384  0.31076275  0.56341826  1
  Zn  Zn165  1  0.06388784  0.81093682  0.06242894  1
  Zn  Zn166  1  0.05752042  0.81232036  0.56107958  1
  Zn  Zn167  1  0.56795431  0.31379618  0.06093159  1
  Zn  Zn168  1  0.56135427  0.31695909  0.56398879  1
  Zn  Zn169  1  0.56251863  0.81834045  0.06817290  1
  Zn  Zn170  1  0.56232411  0.81118650  0.56053892  1
  O  O171  1  0.11607233  0.11889748  0.12414113  1
  O  O172  1  0.11326450  0.11730167  0.62321504  1
  O  O173  1  0.12597729  0.61593719  0.11552282  1
  O  O174  1  0.11706907  0.62011154  0.61641740  1
  O  O175  1  0.61320459  0.11620574  0.11985349  1
  O  O176  1  0.61905912  0.12156556  0.61984905  1
  O  O177  1  0.61640093  0.61849013  0.11578400  1
  O  O178  1  0.62507803  0.62035338  0.61820829  1
  O  O179  1  0.38374592  0.38407250  0.38201936  1
  O  O180  1  0.38785186  0.38361950  0.88651661  1
  O  O181  1  0.36904396  0.87663540  0.39253807  1
  O  O182  1  0.38282739  0.88378821  0.87432564  1
  O  O183  1  0.88663920  0.38205661  0.37327770  1
  O  O184  1  0.88409451  0.37634699  0.88617904  1
  O  O185  1  0.87290642  0.87444781  0.38200497  1
  O  O186  1  0.88436861  0.88177345  0.88520382  1
  O  O187  1  0.25318203  0.00552099  0.36759750  1
  O  O188  1  0.25616239  -0.00190649  0.87097445  1
  O  O189  1  0.25914773  0.49234602  0.36805207  1
  O  O190  1  0.25895047  0.50442823  0.87238656  1
  O  O191  1  0.74269822  0.01947032  0.38142628  1
  O  O192  1  0.76064844  -0.01666656  0.86656547  1
  O  O193  1  0.76074576  0.50678134  0.37522625  1
  O  O194  1  0.75038867  0.49126245  0.86155244  1
  O  O195  1  0.24540382  0.49252834  0.13115426  1
  O  O196  1  0.23537477  0.50176151  0.62538613  1
  O  O197  1  0.24493795  0.99388309  0.13104704  1
  O  O198  1  0.23942141  0.99394821  0.62864728  1
  O  O199  1  0.73412416  0.50573393  0.12283590  1
  O  O200  1  0.74784846  0.50021630  0.63456404  1
  O  O201  1  0.72954890  1.00594935  0.12504623  1
  O  O202  1  0.74203473  0.99539773  0.63201486  1
  O  O203  1  0.00714242  0.37289933  0.25926247  1
  O  O204  1  -0.00525396  0.38121235  0.76497124  1
  O  O205  1  0.00904569  0.86354390  0.25236492  1
  O  O206  1  -0.00057033  0.88268820  0.76460642  1
  O  O207  1  0.49430667  0.38052180  0.26200893  1
  O  O208  1  0.50369203  0.36800903  0.75740702  1
  O  O209  1  0.48561826  0.86860465  0.26151955  1
  O  O210  1  0.50430111  0.86719067  0.75271920  1
  O  O211  1  0.48688562  0.12904516  0.23835447  1
  O  O212  1  0.49320902  0.13299838  0.74147928  1
  O  O213  1  0.49004068  0.62834961  0.24199228  1
  O  O214  1  0.50816465  0.63792867  0.74480976  1
  O  O215  1  0.99675015  0.12790798  0.23922575  1
  O  O216  1  0.98733308  0.11589849  0.73614924  1
  O  O217  1  1.01156461  0.63597733  0.24783236  1
  O  O218  1  1.00479541  0.62010061  0.73825558  1
  O  O219  1  0.36600796  0.25970445  -0.01026925  1
  O  O220  1  0.36994488  0.26302416  0.49512319  1
  O  O221  1  0.36125076  0.74970625  -0.00311191  1
  O  O222  1  0.36735306  0.75509270  0.50389764  1
  O  O223  1  0.86785070  0.25428081  0.00380476  1
  O  O224  1  0.87384128  0.24935688  0.51185225  1
  O  O225  1  0.88448682  0.75919473  0.01597090  1
  O  O226  1  0.87963765  0.76496078  0.50954193  1
  O  O227  1  0.13210613  0.25068614  0.49477907  1
  O  O228  1  0.13434723  0.24635348  0.99420571  1
  O  O229  1  0.12943949  0.74396355  0.49547192  1
  O  O230  1  0.13351196  0.74105137  0.99218844  1
  O  O231  1  0.62579913  0.24393823  0.50245518  1
  O  O232  1  0.64357723  0.24972620  1.00057753  1
  O  O233  1  0.62318792  0.73725680  0.49476172  1
  O  O234  1  0.61988009  0.74132512  1.00407598  1
  O  O235  1  0.50421011  0.23597877  0.11603063  1
  O  O236  1  0.50234487  0.24473921  0.63652337  1
  O  O237  1  0.50009648  0.73944478  0.12656018  1
  O  O238  1  0.49248290  0.74564645  0.62999764  1
  O  O239  1  0.99043033  0.23999141  0.12106657  1
  O  O240  1  0.98668651  0.24154773  0.62336340  1
  O  O241  1  0.99800237  0.74571880  0.13293569  1
  O  O242  1  0.98956955  0.74230577  0.62248649  1
  O  O243  1  0.00616696  0.25744530  0.37716194  1
  O  O244  1  0.01290893  0.25647252  0.88225022  1
  O  O245  1  0.01011016  0.74978680  0.36946180  1
  O  O246  1  0.01130687  0.76116493  0.88415704  1
  O  O247  1  0.51771284  0.26032679  0.37661098  1
  O  O248  1  0.49567251  0.25757192  0.86214106  1
  O  O249  1  0.51761028  0.74436929  0.37519419  1
  O  O250  1  0.49163808  0.75868512  0.86469523  1
  O  O251  1  0.24951401  0.13972652  0.49822505  1
  O  O252  1  0.25059446  0.13201794  0.99975901  1
  O  O253  1  0.24236866  0.63769840  0.50572702  1
  O  O254  1  0.24265760  0.62756636  0.99452275  1
  O  O255  1  0.74116149  0.12737844  0.49374192  1
  O  O256  1  0.75407630  0.13854252  0.99946946  1
  O  O257  1  0.74151964  0.61771518  0.48760997  1
  O  O258  1  0.73269066  0.62733198  0.99655533  1
  O  O259  1  0.26002299  0.36879458  0.00377720  1
  O  O260  1  0.25856753  0.36391920  0.50073345  1
  O  O261  1  0.25008724  0.86455239  0.00842847  1
  O  O262  1  0.25338890  0.86245502  0.50700730  1
  O  O263  1  0.75889670  0.36724643  0.00588132  1
  O  O264  1  0.75219785  0.38725997  0.51741743  1
  O  O265  1  0.76532212  0.88201616  0.01514059  1
  O  O266  1  0.75614739  0.88213678  0.51230715  1
  O  O267  1  0.13201356  0.49498473  0.24823820  1
  O  O268  1  0.13006826  0.49880639  0.73626677  1
  O  O269  1  0.13626478  0.99733433  0.24643949  1
  O  O270  1  0.12801461  0.99853717  0.73919414  1
  O  O271  1  0.62124611  0.50741015  0.23423098  1
  O  O272  1  0.63279479  0.49959962  0.73972596  1
  O  O273  1  0.62039476  1.00922928  0.24296866  1
  O  O274  1  0.62898492  0.99212831  0.74061644  1
  O  O275  1  0.36349642  0.01026685  0.25007958  1
  O  O276  1  0.36870101  0.00139558  0.75700766  1
  O  O277  1  0.36803181  0.50681990  0.25863304  1
  O  O278  1  0.37594792  0.49804866  0.76324934  1
  O  O279  1  0.88737059  0.01368263  0.24993780  1
  O  O280  1  0.86516436  0.00657837  0.75578945  1
  O  O281  1  0.88498804  0.50578888  0.26401074  1
  O  O282  1  0.86079179  0.50293709  0.75181805  1
  O  O283  1  0.11719580  0.36699892  0.37269050  1
  O  O284  1  0.11813196  0.36150642  0.87950421  1
  O  O285  1  0.12303628  0.86653467  0.36953647  1
  O  O286  1  0.11813869  0.86632043  0.87418376  1
  O  O287  1  0.62187908  0.36530339  0.37605579  1
  O  O288  1  0.61338150  0.37130202  0.87669069  1
  O  O289  1  0.62785675  0.85750290  0.38656812  1
  O  O290  1  0.60702666  0.88436969  0.86079705  1
  O  O291  1  0.38631698  0.12351347  0.13504442  1
  O  O292  1  0.38277369  0.11973172  0.63145547  1
  O  O293  1  0.38420775  0.61602566  0.13525813  1
  O  O294  1  0.38094079  0.63622013  0.61879932  1
  O  O295  1  0.88071323  0.12913685  0.13087308  1
  O  O296  1  0.87644950  0.13572529  0.63020266  1
  O  O297  1  0.87790680  0.63690017  0.11632678  1
  O  O298  1  0.88170745  0.63930568  0.61963536  1
  O  O299  1  0.24587012  0.25690859  0.11358012  1
  O  O300  1  0.24765942  0.24769905  0.62064757  1
  O  O301  1  0.24322048  0.75774405  0.11634450  1
  O  O302  1  0.25608733  0.75250152  0.62056779  1
  O  O303  1  0.76117923  0.24786235  0.11571102  1
  O  O304  1  0.76361484  0.25905714  0.62973857  1
  O  O305  1  0.76302893  0.74859183  0.13231989  1
  O  O306  1  0.76285986  0.75829971  0.62846817  1
  O  O307  1  0.24137622  0.25284901  0.38340580  1
  O  O308  1  0.23813714  0.24649994  0.88679974  1
  O  O309  1  0.23628146  0.75227391  0.38327459  1
  O  O310  1  0.24507093  0.74216117  0.88152144  1
  O  O311  1  0.73711409  0.24581753  0.37291683  1
  O  O312  1  0.75167609  0.25739247  0.88698876  1
  O  O313  1  0.74083423  0.73446853  0.37673618  1
  O  O314  1  0.74090810  0.77719413  0.87233537  1
  O  O315  1  -0.00260070  0.11311700  0.01074098  1
  O  O316  1  -0.00157855  0.11727048  0.51134697  1
  O  O317  1  0.01439271  0.61554800  0.00052382  1
  O  O318  1  0.00748284  0.61775190  0.50854300  1
  O  O319  1  0.49409253  0.11589647  0.01238008  1
  O  O320  1  0.50560736  0.13486318  0.51263318  1
  O  O321  1  0.50452289  0.61944024  0.00609412  1
  O  O322  1  0.50858595  0.61843091  0.50665592  1
  O  O323  1  0.49396228  0.38155710  0.49360269  1
  O  O324  1  0.49658427  0.38025652  0.99435963  1
  O  O325  1  0.48524791  0.86984266  0.49737733  1
  O  O326  1  0.49659755  0.87886911  0.99184630  1
  O  O327  1  1.00525957  0.38558702  0.49183310  1
  O  O328  1  0.99518243  0.38146002  0.99413580  1
  O  O329  1  0.99137451  0.88270048  0.49629001  1
  O  O330  1  0.99529122  0.88521148  0.99648980  1
  O  O331  1  0.49592949  0.49471087  0.38136472  1
  O  O332  1  0.49724819  0.49494171  0.87967459  1
  O  O333  1  0.49636843  1.00565796  0.38238499  1
  O  O334  1  0.49021165  0.99293156  0.88059881  1
  O  O335  1  0.99627290  0.49456975  0.38393374  1
  O  O336  1  1.00140178  0.49283896  0.88528299  1
  O  O337  1  1.00734059  1.00174497  0.38942709  1
  O  O338  1  0.99349967  0.99430017  0.88333039  1
  O  O339  1  0.00573525  0.00417882  0.11900341  1
  O  O340  1  0.00461554  0.00409200  0.61768294  1
  O  O341  1  0.00614178  0.49874934  0.11503245  1
  O  O342  1  0.00691438  0.50592944  0.62049957  1
  O  O343  1  0.50686307  0.00697762  0.12016754  1
  O  O344  1  0.50800891  0.01154247  0.63152673  1
  O  O345  1  0.50793954  0.50938205  0.11693295  1
  O  O346  1  0.51107087  0.50764119  0.62138136  1
  O  O347  1  0.24637339  0.38465915  0.24503748  1
  O  O348  1  0.26770397  0.36755345  0.74368643  1
  O  O349  1  0.24669107  0.88220492  0.24520481  1
  O  O350  1  0.24711469  0.87969743  0.74212047  1
  O  O351  1  0.76472810  0.38538167  0.23926652  1
  O  O352  1  0.74927046  0.38786269  0.73937258  1
  O  O353  1  0.76366508  0.87716350  0.25081644  1
  O  O354  1  0.74207381  0.88591611  0.73645754  1
  O  O355  1  0.26040400  0.12039960  0.24878755  1
  O  O356  1  0.25606995  0.11492661  0.75241132  1
  O  O357  1  0.25440114  0.61083854  0.24566501  1
  O  O358  1  0.24850437  0.62141899  0.76185645  1
  O  O359  1  0.76060103  0.12775292  0.25871670  1
  O  O360  1  0.75450930  0.11244773  0.74706419  1
  O  O361  1  0.74706110  0.61651697  0.26750108  1
  O  O362  1  0.74134607  0.61351513  0.75960007  1
  O  O363  1  0.37459455  0.12987794  0.36073581  1
  O  O364  1  0.37425842  0.11304775  0.86771847  1
  O  O365  1  0.38052916  0.61139611  0.37151316  1
  O  O366  1  0.36628440  0.61451978  0.88224438  1
  O  O367  1  0.86559208  0.13317279  0.36684770  1
  O  O368  1  0.88126015  0.11314991  0.86733680  1
  O  O369  1  0.86380742  0.62092173  0.38307117  1
  O  O370  1  0.86614680  0.62645140  0.88677119  1
  O  O371  1  0.13014982  0.37943147  0.13023973  1
  O  O372  1  0.12034504  0.38874941  0.62191506  1
  O  O373  1  0.13368673  0.87992973  0.13148878  1
  O  O374  1  0.12744254  0.88022575  0.62605765  1
  O  O375  1  0.62376947  0.39395975  0.11972771  1
  O  O376  1  0.63272427  0.38643268  0.62606006  1
  O  O377  1  0.62378808  0.89201361  0.12909380  1
  O  O378  1  0.62925918  0.88249845  0.62556013  1
  O  O379  1  0.12431348  0.25648209  0.25847854  1
  O  O380  1  0.12877599  0.24752507  0.76653795  1
  O  O381  1  0.12334071  0.75288935  0.25873373  1
  O  O382  1  0.12958890  0.74924056  0.76378658  1
  O  O383  1  0.62874670  0.24926243  0.25595301  1
  O  O384  1  0.61770053  0.25345982  0.75136788  1
  O  O385  1  0.62384607  0.74376059  0.26470543  1
  O  O386  1  0.61604230  0.76442177  0.73921894  1
  O  O387  1  0.36613012  0.24193099  0.24779783  1
  O  O388  1  0.37638798  0.24914208  0.74441181  1
  O  O389  1  0.36806775  0.73293634  0.25903343  1
  O  O390  1  0.38368767  0.75426209  0.73902318  1
  O  O391  1  0.87913671  0.24052314  0.23984989  1
  O  O392  1  0.86841678  0.23706524  0.75101796  1
  O  O393  1  0.88746896  0.74572882  0.23614624  1
  O  O394  1  0.88062231  0.75556773  0.73510477  1
  O  O395  1  0.37745245  0.49162616  0.49484925  1
  O  O396  1  0.38773661  0.49437818  0.99310729  1
  O  O397  1  0.36626431  0.98384549  0.50391760  1
  O  O398  1  0.38164118  0.99574961  0.99167546  1
  O  O399  1  0.88860176  0.50507885  0.49301379  1
  O  O400  1  0.88321849  0.49181916  1.00049399  1
  O  O401  1  0.88370143  0.98774220  0.50894370  1
  O  O402  1  0.88055378  0.99491505  0.99504126  1
  O  O403  1  0.11663477  0.00119781  0.00487040  1
  O  O404  1  0.11963298  0.00091804  0.51080908  1
  O  O405  1  0.12137602  0.50407240  0.00237913  1
  O  O406  1  0.11917149  0.50658290  0.50798700  1
  O  O407  1  0.61039162  -0.00292220  0.00112164  1
  O  O408  1  0.62568508  0.01331991  0.51332296  1
  O  O409  1  0.61445162  0.50613554  0.00455628  1
  O  O410  1  0.62257607  0.50782747  0.50938899  1
  O  O411  1  0.37315328  0.38193856  0.11306840  1
  O  O412  1  0.38200693  0.37683848  0.61749664  1
  O  O413  1  0.36115638  0.88056982  0.12455697  1
  O  O414  1  0.37054537  0.86486033  0.61468740  1
  O  O415  1  0.88122702  0.36399452  0.11253829  1
  O  O416  1  0.87293391  0.36105817  0.62961358  1
  O  O417  1  0.87833232  0.86257721  0.11957384  1
  O  O418  1  0.86866768  0.86706000  0.62132788  1
  O  O419  1  0.12572927  0.13980366  0.37712793  1
  O  O420  1  0.12309859  0.13485572  0.87799730  1
  O  O421  1  0.12233771  0.63070404  0.39103188  1
  O  O422  1  0.13231443  0.62891513  0.88148253  1
  O  O423  1  0.62893208  0.14227353  0.38185756  1
  O  O424  1  0.61295685  0.12787770  0.88401214  1
  O  O425  1  0.63310280  0.62904986  0.38243879  1
  O  O426  1  0.62085170  0.62892179  0.89089248  1
