# generated using pymatgen
data_V85Zn86O256
_symmetry_space_group_name_H-M   'P 1'
_cell_length_a   16.95672487
_cell_length_b   16.97435609
_cell_length_c   16.95633666
_cell_angle_alpha   89.92532672
_cell_angle_beta   90.06661854
_cell_angle_gamma   89.97109484
_symmetry_Int_Tables_number   1
_chemical_formula_structural   V85Zn86O256
_chemical_formula_sum   'V85 Zn86 O256'
_cell_volume   4880.52559851
_cell_formula_units_Z   1
loop_
 _symmetry_equiv_pos_site_id
 _symmetry_equiv_pos_as_xyz
  1  'x, y, z'
loop_
 _atom_site_type_symbol
 _atom_site_label
 _atom_site_symmetry_multiplicity
 _atom_site_fract_x
 _atom_site_fract_y
 _atom_site_fract_z
 _atom_site_occupancy
  V  V0  1  0.62426285  0.11742071  -0.00097410  1
  V  V1  1  0.50229551  0.75342283  0.25272760  1
  V  V2  1  0.87275677  0.61941262  0.74662256  1
  V  V3  1  0.12830013  0.36864728  0.24330193  1
  V  V4  1  0.00388341  0.24108045  0.74638226  1
  V  V5  1  0.37502018  0.87312661  -0.00447723  1
  V  V6  1  0.49155411  0.24615501  0.24257641  1
  V  V7  1  0.62435088  0.74877282  0.87817955  1
  V  V8  1  0.49673455  0.87420844  0.87986411  1
  V  V9  1  0.24930630  0.74979927  0.50196809  1
  V  V10  1  0.37722480  0.50011479  0.37859956  1
  V  V11  1  0.11942793  0.00577326  0.12387314  1
  V  V12  1  0.12247286  0.62596190  0.00098262  1
  V  V13  1  0.12285237  0.24630316  0.36841824  1
  V  V14  1  0.75101133  0.74920636  -0.00134652  1
  V  V15  1  -0.00266093  0.74908546  0.74528797  1
  V  V16  1  0.49731937  0.37831011  0.87935549  1
  V  V17  1  0.80982352  0.05949672  0.30630486  1
  V  V18  1  0.24971002  0.87633349  0.62445179  1
  V  V19  1  0.87905945  0.37962319  0.50120801  1
  V  V20  1  0.62946879  0.87796899  0.75652202  1
  V  V21  1  0.11642625  0.12456448  0.50080012  1
  V  V22  1  0.24668052  0.75052586  -0.00124313  1
  V  V23  1  0.50385775  0.50133487  0.50473844  1
  V  V24  1  0.37682376  0.00278199  0.36956095  1
  V  V25  1  -0.00000599  0.74515618  0.25271859  1
  V  V26  1  0.13781927  0.25152812  0.87489854  1
  V  V27  1  0.12372109  0.87652592  0.25024203  1
  V  V28  1  0.49011013  0.12822059  0.62794328  1
  V  V29  1  0.80477432  0.19880898  0.05219094  1
  V  V30  1  0.61698408  -0.00214930  0.13590623  1
  V  V31  1  -0.01242310  0.24418848  0.24130901  1
  V  V32  1  0.88085365  0.24148439  0.62440189  1
  V  V33  1  0.50148265  0.37468548  0.37504354  1
  V  V34  1  0.24862043  0.50211760  0.74102831  1
  V  V35  1  0.48845325  0.25024102  0.74624269  1
  V  V36  1  -0.01199039  -0.00085887  0.49802498  1
  V  V37  1  0.75084822  0.62525986  0.37959144  1
  V  V38  1  0.87478365  0.75116730  0.12552378  1
  V  V39  1  0.62723122  0.38616129  0.24486326  1
  V  V40  1  0.87387371  0.87859421  -0.00658613  1
  V  V41  1  0.25447020  0.24939983  0.50635047  1
  V  V42  1  0.62311771  0.61477526  0.00858286  1
  V  V43  1  0.62585983  0.13477761  0.50686544  1
  V  V44  1  0.87210536  0.49781805  0.87392792  1
  V  V45  1  0.13039793  0.12757950  -0.00257634  1
  V  V46  1  0.86652050  0.49446277  0.36980560  1
  V  V47  1  0.74847341  0.61973540  0.87087096  1
  V  V48  1  0.63050135  0.50067126  0.63446999  1
  V  V49  1  0.37392832  0.62601107  0.25147955  1
  V  V50  1  0.00120057  0.37365779  0.87579678  1
  V  V51  1  0.75290569  0.25056367  0.49685240  1
  V  V52  1  0.26379342  0.00482813  0.75337103  1
  V  V53  1  0.12317797  0.87669894  0.75041273  1
  V  V54  1  0.87382600  0.37530454  0.00739665  1
  V  V55  1  0.62831710  0.24823634  0.37126301  1
  V  V56  1  0.24759646  0.87515818  0.12437367  1
  V  V57  1  0.11835595  0.00387956  0.62491559  1
  V  V58  1  0.74591946  0.39355543  0.12435699  1
  V  V59  1  -0.01448975  0.87674470  0.38093768  1
  V  V60  1  0.86056190  0.75804662  0.61213746  1
  V  V61  1  0.25143001  0.00269210  0.24941467  1
  V  V62  1  0.49918588  0.00646016  0.50072337  1
  V  V63  1  0.44080870  0.05134537  -0.06239303  1
  V  V64  1  0.00142352  0.61266851  0.61750951  1
  V  V65  1  0.75673545  -0.00138163  0.75325758  1
  V  V66  1  0.12381347  0.38000400  0.73943556  1
  V  V67  1  0.75421013  0.37741886  0.63530535  1
  V  V68  1  0.37901963  0.87488809  0.50071212  1
  V  V69  1  0.76090717  0.12588877  0.87324269  1
  V  V70  1  0.87317052  0.61758757  0.24891283  1
  V  V71  1  0.25153371  0.49400465  0.24889434  1
  V  V72  1  0.12549500  0.49965855  0.12730060  1
  V  V73  1  0.63093831  0.24915273  0.87556914  1
  V  V74  1  0.64372238  -0.02680032  0.60320333  1
  V  V75  1  0.62955882  0.74957900  0.38063674  1
  V  V76  1  0.30467246  0.32162296  0.06720444  1
  V  V77  1  -0.00066295  0.37473587  0.37609286  1
  V  V78  1  0.49844391  0.75056956  0.74553190  1
  V  V79  1  -0.00504716  0.00044842  -0.00778534  1
  V  V80  1  0.24826257  0.62513856  0.37808256  1
  V  V81  1  0.24967758  0.62470115  0.87297236  1
  V  V82  1  0.25278297  0.12538343  0.36994520  1
  V  V83  1  0.37583026  0.74664469  0.12544877  1
  V  V84  1  0.12439370  0.75292774  0.38074573  1
  Zn  Zn85  1  0.25319006  0.37766388  0.62405782  1
  Zn  Zn86  1  0.26131406  0.12449283  0.87239160  1
  Zn  Zn87  1  0.63533898  0.87729114  0.25475536  1
  Zn  Zn88  1  0.48696669  0.12112952  0.12716961  1
  Zn  Zn89  1  0.36973739  0.49402915  0.88037402  1
  Zn  Zn90  1  0.49153616  0.48381408  0.02053556  1
  Zn  Zn91  1  0.37646462  0.62357917  0.74912153  1
  Zn  Zn92  1  -0.00724894  0.87864513  0.86890510  1
  Zn  Zn93  1  0.50218253  0.62356082  0.62831861  1
  Zn  Zn94  1  0.50810766  0.61905756  0.13046457  1
  Zn  Zn95  1  0.63426621  0.62448842  0.50552493  1
  Zn  Zn96  1  0.88240409  0.11669935  0.74959588  1
  Zn  Zn97  1  0.50392467  0.87696512  0.37542303  1
  Zn  Zn98  1  0.37586944  0.74720443  0.62541373  1
  Zn  Zn99  1  -0.00735450  0.12843402  0.12371391  1
  Zn  Zn100  1  -0.00000583  0.62320366  0.12803949  1
  Zn  Zn101  1  0.00067868  0.49872928  0.00201144  1
  Zn  Zn102  1  0.74579763  0.87864863  0.12446471  1
  Zn  Zn103  1  0.38212943  0.36912179  0.51161035  1
  Zn  Zn104  1  0.12052826  0.75184836  0.87405992  1
  Zn  Zn105  1  0.62885298  0.37484237  0.75319571  1
  Zn  Zn106  1  0.13059308  0.60120403  0.51590672  1
  Zn  Zn107  1  0.31215167  0.18959979  0.18725528  1
  Zn  Zn108  1  0.18661020  0.18298894  0.68816829  1
  Zn  Zn109  1  0.18699580  0.68620851  0.18973247  1
  Zn  Zn110  1  0.18446122  0.68831471  0.68615642  1
  Zn  Zn111  1  0.67774484  0.18279324  0.19043651  1
  Zn  Zn112  1  0.68897660  0.18950078  0.68927048  1
  Zn  Zn113  1  0.69333230  0.69069343  0.19272673  1
  Zn  Zn114  1  0.68614189  0.68728320  0.69057972  1
  Zn  Zn115  1  0.31361265  0.31552945  0.31923161  1
  Zn  Zn116  1  0.31398598  0.31704429  0.80876744  1
  Zn  Zn117  1  0.31318193  0.81607388  0.31417084  1
  Zn  Zn118  1  0.31045997  0.81193655  0.81197501  1
  Zn  Zn119  1  0.80857641  0.31128433  0.30770757  1
  Zn  Zn120  1  0.81706600  0.30755364  0.81449786  1
  Zn  Zn121  1  0.80841963  0.81102269  0.31056804  1
  Zn  Zn122  1  0.81284429  0.80850856  0.80927640  1
  Zn  Zn123  1  0.18701821  0.43321314  0.43582326  1
  Zn  Zn124  1  0.18640594  0.44020543  0.93439005  1
  Zn  Zn125  1  0.18527703  0.93802373  0.43862167  1
  Zn  Zn126  1  0.18613290  0.94014879  0.93380935  1
  Zn  Zn127  1  0.68811742  0.43582878  0.44097370  1
  Zn  Zn128  1  0.68835465  0.43474039  0.93932065  1
  Zn  Zn129  1  0.68920945  0.93943301  0.43305771  1
  Zn  Zn130  1  0.69105582  0.94195656  0.93952992  1
  Zn  Zn131  1  0.30655152  0.06377394  0.06372471  1
  Zn  Zn132  1  0.30756917  0.06198818  0.56017774  1
  Zn  Zn133  1  0.31313485  0.55476757  0.06166684  1
  Zn  Zn134  1  0.31899625  0.56342579  0.56483040  1
  Zn  Zn135  1  0.82880353  0.03166031  0.11583611  1
  Zn  Zn136  1  0.81019144  0.06656284  0.56031228  1
  Zn  Zn137  1  0.81370875  0.56392095  0.05972613  1
  Zn  Zn138  1  0.81611475  0.55983307  0.56231927  1
  Zn  Zn139  1  0.43918961  0.43700006  0.18729021  1
  Zn  Zn140  1  0.43399515  0.43545645  0.69018973  1
  Zn  Zn141  1  0.44008466  0.93782611  0.18440974  1
  Zn  Zn142  1  0.44720974  0.93752671  0.68276623  1
  Zn  Zn143  1  0.93969443  0.43487517  0.18876656  1
  Zn  Zn144  1  0.93788946  0.43500438  0.68949157  1
  Zn  Zn145  1  0.93949690  0.93209186  0.18980552  1
  Zn  Zn146  1  0.93563739  0.93437554  0.67970770  1
  Zn  Zn147  1  0.05688584  0.06276647  0.31195064  1
  Zn  Zn148  1  0.06600697  0.06205186  0.81434505  1
  Zn  Zn149  1  0.07207462  0.54982752  0.34160287  1
  Zn  Zn150  1  0.06117430  0.56150601  0.81184529  1
  Zn  Zn151  1  0.56536263  0.06816379  0.31664929  1
  Zn  Zn152  1  0.57392605  0.06809063  0.80266312  1
  Zn  Zn153  1  0.56247642  0.56511154  0.31184105  1
  Zn  Zn154  1  0.56399876  0.56194255  0.81283483  1
  Zn  Zn155  1  0.43790095  0.18769283  0.43403647  1
  Zn  Zn156  1  0.43619617  0.21786486  0.94342564  1
  Zn  Zn157  1  0.44061157  0.68702030  0.43939557  1
  Zn  Zn158  1  0.43741821  0.68308230  0.93726182  1
  Zn  Zn159  1  0.93252582  0.18412533  0.42931074  1
  Zn  Zn160  1  0.94821046  0.18637398  0.93267021  1
  Zn  Zn161  1  0.93527870  0.68513383  0.43947446  1
  Zn  Zn162  1  0.93894484  0.68864072  0.93460620  1
  Zn  Zn163  1  0.06918801  0.31087023  0.06209804  1
  Zn  Zn164  1  0.06355981  0.31079300  0.56076403  1
  Zn  Zn165  1  0.05844447  0.81424785  0.06262550  1
  Zn  Zn166  1  0.05742750  0.81037336  0.56414015  1
  Zn  Zn167  1  0.56968621  0.30786683  0.06162070  1
  Zn  Zn168  1  0.56404007  0.31608488  0.56760035  1
  Zn  Zn169  1  0.56127523  0.80991009  0.06303911  1
  Zn  Zn170  1  0.57755468  0.81836486  0.55738070  1
  O  O171  1  0.12345690  0.10975389  0.11477544  1
  O  O172  1  0.12646296  0.11590692  0.61344214  1
  O  O173  1  0.12283005  0.61907358  0.11910735  1
  O  O174  1  0.10762766  0.62632859  0.62632445  1
  O  O175  1  0.61380100  0.11682373  0.11671024  1
  O  O176  1  0.61865603  0.13202998  0.61383533  1
  O  O177  1  0.63122576  0.63123364  0.11094318  1
  O  O178  1  0.62377780  0.61623140  0.62453894  1
  O  O179  1  0.38909228  0.38048391  0.38010632  1
  O  O180  1  0.39275783  0.37253416  0.87366433  1
  O  O181  1  0.37615789  0.88247731  0.38684192  1
  O  O182  1  0.37884943  0.87000012  0.88789085  1
  O  O183  1  0.87733995  0.37628858  0.38003513  1
  O  O184  1  0.87747408  0.38067353  0.88430236  1
  O  O185  1  0.88753851  0.86711682  0.37483824  1
  O  O186  1  0.87410656  0.86845330  0.88886469  1
  O  O187  1  0.25490252  0.00646068  0.37122283  1
  O  O188  1  0.24926026  -0.00039855  0.85709464  1
  O  O189  1  0.25957186  0.50348387  0.36569331  1
  O  O190  1  0.24832763  0.51006189  0.86613696  1
  O  O191  1  0.75835336  -0.00451255  0.36638829  1
  O  O192  1  0.74762480  0.01159983  0.86557777  1
  O  O193  1  0.76056971  0.50062906  0.37520813  1
  O  O194  1  0.76272667  0.50506087  0.88012954  1
  O  O195  1  0.23848392  0.50923919  0.13992175  1
  O  O196  1  0.24789276  0.50474695  0.63714119  1
  O  O197  1  0.24030662  0.99205267  0.13053282  1
  O  O198  1  0.23878047  0.99518745  0.63042980  1
  O  O199  1  0.74921910  0.49185476  0.12419611  1
  O  O200  1  0.74455350  0.48947995  0.61973577  1
  O  O201  1  0.72140801  0.99824239  0.11287104  1
  O  O202  1  0.73856010  1.00934244  0.63117864  1
  O  O203  1  0.00760610  0.36295950  0.25409421  1
  O  O204  1  0.00742187  0.36790108  0.75501361  1
  O  O205  1  0.00340434  0.86814657  0.26210556  1
  O  O206  1  0.00476798  0.86827015  0.74862503  1
  O  O207  1  0.50635544  0.36579216  0.25743971  1
  O  O208  1  0.50471593  0.36350787  0.75704436  1
  O  O209  1  0.49961042  0.86171221  0.25197196  1
  O  O210  1  0.50090835  0.87132443  0.76610568  1
  O  O211  1  0.50466033  0.14385409  0.25258446  1
  O  O212  1  0.50608536  0.13888181  0.74247309  1
  O  O213  1  0.49136736  0.63659038  0.25173621  1
  O  O214  1  0.49976076  0.63711634  0.75404808  1
  O  O215  1  1.00319241  0.13927843  0.24537074  1
  O  O216  1  1.00063837  0.13647817  0.75395470  1
  O  O217  1  0.98912324  0.63157376  0.25495896  1
  O  O218  1  0.99257250  0.63038289  0.74319427  1
  O  O219  1  0.36162189  0.25561049  0.01287813  1
  O  O220  1  0.35747637  0.24967326  0.49134637  1
  O  O221  1  0.36885182  0.75430505  0.00753370  1
  O  O222  1  0.37014576  0.75878474  0.50067611  1
  O  O223  1  0.87103876  0.25669899  -0.00461408  1
  O  O224  1  0.87057364  0.25486916  0.50367727  1
  O  O225  1  0.87210258  0.75301168  0.00625861  1
  O  O226  1  0.87500489  0.74661173  0.51290013  1
  O  O227  1  0.12884917  0.24230883  0.48847034  1
  O  O228  1  0.11966259  0.23916501  0.98838772  1
  O  O229  1  0.13142282  0.75118291  0.49311296  1
  O  O230  1  0.12861142  0.74412735  1.00024036  1
  O  O231  1  0.63262761  0.25226727  0.49472789  1
  O  O232  1  0.61593301  0.23363748  0.98598343  1
  O  O233  1  0.61477596  0.73958532  0.48438996  1
  O  O234  1  0.63251772  0.74448312  0.99472225  1
  O  O235  1  0.50426879  0.24968447  0.14005799  1
  O  O236  1  0.50369605  0.24580238  0.63850283  1
  O  O237  1  0.49146949  0.74489654  0.13264304  1
  O  O238  1  0.50512693  0.75309373  0.63909002  1
  O  O239  1  1.00450986  0.24935288  0.13795514  1
  O  O240  1  0.99325094  0.25518644  0.63348617  1
  O  O241  1  0.99020409  0.74730351  0.13121783  1
  O  O242  1  0.99108005  0.74249655  0.63416382  1
  O  O243  1  0.00417363  0.25487410  0.36609453  1
  O  O244  1  0.00910534  0.25686148  0.86464985  1
  O  O245  1  0.00626598  0.75818498  0.37481226  1
  O  O246  1  0.00039513  0.75076489  0.85869568  1
  O  O247  1  0.50572783  0.25899191  0.36955248  1
  O  O248  1  0.50784620  0.25878030  0.86499560  1
  O  O249  1  0.50541011  0.75109877  0.36730013  1
  O  O250  1  0.50453205  0.75746654  0.86885472  1
  O  O251  1  0.23989849  0.13220744  0.49063890  1
  O  O252  1  0.23400221  0.11164590  0.98969620  1
  O  O253  1  0.24683558  0.63065805  0.49613721  1
  O  O254  1  0.23803283  0.62936320  0.99469147  1
  O  O255  1  0.74253452  0.14221684  0.50422340  1
  O  O256  1  0.74448511  0.13299065  0.99542228  1
  O  O257  1  0.75316309  0.61667575  0.48449071  1
  O  O258  1  0.74246121  0.62782570  0.99011592  1
  O  O259  1  0.24361140  0.37671426  0.00627491  1
  O  O260  1  0.24573340  0.35897997  0.49814423  1
  O  O261  1  0.25537568  0.87213983  0.00352307  1
  O  O262  1  0.25697877  0.87136500  0.50542051  1
  O  O263  1  0.75619359  0.37597312  0.01425134  1
  O  O264  1  0.75880005  0.36582934  0.50816372  1
  O  O265  1  0.75620681  0.86820369  0.00282942  1
  O  O266  1  0.67782380  0.89369589  0.53666182  1
  O  O267  1  0.13186279  0.49138400  0.24830882  1
  O  O268  1  0.13154117  0.48909132  0.75610903  1
  O  O269  1  0.12785175  0.99608004  0.24261406  1
  O  O270  1  0.12735277  0.99414678  0.74141509  1
  O  O271  1  0.62258483  0.48461964  0.25723904  1
  O  O272  1  0.62488361  0.49669742  0.73845956  1
  O  O273  1  0.61666929  0.99880065  0.24022535  1
  O  O274  1  0.63795125  0.99312479  0.74294003  1
  O  O275  1  0.36975812  -0.01112528  0.26347504  1
  O  O276  1  0.36121017  -0.00826867  0.74165459  1
  O  O277  1  0.36819922  0.50464441  0.25770536  1
  O  O278  1  0.36389306  0.50284078  0.75894497  1
  O  O279  1  0.86343445  0.00914099  0.22690230  1
  O  O280  1  0.86177008  -0.00077550  0.74006937  1
  O  O281  1  0.87614919  0.50612309  0.25505940  1
  O  O282  1  0.87838014  0.51106553  0.75756991  1
  O  O283  1  0.11558683  0.36432196  0.36649652  1
  O  O284  1  0.11988591  0.36770503  0.86814672  1
  O  O285  1  0.12217346  0.86609526  0.36958174  1
  O  O286  1  0.12150024  0.87534793  0.86034875  1
  O  O287  1  0.61743217  0.36859079  0.37043477  1
  O  O288  1  0.62209826  0.36646448  0.87336976  1
  O  O289  1  0.62297076  0.86485938  0.37205272  1
  O  O290  1  0.61649895  0.87218291  0.87302587  1
  O  O291  1  0.37443472  0.11550513  0.13221145  1
  O  O292  1  0.39137274  0.11513533  0.61773893  1
  O  O293  1  0.36963771  0.63797937  0.13181302  1
  O  O294  1  0.38395464  0.62985431  0.62994521  1
  O  O295  1  0.86835086  0.13957016  0.10617767  1
  O  O296  1  0.87322539  0.13908965  0.62686775  1
  O  O297  1  0.87789685  0.62936176  0.13144036  1
  O  O298  1  0.88229130  0.62783312  0.63174880  1
  O  O299  1  0.24823549  0.26354096  0.13070021  1
  O  O300  1  0.24299923  0.24511877  0.60781841  1
  O  O301  1  0.25525236  0.75638896  0.12047258  1
  O  O302  1  0.25018848  0.75738181  0.61759165  1
  O  O303  1  0.74725423  0.24832927  0.11837203  1
  O  O304  1  0.75916834  0.25811304  0.61910132  1
  O  O305  1  0.76375213  0.74480274  0.11613280  1
  O  O306  1  0.76164660  0.74193208  0.62671042  1
  O  O307  1  0.24148956  0.24241352  0.37986688  1
  O  O308  1  0.24068635  0.24558358  0.86498215  1
  O  O309  1  0.24458212  0.74923389  0.38355531  1
  O  O310  1  0.24267974  0.74503560  0.88139554  1
  O  O311  1  0.73991608  0.25961469  0.38387500  1
  O  O312  1  0.74286118  0.24110766  0.87106205  1
  O  O313  1  0.74165884  0.73931731  0.37450206  1
  O  O314  1  0.74550812  0.74000429  0.88032984  1
  O  O315  1  0.00831527  0.11709529  0.00278189  1
  O  O316  1  0.01024856  0.11706065  0.48847064  1
  O  O317  1  0.01251557  0.62434993  -0.00031378  1
  O  O318  1  0.00097377  0.62713435  0.51500115  1
  O  O319  1  0.49940057  0.12036178  -0.00784453  1
  O  O320  1  0.50613063  0.12705762  0.50682745  1
  O  O321  1  0.51820534  0.63144358  0.00126929  1
  O  O322  1  0.50274595  0.60949867  0.50011991  1
  O  O323  1  0.50292046  0.38369594  0.49312685  1
  O  O324  1  0.50877743  0.37143884  0.98462334  1
  O  O325  1  0.49339686  0.88515505  0.49913585  1
  O  O326  1  0.49230744  0.86952704  0.98845284  1
  O  O327  1  0.99142152  0.36533137  0.48858510  1
  O  O328  1  0.99112745  0.37413975  0.99624933  1
  O  O329  1  1.00543769  0.88215422  0.48769207  1
  O  O330  1  0.99243961  0.88206487  0.99547248  1
  O  O331  1  0.49756207  0.49314862  0.38115639  1
  O  O332  1  0.50409747  0.48204368  0.87013792  1
  O  O333  1  0.49232145  1.00202997  0.38088870  1
  O  O334  1  0.49867714  0.99775159  0.87083312  1
  O  O335  1  0.98307065  0.47930642  0.36325035  1
  O  O336  1  0.98890003  0.49325577  0.87681280  1
  O  O337  1  1.00450060  0.98452462  0.38090271  1
  O  O338  1  0.99979231  0.99971852  0.88755147  1
  O  O339  1  0.00535291  0.00160475  0.11773555  1
  O  O340  1  0.01159280  -0.00598058  0.61546387  1
  O  O341  1  0.01309008  0.50215532  0.12637529  1
  O  O342  1  -0.00565868  0.51375803  0.62720792  1
  O  O343  1  0.51070657  0.00247734  0.12175165  1
  O  O344  1  0.51674502  0.00770091  0.61690472  1
  O  O345  1  0.50395040  0.50650756  0.13051213  1
  O  O346  1  0.51026880  0.49704561  0.61946445  1
  O  O347  1  0.24015843  0.38394383  0.26133141  1
  O  O348  1  0.24091684  0.38433855  0.75019263  1
  O  O349  1  0.24386065  0.88134957  0.24435241  1
  O  O350  1  0.24199122  0.88195752  0.74351320  1
  O  O351  1  0.74295453  0.36956271  0.23231434  1
  O  O352  1  0.75490462  0.37060603  0.73834006  1
  O  O353  1  0.74638634  0.86270779  0.23612135  1
  O  O354  1  0.73974976  0.88238852  0.75954232  1
  O  O355  1  0.25031394  0.11925549  0.26347113  1
  O  O356  1  0.25039262  0.10966196  0.75026193  1
  O  O357  1  0.25547083  0.61883818  0.25795517  1
  O  O358  1  0.24600375  0.62023503  0.75727573  1
  O  O359  1  0.74550938  0.12224810  0.25844544  1
  O  O360  1  0.75331600  0.11808468  0.75777846  1
  O  O361  1  0.76581737  0.62914688  0.26098840  1
  O  O362  1  0.75700057  0.62689409  0.76340960  1
  O  O363  1  0.36543645  0.11421371  0.38122411  1
  O  O364  1  0.38230843  0.11839482  0.88864480  1
  O  O365  1  0.36833736  0.62086047  0.37137710  1
  O  O366  1  0.35767892  0.63200600  0.87217624  1
  O  O367  1  0.87262946  0.11373819  0.36473931  1
  O  O368  1  0.86479716  0.13124485  0.87360641  1
  O  O369  1  0.87245798  0.61391711  0.36999361  1
  O  O370  1  0.86940165  0.61727503  0.86965063  1
  O  O371  1  0.12117954  0.38331164  0.13723283  1
  O  O372  1  0.12879823  0.37134227  0.63575808  1
  O  O373  1  0.12665779  0.88366122  0.12988131  1
  O  O374  1  0.12789727  0.88086629  0.63298656  1
  O  O375  1  0.63801367  0.37257786  0.12892508  1
  O  O376  1  0.63786491  0.38081698  0.62888185  1
  O  O377  1  0.61819478  0.88751596  0.12511197  1
  O  O378  1  0.60042589  0.87948352  0.65386043  1
  O  O379  1  0.11908427  0.25588233  0.26180984  1
  O  O380  1  0.12085061  0.25583527  0.75426306  1
  O  O381  1  0.11819999  0.75865449  0.25339511  1
  O  O382  1  0.11562990  0.75989394  0.74756683  1
  O  O383  1  0.61701606  0.25857155  0.25787673  1
  O  O384  1  0.62024819  0.25060501  0.76206128  1
  O  O385  1  0.61591130  0.74640448  0.25938493  1
  O  O386  1  0.62006959  0.75760970  0.76023662  1
  O  O387  1  0.38746745  0.25271833  0.25672701  1
  O  O388  1  0.38964990  0.24775540  0.75445637  1
  O  O389  1  0.37900592  0.74841972  0.24362350  1
  O  O390  1  0.38454705  0.75251658  0.74734277  1
  O  O391  1  0.88941292  0.25365155  0.25064699  1
  O  O392  1  0.88713260  0.24978823  0.74130242  1
  O  O393  1  0.88181315  0.74284404  0.24193463  1
  O  O394  1  0.87986578  0.73705460  0.74489186  1
  O  O395  1  0.38395357  0.49724176  0.49321021  1
  O  O396  1  0.38593775  0.51506750  0.99023894  1
  O  O397  1  0.37730445  0.99393194  0.49124126  1
  O  O398  1  0.37839619  0.99282169  0.99713854  1
  O  O399  1  0.87416764  0.48449550  0.49152042  1
  O  O400  1  0.87907457  0.49238844  0.99372886  1
  O  O401  1  0.88881147  1.00420953  0.50859348  1
  O  O402  1  0.88255526  0.98871706  1.01474524  1
  O  O403  1  0.11477746  0.00128723  0.00479600  1
  O  O404  1  0.11920281  0.00707810  0.50567488  1
  O  O405  1  0.12404396  0.50803456  0.01042248  1
  O  O406  1  0.11562870  0.51569739  0.44741123  1
  O  O407  1  0.62026191  0.01403900  -0.00367641  1
  O  O408  1  0.61858872  0.02025391  0.49779092  1
  O  O409  1  0.62241405  0.51376885  -0.00431150  1
  O  O410  1  0.61962710  0.49974805  0.51046252  1
  O  O411  1  0.36377416  0.38139596  0.12506585  1
  O  O412  1  0.36708994  0.37682610  0.62282339  1
  O  O413  1  0.37165289  0.86605021  0.11459133  1
  O  O414  1  0.37230673  0.87604267  0.61285811  1
  O  O415  1  0.86486482  0.37922503  0.11538795  1
  O  O416  1  0.87231847  0.36874187  0.61763898  1
  O  O417  1  0.87624781  0.86408088  0.11469925  1
  O  O418  1  0.87220814  0.85690428  0.62727938  1
  O  O419  1  0.13057304  0.12938479  0.37933820  1
  O  O420  1  0.12605377  0.13476791  0.88013386  1
  O  O421  1  0.13324757  0.64699601  0.36192305  1
  O  O422  1  0.13186173  0.62651237  0.88263512  1
  O  O423  1  0.61837608  0.14231227  0.38834131  1
  O  O424  1  0.63658497  0.12995986  0.87975971  1
  O  O425  1  0.63615216  0.62884956  0.37392462  1
  O  O426  1  0.63310793  0.62786248  0.88185716  1
