# generated using pymatgen
data_V85Zn86O256
_symmetry_space_group_name_H-M   'P 1'
_cell_length_a   16.94244938
_cell_length_b   16.93685165
_cell_length_c   16.92561698
_cell_angle_alpha   90.03318943
_cell_angle_beta   89.98245322
_cell_angle_gamma   89.94586741
_symmetry_Int_Tables_number   1
_chemical_formula_structural   V85Zn86O256
_chemical_formula_sum   'V85 Zn86 O256'
_cell_volume   4856.83223029
_cell_formula_units_Z   1
loop_
 _symmetry_equiv_pos_site_id
 _symmetry_equiv_pos_as_xyz
  1  'x, y, z'
loop_
 _atom_site_type_symbol
 _atom_site_label
 _atom_site_symmetry_multiplicity
 _atom_site_fract_x
 _atom_site_fract_y
 _atom_site_fract_z
 _atom_site_occupancy
  V  V0  1  0.75458628  0.12023032  0.86439841  1
  V  V1  1  0.49950669  0.75050397  0.75089635  1
  V  V2  1  0.49861881  0.87772337  0.88057503  1
  V  V3  1  0.87060570  0.75075779  0.62353633  1
  V  V4  1  0.25178793  0.00138884  0.74736826  1
  V  V5  1  0.00076296  0.24934868  0.25489294  1
  V  V6  1  -0.00661207  0.38336891  0.37523720  1
  V  V7  1  0.00003990  0.62308589  0.62392121  1
  V  V8  1  0.75151885  0.87719199  0.12690383  1
  V  V9  1  0.49969626  0.00225186  0.48890856  1
  V  V10  1  0.36741723  0.37872017  0.01643770  1
  V  V11  1  0.50115919  0.50079931  0.00249983  1
  V  V12  1  0.87441728  -0.00003170  0.84863167  1
  V  V13  1  0.37374075  0.62736544  0.75108773  1
  V  V14  1  0.75595173  0.61921033  0.37330257  1
  V  V15  1  0.24937955  0.75204753  0.49806703  1
  V  V16  1  0.50378450  0.62297268  0.62347616  1
  V  V17  1  0.11971068  0.76357848  0.37100777  1
  V  V18  1  0.62955213  0.88063182  0.75181646  1
  V  V19  1  0.62459780  0.75063110  0.87549170  1
  V  V20  1  0.37504223  0.00157890  0.87584157  1
  V  V21  1  0.88684633  0.61967682  0.24998944  1
  V  V22  1  0.62803082  0.00136720  0.62819538  1
  V  V23  1  0.25939825  0.37276426  0.61638548  1
  V  V24  1  0.74490550  0.75015381  0.49731549  1
  V  V25  1  0.00076971  0.37601621  0.87511434  1
  V  V26  1  0.49555198  0.12286625  0.62893344  1
  V  V27  1  0.75190979  -0.00579354  0.26457381  1
  V  V28  1  -0.00298419  0.00287125  -0.00191961  1
  V  V29  1  0.26614090  0.25129344  0.49969201  1
  V  V30  1  0.62995048  0.24823003  0.37115667  1
  V  V31  1  0.12153243  0.62819407  0.00676709  1
  V  V32  1  0.50053327  0.23415611  0.24232751  1
  V  V33  1  0.12598300  0.75325148  0.87929652  1
  V  V34  1  0.25007529  0.12844986  0.87578113  1
  V  V35  1  0.35848615  0.75296974  0.12349655  1
  V  V36  1  0.87155083  0.25056921  0.12828560  1
  V  V37  1  0.37215689  0.23194949  0.12635606  1
  V  V38  1  0.87404908  0.49867909  0.87612439  1
  V  V39  1  0.87663329  0.11623639  0.26080565  1
  V  V40  1  0.49330525  0.49476963  0.49600994  1
  V  V41  1  0.87016528  0.37909692  0.51042660  1
  V  V42  1  -0.00110338  0.50383469  0.00925089  1
  V  V43  1  -0.01331056  0.12967659  0.62584012  1
  V  V44  1  0.12081956  0.87608707  0.74762758  1
  V  V45  1  0.87491129  0.87969378  0.00136212  1
  V  V46  1  0.74830718  0.62481091  0.87417101  1
  V  V47  1  0.24749083  0.62248966  0.37047196  1
  V  V48  1  0.35902348  0.87098815  0.00240591  1
  V  V49  1  0.26194179  0.12203377  0.36609452  1
  V  V50  1  0.50325689  0.85659441  0.37148438  1
  V  V51  1  0.87393092  0.62245156  0.74991358  1
  V  V52  1  0.12229548  0.62443763  0.49662299  1
  V  V53  1  0.75545459  0.25135243  0.51159729  1
  V  V54  1  0.25835004  -0.01401535  0.25077847  1
  V  V55  1  0.62466643  0.62285523  0.49073454  1
  V  V56  1  0.37563272  0.75241213  0.62400522  1
  V  V57  1  0.55650605  0.30837339  0.70243968  1
  V  V58  1  0.75434761  0.49305928  0.24870124  1
  V  V59  1  0.62427985  0.25228431  0.87759049  1
  V  V60  1  0.62563857  0.62553589  0.00055383  1
  V  V61  1  0.13223800  0.37618030  0.24509323  1
  V  V62  1  0.87235832  0.37339702  0.00383029  1
  V  V63  1  0.00231085  0.76639200  0.24778236  1
  V  V64  1  0.37989755  0.62891637  0.25126402  1
  V  V65  1  0.62902936  0.49171481  0.12480382  1
  V  V66  1  0.49144520  0.37273986  0.36803531  1
  V  V67  1  0.37861596  0.14086082  0.75100428  1
  V  V68  1  0.74150145  0.48656756  0.74491590  1
  V  V69  1  0.12864461  0.12849864  0.50441958  1
  V  V70  1  0.62172221  0.11896680  0.00632328  1
  V  V71  1  0.24474283  0.50048388  0.74781747  1
  V  V72  1  -0.01360504  0.25066961  0.74549294  1
  V  V73  1  0.50416563  0.63777593  0.12890312  1
  V  V74  1  0.12690929  -0.01274987  0.13287895  1
  V  V75  1  0.12450365  0.12660582  0.00045426  1
  V  V76  1  0.37399016  0.49939808  0.87784992  1
  V  V77  1  0.24964701  0.63002922  0.88176928  1
  V  V78  1  0.87957413  0.74505275  0.12232642  1
  V  V79  1  0.00185198  0.12197358  0.12675524  1
  V  V80  1  0.37548362  0.88073733  0.49451107  1
  V  V81  1  0.75001022  0.24990475  0.00492222  1
  V  V82  1  0.62340067  0.85908530  0.25297404  1
  V  V83  1  0.12477422  0.25096084  0.87185433  1
  V  V84  1  0.49801448  0.36981150  0.87837352  1
  Zn  Zn85  1  0.13094354  0.49785181  0.12201179  1
  Zn  Zn86  1  0.75162334  0.75143239  -0.00014624  1
  Zn  Zn87  1  0.74907105  0.88008053  0.62507930  1
  Zn  Zn88  1  0.75340800  0.12364662  0.37937798  1
  Zn  Zn89  1  0.25761300  0.49515000  0.23798608  1
  Zn  Zn90  1  0.25251574  0.87682366  0.62417250  1
  Zn  Zn91  1  0.12476718  0.37423323  0.74410380  1
  Zn  Zn92  1  -0.00252647  0.87609110  0.87128094  1
  Zn  Zn93  1  0.00058905  0.74966317  0.74999574  1
  Zn  Zn94  1  0.48978746  0.00689097  0.01082386  1
  Zn  Zn95  1  0.37052205  0.49533178  0.37447617  1
  Zn  Zn96  1  0.62847842  0.37134309  0.24536354  1
  Zn  Zn97  1  -0.00032175  -0.00785234  0.48370803  1
  Zn  Zn98  1  0.61824559  -0.00018639  0.13338390  1
  Zn  Zn99  1  0.12388219  0.49775286  0.61976974  1
  Zn  Zn100  1  0.12619824  0.00049706  0.62220735  1
  Zn  Zn101  1  -0.00895310  0.50530463  0.49445927  1
  Zn  Zn102  1  0.62636234  0.12463369  0.49955713  1
  Zn  Zn103  1  0.24446656  0.25707204  0.00785140  1
  Zn  Zn104  1  0.87600193  0.88133330  0.48166189  1
  Zn  Zn105  1  0.12962173  0.25236945  0.37819678  1
  Zn  Zn106  1  0.62522786  0.48765417  0.62460276  1
  Zn  Zn107  1  0.18838661  0.18819945  0.18914501  1
  Zn  Zn108  1  0.19040634  0.19264088  0.68704535  1
  Zn  Zn109  1  0.18455105  0.68721948  0.19014058  1
  Zn  Zn110  1  0.18714028  0.68966077  0.68731223  1
  Zn  Zn111  1  0.69084972  0.18314669  0.18963928  1
  Zn  Zn112  1  0.69102051  0.18157317  0.68340779  1
  Zn  Zn113  1  0.69385949  0.68429104  0.18683740  1
  Zn  Zn114  1  0.68508332  0.68496330  0.68709616  1
  Zn  Zn115  1  0.31509799  0.30441735  0.30811167  1
  Zn  Zn116  1  0.30924052  0.31805671  0.81518184  1
  Zn  Zn117  1  0.31572397  0.81046235  0.31294348  1
  Zn  Zn118  1  0.30982666  0.81432603  0.81403704  1
  Zn  Zn119  1  0.81423002  0.31277530  0.31509860  1
  Zn  Zn120  1  0.81049683  0.31083051  0.81680322  1
  Zn  Zn121  1  0.80750163  0.80064276  0.31139545  1
  Zn  Zn122  1  0.81339268  0.81263409  0.81090069  1
  Zn  Zn123  1  0.18446123  0.43692709  0.43468372  1
  Zn  Zn124  1  0.18707439  0.43935006  0.93868900  1
  Zn  Zn125  1  0.18697784  0.94417735  0.43694495  1
  Zn  Zn126  1  0.18434130  0.94162695  0.93572721  1
  Zn  Zn127  1  0.68469505  0.43559867  0.43433174  1
  Zn  Zn128  1  0.68794454  0.43458916  0.93722919  1
  Zn  Zn129  1  0.68367875  0.93277043  0.44023079  1
  Zn  Zn130  1  0.69196618  0.94018327  0.93521330  1
  Zn  Zn131  1  0.30561581  0.05792179  0.06300839  1
  Zn  Zn132  1  0.31533330  0.06589484  0.56234428  1
  Zn  Zn133  1  0.31033516  0.56503360  0.06611061  1
  Zn  Zn134  1  0.31205101  0.56352916  0.56122453  1
  Zn  Zn135  1  0.81061725  0.06226026  0.06586003  1
  Zn  Zn136  1  0.81104539  0.06551459  0.56336823  1
  Zn  Zn137  1  0.81204306  0.56279510  0.06460745  1
  Zn  Zn138  1  0.80993526  0.55809667  0.56364420  1
  Zn  Zn139  1  0.44303080  0.44137613  0.19093030  1
  Zn  Zn140  1  0.43102917  0.44514796  0.68505302  1
  Zn  Zn141  1  0.43891343  0.93529726  0.18795558  1
  Zn  Zn142  1  0.43922258  0.94048161  0.68779449  1
  Zn  Zn143  1  0.93829369  0.43520425  0.18777799  1
  Zn  Zn144  1  0.93735739  0.43817902  0.68682652  1
  Zn  Zn145  1  0.93728923  0.93798108  0.31315520  1
  Zn  Zn146  1  0.93539495  0.94150091  0.63385953  1
  Zn  Zn147  1  0.07340408  0.06576636  0.31568859  1
  Zn  Zn148  1  0.05902448  0.06374944  0.80662793  1
  Zn  Zn149  1  0.06484274  0.56119839  0.31107076  1
  Zn  Zn150  1  0.06214569  0.56385226  0.81635777  1
  Zn  Zn151  1  0.56771919  0.05827520  0.31217029  1
  Zn  Zn152  1  0.56130339  0.06474161  0.81578482  1
  Zn  Zn153  1  0.56339507  0.56139949  0.30980305  1
  Zn  Zn154  1  0.56248634  0.55904444  0.81192669  1
  Zn  Zn155  1  0.43954113  0.18503007  0.43288495  1
  Zn  Zn156  1  0.43657843  0.19043587  0.94124270  1
  Zn  Zn157  1  0.43490446  0.68563550  0.43898049  1
  Zn  Zn158  1  0.43660094  0.68985176  0.94213973  1
  Zn  Zn159  1  0.93912774  0.18931656  0.44110410  1
  Zn  Zn160  1  0.93532160  0.18547605  0.93356193  1
  Zn  Zn161  1  0.93432136  0.69464471  0.43302622  1
  Zn  Zn162  1  0.94016305  0.68952602  0.93547261  1
  Zn  Zn163  1  0.05818277  0.31135968  0.06333298  1
  Zn  Zn164  1  0.06802407  0.31368419  0.56107567  1
  Zn  Zn165  1  0.05788640  0.81221157  0.06177676  1
  Zn  Zn166  1  0.06352378  0.81052986  0.56420208  1
  Zn  Zn167  1  0.55884913  0.31016781  0.06282010  1
  Zn  Zn168  1  0.55777753  0.30847740  0.54135699  1
  Zn  Zn169  1  0.56286814  0.81716177  0.06245435  1
  Zn  Zn170  1  0.56371180  0.81257987  0.56098307  1
  O  O171  1  0.11804555  0.12674914  0.11834011  1
  O  O172  1  0.12867472  0.12893575  0.61382582  1
  O  O173  1  0.12725639  0.62737131  0.10931665  1
  O  O174  1  0.11647706  0.62600005  0.61646244  1
  O  O175  1  0.63287251  0.12172395  0.10937314  1
  O  O176  1  0.61305581  0.11899830  0.62512591  1
  O  O177  1  0.62063215  0.62039665  0.11949970  1
  O  O178  1  0.61288386  0.62176871  0.61893399  1
  O  O179  1  0.38659673  0.37580627  0.36437650  1
  O  O180  1  0.38198391  0.38033602  0.88341167  1
  O  O181  1  0.38974423  0.86948336  0.38245419  1
  O  O182  1  0.38101428  0.87855772  0.88155937  1
  O  O183  1  0.88945037  0.37094730  0.38129933  1
  O  O184  1  0.88015952  0.37965737  0.88325912  1
  O  O185  1  0.87394560  0.86590331  0.37097804  1
  O  O186  1  0.87293872  0.88453254  0.88032290  1
  O  O187  1  0.24416101  0.01087589  0.36122085  1
  O  O188  1  0.25455630  0.00859057  0.86615676  1
  O  O189  1  0.25057850  0.51220054  0.37335784  1
  O  O190  1  0.25404827  0.50711460  0.86674498  1
  O  O191  1  0.74702965  0.00047149  0.36843909  1
  O  O192  1  0.75866929  0.01206428  0.87395044  1
  O  O193  1  0.74331042  0.51011686  0.36561504  1
  O  O194  1  0.75382256  0.50547694  0.86803641  1
  O  O195  1  0.24494170  0.49886732  0.12494391  1
  O  O196  1  0.24868047  0.49528377  0.63056814  1
  O  O197  1  0.23585643  1.00372261  0.13641349  1
  O  O198  1  0.25170077  1.00138384  0.63774548  1
  O  O199  1  0.73987674  0.50607034  0.13370649  1
  O  O200  1  0.74474185  0.50059537  0.63995421  1
  O  O201  1  0.74936797  0.98693745  0.13298687  1
  O  O202  1  0.73213303  1.00183831  0.62396571  1
  O  O203  1  0.00378437  0.36861885  0.25922076  1
  O  O204  1  0.00198250  0.36711174  0.75414193  1
  O  O205  1  -0.00151216  0.86409774  0.24360047  1
  O  O206  1  0.01614469  0.87502612  0.74755215  1
  O  O207  1  0.50693006  0.36641076  0.25415391  1
  O  O208  1  0.49405962  0.37314559  0.75576752  1
  O  O209  1  0.50655269  0.87467463  0.26471753  1
  O  O210  1  0.50430437  0.87078851  0.76225932  1
  O  O211  1  0.50441188  0.13575126  0.25209450  1
  O  O212  1  0.49096711  0.12233625  0.74365090  1
  O  O213  1  0.49341366  0.62348047  0.24120165  1
  O  O214  1  0.49450353  0.62755969  0.74325839  1
  O  O215  1  0.99628846  0.13222374  0.24394756  1
  O  O216  1  1.00435635  0.14358209  0.74217355  1
  O  O217  1  0.98904614  0.62381880  0.25074616  1
  O  O218  1  0.99052662  0.62230160  0.74341843  1
  O  O219  1  0.37671220  0.25901743  0.01456482  1
  O  O220  1  0.36591897  0.24649621  0.49827634  1
  O  O221  1  0.37464090  0.75541951  0.01305196  1
  O  O222  1  0.37074875  0.75948426  0.50413079  1
  O  O223  1  0.86845318  0.25023604  0.00724918  1
  O  O224  1  0.86192751  0.25975262  0.49529538  1
  O  O225  1  0.87546159  0.75659117  0.00452993  1
  O  O226  1  0.86379709  0.74844461  0.50949648  1
  O  O227  1  0.13737051  0.24480845  0.49780647  1
  O  O228  1  0.12250681  0.24649960  0.98991022  1
  O  O229  1  0.12731111  0.74113823  0.49326384  1
  O  O230  1  0.11727981  0.74427451  0.98790007  1
  O  O231  1  0.63814795  0.24862254  0.48955845  1
  O  O232  1  0.63078148  0.24193764  0.99597939  1
  O  O233  1  0.63572042  0.73811169  0.50758974  1
  O  O234  1  0.62761343  0.74403887  0.99288677  1
  O  O235  1  0.49350706  0.24868385  0.13534915  1
  O  O236  1  0.50811720  0.24722687  0.63382932  1
  O  O237  1  0.49690385  0.73938630  0.11974821  1
  O  O238  1  0.49614780  0.74276406  0.63005833  1
  O  O239  1  0.99435089  0.24068838  0.13470586  1
  O  O240  1  1.00682890  0.24573036  0.63854870  1
  O  O241  1  0.99353755  0.75040953  0.13611641  1
  O  O242  1  0.99094102  0.73629625  0.62956098  1
  O  O243  1  0.00113106  0.25565426  0.36455816  1
  O  O244  1  0.00448142  0.25407383  0.86557185  1
  O  O245  1  0.00657310  0.74670181  0.35896316  1
  O  O246  1  0.00902399  0.75388403  0.86829251  1
  O  O247  1  0.50452785  0.25362475  0.36271706  1
  O  O248  1  0.50635310  0.26137121  0.87905909  1
  O  O249  1  0.50308330  0.75824067  0.38016544  1
  O  O250  1  0.50416474  0.75598957  0.87058004  1
  O  O251  1  0.24768257  0.13104754  0.49442493  1
  O  O252  1  0.24104387  0.12862961  0.99347659  1
  O  O253  1  0.24258566  0.63153641  0.49309354  1
  O  O254  1  0.24158506  0.62047664  0.98654631  1
  O  O255  1  0.74981782  0.13820099  0.49868406  1
  O  O256  1  0.74322729  0.13310182  0.99242776  1
  O  O257  1  0.74335111  0.62430455  0.49382693  1
  O  O258  1  0.74627919  0.62442877  0.98719945  1
  O  O259  1  0.26268160  0.37375179  -0.00543298  1
  O  O260  1  0.24797797  0.36966638  0.50754513  1
  O  O261  1  0.25989982  0.87619654  -0.00746594  1
  O  O262  1  0.25978336  0.87203181  0.49787603  1
  O  O263  1  0.75582252  0.35882692  -0.00543981  1
  O  O264  1  0.76122707  0.36711693  0.49416875  1
  O  O265  1  0.75862453  0.87548675  0.00547721  1
  O  O266  1  0.74972269  0.86341079  0.50512671  1
  O  O267  1  0.12436471  0.48603923  0.24727635  1
  O  O268  1  0.13650754  0.50217429  0.74992466  1
  O  O269  1  0.13076708  1.00347744  0.23629232  1
  O  O270  1  0.13566851  0.99382643  0.75212338  1
  O  O271  1  0.63386682  0.49921110  0.24019975  1
  O  O272  1  0.63697374  0.49933319  0.74861596  1
  O  O273  1  0.63636963  0.98885465  0.25066928  1
  O  O274  1  0.61511794  0.99115876  0.74362446  1
  O  O275  1  0.35713291  -0.00397370  0.24180631  1
  O  O276  1  0.36855826  0.00549454  0.75758792  1
  O  O277  1  0.37539052  0.51417566  0.25200605  1
  O  O278  1  0.36456035  0.50808427  0.75743310  1
  O  O279  1  0.86614223  0.00720800  0.24663646  1
  O  O280  1  0.88163003  -0.00962089  0.75169370  1
  O  O281  1  0.86716167  0.50777271  0.23935655  1
  O  O282  1  0.86570349  0.50728526  0.75302535  1
  O  O283  1  0.11230302  0.37218602  0.36717745  1
  O  O284  1  0.11826297  0.36808215  0.87335526  1
  O  O285  1  0.12537806  0.86205790  0.38377397  1
  O  O286  1  0.12390746  0.86854325  0.86933342  1
  O  O287  1  0.61587561  0.36184364  0.37185278  1
  O  O288  1  0.61760037  0.36092773  0.88068845  1
  O  O289  1  0.61220615  0.87410912  0.36939541  1
  O  O290  1  0.61795168  0.87273702  0.87165273  1
  O  O291  1  0.37732624  0.13408134  0.11506141  1
  O  O292  1  0.38746145  0.12292516  0.63438945  1
  O  O293  1  0.38275852  0.63581196  0.12856221  1
  O  O294  1  0.38577549  0.63018743  0.62863795  1
  O  O295  1  0.88294081  0.13184209  0.13224073  1
  O  O296  1  0.88829499  0.13231189  0.62503646  1
  O  O297  1  0.86847038  0.63834395  0.13134722  1
  O  O298  1  0.87857801  0.62884506  0.63146814  1
  O  O299  1  0.26682352  0.24720848  0.12656536  1
  O  O300  1  0.25049165  0.26514373  0.61805665  1
  O  O301  1  0.26003215  0.74633605  0.12461158  1
  O  O302  1  0.25798378  0.75008365  0.61645027  1
  O  O303  1  0.75959181  0.24394387  0.11812312  1
  O  O304  1  0.74438935  0.25206604  0.61049286  1
  O  O305  1  0.75849043  0.75915883  0.12291572  1
  O  O306  1  0.75511974  0.74294811  0.61638640  1
  O  O307  1  0.25245443  0.23922730  0.37991915  1
  O  O308  1  0.24046407  0.24647917  0.87830226  1
  O  O309  1  0.24215635  0.74080497  0.37815719  1
  O  O310  1  0.24136340  0.74025855  0.87056611  1
  O  O311  1  0.74264841  0.24833830  0.37807261  1
  O  O312  1  0.74428313  0.24061012  0.88224333  1
  O  O313  1  0.74865845  0.73206908  0.38509328  1
  O  O314  1  0.74366886  0.74080142  0.87510659  1
  O  O315  1  0.00392644  0.12365083  0.00677395  1
  O  O316  1  0.00791476  0.13311206  0.51522239  1
  O  O317  1  0.00835056  0.61514725  -0.00824023  1
  O  O318  1  0.00445348  0.62669495  0.50468402  1
  O  O319  1  0.51816976  0.12508793  -0.00779974  1
  O  O320  1  0.49999079  0.11826732  0.50743197  1
  O  O321  1  0.50618009  0.61892210  0.00540283  1
  O  O322  1  0.50689256  0.62036029  0.50511480  1
  O  O323  1  0.49864476  0.38342760  0.48506596  1
  O  O324  1  0.49271465  0.38101535  0.99413131  1
  O  O325  1  0.49658303  0.87937834  0.49031780  1
  O  O326  1  0.49236561  0.87262731  0.98798606  1
  O  O327  1  0.99148457  0.37364271  0.48977077  1
  O  O328  1  0.99340397  0.38143353  0.99423569  1
  O  O329  1  0.98756464  0.88439865  0.53226040  1
  O  O330  1  0.98787594  0.88174704  0.99654034  1
  O  O331  1  0.50041045  0.49053571  0.37873109  1
  O  O332  1  0.49654354  0.48928971  0.87979445  1
  O  O333  1  0.50359660  0.99558445  0.38679283  1
  O  O334  1  0.49263941  0.99287293  0.88057070  1
  O  O335  1  1.00091405  0.48665222  0.37526578  1
  O  O336  1  0.99205224  0.49439839  0.88047248  1
  O  O337  1  0.99798900  1.00934866  0.37280555  1
  O  O338  1  0.98968604  1.00178767  0.87871093  1
  O  O339  1  0.01265077  0.01463239  0.11952401  1
  O  O340  1  0.01121130  0.02758293  0.64234262  1
  O  O341  1  0.00348607  0.49623035  0.11186743  1
  O  O342  1  0.00058115  0.51181471  0.62136014  1
  O  O343  1  0.50675843  -0.00996612  0.11997217  1
  O  O344  1  0.50623837  0.00734857  0.61754288  1
  O  O345  1  0.50938358  0.51098458  0.12005750  1
  O  O346  1  0.50167291  0.50611309  0.61724264  1
  O  O347  1  0.23478690  0.37413911  0.25950831  1
  O  O348  1  0.24898083  0.38465007  0.74080055  1
  O  O349  1  0.24846703  0.88664668  0.25864089  1
  O  O350  1  0.24344715  0.88546559  0.75082531  1
  O  O351  1  0.74968218  0.38829859  0.25472645  1
  O  O352  1  0.75272472  0.38853049  0.75665503  1
  O  O353  1  0.74463000  0.87723361  0.24484130  1
  O  O354  1  0.73221573  0.86933853  0.75080230  1
  O  O355  1  0.24663488  0.12153058  0.26289878  1
  O  O356  1  0.25707639  0.12063644  0.75512047  1
  O  O357  1  0.25653933  0.62388138  0.25698286  1
  O  O358  1  0.25459366  0.61937580  0.75617143  1
  O  O359  1  0.75927126  0.11273482  0.25183507  1
  O  O360  1  0.74823117  0.12932632  0.76553219  1
  O  O361  1  0.75921453  0.61761975  0.25683411  1
  O  O362  1  0.75323437  0.61696362  0.75934500  1
  O  O363  1  0.36075594  0.12099091  0.37777997  1
  O  O364  1  0.37110486  0.12199189  0.87164201  1
  O  O365  1  0.36656535  0.62822577  0.36620846  1
  O  O366  1  0.36809299  0.62127994  0.87295699  1
  O  O367  1  0.87441286  0.13224840  0.36347525  1
  O  O368  1  0.86291916  0.11610668  0.87608400  1
  O  O369  1  0.86786488  0.62620734  0.36403347  1
  O  O370  1  0.86754598  0.61967523  0.86885105  1
  O  O371  1  0.11718195  0.37209637  0.14166254  1
  O  O372  1  0.13611343  0.38094653  0.62609203  1
  O  O373  1  0.12134722  0.88968491  0.11937529  1
  O  O374  1  0.13359691  0.87611851  0.63410166  1
  O  O375  1  0.62129247  0.38799531  0.12198822  1
  O  O376  1  0.60794672  0.36655578  0.63623427  1
  O  O377  1  0.63519641  0.87278251  0.13239675  1
  O  O378  1  0.62116481  0.88255975  0.63500360  1
  O  O379  1  0.11698312  0.25871120  0.25221821  1
  O  O380  1  0.12130854  0.25242373  0.76219275  1
  O  O381  1  0.11026508  0.74632756  0.25483123  1
  O  O382  1  0.12652984  0.75803466  0.75921584  1
  O  O383  1  0.61735425  0.24931462  0.25111578  1
  O  O384  1  0.62458643  0.25137203  0.75674039  1
  O  O385  1  0.63163336  0.75963896  0.24831020  1
  O  O386  1  0.61670006  0.75477101  0.75563706  1
  O  O387  1  0.38758392  0.24849645  0.23614480  1
  O  O388  1  0.37111843  0.23991203  0.75727375  1
  O  O389  1  0.37236647  0.74023146  0.23723316  1
  O  O390  1  0.37996675  0.74565571  0.74607389  1
  O  O391  1  0.88098989  0.24392101  0.24400749  1
  O  O392  1  0.88788032  0.25409060  0.75388479  1
  O  O393  1  0.88594078  0.74176815  0.24150801  1
  O  O394  1  0.87323194  0.73352786  0.74777885  1
  O  O395  1  0.38942083  0.51011369  0.49408992  1
  O  O396  1  0.38106230  0.49551430  0.99619873  1
  O  O397  1  0.38345285  0.98749009  0.50628262  1
  O  O398  1  0.37197980  0.99141694  0.99393295  1
  O  O399  1  0.87283978  0.48503114  0.49981669  1
  O  O400  1  0.87966884  0.49565498  0.99726898  1
  O  O401  1  0.88380845  0.98863234  0.53054647  1
  O  O402  1  0.88028311  0.99381470  1.00017814  1
  O  O403  1  0.11899390  0.00773063  0.00723468  1
  O  O404  1  0.12182247  0.01145476  0.50394000  1
  O  O405  1  0.11505030  0.50880900  -0.00300832  1
  O  O406  1  0.12143272  0.51451875  0.49787133  1
  O  O407  1  0.62818457  0.01428117  -0.00309455  1
  O  O408  1  0.61577905  0.00145097  0.50823006  1
  O  O409  1  0.62276141  0.50577611  0.00513673  1
  O  O410  1  0.61545760  0.50433267  0.50382738  1
  O  O411  1  0.38274311  0.37287002  0.11792701  1
  O  O412  1  0.35865838  0.38151345  0.62457198  1
  O  O413  1  0.37749810  0.85927486  0.11819061  1
  O  O414  1  0.37654484  0.86868571  0.61760803  1
  O  O415  1  0.88191767  0.35850179  0.12006864  1
  O  O416  1  0.88094380  0.37392943  0.60904293  1
  O  O417  1  0.86661221  0.86240360  0.11391152  1
  O  O418  1  0.86367160  0.85259858  0.64741327  1
  O  O419  1  0.13652941  0.13091721  0.38843645  1
  O  O420  1  0.12736926  0.13253240  0.87971863  1
  O  O421  1  0.13013797  0.63139075  0.37934947  1
  O  O422  1  0.13155529  0.63340709  0.88023695  1
  O  O423  1  0.62679231  0.13637375  0.37681026  1
  O  O424  1  0.63416602  0.13349048  0.88126819  1
  O  O425  1  0.62907824  0.62051705  0.38659988  1
  O  O426  1  0.63061190  0.62851882  0.87861919  1
