# generated using pymatgen
data_V85Zn86O256
_symmetry_space_group_name_H-M   'P 1'
_cell_length_a   16.93701365
_cell_length_b   16.93917009
_cell_length_c   16.93244440
_cell_angle_alpha   89.95454354
_cell_angle_beta   89.95682878
_cell_angle_gamma   90.05359481
_symmetry_Int_Tables_number   1
_chemical_formula_structural   V85Zn86O256
_chemical_formula_sum   'V85 Zn86 O256'
_cell_volume   4857.89556829
_cell_formula_units_Z   1
loop_
 _symmetry_equiv_pos_site_id
 _symmetry_equiv_pos_as_xyz
  1  'x, y, z'
loop_
 _atom_site_type_symbol
 _atom_site_label
 _atom_site_symmetry_multiplicity
 _atom_site_fract_x
 _atom_site_fract_y
 _atom_site_fract_z
 _atom_site_occupancy
  V  V0  1  0.12212182  0.61096860  0.00551774  1
  V  V1  1  0.37689438  -0.00022316  0.39072761  1
  V  V2  1  0.01541857  0.75517279  0.75333082  1
  V  V3  1  0.62741178  0.62494068  0.50367712  1
  V  V4  1  0.87951916  -0.00216542  0.87028956  1
  V  V5  1  0.12177006  0.87786471  0.25197381  1
  V  V6  1  0.25470643  0.76205947  0.49441007  1
  V  V7  1  0.88579731  0.75297186  0.12964807  1
  V  V8  1  0.12058792  0.11879701  -0.00383586  1
  V  V9  1  0.37557114  0.12494072  0.25194101  1
  V  V10  1  0.12390904  0.24773448  0.87014068  1
  V  V11  1  0.00116096  0.61163969  0.12488338  1
  V  V12  1  0.87087754  0.39102701  -0.00967733  1
  V  V13  1  0.87377649  0.87703373  0.50415261  1
  V  V14  1  0.50625248  0.25479968  0.24636635  1
  V  V15  1  -0.00214534  0.01114477  0.50317855  1
  V  V16  1  0.25075224  0.37401702  0.61566318  1
  V  V17  1  0.11841762  -0.00131613  0.12219424  1
  V  V18  1  0.24702025  0.24947283  0.00252924  1
  V  V19  1  0.49987708  0.37408778  0.87322373  1
  V  V20  1  0.00216899  0.38974021  0.87949397  1
  V  V21  1  0.50193885  0.50082640  0.00797121  1
  V  V22  1  0.01597288  0.87382368  0.87681491  1
  V  V23  1  0.12712681  0.50310989  0.62378685  1
  V  V24  1  0.62457128  0.75268111  0.37675284  1
  V  V25  1  0.24750695  -0.01178212  0.75146303  1
  V  V26  1  0.37379512  0.50177646  0.87409933  1
  V  V27  1  0.49627605  0.88121669  0.38782345  1
  V  V28  1  0.62514672  0.62446727  0.01114625  1
  V  V29  1  0.88548081  0.23953684  0.63036411  1
  V  V30  1  0.49468540  0.74605351  0.25299606  1
  V  V31  1  0.37372122  0.74049169  0.12916996  1
  V  V32  1  0.37358201  0.37153023  0.00048039  1
  V  V33  1  0.87763638  0.62989981  0.25256980  1
  V  V34  1  0.49840173  0.62176227  0.62976793  1
  V  V35  1  0.62921158  0.87135294  0.74352983  1
  V  V36  1  0.37219185  0.12356943  0.74773397  1
  V  V37  1  0.11929483  -0.00617363  0.62991537  1
  V  V38  1  0.74947834  0.00081091  0.24875027  1
  V  V39  1  0.62796704  0.24788856  0.87506740  1
  V  V40  1  0.50254441  0.87372305  0.87940475  1
  V  V41  1  0.37881050  0.87794197  0.00431879  1
  V  V42  1  0.75213126  0.87293332  0.12445567  1
  V  V43  1  0.75186858  -0.00434460  0.74130036  1
  V  V44  1  0.87145145  0.49898762  0.37557666  1
  V  V45  1  0.25042052  0.87526729  0.12824299  1
  V  V46  1  0.12507263  0.74998476  0.36962787  1
  V  V47  1  0.12213138  0.37319206  0.74402290  1
  V  V48  1  -0.00097235  0.87569289  0.37260812  1
  V  V49  1  0.37148819  0.25008790  0.61508774  1
  V  V50  1  0.86787597  0.38259052  0.51639245  1
  V  V51  1  0.13487193  0.62916814  0.49733395  1
  V  V52  1  0.74969513  0.75590677  0.50653023  1
  V  V53  1  0.75528844  0.49356887  0.76110539  1
  V  V54  1  0.63467589  0.49080153  0.62568035  1
  V  V55  1  0.24116622  0.74998131  -0.00087650  1
  V  V56  1  0.87238035  0.75638794  0.63126032  1
  V  V57  1  0.49839881  0.11813984  0.12026966  1
  V  V58  1  0.12988331  0.13080101  0.50473649  1
  V  V59  1  0.87593436  0.62545228  0.76185676  1
  V  V60  1  0.87661143  0.00197117  0.37416621  1
  V  V61  1  -0.00448743  0.12350717  0.11834321  1
  V  V62  1  0.38104108  0.00038539  0.87752570  1
  V  V63  1  0.62041020  0.12071419  0.50088467  1
  V  V64  1  0.74835869  0.25601255  0.51194575  1
  V  V65  1  0.74060231  0.49177415  0.24556241  1
  V  V66  1  0.24397328  0.62812625  0.87494834  1
  V  V67  1  0.87996846  0.87787739  -0.00134671  1
  V  V68  1  0.86478100  0.24436558  0.10232856  1
  V  V69  1  0.49849527  0.24898373  0.74657453  1
  V  V70  1  0.00066497  0.62941057  0.62698294  1
  V  V71  1  0.62151713  0.11996170  -0.00604986  1
  V  V72  1  0.37188876  0.51197482  0.36600419  1
  V  V73  1  0.63144016  0.26160105  0.36849943  1
  V  V74  1  0.75168994  0.12929997  0.37474805  1
  V  V75  1  0.24946764  0.00386317  0.25303474  1
  V  V76  1  0.62270292  0.87558131  0.25054662  1
  V  V77  1  0.62192246  -0.00375929  0.11614015  1
  V  V78  1  0.24837677  0.14195542  0.37932865  1
  V  V79  1  0.37612018  0.75807466  0.62338680  1
  V  V80  1  0.24399808  0.50966543  0.24543090  1
  V  V81  1  0.62755477  0.74528482  0.87625227  1
  V  V82  1  -0.00048157  0.50331682  0.49823845  1
  V  V83  1  0.49798629  0.49482355  0.49878939  1
  V  V84  1  0.75060571  0.12094516  0.87054565  1
  Zn  Zn85  1  0.87208264  0.13335632  0.24513877  1
  Zn  Zn86  1  0.24940705  0.87424119  0.62514500  1
  Zn  Zn87  1  0.73829372  0.36401153  0.13512625  1
  Zn  Zn88  1  0.75379460  0.74724481  0.00134685  1
  Zn  Zn89  1  0.37385230  0.24810951  0.12550239  1
  Zn  Zn90  1  0.25012150  0.49989303  0.74945678  1
  Zn  Zn91  1  0.37204729  0.37235503  0.49074800  1
  Zn  Zn92  1  -0.00317316  0.23305312  0.74598994  1
  Zn  Zn93  1  0.63193210  0.37061839  0.74779743  1
  Zn  Zn94  1  0.74952202  0.62786814  0.37406913  1
  Zn  Zn95  1  0.08313819  0.43817959  0.18287843  1
  Zn  Zn96  1  0.49834718  0.74706705  0.75253611  1
  Zn  Zn97  1  0.62246659  -0.00847240  0.61848170  1
  Zn  Zn98  1  0.37211286  0.62517335  0.74981361  1
  Zn  Zn99  1  0.50144769  0.37984864  0.36386773  1
  Zn  Zn100  1  0.50060740  0.61836373  0.13434578  1
  Zn  Zn101  1  0.00189963  0.26302244  0.24089369  1
  Zn  Zn102  1  0.24093310  0.37505658  0.13264050  1
  Zn  Zn103  1  0.49456177  0.11584934  0.61644097  1
  Zn  Zn104  1  0.01446374  0.37277081  0.36028039  1
  Zn  Zn105  1  0.75479906  0.62158460  0.88181351  1
  Zn  Zn106  1  0.25212912  0.12457574  0.87446629  1
  Zn  Zn107  1  0.18162839  0.19740816  0.18735771  1
  Zn  Zn108  1  0.18811870  0.18522751  0.68247823  1
  Zn  Zn109  1  0.18581696  0.68411599  0.19038548  1
  Zn  Zn110  1  0.19270438  0.68814135  0.68505452  1
  Zn  Zn111  1  0.68925205  0.18569948  0.18288085  1
  Zn  Zn112  1  0.68953377  0.18444945  0.68918894  1
  Zn  Zn113  1  0.69198790  0.68813335  0.18991861  1
  Zn  Zn114  1  0.68942016  0.68355498  0.68996499  1
  Zn  Zn115  1  0.31523141  0.32115287  0.30926736  1
  Zn  Zn116  1  0.30904738  0.31315151  0.80903247  1
  Zn  Zn117  1  0.31251637  0.81426081  0.31518895  1
  Zn  Zn118  1  0.31551006  0.80870116  0.81361486  1
  Zn  Zn119  1  0.83969871  0.30648901  0.31609068  1
  Zn  Zn120  1  0.81384418  0.31302717  0.81782651  1
  Zn  Zn121  1  0.81152795  0.81287375  0.31398322  1
  Zn  Zn122  1  0.81266272  0.81161214  0.81463383  1
  Zn  Zn123  1  0.19003515  0.44008624  0.42590420  1
  Zn  Zn124  1  0.18758784  0.43596977  0.93815805  1
  Zn  Zn125  1  0.18622693  0.94418843  0.43782541  1
  Zn  Zn126  1  0.19465990  0.93858329  0.93845450  1
  Zn  Zn127  1  0.69023954  0.43956620  0.43592783  1
  Zn  Zn128  1  0.67256607  0.41793029  0.97028773  1
  Zn  Zn129  1  0.68900333  0.93721727  0.43671491  1
  Zn  Zn130  1  0.69138567  0.93394756  0.93548808  1
  Zn  Zn131  1  0.30936708  0.06219293  0.06300185  1
  Zn  Zn132  1  0.30698495  0.06185309  0.56593988  1
  Zn  Zn133  1  0.31020239  0.56093227  0.06283706  1
  Zn  Zn134  1  0.31476895  0.56325031  0.55984827  1
  Zn  Zn135  1  0.80830251  0.05905601  0.05194824  1
  Zn  Zn136  1  0.80916820  0.06611067  0.56291687  1
  Zn  Zn137  1  0.81075692  0.56406049  0.06704006  1
  Zn  Zn138  1  0.81221808  0.57061548  0.56908984  1
  Zn  Zn139  1  0.42961295  0.43590779  0.18691964  1
  Zn  Zn140  1  0.43776282  0.43596858  0.68719301  1
  Zn  Zn141  1  0.43766437  0.93632211  0.19443731  1
  Zn  Zn142  1  0.44321125  0.93712449  0.68847383  1
  Zn  Zn143  1  0.91495142  0.43278441  0.18444474  1
  Zn  Zn144  1  0.93913505  0.43799147  0.69091870  1
  Zn  Zn145  1  0.93945840  0.94295575  0.18882273  1
  Zn  Zn146  1  0.94065998  0.93732312  0.69102485  1
  Zn  Zn147  1  0.07597455  0.10070088  0.29630947  1
  Zn  Zn148  1  0.06051361  0.06085751  0.81027141  1
  Zn  Zn149  1  0.05806811  0.56848424  0.31499801  1
  Zn  Zn150  1  0.06819471  0.56741658  0.81036513  1
  Zn  Zn151  1  0.56303118  0.06465975  0.31248942  1
  Zn  Zn152  1  0.56017762  0.05809912  0.80341843  1
  Zn  Zn153  1  0.56464527  0.56470062  0.31562777  1
  Zn  Zn154  1  0.56634158  0.55891065  0.81509827  1
  Zn  Zn155  1  0.44088097  0.19033483  0.43110278  1
  Zn  Zn156  1  0.43979238  0.18559742  0.93692647  1
  Zn  Zn157  1  0.43932609  0.68708474  0.44188778  1
  Zn  Zn158  1  0.43566594  0.68764101  0.94118047  1
  Zn  Zn159  1  0.93872739  0.19593385  0.43765876  1
  Zn  Zn160  1  0.94705172  0.17812807  0.91323994  1
  Zn  Zn161  1  0.93893867  0.68986476  0.43789331  1
  Zn  Zn162  1  0.94440001  0.69246041  0.94141574  1
  Zn  Zn163  1  0.05566219  0.30819844  0.05359608  1
  Zn  Zn164  1  0.08223995  0.33417738  0.52551205  1
  Zn  Zn165  1  0.06163579  0.81061300  0.06246373  1
  Zn  Zn166  1  0.06151675  0.81630639  0.56007458  1
  Zn  Zn167  1  0.56327549  0.30679326  0.06255734  1
  Zn  Zn168  1  0.56258065  0.31036298  0.56167498  1
  Zn  Zn169  1  0.56073645  0.80867853  0.06302604  1
  Zn  Zn170  1  0.55960047  0.81093560  0.56450510  1
  O  O171  1  0.11625625  0.11698576  0.11479618  1
  O  O172  1  0.13246682  0.10966138  0.61360328  1
  O  O173  1  0.11233614  0.63026290  0.11951930  1
  O  O174  1  0.12011246  0.62374519  0.61688364  1
  O  O175  1  0.61903438  0.11610051  0.11511127  1
  O  O176  1  0.62603693  0.12937028  0.60706549  1
  O  O177  1  0.62166703  0.63185345  0.11483629  1
  O  O178  1  0.61775427  0.61822880  0.62076377  1
  O  O179  1  0.38358438  0.38756991  0.37567964  1
  O  O180  1  0.37699788  0.38033190  0.88178683  1
  O  O181  1  0.38439384  0.88759785  0.37049743  1
  O  O182  1  0.38317814  0.87896116  0.88294447  1
  O  O183  1  0.86796966  0.39481632  0.39176568  1
  O  O184  1  0.89584454  0.37243111  0.87570809  1
  O  O185  1  0.88074664  0.88033067  0.38173741  1
  O  O186  1  0.87911459  0.87989134  0.88317107  1
  O  O187  1  0.25949813  0.00514186  0.36889607  1
  O  O188  1  0.26302163  0.00092796  0.86856417  1
  O  O189  1  0.26404831  0.50135551  0.36676014  1
  O  O190  1  0.25786756  0.50699795  0.87498997  1
  O  O191  1  0.75546135  0.00804455  0.36965591  1
  O  O192  1  0.75601868  0.00143335  0.86617939  1
  O  O193  1  0.75531779  0.50753066  0.36865887  1
  O  O194  1  0.74462476  0.50439107  0.86023160  1
  O  O195  1  0.25575970  0.49799635  0.14003426  1
  O  O196  1  0.24505681  0.49486707  0.62671803  1
  O  O197  1  0.24201525  0.99483744  0.13254760  1
  O  O198  1  0.24422493  0.99422116  0.63492718  1
  O  O199  1  0.75593113  0.49701776  0.14276795  1
  O  O200  1  0.73975124  0.50841305  0.63451076  1
  O  O201  1  0.74205136  0.99414933  0.12894231  1
  O  O202  1  0.74625708  1.00289844  0.63724585  1
  O  O203  1  -0.00054860  0.38235285  0.24405977  1
  O  O204  1  0.01172717  0.37328060  0.75673043  1
  O  O205  1  0.00548390  0.88330539  0.26423543  1
  O  O206  1  -0.00107977  0.86684976  0.76427186  1
  O  O207  1  0.49756170  0.35892673  0.24125180  1
  O  O208  1  0.50158771  0.36506615  0.75533037  1
  O  O209  1  0.50690085  0.86572894  0.25722780  1
  O  O210  1  0.50921001  0.87075127  0.76453562  1
  O  O211  1  0.49467843  0.13201148  0.24299605  1
  O  O212  1  0.48722054  0.13252302  0.74973784  1
  O  O213  1  0.50671425  0.64125665  0.25100295  1
  O  O214  1  0.50082441  0.62215794  0.73910277  1
  O  O215  1  0.98447381  0.10465323  0.22389215  1
  O  O216  1  0.98147892  0.13728193  0.80392926  1
  O  O217  1  0.98573857  0.62392394  0.24333148  1
  O  O218  1  0.99506457  0.63332543  0.74665988  1
  O  O219  1  0.36742369  0.25495284  -0.00246861  1
  O  O220  1  0.38427228  0.25188043  0.51128425  1
  O  O221  1  0.36849451  0.76077317  0.00942168  1
  O  O222  1  0.36502917  0.74456228  0.50778258  1
  O  O223  1  0.88537324  0.24989873  0.00180663  1
  O  O224  1  0.86768487  0.26270844  0.51192055  1
  O  O225  1  0.87500892  0.76020199  0.00922367  1
  O  O226  1  0.86860340  0.75460464  0.50873461  1
  O  O227  1  0.12018981  0.22805084  0.51492935  1
  O  O228  1  0.13180920  0.23963230  0.99110611  1
  O  O229  1  0.13210615  0.74735634  0.49346239  1
  O  O230  1  0.13878123  0.74486229  1.00594873  1
  O  O231  1  0.63252415  0.24459641  0.49085097  1
  O  O232  1  0.61457133  0.23401357  0.98171395  1
  O  O233  1  0.63232192  0.74644151  0.49926626  1
  O  O234  1  0.62601411  0.74209548  0.99398912  1
  O  O235  1  0.50007186  0.23558542  0.12803106  1
  O  O236  1  0.49369969  0.24617068  0.63383947  1
  O  O237  1  0.49023262  0.75147427  0.13518037  1
  O  O238  1  0.49333184  0.73913308  0.62577934  1
  O  O239  1  0.98919928  0.23666553  0.11893776  1
  O  O240  1  0.98620628  0.25153569  0.62725346  1
  O  O241  1  0.98919434  0.74601580  0.12630076  1
  O  O242  1  0.99467447  0.74842117  0.63169339  1
  O  O243  1  -0.04565222  0.26970839  0.35501926  1
  O  O244  1  0.01896925  0.26704074  0.87937402  1
  O  O245  1  0.00961020  0.76503822  0.38401171  1
  O  O246  1  -0.00021077  0.76339139  0.86682458  1
  O  O247  1  0.51268243  0.25148430  0.36331461  1
  O  O248  1  0.50340440  0.25246438  0.86348350  1
  O  O249  1  0.50380957  0.75805574  0.37159747  1
  O  O250  1  0.50560869  0.75605091  0.87515821  1
  O  O251  1  0.23945150  0.12296477  0.49430474  1
  O  O252  1  0.24464566  0.13510478  0.99807741  1
  O  O253  1  0.23811203  0.63387754  0.50413386  1
  O  O254  1  0.24477496  0.63195004  0.99678671  1
  O  O255  1  0.74374248  0.13561681  0.49186128  1
  O  O256  1  0.72915180  0.11454810  0.98810940  1
  O  O257  1  0.74469326  0.63807452  0.50027080  1
  O  O258  1  0.74086326  0.62579074  1.00004340  1
  O  O259  1  0.25646086  0.36213668  -0.00322441  1
  O  O260  1  0.25342317  0.38169288  0.51272086  1
  O  O261  1  0.25801363  0.86742200  0.00668207  1
  O  O262  1  0.24684308  0.86537400  0.50091102  1
  O  O263  1  0.77572282  0.36893797  -0.03541904  1
  O  O264  1  0.75474687  0.36784482  0.49948178  1
  O  O265  1  0.75948781  0.87238593  0.00786187  1
  O  O266  1  0.75616661  0.86422562  0.49778711  1
  O  O267  1  0.13738428  0.50518721  0.25954843  1
  O  O268  1  0.12612354  0.49246274  0.73995923  1
  O  O269  1  0.13008190  1.00054902  0.24124387  1
  O  O270  1  0.13492381  1.00726902  0.74329612  1
  O  O271  1  0.64131829  0.50320943  0.25636057  1
  O  O272  1  0.63743562  0.49907405  0.74337396  1
  O  O273  1  0.63100032  0.99654498  0.24095302  1
  O  O274  1  0.63422330  0.98660567  0.75248971  1
  O  O275  1  0.37055891  0.01225648  0.25450776  1
  O  O276  1  0.36889841  0.00582747  0.75628771  1
  O  O277  1  0.37286536  0.50362701  0.26033223  1
  O  O278  1  0.37436239  0.50001131  0.76296212  1
  O  O279  1  0.86325374  -0.00090540  0.25621963  1
  O  O280  1  0.86645373  -0.00785999  0.76085026  1
  O  O281  1  0.86702050  0.50863812  0.26080254  1
  O  O282  1  0.86364515  0.50995799  0.74398539  1
  O  O283  1  0.11043042  0.36597317  0.41705359  1
  O  O284  1  0.12193103  0.37120534  0.86511343  1
  O  O285  1  0.11715996  0.87352269  0.37209947  1
  O  O286  1  0.11464847  0.87988303  0.88096624  1
  O  O287  1  0.62348293  0.36408593  0.37678410  1
  O  O288  1  0.61766819  0.36250641  0.87525819  1
  O  O289  1  0.61871570  0.87226191  0.36972566  1
  O  O290  1  0.61923505  0.86373729  0.87344651  1
  O  O291  1  0.38254469  0.12280892  0.13166113  1
  O  O292  1  0.37445393  0.13214921  0.63096311  1
  O  O293  1  0.37790925  0.63827244  0.11953401  1
  O  O294  1  0.38339909  0.63044628  0.62661379  1
  O  O295  1  0.87778780  0.12989162  0.11032953  1
  O  O296  1  0.87438214  0.14004438  0.62019614  1
  O  O297  1  0.88154304  0.63366516  0.13121197  1
  O  O298  1  0.88261214  0.63817697  0.63492616  1
  O  O299  1  0.25349116  0.24882173  0.11598120  1
  O  O300  1  0.26094720  0.25942445  0.62998163  1
  O  O301  1  0.25643641  0.75631494  0.12209211  1
  O  O302  1  0.25838721  0.75370306  0.61670980  1
  O  O303  1  0.75914924  0.24564140  0.11353126  1
  O  O304  1  0.75246334  0.24814730  0.61476148  1
  O  O305  1  0.76179740  0.75763844  0.12507355  1
  O  O306  1  0.75957431  0.74614878  0.61902409  1
  O  O307  1  0.25904874  0.24039019  0.37279813  1
  O  O308  1  0.23928499  0.25000535  0.87977066  1
  O  O309  1  0.24042517  0.75493931  0.38275243  1
  O  O310  1  0.25779026  0.74077327  0.88709430  1
  O  O311  1  0.74930440  0.24492250  0.37914082  1
  O  O312  1  0.73866722  0.23522188  0.86321934  1
  O  O313  1  0.74204944  0.75003733  0.38427593  1
  O  O314  1  0.74135698  0.74573398  0.87964857  1
  O  O315  1  0.01281388  0.12278915  0.00182348  1
  O  O316  1  0.00742534  0.11629976  0.49087473  1
  O  O317  1  0.01021744  0.62907283  0.01028597  1
  O  O318  1  0.00452920  0.61994135  0.50715207  1
  O  O319  1  0.50663796  0.12086721  0.00809071  1
  O  O320  1  0.51752941  0.12991236  0.49529925  1
  O  O321  1  0.50480651  0.61726352  0.00348595  1
  O  O322  1  0.50689191  0.61513791  0.51062025  1
  O  O323  1  0.50085876  0.38803133  0.50042720  1
  O  O324  1  0.49037639  0.37978954  0.99235931  1
  O  O325  1  0.50548785  0.87421075  0.48707548  1
  O  O326  1  0.49267328  0.87128630  0.99011269  1
  O  O327  1  0.98479132  0.39682593  0.51006725  1
  O  O328  1  0.99109708  0.37906212  0.98599067  1
  O  O329  1  0.99358368  0.88652860  0.49199912  1
  O  O330  1  0.99459147  0.86772560  0.98657193  1
  O  O331  1  0.49505003  0.49959571  0.38133991  1
  O  O332  1  0.49165872  0.49459517  0.88131005  1
  O  O333  1  0.49075255  0.99316346  0.36850405  1
  O  O334  1  0.48828721  0.99142273  0.87057990  1
  O  O335  1  0.99054592  0.50117566  0.38432178  1
  O  O336  1  1.00948450  0.48841347  0.87020794  1
  O  O337  1  0.98947520  0.99531369  0.38378853  1
  O  O338  1  0.99076047  0.98300594  0.87065540  1
  O  O339  1  0.01318472  -0.00159439  0.11729827  1
  O  O340  1  0.00519651  -0.00113647  0.61727068  1
  O  O341  1  -0.00543294  0.50947378  0.13183332  1
  O  O342  1  0.00625437  0.51027232  0.62102089  1
  O  O343  1  0.50819541  0.00921265  0.13357033  1
  O  O344  1  0.51029043  0.00543208  0.63372619  1
  O  O345  1  0.49266472  0.50028851  0.11238399  1
  O  O346  1  0.50560063  0.50500516  0.61948990  1
  O  O347  1  0.25416568  0.39259102  0.24790652  1
  O  O348  1  0.23712904  0.37661633  0.74114958  1
  O  O349  1  0.24269702  0.88335243  0.24648586  1
  O  O350  1  0.25371445  0.88523105  0.75202175  1
  O  O351  1  0.75989014  0.38732400  0.25136759  1
  O  O352  1  0.75078942  0.38933909  0.75482631  1
  O  O353  1  0.74226901  0.88083640  0.24525342  1
  O  O354  1  0.74000922  0.88100448  0.75679562  1
  O  O355  1  0.25860582  0.12254424  0.25707433  1
  O  O356  1  0.26177877  0.11876298  0.75059736  1
  O  O357  1  0.25239799  0.61093323  0.24782768  1
  O  O358  1  0.25039573  0.62243633  0.76052825  1
  O  O359  1  0.75118521  0.11880580  0.25666380  1
  O  O360  1  0.74247177  0.11092360  0.76086357  1
  O  O361  1  0.76152742  0.61832094  0.25152539  1
  O  O362  1  0.76066217  0.61853923  0.75416493  1
  O  O363  1  0.37058710  0.11979232  0.36953332  1
  O  O364  1  0.37492348  0.11613668  0.86871516  1
  O  O365  1  0.38200065  0.61050860  0.37869614  1
  O  O366  1  0.36598753  0.61717987  0.87718615  1
  O  O367  1  0.86337868  0.12099119  0.37465440  1
  O  O368  1  0.85570032  0.10792892  0.89478650  1
  O  O369  1  0.87531925  0.61996652  0.36979613  1
  O  O370  1  0.87817360  0.63224884  0.86514524  1
  O  O371  1  0.12895923  0.36677775  0.11291476  1
  O  O372  1  0.13048816  0.38028636  0.62610809  1
  O  O373  1  0.12879018  0.88023759  0.13055475  1
  O  O374  1  0.12630790  0.88876537  0.62235218  1
  O  O375  1  0.64404569  0.37955903  0.07736254  1
  O  O376  1  0.62060336  0.38682113  0.62773006  1
  O  O377  1  0.62788857  0.88026280  0.12912837  1
  O  O378  1  0.62244287  0.87032915  0.63974531  1
  O  O379  1  0.10132291  0.20957378  0.26020403  1
  O  O380  1  0.12230186  0.25377794  0.75292641  1
  O  O381  1  0.12953499  0.75827164  0.26296203  1
  O  O382  1  0.11428554  0.74695246  0.74508259  1
  O  O383  1  0.62014044  0.24263203  0.25647826  1
  O  O384  1  0.61567591  0.24802764  0.75555817  1
  O  O385  1  0.62065933  0.75693273  0.25664217  1
  O  O386  1  0.62433057  0.75392657  0.75858923  1
  O  O387  1  0.38390887  0.23831763  0.24894646  1
  O  O388  1  0.37994264  0.24276901  0.74427134  1
  O  O389  1  0.38260092  0.75742377  0.24202848  1
  O  O390  1  0.37805721  0.74458475  0.74080582  1
  O  O391  1  0.87491370  0.24830508  0.21888216  1
  O  O392  1  0.87253858  0.25809808  0.73284492  1
  O  O393  1  0.87021060  0.74294955  0.24372890  1
  O  O394  1  0.88105321  0.74503300  0.74517964  1
  O  O395  1  0.38356078  0.49938908  0.49122469  1
  O  O396  1  0.37850018  0.49274101  0.99077754  1
  O  O397  1  0.37330894  1.00628512  0.49002696  1
  O  O398  1  0.36838935  0.98662032  0.99322064  1
  O  O399  1  0.87744597  0.50248020  0.49874704  1
  O  O400  1  0.87086767  0.49016873  1.00045944  1
  O  O401  1  0.87877132  0.99766400  0.49694343  1
  O  O402  1  0.87276118  0.98448074  0.99104040  1
  O  O403  1  0.13783120  0.00961963  0.00856026  1
  O  O404  1  0.11496384  0.00539982  0.50820680  1
  O  O405  1  0.13235035  0.51173329  0.00355386  1
  O  O406  1  0.11770963  0.51277708  0.50311090  1
  O  O407  1  0.62402758  -0.00186729  0.01038811  1
  O  O408  1  0.63514457  0.01669486  0.49963037  1
  O  O409  1  0.61105414  0.51471504  -0.01373326  1
  O  O410  1  0.62151653  0.50579560  0.50718367  1
  O  O411  1  0.37227002  0.37036428  0.10926053  1
  O  O412  1  0.36756190  0.36730035  0.62487185  1
  O  O413  1  0.37123668  0.87208775  0.11938475  1
  O  O414  1  0.37726109  0.86128702  0.62942359  1
  O  O415  1  0.86568198  0.36421261  0.10194795  1
  O  O416  1  0.87224334  0.37524871  0.61858617  1
  O  O417  1  0.87519591  0.87120037  0.12008115  1
  O  O418  1  0.88093102  0.86361311  0.62077967  1
  O  O419  1  0.13823858  0.11450169  0.39257096  1
  O  O420  1  0.13159510  0.13083421  0.88079478  1
  O  O421  1  0.11580923  0.63908447  0.38558722  1
  O  O422  1  0.13711780  0.62276317  0.88498865  1
  O  O423  1  0.63579055  0.13138622  0.38186402  1
  O  O424  1  0.62577684  0.12436951  0.87744572  1
  O  O425  1  0.62462315  0.63507176  0.38745237  1
  O  O426  1  0.62264653  0.63696495  0.88129010  1
