# generated using pymatgen
data_V85Zn86O256
_symmetry_space_group_name_H-M   'P 1'
_cell_length_a   16.93882892
_cell_length_b   16.95910723
_cell_length_c   16.94354214
_cell_angle_alpha   90.01067715
_cell_angle_beta   89.97694684
_cell_angle_gamma   90.01465221
_symmetry_Int_Tables_number   1
_chemical_formula_structural   V85Zn86O256
_chemical_formula_sum   'V85 Zn86 O256'
_cell_volume   4867.32693049
_cell_formula_units_Z   1
loop_
 _symmetry_equiv_pos_site_id
 _symmetry_equiv_pos_as_xyz
  1  'x, y, z'
loop_
 _atom_site_type_symbol
 _atom_site_label
 _atom_site_symmetry_multiplicity
 _atom_site_fract_x
 _atom_site_fract_y
 _atom_site_fract_z
 _atom_site_occupancy
  V  V0  1  0.00259623  0.86620810  0.37098239  1
  V  V1  1  0.24547505  0.01155648  0.75527408  1
  V  V2  1  0.87841766  0.12953718  0.75428122  1
  V  V3  1  0.88740068  0.50754917  0.86781369  1
  V  V4  1  0.37084289  0.00967212  0.87636426  1
  V  V5  1  0.38023602  0.50585386  0.38616961  1
  V  V6  1  0.11814066  0.50157155  0.12281493  1
  V  V7  1  0.49899069  -0.00478862  -0.00535719  1
  V  V8  1  0.37031934  0.87797207  0.49867071  1
  V  V9  1  0.49476731  0.62118027  0.11970405  1
  V  V10  1  0.49887464  0.87014057  0.37385268  1
  V  V11  1  0.49565692  0.12547802  0.12692381  1
  V  V12  1  0.46861541  0.58967397  0.63012739  1
  V  V13  1  0.75506130  0.12054295  0.87757644  1
  V  V14  1  0.38418765  0.37470473  -0.01550901  1
  V  V15  1  0.75240529  0.37504449  0.12733140  1
  V  V16  1  0.24209424  0.12443320  0.38667099  1
  V  V17  1  0.12082396  0.87733309  0.75101986  1
  V  V18  1  0.49343636  0.75738641  0.74774617  1
  V  V19  1  0.12006444  0.62245224  0.50175034  1
  V  V20  1  0.62389522  0.12401010  0.00215296  1
  V  V21  1  0.80605805  0.56049573  0.19947475  1
  V  V22  1  -0.00504246  0.87604194  0.87440251  1
  V  V23  1  0.75535913  0.12023027  0.37799259  1
  V  V24  1  0.00093533  0.36817685  0.85950815  1
  V  V25  1  0.87543952  0.24892030  0.12566526  1
  V  V26  1  0.62205141  0.75236753  0.87565914  1
  V  V27  1  0.37386379  0.74988860  0.12344203  1
  V  V28  1  0.00060170  0.61763624  0.63469127  1
  V  V29  1  0.49935336  0.24699812  0.75019312  1
  V  V30  1  0.37072800  0.75724732  0.62944243  1
  V  V31  1  0.25275024  0.50223596  0.25040454  1
  V  V32  1  0.61975974  0.87803505  0.75519172  1
  V  V33  1  0.50000516  0.25306970  0.24623330  1
  V  V34  1  0.61992383  0.50252709  0.12453155  1
  V  V35  1  -0.00030739  0.12306883  0.12395177  1
  V  V36  1  0.24947027  -0.00076841  0.24744611  1
  V  V37  1  0.13490591  0.12818669  -0.00367309  1
  V  V38  1  0.87470055  0.87487686  -0.00019618  1
  V  V39  1  0.12147674  0.00695561  0.61936009  1
  V  V40  1  0.62411601  0.12497742  0.50078556  1
  V  V41  1  0.12879841  0.74762670  0.87591358  1
  V  V42  1  0.37339212  0.87325436  -0.00729893  1
  V  V43  1  0.87752009  0.74723813  0.62847372  1
  V  V44  1  0.11415002  0.61900770  0.00122138  1
  V  V45  1  -0.00253391  0.00121090  -0.00662364  1
  V  V46  1  0.63251011  0.74943815  0.37892525  1
  V  V47  1  0.12555721  0.24648936  0.38603759  1
  V  V48  1  0.50069076  0.38416215  0.38099868  1
  V  V49  1  0.75275125  -0.00245496  0.25463902  1
  V  V50  1  0.62560433  -0.00223738  0.62566027  1
  V  V51  1  0.87401534  0.25427761  0.63139251  1
  V  V52  1  0.75069908  0.86789085  0.62157381  1
  V  V53  1  0.87402956  0.12260255  0.25255882  1
  V  V54  1  0.75063044  0.87212667  0.12623321  1
  V  V55  1  0.24474704  0.62885533  0.37552984  1
  V  V56  1  -0.00489071  0.00415406  0.49127725  1
  V  V57  1  0.36927171  0.24582694  0.60776950  1
  V  V58  1  0.62387062  -0.00117248  0.12586934  1
  V  V59  1  0.37087139  0.13774556  0.24832396  1
  V  V60  1  0.63104350  0.63020089  0.50819356  1
  V  V61  1  0.75318905  0.62704658  0.86587546  1
  V  V62  1  -0.00108496  0.12928727  0.62344334  1
  V  V63  1  0.49970552  0.00011463  0.49901188  1
  V  V64  1  0.74810819  0.25161643  0.50218013  1
  V  V65  1  0.23975952  0.75301120  0.49685791  1
  V  V66  1  0.00130013  0.73073508  0.24335220  1
  V  V67  1  0.63074529  0.37941686  0.24986152  1
  V  V68  1  0.86952724  0.50756277  0.37728216  1
  V  V69  1  0.61979463  0.24881786  0.87494824  1
  V  V70  1  0.88806656  0.37702309  -0.00011133  1
  V  V71  1  0.24312247  0.87863650  0.62592111  1
  V  V72  1  0.59327960  0.41229153  0.79429756  1
  V  V73  1  0.12360035  -0.00449922  0.12339120  1
  V  V74  1  0.12753911  0.37182425  0.25233197  1
  V  V75  1  0.75135949  0.24914268  0.00078105  1
  V  V76  1  0.87420572  0.37474416  0.50026685  1
  V  V77  1  0.37405100  0.00114520  0.37299856  1
  V  V78  1  0.12917530  0.25091491  0.86384278  1
  V  V79  1  0.26522459  0.60278825  0.86854663  1
  V  V80  1  0.75662201  -0.00107713  0.75252064  1
  V  V81  1  0.26301176  0.36815310  0.12620412  1
  V  V82  1  0.00123160  0.24692835  0.25127602  1
  V  V83  1  0.63316125  0.49280483  0.61267169  1
  V  V84  1  0.87197813  0.87397084  0.49461620  1
  Zn  Zn85  1  0.75269924  0.62801882  0.37759593  1
  Zn  Zn86  1  0.37558039  0.62784753  0.25195282  1
  Zn  Zn87  1  0.20693021  0.43162385  0.68155177  1
  Zn  Zn88  1  -0.00457386  0.74511468  0.75410025  1
  Zn  Zn89  1  0.87478839  0.73945914  0.12955974  1
  Zn  Zn90  1  0.49879349  0.12080148  0.62873394  1
  Zn  Zn91  1  0.24919122  0.87157615  0.12383277  1
  Zn  Zn92  1  0.74431977  0.36913271  0.64404060  1
  Zn  Zn93  1  -0.00444141  0.50036938  0.50002363  1
  Zn  Zn94  1  0.12569539  0.86911845  0.25373581  1
  Zn  Zn95  1  0.49782387  0.74649384  0.25229434  1
  Zn  Zn96  1  0.74995540  0.75038535  -0.00108278  1
  Zn  Zn97  1  0.33061625  0.39664965  0.53278010  1
  Zn  Zn98  1  -0.00208414  0.37588635  0.37480918  1
  Zn  Zn99  1  0.25047892  0.74339709  -0.00051958  1
  Zn  Zn100  1  0.75262522  0.49912446  0.75041949  1
  Zn  Zn101  1  0.62300757  0.62256240  -0.00512091  1
  Zn  Zn102  1  0.25639028  0.24877344  -0.00102227  1
  Zn  Zn103  1  0.62395059  0.87360710  0.25167959  1
  Zn  Zn104  1  0.37232976  0.12943948  0.75346810  1
  Zn  Zn105  1  0.62434899  0.25228760  0.37586610  1
  Zn  Zn106  1  0.50021888  0.49444555  -0.02854116  1
  Zn  Zn107  1  0.18707711  0.18621981  0.18746873  1
  Zn  Zn108  1  0.18653055  0.19495220  0.67981075  1
  Zn  Zn109  1  0.18402212  0.68798156  0.18716666  1
  Zn  Zn110  1  0.18280834  0.68372339  0.69277205  1
  Zn  Zn111  1  0.68530510  0.18831122  0.18962842  1
  Zn  Zn112  1  0.68530378  0.18658948  0.69014469  1
  Zn  Zn113  1  0.67676141  0.69492452  0.18532130  1
  Zn  Zn114  1  0.68715497  0.68833561  0.68858902  1
  Zn  Zn115  1  0.29855169  0.32769386  0.34672157  1
  Zn  Zn116  1  0.30752544  0.31471478  0.80992904  1
  Zn  Zn117  1  0.31196924  0.81113546  0.31085005  1
  Zn  Zn118  1  0.30871231  0.82026908  0.81388515  1
  Zn  Zn119  1  0.81181614  0.31147568  0.31678579  1
  Zn  Zn120  1  0.80389358  0.31862753  0.81329633  1
  Zn  Zn121  1  0.81890540  0.80943406  0.31124104  1
  Zn  Zn122  1  0.81209123  0.81282660  0.81088606  1
  Zn  Zn123  1  0.19283690  0.44311840  0.46841371  1
  Zn  Zn124  1  0.18638355  0.43322053  0.93864357  1
  Zn  Zn125  1  0.18099121  0.94106364  0.43767736  1
  Zn  Zn126  1  0.18794291  0.93515308  0.93814235  1
  Zn  Zn127  1  0.69130522  0.44007185  0.43566451  1
  Zn  Zn128  1  0.69611338  0.44016441  0.94281564  1
  Zn  Zn129  1  0.68778541  0.93596637  0.43761061  1
  Zn  Zn130  1  0.68812316  0.93756885  0.93696054  1
  Zn  Zn131  1  0.31334003  0.06223529  0.06517366  1
  Zn  Zn132  1  0.31307819  0.06602228  0.56632437  1
  Zn  Zn133  1  0.31014998  0.55690815  0.05308425  1
  Zn  Zn134  1  0.30461844  0.56487104  0.57688932  1
  Zn  Zn135  1  0.81401784  0.05814672  0.06369499  1
  Zn  Zn136  1  0.81448368  0.05945907  0.56512410  1
  Zn  Zn137  1  0.81266952  0.56285703  0.03512101  1
  Zn  Zn138  1  0.81171175  0.56501370  0.56373393  1
  Zn  Zn139  1  0.43810744  0.44087136  0.19265736  1
  Zn  Zn140  1  0.40301590  0.41930626  0.70571449  1
  Zn  Zn141  1  0.43471907  0.93675397  0.18643716  1
  Zn  Zn142  1  0.43508254  0.93919378  0.68993254  1
  Zn  Zn143  1  0.94316290  0.43363621  0.18733048  1
  Zn  Zn144  1  1.04536853  0.43606627  0.68471210  1
  Zn  Zn145  1  0.93492090  0.93635698  0.18730371  1
  Zn  Zn146  1  0.93583484  0.93950628  0.68588795  1
  Zn  Zn147  1  0.06243506  0.05874162  0.31246552  1
  Zn  Zn148  1  0.06185387  0.06738802  0.81255169  1
  Zn  Zn149  1  0.06523074  0.55768487  0.32008933  1
  Zn  Zn150  1  0.07624340  0.55618369  0.81243739  1
  Zn  Zn151  1  0.56483300  0.06197241  0.31370279  1
  Zn  Zn152  1  0.56159743  0.06329961  0.81574287  1
  Zn  Zn153  1  0.56601944  0.56601350  0.30837635  1
  Zn  Zn154  1  0.56134973  0.57976757  0.79905166  1
  Zn  Zn155  1  0.44101461  0.18693223  0.42849577  1
  Zn  Zn156  1  0.43490688  0.19126224  0.94191801  1
  Zn  Zn157  1  0.43855554  0.68535240  0.45087470  1
  Zn  Zn158  1  0.43696120  0.68333274  0.93477398  1
  Zn  Zn159  1  0.93694077  0.18855043  0.43886866  1
  Zn  Zn160  1  0.94089567  0.18991396  0.93686064  1
  Zn  Zn161  1  0.93538646  0.69188830  0.43969905  1
  Zn  Zn162  1  0.93979747  0.69058100  0.94038527  1
  Zn  Zn163  1  0.06897607  0.31148244  0.06532545  1
  Zn  Zn164  1  0.06317315  0.31069185  0.56333687  1
  Zn  Zn165  1  0.06085706  0.80689029  0.06453122  1
  Zn  Zn166  1  0.05814852  0.81229952  0.56235847  1
  Zn  Zn167  1  0.56065365  0.31343622  0.06294295  1
  Zn  Zn168  1  0.55449488  0.31259909  0.56661289  1
  Zn  Zn169  1  0.55914412  0.81325585  0.06201671  1
  Zn  Zn170  1  0.56109245  0.81236533  0.56169261  1
  O  O171  1  0.11914140  0.11446668  0.11831132  1
  O  O172  1  0.11162193  0.11970980  0.63046897  1
  O  O173  1  0.13607400  0.61609558  0.10923498  1
  O  O174  1  0.10974071  0.63314254  0.61670049  1
  O  O175  1  0.61848172  0.11878259  0.12095235  1
  O  O176  1  0.62740271  0.11679509  0.61369843  1
  O  O177  1  0.61600735  0.61904571  0.12100536  1
  O  O178  1  0.63435289  0.61452396  0.61838977  1
  O  O179  1  0.39527385  0.38946411  0.36071531  1
  O  O180  1  0.37839471  0.37342047  0.88643111  1
  O  O181  1  0.37950802  0.88155427  0.37888337  1
  O  O182  1  0.37238786  0.88616696  0.88736114  1
  O  O183  1  0.87517926  0.37959232  0.38354913  1
  O  O184  1  0.88526283  0.37589617  0.88195523  1
  O  O185  1  0.88574313  0.87259955  0.38382576  1
  O  O186  1  0.88656721  0.87054998  0.88229975  1
  O  O187  1  0.24979212  0.00819331  0.36691974  1
  O  O188  1  0.25550878  -0.00304410  0.86675432  1
  O  O189  1  0.26001005  0.51364379  0.36973060  1
  O  O190  1  0.24823006  0.50436514  0.87502083  1
  O  O191  1  0.74597666  0.00706718  0.36649442  1
  O  O192  1  0.74649450  0.01203367  0.86857679  1
  O  O193  1  0.76322303  0.50184002  0.37115888  1
  O  O194  1  0.76043682  0.51068836  0.87712623  1
  O  O195  1  0.24497267  0.49002925  0.13417372  1
  O  O196  1  0.24779939  0.46938299  0.57619266  1
  O  O197  1  0.24178742  0.99782925  0.13161718  1
  O  O198  1  0.23878390  0.99829299  0.62935345  1
  O  O199  1  0.74926640  0.50084431  0.13053388  1
  O  O200  1  0.74443272  0.49529842  0.62864078  1
  O  O201  1  0.74251080  0.99328210  0.13129979  1
  O  O202  1  0.74452087  0.99187045  0.63385228  1
  O  O203  1  0.00900692  0.36423744  0.25054381  1
  O  O204  1  -0.01002203  0.36744365  0.76227151  1
  O  O205  1  -0.00040456  0.88265350  0.26485232  1
  O  O206  1  0.00330267  0.88026453  0.76014595  1
  O  O207  1  0.51220735  0.36931422  0.25134258  1
  O  O208  1  0.50943204  0.36762148  0.74733003  1
  O  O209  1  0.49919924  0.87675439  0.26397166  1
  O  O210  1  0.51080842  0.87305676  0.75023339  1
  O  O211  1  0.49388560  0.13199851  0.24905388  1
  O  O212  1  0.49799180  0.13089790  0.74968077  1
  O  O213  1  0.49688397  0.62587538  0.23421296  1
  O  O214  1  0.49990310  0.63799389  0.72099866  1
  O  O215  1  0.99370120  0.12577040  0.24458521  1
  O  O216  1  0.98388669  0.11757897  0.74260767  1
  O  O217  1  1.00647944  0.63277271  0.25338162  1
  O  O218  1  1.00370101  0.62569329  0.73724028  1
  O  O219  1  0.37249761  0.26489667  0.00166084  1
  O  O220  1  0.37637860  0.23420440  0.50839845  1
  O  O221  1  0.37648732  0.75801309  0.00290585  1
  O  O222  1  0.36256375  0.76348393  0.50482508  1
  O  O223  1  0.87011727  0.25396898  0.00695350  1
  O  O224  1  0.86531632  0.25369754  0.50584084  1
  O  O225  1  0.87529102  0.76202628  0.00690346  1
  O  O226  1  0.87918799  0.76606863  0.51191866  1
  O  O227  1  0.11687479  0.24654642  0.48483851  1
  O  O228  1  0.12813164  0.24110182  0.99577301  1
  O  O229  1  0.13495133  0.74666011  0.50287904  1
  O  O230  1  0.12626943  0.73828948  0.99579776  1
  O  O231  1  0.63049201  0.24120417  0.50037198  1
  O  O232  1  0.63044735  0.24259239  0.99691679  1
  O  O233  1  0.61868061  0.74186759  0.49361078  1
  O  O234  1  0.62042755  0.75399721  0.98373497  1
  O  O235  1  0.50548280  0.24293708  0.13865200  1
  O  O236  1  0.49889216  0.23999400  0.63491064  1
  O  O237  1  0.48970532  0.74163922  0.12230198  1
  O  O238  1  0.48595415  0.76823000  0.63615981  1
  O  O239  1  0.99619513  0.24262076  0.13184069  1
  O  O240  1  0.98738123  0.23624825  0.61989646  1
  O  O241  1  0.99449445  0.74900462  0.13801403  1
  O  O242  1  0.99224618  0.74386230  0.62878891  1
  O  O243  1  0.00657067  0.24661366  0.36606079  1
  O  O244  1  0.00847361  0.26191521  0.87857254  1
  O  O245  1  -0.00197549  0.76148102  0.36468348  1
  O  O246  1  0.00890584  0.75802369  0.87475910  1
  O  O247  1  0.50275451  0.26061034  0.36277423  1
  O  O248  1  0.51359369  0.24158707  0.87155445  1
  O  O249  1  0.50295882  0.75729775  0.37844898  1
  O  O250  1  0.50618200  0.73931056  0.85661486  1
  O  O251  1  0.24837218  0.11684805  0.48487445  1
  O  O252  1  0.23816215  0.12570959  1.00507316  1
  O  O253  1  0.24052246  0.63479005  0.49704436  1
  O  O254  1  0.24439551  0.62509706  0.98339724  1
  O  O255  1  0.74615620  0.12782833  0.49526099  1
  O  O256  1  0.74706370  0.12639258  0.99463116  1
  O  O257  1  0.73650994  0.62734431  0.49771917  1
  O  O258  1  0.74183302  0.63319576  0.98445507  1
  O  O259  1  0.26006253  0.37582937  0.01432591  1
  O  O260  1  0.26168732  0.35906424  0.45140066  1
  O  O261  1  0.25910065  0.87133778  0.00378991  1
  O  O262  1  0.24891089  0.87187689  0.50364780  1
  O  O263  1  0.76184089  0.36749035  0.00834582  1
  O  O264  1  0.75731176  0.36336079  0.49726907  1
  O  O265  1  0.75760850  0.87568247  0.00640280  1
  O  O266  1  0.75833686  0.88207508  0.51002537  1
  O  O267  1  0.13593657  0.49213375  0.24899563  1
  O  O268  1  0.12644942  0.49783579  0.73508173  1
  O  O269  1  0.13193607  0.99895372  0.23989918  1
  O  O270  1  0.12764516  0.99799665  0.74357915  1
  O  O271  1  0.62529952  0.49219816  0.23702071  1
  O  O272  1  0.62817434  0.50102034  0.73544420  1
  O  O273  1  0.63553361  0.99757770  0.24547421  1
  O  O274  1  0.63281779  0.99492161  0.74767608  1
  O  O275  1  0.36709838  0.00660145  0.25508516  1
  O  O276  1  0.36494648  0.00074554  0.75979784  1
  O  O277  1  0.36324962  0.50548056  0.25524865  1
  O  O278  1  0.39096575  0.52690631  0.66153722  1
  O  O279  1  0.86039349  0.00729114  0.24352070  1
  O  O280  1  0.86167161  0.00826265  0.74587410  1
  O  O281  1  0.87166157  0.50078916  0.25247709  1
  O  O282  1  0.87146051  0.49360028  0.77074693  1
  O  O283  1  0.12091763  0.36416867  0.36129494  1
  O  O284  1  0.11051379  0.36457825  0.88096418  1
  O  O285  1  0.10754789  0.87864437  0.37482901  1
  O  O286  1  0.11317400  0.86979049  0.87371986  1
  O  O287  1  0.61862559  0.37832353  0.36580464  1
  O  O288  1  0.63017576  0.36124474  0.88460901  1
  O  O289  1  0.61543725  0.86753129  0.37769950  1
  O  O290  1  0.63028632  0.86933021  0.86361614  1
  O  O291  1  0.38324904  0.11981049  0.13621113  1
  O  O292  1  0.37925511  0.13253954  0.63116400  1
  O  O293  1  0.37954081  0.63073538  0.12051314  1
  O  O294  1  0.37166016  0.65406499  0.60835313  1
  O  O295  1  0.87989123  0.12921339  0.13046888  1
  O  O296  1  0.87627980  0.13320157  0.63337703  1
  O  O297  1  0.85868658  0.61565605  0.13084220  1
  O  O298  1  0.88755974  0.63598625  0.61707524  1
  O  O299  1  0.24411457  0.26554528  0.12544518  1
  O  O300  1  0.27006869  0.24967736  0.62702749  1
  O  O301  1  0.26214241  0.74966476  0.12287861  1
  O  O302  1  0.25042885  0.76000498  0.62096903  1
  O  O303  1  0.75560171  0.25287818  0.12011006  1
  O  O304  1  0.75265313  0.24808014  0.61628554  1
  O  O305  1  0.75099490  0.75906453  0.12283269  1
  O  O306  1  0.75548927  0.76287633  0.63061596  1
  O  O307  1  0.23908076  0.22907944  0.36200311  1
  O  O308  1  0.23400522  0.25857684  0.87903727  1
  O  O309  1  0.25597988  0.74137571  0.38447784  1
  O  O310  1  0.23432476  0.75766275  0.87706373  1
  O  O311  1  0.74656129  0.24056536  0.38655460  1
  O  O312  1  0.74173401  0.23827759  0.88123310  1
  O  O313  1  0.73592346  0.75219615  0.37068026  1
  O  O314  1  0.74203416  0.74644876  0.87396085  1
  O  O315  1  0.00426483  0.11673309  0.00512895  1
  O  O316  1  -0.01155937  0.11412080  0.50960761  1
  O  O317  1  0.01481698  0.62492240  0.00005795  1
  O  O318  1  0.00746576  0.63042144  0.50729780  1
  O  O319  1  0.50272996  0.11642607  0.00792854  1
  O  O320  1  0.51044748  0.11844182  0.49599812  1
  O  O321  1  0.50270066  0.61546879  0.00521183  1
  O  O322  1  0.50225802  0.62729825  0.53221488  1
  O  O323  1  0.50693087  0.37087767  0.47885293  1
  O  O324  1  0.48899764  0.37661777  1.00297894  1
  O  O325  1  0.49305197  0.88084140  0.49012796  1
  O  O326  1  0.49170395  0.88852475  1.00513695  1
  O  O327  1  0.98410931  0.37302372  0.49932466  1
  O  O328  1  0.98991909  0.36807384  1.00141328  1
  O  O329  1  0.99407522  0.87992050  0.48919019  1
  O  O330  1  0.99480877  0.88087311  0.99527527  1
  O  O331  1  0.49690465  0.49238361  0.36732909  1
  O  O332  1  0.53938193  0.48477986  0.85870301  1
  O  O333  1  0.49531309  0.99363266  0.37976204  1
  O  O334  1  0.49077386  1.00343766  0.88633619  1
  O  O335  1  0.98477941  0.49580405  0.37525634  1
  O  O336  1  0.99333846  0.48686352  0.87220523  1
  O  O337  1  1.00119406  0.99481669  0.38725585  1
  O  O338  1  1.00493594  0.99392363  0.88708896  1
  O  O339  1  0.00566462  0.00208201  0.11581419  1
  O  O340  1  0.00363725  0.00849204  0.61835714  1
  O  O341  1  0.01879976  0.49765582  0.13255512  1
  O  O342  1  -0.01132475  0.51558836  0.62009784  1
  O  O343  1  0.50593206  0.00466892  0.12041688  1
  O  O344  1  0.50630320  -0.00060132  0.61801306  1
  O  O345  1  0.50716253  0.50658323  0.12665743  1
  O  O346  1  0.52599722  0.50196647  0.62321728  1
  O  O347  1  0.24540309  0.38112718  0.24753208  1
  O  O348  1  0.29706698  0.39885444  0.74037087  1
  O  O349  1  0.24750971  0.88677413  0.24925890  1
  O  O350  1  0.23944681  0.88729176  0.74417807  1
  O  O351  1  0.73846321  0.36603313  0.24426475  1
  O  O352  1  0.72384167  0.38117674  0.75992561  1
  O  O353  1  0.75047628  0.88160321  0.24396046  1
  O  O354  1  0.74356425  0.88383950  0.74476650  1
  O  O355  1  0.25575450  0.11427523  0.25036733  1
  O  O356  1  0.24852707  0.11391891  0.74533994  1
  O  O357  1  0.24896614  0.61948770  0.25830447  1
  O  O358  1  0.24411478  0.63069823  0.77153759  1
  O  O359  1  0.75169900  0.11891954  0.25888923  1
  O  O360  1  0.75564496  0.11827279  0.75783294  1
  O  O361  1  0.74596252  0.62413103  0.25170010  1
  O  O362  1  0.75085866  0.62460526  0.76165545  1
  O  O363  1  0.36347609  0.11902268  0.36748064  1
  O  O364  1  0.37401504  0.11347790  0.87783071  1
  O  O365  1  0.37178067  0.62153117  0.37629328  1
  O  O366  1  0.36560316  0.61722987  0.87540820  1
  O  O367  1  0.86225252  0.12791311  0.37046588  1
  O  O368  1  0.86713904  0.13109722  0.86821639  1
  O  O369  1  0.87090792  0.61737638  0.38233450  1
  O  O370  1  0.87326067  0.61440126  0.88241131  1
  O  O371  1  0.13414889  0.38047219  0.13557138  1
  O  O372  1  0.12024710  0.36542391  0.63717248  1
  O  O373  1  0.12511703  0.88643624  0.12383690  1
  O  O374  1  0.12325241  0.88550684  0.63078310  1
  O  O375  1  0.63299616  0.38189244  0.12970338  1
  O  O376  1  0.63036479  0.38791910  0.61150253  1
  O  O377  1  0.63454852  0.87871383  0.12587989  1
  O  O378  1  0.63235979  0.87869803  0.63187641  1
  O  O379  1  0.11876558  0.25426903  0.25230947  1
  O  O380  1  0.12599361  0.24298723  0.76529038  1
  O  O381  1  0.10925421  0.75458786  0.24392299  1
  O  O382  1  0.11907510  0.75964784  0.75867428  1
  O  O383  1  0.61756292  0.25745282  0.25359521  1
  O  O384  1  0.61512995  0.24494944  0.76059819  1
  O  O385  1  0.61587880  0.75464733  0.26150104  1
  O  O386  1  0.61779450  0.75981749  0.75463352  1
  O  O387  1  0.38143001  0.23934103  0.25796240  1
  O  O388  1  0.39021843  0.24821438  0.75362459  1
  O  O389  1  0.37819070  0.74889340  0.23879654  1
  O  O390  1  0.38020993  0.76460869  0.74247288  1
  O  O391  1  0.87994039  0.24340635  0.24554035  1
  O  O392  1  0.86265500  0.24204964  0.74259599  1
  O  O393  1  0.89317456  0.75084119  0.24729054  1
  O  O394  1  0.87806406  0.75836261  0.73484893  1
  O  O395  1  0.38026525  0.50216577  0.48705416  1
  O  O396  1  0.38229309  0.48156097  1.00476655  1
  O  O397  1  0.37860107  0.99706490  0.49360489  1
  O  O398  1  0.37930714  0.99504057  0.99551987  1
  O  O399  1  0.87198738  0.49057557  0.49421265  1
  O  O400  1  0.87583317  0.48640834  0.98538481  1
  O  O401  1  0.88424105  0.98680667  0.50778439  1
  O  O402  1  0.88444414  0.98713728  1.00414797  1
  O  O403  1  0.11876608  0.00640983  0.00484417  1
  O  O404  1  0.11320179  -0.00186231  0.51293091  1
  O  O405  1  0.12834775  0.50930652  0.00747274  1
  O  O406  1  0.11264842  0.51681223  0.49110300  1
  O  O407  1  0.61677287  0.00383306  0.00384589  1
  O  O408  1  0.62054643  0.00564126  0.50465788  1
  O  O409  1  0.62505035  0.49826132  0.01421821  1
  O  O410  1  0.63111635  0.50982958  0.50719971  1
  O  O411  1  0.36312918  0.37477579  0.13354876  1
  O  O412  1  0.39880127  0.35016222  0.60983285  1
  O  O413  1  0.37478408  0.86723994  0.11480917  1
  O  O414  1  0.36333766  0.87542243  0.61891247  1
  O  O415  1  0.87115934  0.37031676  0.12041373  1
  O  O416  1  0.86518435  0.35948897  0.61856125  1
  O  O417  1  0.86288631  0.87621182  0.11889673  1
  O  O418  1  0.86791239  0.87139895  0.61929294  1
  O  O419  1  0.13509987  0.12806680  0.37002195  1
  O  O420  1  0.11558971  0.14003543  0.88458643  1
  O  O421  1  0.13636201  0.62604336  0.38335890  1
  O  O422  1  0.12607133  0.63115485  0.88576830  1
  O  O423  1  0.63515530  0.12506083  0.38579887  1
  O  O424  1  0.63333070  0.12935160  0.88369523  1
  O  O425  1  0.62214445  0.63379442  0.38485981  1
  O  O426  1  0.63292731  0.63718056  0.87117450  1
