# generated using pymatgen
data_V85Zn86O256
_symmetry_space_group_name_H-M   'P 1'
_cell_length_a   16.94321058
_cell_length_b   16.95402487
_cell_length_c   16.96174388
_cell_angle_alpha   90.03122701
_cell_angle_beta   90.03079255
_cell_angle_gamma   90.03766039
_symmetry_Int_Tables_number   1
_chemical_formula_structural   V85Zn86O256
_chemical_formula_sum   'V85 Zn86 O256'
_cell_volume   4872.35366155
_cell_formula_units_Z   1
loop_
 _symmetry_equiv_pos_site_id
 _symmetry_equiv_pos_as_xyz
  1  'x, y, z'
loop_
 _atom_site_type_symbol
 _atom_site_label
 _atom_site_symmetry_multiplicity
 _atom_site_fract_x
 _atom_site_fract_y
 _atom_site_fract_z
 _atom_site_occupancy
  V  V0  1  0.33618645  0.17733815  0.71058395  1
  V  V1  1  0.49482437  0.87339364  0.37862369  1
  V  V2  1  0.63657822  0.87602076  0.24869388  1
  V  V3  1  0.00416230  0.75978469  0.24832310  1
  V  V4  1  0.62432002  0.49412816  0.62545926  1
  V  V5  1  0.25393457  0.13208586  0.88605095  1
  V  V6  1  0.00831879  0.00070458  0.00525898  1
  V  V7  1  0.74722679  0.24840163  0.49970232  1
  V  V8  1  0.50515443  0.25163801  0.75239786  1
  V  V9  1  0.24624461  0.62292725  0.87592670  1
  V  V10  1  0.86487002  0.75236790  0.12588597  1
  V  V11  1  0.00484279  0.87621505  0.87455965  1
  V  V12  1  0.38142827  0.38369716  0.00355822  1
  V  V13  1  0.13816760  0.23611254  0.36256864  1
  V  V14  1  0.74494950  0.00166740  0.75203072  1
  V  V15  1  0.62875070  0.12105386  0.50075871  1
  V  V16  1  0.62613470  0.25485070  0.87854950  1
  V  V17  1  0.12577477  0.13100544  0.00479571  1
  V  V18  1  0.67566242  0.81461186  0.81026480  1
  V  V19  1  0.87499435  0.25033732  0.63033217  1
  V  V20  1  0.87767139  0.37412190  0.50057171  1
  V  V21  1  0.12354748  0.62092722  0.51290975  1
  V  V22  1  0.37583230  0.62476412  0.73989152  1
  V  V23  1  0.87435334  0.38342208  -0.00485558  1
  V  V24  1  0.88136208  0.12763773  0.75168730  1
  V  V25  1  0.75841018  0.74854180  0.50753138  1
  V  V26  1  0.62471826  0.62746539  -0.01331485  1
  V  V27  1  0.49377252  -0.00445161  0.50287532  1
  V  V28  1  0.87989454  0.25341555  0.13100065  1
  V  V29  1  -0.00215730  0.36179998  0.36351113  1
  V  V30  1  0.23586093  0.49313200  0.74583864  1
  V  V31  1  0.75209826  0.25449607  0.00227018  1
  V  V32  1  0.64052933  -0.00435530  0.13072545  1
  V  V33  1  0.87927720  0.00250510  0.87583196  1
  V  V34  1  0.36980749  0.24717414  0.11628554  1
  V  V35  1  0.49957670  0.24859062  0.25002434  1
  V  V36  1  0.24704036  0.62234610  0.37436137  1
  V  V37  1  0.00413763  0.50213118  0.50993934  1
  V  V38  1  0.24546187  0.37031662  0.11811390  1
  V  V39  1  0.37576496  0.00273660  0.87359658  1
  V  V40  1  0.00317218  0.74027888  0.73062054  1
  V  V41  1  0.12212661  0.74810802  0.87854772  1
  V  V42  1  0.37613362  0.87325561  0.00344324  1
  V  V43  1  0.50190678  0.13004794  0.63048764  1
  V  V44  1  0.26085879  0.87731802  0.62085509  1
  V  V45  1  0.49458985  0.75572268  0.75082260  1
  V  V46  1  0.00225630  0.12708078  0.13299317  1
  V  V47  1  0.36839495  0.11967608  0.25166672  1
  V  V48  1  0.49314856  0.49520229  0.50769453  1
  V  V49  1  0.12330275  0.25055271  0.86724780  1
  V  V50  1  0.25720035  0.75136168  0.50013686  1
  V  V51  1  0.25310277  0.00019532  0.74968469  1
  V  V52  1  0.62603373  0.74821270  0.37764172  1
  V  V53  1  0.00338815  0.62789850  0.12021245  1
  V  V54  1  0.62314185  0.37773518  0.25083676  1
  V  V55  1  0.62483460  -0.00961755  0.62792382  1
  V  V56  1  0.12125111  0.00137352  0.61717515  1
  V  V57  1  0.75202689  0.50189514  0.76271548  1
  V  V58  1  0.23698112  -0.00442728  0.24888992  1
  V  V59  1  0.23547202  0.87685928  0.12765950  1
  V  V60  1  0.88104165  0.50332212  0.37634370  1
  V  V61  1  0.12467608  0.50338522  0.11894679  1
  V  V62  1  0.62622640  0.12576539  0.00385962  1
  V  V63  1  0.12601669  0.87612166  0.74754879  1
  V  V64  1  0.75156923  0.12760295  0.87575080  1
  V  V65  1  0.61933649  0.62320928  0.50493369  1
  V  V66  1  0.62865487  0.24710931  0.37379575  1
  V  V67  1  0.74924796  0.50177050  0.25045405  1
  V  V68  1  0.37281989  0.48933259  0.37823972  1
  V  V69  1  0.87621475  0.62802703  0.25046852  1
  V  V70  1  -0.00461507  0.11974202  0.61523407  1
  V  V71  1  0.37598616  0.62231941  0.24909696  1
  V  V72  1  0.00170838  0.37357532  0.87018476  1
  V  V73  1  -0.00211177  0.50752398  -0.00796422  1
  V  V74  1  0.86677323  0.62744984  0.74474816  1
  V  V75  1  0.38275200  0.50590940  0.87800410  1
  V  V76  1  0.50078041  -0.00254674  0.00344608  1
  V  V77  1  0.88396498  0.88004752  0.50866189  1
  V  V78  1  0.50082765  0.12091432  0.12672455  1
  V  V79  1  0.49924601  0.75041157  0.24634774  1
  V  V80  1  0.12605353  0.75442571  0.36949126  1
  V  V81  1  0.87426208  -0.00398150  0.36466408  1
  V  V82  1  0.36872857  -0.00217056  0.37683224  1
  V  V83  1  0.87008448  0.87571807  0.00448286  1
  V  V84  1  0.24776495  0.74547611  -0.00001429  1
  Zn  Zn85  1  0.38386232  0.75013730  0.61628895  1
  Zn  Zn86  1  0.75005242  0.37844090  0.12531969  1
  Zn  Zn87  1  0.75102825  0.62438658  0.37836361  1
  Zn  Zn88  1  0.75063457  0.37874653  0.62575308  1
  Zn  Zn89  1  0.37299295  0.74922176  0.12566600  1
  Zn  Zn90  1  0.24580864  0.49821946  0.24671622  1
  Zn  Zn91  1  0.00561350  0.88088873  0.37746940  1
  Zn  Zn92  1  0.86894305  0.12469469  0.24879247  1
  Zn  Zn93  1  0.50359802  0.38312834  0.88108708  1
  Zn  Zn94  1  0.49665664  0.61423992  0.11198469  1
  Zn  Zn95  1  0.75288049  0.86879184  0.62891520  1
  Zn  Zn96  1  0.12610874  0.12182918  0.48527846  1
  Zn  Zn97  1  0.62531211  0.37984115  0.75296085  1
  Zn  Zn98  1  0.11820344  0.37098892  0.24174634  1
  Zn  Zn99  1  0.50435605  0.87347456  0.87567318  1
  Zn  Zn100  1  0.61739686  0.50410722  0.11990458  1
  Zn  Zn101  1  0.05116112  0.30417883  0.70432992  1
  Zn  Zn102  1  0.25373535  0.37547999  0.62234203  1
  Zn  Zn103  1  0.27432517  0.25760488  0.48473521  1
  Zn  Zn104  1  0.49370072  0.36876028  0.38228723  1
  Zn  Zn105  1  0.74677320  0.74857059  -0.00752537  1
  Zn  Zn106  1  0.74743962  0.11362371  0.36613091  1
  Zn  Zn107  1  0.18673723  0.18596051  0.18781065  1
  Zn  Zn108  1  0.17467774  0.20707461  0.63068982  1
  Zn  Zn109  1  0.18670712  0.68675368  0.18636756  1
  Zn  Zn110  1  0.19201797  0.68920731  0.68931003  1
  Zn  Zn111  1  0.69204755  0.18741935  0.18773689  1
  Zn  Zn112  1  0.68776313  0.18720338  0.68706534  1
  Zn  Zn113  1  0.68387930  0.68261905  0.18579001  1
  Zn  Zn114  1  0.68591357  0.67940403  0.68222744  1
  Zn  Zn115  1  0.30976891  0.31307444  0.30023118  1
  Zn  Zn116  1  0.30904125  0.31979945  0.82231606  1
  Zn  Zn117  1  0.31239027  0.81283158  0.31180929  1
  Zn  Zn118  1  0.31422992  0.81388866  0.81352218  1
  Zn  Zn119  1  0.81102030  0.31301100  0.31373676  1
  Zn  Zn120  1  0.81309211  0.31819698  0.81312346  1
  Zn  Zn121  1  0.81522615  0.81195450  0.31970106  1
  Zn  Zn122  1  0.83904576  0.81035540  0.80870464  1
  Zn  Zn123  1  0.18624996  0.43532423  0.43086989  1
  Zn  Zn124  1  0.18703683  0.43683430  0.93868126  1
  Zn  Zn125  1  0.18951087  0.93579252  0.43837535  1
  Zn  Zn126  1  0.18978281  0.93925673  0.93894617  1
  Zn  Zn127  1  0.68761238  0.43543433  0.43741858  1
  Zn  Zn128  1  0.68462810  0.44389809  0.94127534  1
  Zn  Zn129  1  0.69067098  0.93251404  0.43952102  1
  Zn  Zn130  1  0.69278752  0.94377521  0.94651011  1
  Zn  Zn131  1  0.31053773  0.05822325  0.06481665  1
  Zn  Zn132  1  0.30524382  0.07268872  0.55500909  1
  Zn  Zn133  1  0.31232885  0.56361691  0.06340826  1
  Zn  Zn134  1  0.30779302  0.55537386  0.56497800  1
  Zn  Zn135  1  0.81735490  0.06523040  0.06319929  1
  Zn  Zn136  1  0.81203374  0.05702179  0.56083243  1
  Zn  Zn137  1  0.80687034  0.56679932  0.06039946  1
  Zn  Zn138  1  0.81340145  0.56599625  0.56755548  1
  Zn  Zn139  1  0.43472486  0.43579933  0.19087913  1
  Zn  Zn140  1  0.43623039  0.44163158  0.69265253  1
  Zn  Zn141  1  0.43836123  0.93400851  0.18825945  1
  Zn  Zn142  1  0.43900197  0.93702782  0.69062182  1
  Zn  Zn143  1  0.93523500  0.44170301  0.18312682  1
  Zn  Zn144  1  0.93086761  0.44565644  0.68716490  1
  Zn  Zn145  1  0.94009624  0.93796969  0.18544693  1
  Zn  Zn146  1  0.93851510  0.93665619  0.68783356  1
  Zn  Zn147  1  0.05393898  0.05843916  0.31220240  1
  Zn  Zn148  1  0.06766985  0.06554312  0.81040829  1
  Zn  Zn149  1  0.06201722  0.56333100  0.30807354  1
  Zn  Zn150  1  0.06021070  0.56620684  0.81513787  1
  Zn  Zn151  1  0.56283705  0.05926850  0.31230438  1
  Zn  Zn152  1  0.56231325  0.06346813  0.81514193  1
  Zn  Zn153  1  0.55810723  0.56103883  0.31480282  1
  Zn  Zn154  1  0.56166663  0.57113263  0.80907541  1
  Zn  Zn155  1  0.44288529  0.17682972  0.43286873  1
  Zn  Zn156  1  0.44008435  0.18824425  0.93901325  1
  Zn  Zn157  1  0.43781176  0.68009135  0.43496707  1
  Zn  Zn158  1  0.44017727  0.68891321  0.93347802  1
  Zn  Zn159  1  0.93298763  0.18344105  0.43757842  1
  Zn  Zn160  1  0.93993190  0.19189682  0.94152529  1
  Zn  Zn161  1  0.94142167  0.68973298  0.43995499  1
  Zn  Zn162  1  0.93318046  0.68676061  0.93342190  1
  Zn  Zn163  1  0.06038838  0.31193267  0.05551221  1
  Zn  Zn164  1  0.09912146  0.33510770  0.52889817  1
  Zn  Zn165  1  0.05914973  0.81113269  0.06016224  1
  Zn  Zn166  1  0.07337043  0.81466753  0.55590103  1
  Zn  Zn167  1  0.56150012  0.31581518  0.06733058  1
  Zn  Zn168  1  0.43534618  0.31732692  0.56486552  1
  Zn  Zn169  1  0.56727851  0.80743050  0.06281518  1
  Zn  Zn170  1  0.56188273  0.81067761  0.56442169  1
  O  O171  1  0.11582075  0.12966093  0.11674538  1
  O  O172  1  0.10715202  0.11594549  0.63376224  1
  O  O173  1  0.11217540  0.62003721  0.12543997  1
  O  O174  1  0.13173093  0.62714029  0.61061974  1
  O  O175  1  0.61974067  0.11792835  0.12124277  1
  O  O176  1  0.61801435  0.11595714  0.62125028  1
  O  O177  1  0.61683610  0.62413131  0.11964488  1
  O  O178  1  0.62497687  0.61520669  0.61089775  1
  O  O179  1  0.37077348  0.38588989  0.36814404  1
  O  O180  1  0.37649732  0.38647700  0.88723000  1
  O  O181  1  0.38750803  0.88061199  0.37188501  1
  O  O182  1  0.37016469  0.88451183  0.88927991  1
  O  O183  1  0.88253894  0.38223581  0.38006949  1
  O  O184  1  0.88345106  0.37015274  0.88806387  1
  O  O185  1  0.87892050  0.88217311  0.38498315  1
  O  O186  1  0.88658855  0.88194236  0.88262456  1
  O  O187  1  0.26219450  -0.01065257  0.36695612  1
  O  O188  1  0.25566954  0.00999175  0.87113604  1
  O  O189  1  0.25345067  0.50624683  0.37109450  1
  O  O190  1  0.25505997  0.50867702  0.87197658  1
  O  O191  1  0.76710430  -0.00286044  0.38409311  1
  O  O192  1  0.75719867  0.00651999  0.87031533  1
  O  O193  1  0.76330435  0.49888255  0.36815078  1
  O  O194  1  0.74656546  0.50017860  0.86085591  1
  O  O195  1  0.23970796  0.49491382  0.12251848  1
  O  O196  1  0.24406020  0.49794787  0.64106088  1
  O  O197  1  0.25167049  0.98450385  0.13193773  1
  O  O198  1  0.24644792  0.99588841  0.63040487  1
  O  O199  1  0.75015324  0.49968664  0.14161476  1
  O  O200  1  0.74147731  0.50056229  0.63191874  1
  O  O201  1  0.73944583  1.00147057  0.11776934  1
  O  O202  1  0.74283719  0.99673620  0.63586147  1
  O  O203  1  -0.00321892  0.38203412  0.26095118  1
  O  O204  1  -0.00802865  0.38134875  0.76369640  1
  O  O205  1  -0.00012473  0.86258251  0.25098154  1
  O  O206  1  0.00529987  0.86525995  0.75451933  1
  O  O207  1  0.50466658  0.36330084  0.25545842  1
  O  O208  1  0.50199479  0.36171941  0.75574357  1
  O  O209  1  0.50517391  0.86698990  0.26032704  1
  O  O210  1  0.49717226  0.86418040  0.75588384  1
  O  O211  1  0.49199407  0.12825314  0.24446196  1
  O  O212  1  0.50588633  0.13590615  0.74366037  1
  O  O213  1  0.48645913  0.63504167  0.26046988  1
  O  O214  1  0.48693319  0.63885536  0.75325836  1
  O  O215  1  0.99214412  0.12012214  0.23569836  1
  O  O216  1  0.98390074  0.11659185  0.74697790  1
  O  O217  1  0.99357397  0.63282815  0.24061100  1
  O  O218  1  1.00728798  0.63837877  0.74443398  1
  O  O219  1  0.37945722  0.25562351  0.01281504  1
  O  O220  1  0.38507337  0.24759763  0.49351051  1
  O  O221  1  0.36589313  0.75768521  -0.00040531  1
  O  O222  1  0.36167851  0.73984455  0.49897061  1
  O  O223  1  0.86819776  0.25870773  0.00626640  1
  O  O224  1  0.86615031  0.25203357  0.50746612  1
  O  O225  1  0.87290781  0.75725255  0.00639119  1
  O  O226  1  0.86692867  0.75940226  0.49356741  1
  O  O227  1  0.10364452  0.24017338  0.46326522  1
  O  O228  1  0.12190100  0.23572452  0.99078483  1
  O  O229  1  0.13469136  0.73648901  0.49154201  1
  O  O230  1  0.13204710  0.75707672  0.98641896  1
  O  O231  1  0.63939203  0.24151874  0.49505054  1
  O  O232  1  0.63074013  0.24802235  0.99705270  1
  O  O233  1  0.62766003  0.74289102  0.49436814  1
  O  O234  1  0.63195894  0.74048121  1.00125189  1
  O  O235  1  0.49411163  0.24371533  0.13530688  1
  O  O236  1  0.49798123  0.23825781  0.63663410  1
  O  O237  1  0.49705552  0.75188903  0.14079319  1
  O  O238  1  0.49819442  0.75598809  0.64006594  1
  O  O239  1  0.99091347  0.24137128  0.11587339  1
  O  O240  1  0.98188746  0.23765032  0.63272959  1
  O  O241  1  0.99578527  0.74392974  0.12978659  1
  O  O242  1  1.01449360  0.75304792  0.63405006  1
  O  O243  1  -0.01560472  0.26251658  0.36697813  1
  O  O244  1  0.00786848  0.26124977  0.88005878  1
  O  O245  1  0.00981476  0.74827671  0.36459937  1
  O  O246  1  0.00892946  0.75658697  0.87080211  1
  O  O247  1  0.50807800  0.24648748  0.36209848  1
  O  O248  1  0.51521879  0.24774757  0.87270635  1
  O  O249  1  0.50516009  0.75646955  0.37193910  1
  O  O250  1  0.49598412  0.75634276  0.85857900  1
  O  O251  1  0.23083514  0.15554627  0.53147711  1
  O  O252  1  0.23941560  0.11713652  0.99590710  1
  O  O253  1  0.24043349  0.62668224  0.49252044  1
  O  O254  1  0.25351740  0.63896465  0.99427361  1
  O  O255  1  0.74415638  0.12969964  0.49986922  1
  O  O256  1  0.74663904  0.13324653  0.99463305  1
  O  O257  1  0.74403682  0.63125496  0.49778123  1
  O  O258  1  0.73762959  0.63253881  1.00182210  1
  O  O259  1  0.26190753  0.37810865  0.01095137  1
  O  O260  1  0.22194083  0.36017361  0.50721370  1
  O  O261  1  0.25460113  0.86911554  0.00937591  1
  O  O262  1  0.24612636  0.86319523  0.50855897  1
  O  O263  1  0.75727815  0.37317727  0.00125257  1
  O  O264  1  0.75871190  0.36606670  0.50092022  1
  O  O265  1  0.76637185  0.87213738  -0.00406948  1
  O  O266  1  0.76112555  0.86505557  0.50352529  1
  O  O267  1  0.12329836  0.49804306  0.23335291  1
  O  O268  1  0.13801150  0.50349600  0.75758261  1
  O  O269  1  0.13811752  0.99990145  0.25748232  1
  O  O270  1  0.13378358  0.99544972  0.74229919  1
  O  O271  1  0.63405551  0.49252147  0.25962335  1
  O  O272  1  0.63480603  0.50664848  0.74347941  1
  O  O273  1  0.62000853  0.98880312  0.24230658  1
  O  O274  1  0.63643992  1.00543735  0.74542710  1
  O  O275  1  0.37060345  0.00340815  0.25602075  1
  O  O276  1  0.37132131  -0.00532856  0.76639884  1
  O  O277  1  0.36963339  0.50804684  0.25998511  1
  O  O278  1  0.36661601  0.51093286  0.76010582  1
  O  O279  1  0.87385583  -0.00640534  0.26168767  1
  O  O280  1  0.86404570  0.00387930  0.75578908  1
  O  O281  1  0.86975179  0.50667287  0.25669963  1
  O  O282  1  0.85946256  0.50948842  0.74934860  1
  O  O283  1  0.11141499  0.36449207  0.36533566  1
  O  O284  1  0.11685366  0.36344362  0.88189920  1
  O  O285  1  0.12381147  0.85917284  0.38294306  1
  O  O286  1  0.12411534  0.86989176  0.86794339  1
  O  O287  1  0.62329712  0.36583512  0.36551832  1
  O  O288  1  0.62229023  0.36848200  0.87596752  1
  O  O289  1  0.61503291  0.86645247  0.37297328  1
  O  O290  1  0.62681109  0.87779166  0.87436117  1
  O  O291  1  0.38018816  0.12990380  0.12833579  1
  O  O292  1  0.38381700  0.11856390  0.63696176  1
  O  O293  1  0.37652226  0.62901835  0.13481875  1
  O  O294  1  0.36554630  0.62764891  0.63743636  1
  O  O295  1  0.88389451  0.13616251  0.12260008  1
  O  O296  1  0.87666999  0.12664255  0.63252003  1
  O  O297  1  0.88415600  0.63337029  0.12981647  1
  O  O298  1  0.88388019  0.61702362  0.64298095  1
  O  O299  1  0.25900318  0.25632583  0.12804990  1
  O  O300  1  0.28100119  0.24487156  0.66262911  1
  O  O301  1  0.24936738  0.75848641  0.11711352  1
  O  O302  1  0.25097485  0.75953279  0.61687397  1
  O  O303  1  0.75656465  0.25500701  0.11509410  1
  O  O304  1  0.75752365  0.25056624  0.61830201  1
  O  O305  1  0.76382485  0.74843159  0.13032497  1
  O  O306  1  0.74279954  0.75119165  0.61221283  1
  O  O307  1  0.24102106  0.24929302  0.36900181  1
  O  O308  1  0.24458315  0.23766096  0.87464839  1
  O  O309  1  0.24573346  0.74341752  0.37987141  1
  O  O310  1  0.24392166  0.74526722  0.88069476  1
  O  O311  1  0.74606696  0.24687533  0.38323747  1
  O  O312  1  0.74139453  0.24897882  0.88118846  1
  O  O313  1  0.73952104  0.74922439  0.38621628  1
  O  O314  1  0.74476033  0.76221289  0.86301397  1
  O  O315  1  0.00642173  0.11776761  0.00534897  1
  O  O316  1  -0.00163246  0.12372403  0.51294245  1
  O  O317  1  -0.00673331  0.61881732  0.00699288  1
  O  O318  1  0.01539446  0.61894613  0.49558957  1
  O  O319  1  0.50765595  0.11935359  0.00730689  1
  O  O320  1  0.50887705  0.11264007  0.50936328  1
  O  O321  1  0.51361646  0.63559496  -0.00041905  1
  O  O322  1  0.50959233  0.61223474  0.49329764  1
  O  O323  1  0.50174591  0.39065424  0.49783851  1
  O  O324  1  0.48656574  0.37249249  1.00148234  1
  O  O325  1  0.50308852  0.88716786  0.49502386  1
  O  O326  1  0.49217968  0.87770531  0.99911838  1
  O  O327  1  0.99990979  0.38421074  0.48294544  1
  O  O328  1  0.99252542  0.38498405  0.99148658  1
  O  O329  1  0.98703288  0.86458780  0.49868196  1
  O  O330  1  0.99516475  0.88360622  0.99484942  1
  O  O331  1  0.48776734  0.49611915  0.38201887  1
  O  O332  1  0.48624886  0.50173879  0.86695316  1
  O  O333  1  0.49265734  0.99248312  0.38348764  1
  O  O334  1  0.49319311  0.99866637  0.88351695  1
  O  O335  1  0.99059384  0.49665070  0.37672117  1
  O  O336  1  1.00696179  0.49438852  0.88683101  1
  O  O337  1  0.98466331  0.99556377  0.37655298  1
  O  O338  1  0.99682343  0.99681093  0.87991818  1
  O  O339  1  -0.00494995  0.01055106  0.11432734  1
  O  O340  1  0.01007440  0.00530948  0.62982574  1
  O  O341  1  0.00393945  0.50904006  0.11553037  1
  O  O342  1  0.00286776  0.48741884  0.60873736  1
  O  O343  1  0.50351822  0.00426358  0.11981714  1
  O  O344  1  0.50521044  0.00603629  0.62239515  1
  O  O345  1  0.50456667  0.50483155  0.14307801  1
  O  O346  1  0.50867302  0.50097539  0.61933502  1
  O  O347  1  0.24495710  0.37858472  0.23187314  1
  O  O348  1  0.25049866  0.39145109  0.75566419  1
  O  O349  1  0.25413108  0.87825998  0.23491363  1
  O  O350  1  0.24503310  0.87953752  0.74273007  1
  O  O351  1  0.74143571  0.38311028  0.25060909  1
  O  O352  1  0.74881660  0.38981931  0.74855959  1
  O  O353  1  0.73509847  0.86748725  0.25818925  1
  O  O354  1  0.74554405  0.87514788  0.75394125  1
  O  O355  1  0.26220728  0.11200504  0.23866038  1
  O  O356  1  0.26430819  0.11994462  0.76035927  1
  O  O357  1  0.25917206  0.62510528  0.25577876  1
  O  O358  1  0.25544923  0.61991751  0.75881072  1
  O  O359  1  0.75492982  0.12596348  0.25291263  1
  O  O360  1  0.75667570  0.11710036  0.75606909  1
  O  O361  1  0.75637836  0.61879601  0.25606896  1
  O  O362  1  0.75883470  0.62002224  0.74856255  1
  O  O363  1  0.37963152  0.11090326  0.36144760  1
  O  O364  1  0.36680848  0.11452723  0.88981637  1
  O  O365  1  0.36194336  0.61767379  0.36925498  1
  O  O366  1  0.36350895  0.62214253  0.86994727  1
  O  O367  1  0.87457544  0.10857142  0.37344394  1
  O  O368  1  0.87113638  0.12387316  0.87028900  1
  O  O369  1  0.87626498  0.61846219  0.37005678  1
  O  O370  1  0.89089957  0.62886993  0.84579335  1
  O  O371  1  0.12942621  0.37978207  0.12053459  1
  O  O372  1  0.13785181  0.31944503  0.63312120  1
  O  O373  1  0.13684667  0.87307630  0.12006311  1
  O  O374  1  0.13399678  0.88440359  0.62826990  1
  O  O375  1  0.62692831  0.37824505  0.13962818  1
  O  O376  1  0.62847968  0.39092954  0.63030144  1
  O  O377  1  0.62005624  0.88362004  0.13638681  1
  O  O378  1  0.62805058  0.88774965  0.62298691  1
  O  O379  1  0.12137627  0.25064022  0.25885852  1
  O  O380  1  0.12027158  0.23359589  0.76781683  1
  O  O381  1  0.11750896  0.74464682  0.25768338  1
  O  O382  1  0.11961997  0.75480196  0.75799569  1
  O  O383  1  0.61727933  0.25629408  0.25108619  1
  O  O384  1  0.62209742  0.25223637  0.75976496  1
  O  O385  1  0.61761830  0.75315546  0.25996271  1
  O  O386  1  0.61945515  0.75068232  0.75033818  1
  O  O387  1  0.38111374  0.23965576  0.24242273  1
  O  O388  1  0.38865886  0.24123882  0.77516894  1
  O  O389  1  0.38194661  0.74284177  0.25101708  1
  O  O390  1  0.38037960  0.74527004  0.74679582  1
  O  O391  1  0.87049894  0.25536917  0.23333885  1
  O  O392  1  0.86281432  0.23935097  0.74308143  1
  O  O393  1  0.88254271  0.74714542  0.24532606  1
  O  O394  1  0.89246000  0.74232155  0.73875312  1
  O  O395  1  0.38080623  0.50825709  0.49057052  1
  O  O396  1  0.37200634  0.49546019  0.99231557  1
  O  O397  1  0.38099872  1.01012413  0.49066578  1
  O  O398  1  0.38052802  0.99263064  0.99542336  1
  O  O399  1  0.88227858  0.49678331  0.49333700  1
  O  O400  1  0.88293846  0.49396942  1.00612444  1
  O  O401  1  0.87455778  0.98337295  0.49687932  1
  O  O402  1  0.88398326  0.99466458  0.99452052  1
  O  O403  1  0.11359026  0.00798187  -0.00606368  1
  O  O404  1  0.13344664  0.00570976  0.51204853  1
  O  O405  1  0.11455742  0.49779074  0.01051469  1
  O  O406  1  0.11879076  0.51374422  0.49107906  1
  O  O407  1  0.61916656  0.00457818  0.00936752  1
  O  O408  1  0.61966395  0.00253867  0.50842311  1
  O  O409  1  0.62824709  0.51733275  0.00370754  1
  O  O410  1  0.62016171  0.50508654  0.50494110  1
  O  O411  1  0.36775842  0.36715801  0.12198733  1
  O  O412  1  0.36934581  0.38302365  0.62586427  1
  O  O413  1  0.36863209  0.87283950  0.11400004  1
  O  O414  1  0.36377403  0.87589840  0.62612970  1
  O  O415  1  0.87594436  0.37013026  0.11324580  1
  O  O416  1  0.87454189  0.36578893  0.61898293  1
  O  O417  1  0.88470513  0.86520736  0.11475186  1
  O  O418  1  0.87249960  0.87781200  0.61366767  1
  O  O419  1  0.12650860  0.13148146  0.36546424  1
  O  O420  1  0.13350312  0.12794680  0.88409038  1
  O  O421  1  0.13607473  0.63119181  0.37367807  1
  O  O422  1  0.13712751  0.63469159  0.87300620  1
  O  O423  1  0.62491375  0.12809544  0.38267731  1
  O  O424  1  0.63230242  0.13189842  0.88390807  1
  O  O425  1  0.62523264  0.63466171  0.38264773  1
  O  O426  1  0.62412388  0.62554759  0.88654800  1
