# generated using pymatgen
data_V85Zn86O256
_symmetry_space_group_name_H-M   'P 1'
_cell_length_a   16.92881585
_cell_length_b   16.92739771
_cell_length_c   16.93848464
_cell_angle_alpha   89.96919133
_cell_angle_beta   89.95217898
_cell_angle_gamma   90.01071371
_symmetry_Int_Tables_number   1
_chemical_formula_structural   V85Zn86O256
_chemical_formula_sum   'V85 Zn86 O256'
_cell_volume   4853.90320896
_cell_formula_units_Z   1
loop_
 _symmetry_equiv_pos_site_id
 _symmetry_equiv_pos_as_xyz
  1  'x, y, z'
loop_
 _atom_site_type_symbol
 _atom_site_label
 _atom_site_symmetry_multiplicity
 _atom_site_fract_x
 _atom_site_fract_y
 _atom_site_fract_z
 _atom_site_occupancy
  V  V0  1  0.74859038  0.12204323  0.37703000  1
  V  V1  1  0.48887166  0.74191233  0.74395755  1
  V  V2  1  0.88175664  0.87402118  -0.00002768  1
  V  V3  1  0.62568795  0.62502168  0.50552611  1
  V  V4  1  0.25981076  0.50877166  0.74636077  1
  V  V5  1  0.62623034  0.25118773  0.87697503  1
  V  V6  1  0.12963673  0.87410427  0.25084609  1
  V  V7  1  0.25367996  0.62980542  0.87414662  1
  V  V8  1  0.87622042  -0.00499262  0.37471408  1
  V  V9  1  0.49793769  0.38162979  0.37422941  1
  V  V10  1  0.48884391  0.49732929  0.00442991  1
  V  V11  1  0.50119928  0.24276501  0.74738381  1
  V  V12  1  0.87825422  -0.00269284  0.87341379  1
  V  V13  1  0.12811141  0.24244677  0.87300522  1
  V  V14  1  0.87938657  0.49906029  0.37802786  1
  V  V15  1  0.87703487  0.37235204  0.50933657  1
  V  V16  1  0.60513612  0.00265590  0.62469617  1
  V  V17  1  0.50138814  0.12494395  0.12438455  1
  V  V18  1  0.25876795  0.87194804  0.62321747  1
  V  V19  1  0.62560852  0.24915164  0.37690996  1
  V  V20  1  0.00544403  0.38177893  0.87877888  1
  V  V21  1  0.75051531  -0.00319562  0.25163659  1
  V  V22  1  0.87222659  0.50287180  0.87327458  1
  V  V23  1  0.62393228  0.62344614  0.00577482  1
  V  V24  1  0.49472353  -0.00740548  -0.00247141  1
  V  V25  1  0.49219860  0.37595187  0.87850323  1
  V  V26  1  0.61083067  0.12163783  0.50470630  1
  V  V27  1  0.87922423  0.62780604  0.24977844  1
  V  V28  1  0.37097423  0.11775953  0.24674315  1
  V  V29  1  0.87927579  0.25034913  0.12487510  1
  V  V30  1  0.75225749  0.87443057  0.12807074  1
  V  V31  1  0.74998199  0.74969485  0.00216620  1
  V  V32  1  0.75346571  0.24701557  0.50368944  1
  V  V33  1  0.87431070  0.86785124  0.50253127  1
  V  V34  1  0.11256016  0.86148507  0.75083834  1
  V  V35  1  0.75231085  0.25046232  0.00135263  1
  V  V36  1  0.12795462  0.37816940  0.74893230  1
  V  V37  1  -0.00172953  0.13396461  0.62406523  1
  V  V38  1  0.00470168  0.12281484  0.12208338  1
  V  V39  1  0.88357902  0.38005923  0.00272773  1
  V  V40  1  0.74572673  0.88033680  0.62673054  1
  V  V41  1  0.62092436  0.50100776  0.62556025  1
  V  V42  1  0.74694545  0.00247483  0.75056307  1
  V  V43  1  0.00386771  -0.00175174  -0.00346832  1
  V  V44  1  0.12632386  0.24676845  0.37355853  1
  V  V45  1  0.26752494  0.75099684  0.00346073  1
  V  V46  1  0.61362054  0.87064512  0.25116509  1
  V  V47  1  0.22790538  0.62611763  0.37598515  1
  V  V48  1  0.00302139  0.24759766  0.24951941  1
  V  V49  1  0.74979299  0.49979662  0.24983400  1
  V  V50  1  0.62028187  0.75339916  0.87372617  1
  V  V51  1  0.37618859  0.37734396  0.49577681  1
  V  V52  1  0.37935561  0.24156210  0.62327805  1
  V  V53  1  0.37916243  -0.00254345  0.38831796  1
  V  V54  1  0.11207106  0.74627151  0.88403711  1
  V  V55  1  0.12556201  0.49911251  0.11246214  1
  V  V56  1  0.00018167  -0.00129696  0.49999852  1
  V  V57  1  0.25678907  0.50038428  0.25002110  1
  V  V58  1  0.62572546  0.37595269  0.25173703  1
  V  V59  1  0.75195718  0.12689480  0.87600841  1
  V  V60  1  0.75155326  0.37518210  0.12698620  1
  V  V61  1  0.00089956  0.37543812  0.37747737  1
  V  V62  1  0.75032706  0.37324695  0.62669496  1
  V  V63  1  0.12229383  0.50184733  0.60621608  1
  V  V64  1  0.49473883  0.50845310  0.50108473  1
  V  V65  1  0.25691199  0.37487224  0.62513887  1
  V  V66  1  0.87491634  0.74729863  0.64846222  1
  V  V67  1  0.24517475  -0.00032848  0.76027855  1
  V  V68  1  0.62595943  -0.00031704  0.12603620  1
  V  V69  1  0.00707841  0.62393809  0.11361188  1
  V  V70  1  0.25978224  0.25068870  -0.00509522  1
  V  V71  1  0.12454948  -0.00327721  0.62655737  1
  V  V72  1  0.61671301  0.74816932  0.37353403  1
  V  V73  1  0.25080608  0.24707899  0.49750709  1
  V  V74  1  0.49589639  0.87614233  0.39059896  1
  V  V75  1  0.24876184  0.11818038  0.36913657  1
  V  V76  1  0.87472941  0.13557678  0.74578871  1
  V  V77  1  0.62163505  0.37576064  0.75148731  1
  V  V78  1  0.49920553  0.25117806  0.24880017  1
  V  V79  1  0.36862731  0.12234653  0.75639427  1
  V  V80  1  0.24106181  0.75631738  0.49075076  1
  V  V81  1  0.48848358  0.63758218  0.12855486  1
  V  V82  1  0.74891940  0.62641612  0.37451079  1
  V  V83  1  0.37672059  0.63942951  0.26145552  1
  V  V84  1  0.26276523  0.88104564  0.12261396  1
  Zn  Zn85  1  0.48260985  0.86755205  0.87821343  1
  Zn  Zn86  1  0.13224020  -0.00080288  0.12555630  1
  Zn  Zn87  1  0.12941599  0.37731744  0.24759287  1
  Zn  Zn88  1  0.37238460  0.73497806  0.61880861  1
  Zn  Zn89  1  0.61853050  0.87663482  0.75308571  1
  Zn  Zn90  1  0.37708462  0.25575187  0.11933955  1
  Zn  Zn91  1  0.62160936  0.50074263  0.12699038  1
  Zn  Zn92  1  0.62741102  0.12378380  0.00046105  1
  Zn  Zn93  1  0.00503172  0.63285817  0.62609877  1
  Zn  Zn94  1  0.88086534  0.74901009  0.12577143  1
  Zn  Zn95  1  0.26009030  0.37954667  0.11690593  1
  Zn  Zn96  1  0.12624186  0.12339402  0.50004743  1
  Zn  Zn97  1  0.37658971  0.50335893  0.87149340  1
  Zn  Zn98  1  0.36118192  -0.00094772  0.88473615  1
  Zn  Zn99  1  0.75807770  0.51315503  0.73738218  1
  Zn  Zn100  1  0.01265880  0.86606086  0.37812153  1
  Zn  Zn101  1  0.75403073  0.62630139  0.87385194  1
  Zn  Zn102  1  0.74714714  0.75115512  0.50325048  1
  Zn  Zn103  1  0.01382219  0.74273927  0.25865536  1
  Zn  Zn104  1  -0.00371700  0.25966898  0.74460375  1
  Zn  Zn105  1  0.13203344  0.12066157  -0.00791330  1
  Zn  Zn106  1  0.87682402  0.12065039  0.24980694  1
  Zn  Zn107  1  0.18931459  0.18843124  0.18118380  1
  Zn  Zn108  1  0.18700184  0.18690371  0.68720360  1
  Zn  Zn109  1  0.19098855  0.68994027  0.18395095  1
  Zn  Zn110  1  0.18675128  0.68488789  0.68150729  1
  Zn  Zn111  1  0.68894559  0.18641538  0.18965525  1
  Zn  Zn112  1  0.68601068  0.18631506  0.68481492  1
  Zn  Zn113  1  0.68583743  0.68824616  0.18779786  1
  Zn  Zn114  1  0.68912845  0.68990111  0.69050889  1
  Zn  Zn115  1  0.31496597  0.31079779  0.30694935  1
  Zn  Zn116  1  0.31272172  0.31161428  0.81207635  1
  Zn  Zn117  1  0.30743915  0.81555083  0.31140986  1
  Zn  Zn118  1  0.30851815  0.81514380  0.81299267  1
  Zn  Zn119  1  0.81570602  0.31016586  0.31387447  1
  Zn  Zn120  1  0.81347133  0.31925570  0.81292607  1
  Zn  Zn121  1  0.81152664  0.80935282  0.31561659  1
  Zn  Zn122  1  0.80493209  0.81826573  0.81808279  1
  Zn  Zn123  1  0.19351555  0.43530301  0.42781775  1
  Zn  Zn124  1  0.19402487  0.43653357  0.93446410  1
  Zn  Zn125  1  0.19028207  0.93840815  0.43613852  1
  Zn  Zn126  1  0.18491207  0.92520417  0.93752366  1
  Zn  Zn127  1  0.68904707  0.43869683  0.43886859  1
  Zn  Zn128  1  0.68681978  0.43789207  0.94144887  1
  Zn  Zn129  1  0.68307619  0.93790172  0.44130514  1
  Zn  Zn130  1  0.68687269  0.93718827  0.94015105  1
  Zn  Zn131  1  0.31146020  0.06940912  0.06042608  1
  Zn  Zn132  1  0.31091980  0.06262424  0.56542426  1
  Zn  Zn133  1  0.30971432  0.56936613  0.06140504  1
  Zn  Zn134  1  0.30526969  0.56310758  0.55213056  1
  Zn  Zn135  1  0.81650000  0.06261596  0.06333410  1
  Zn  Zn136  1  0.81194349  0.06170297  0.56312940  1
  Zn  Zn137  1  0.81559552  0.56159493  0.06266835  1
  Zn  Zn138  1  0.84492401  0.58388843  0.54449520  1
  Zn  Zn139  1  0.43392678  0.44270015  0.18656302  1
  Zn  Zn140  1  0.43869376  0.56489244  0.68689585  1
  Zn  Zn141  1  0.43579577  0.93863643  0.19074936  1
  Zn  Zn142  1  0.43324547  0.93034293  0.69940342  1
  Zn  Zn143  1  0.94277736  0.44003174  0.18936453  1
  Zn  Zn144  1  0.95941837  0.47564169  0.70432637  1
  Zn  Zn145  1  0.94491873  0.93316012  0.18824229  1
  Zn  Zn146  1  0.93568314  0.93950656  0.68723836  1
  Zn  Zn147  1  0.06538012  0.05543003  0.30869552  1
  Zn  Zn148  1  0.05862175  0.06002523  0.80827945  1
  Zn  Zn149  1  0.06262438  0.55528146  0.30423129  1
  Zn  Zn150  1  0.06669420  0.57115180  0.80668526  1
  Zn  Zn151  1  0.56005710  0.05970498  0.31388477  1
  Zn  Zn152  1  0.56219989  0.06472025  0.81348317  1
  Zn  Zn153  1  0.55832739  0.56396039  0.31198035  1
  Zn  Zn154  1  0.57377249  0.56542618  0.81625462  1
  Zn  Zn155  1  0.43542367  0.18911534  0.43230852  1
  Zn  Zn156  1  0.43918212  0.18175711  0.93561012  1
  Zn  Zn157  1  0.43095045  0.69256898  0.44191232  1
  Zn  Zn158  1  0.43704349  0.68246255  0.93477886  1
  Zn  Zn159  1  0.93606919  0.18543642  0.43743016  1
  Zn  Zn160  1  0.94253077  0.19034710  0.93428626  1
  Zn  Zn161  1  0.95893934  0.68329188  0.44368694  1
  Zn  Zn162  1  0.93789961  0.68569971  0.93707527  1
  Zn  Zn163  1  0.07146133  0.31377529  0.05973954  1
  Zn  Zn164  1  0.06591576  0.31727318  0.56031674  1
  Zn  Zn165  1  0.06682368  0.81085554  0.06887829  1
  Zn  Zn166  1  0.06121359  0.80920093  0.56561972  1
  Zn  Zn167  1  0.56284523  0.31416366  0.06264476  1
  Zn  Zn168  1  0.56140652  0.31201151  0.56266393  1
  Zn  Zn169  1  0.56142967  0.81320251  0.06375055  1
  Zn  Zn170  1  0.56124956  0.81109322  0.56683999  1
  O  O171  1  0.11456255  0.12068090  0.12123281  1
  O  O172  1  0.11688387  0.11470471  0.62420170  1
  O  O173  1  0.11488282  0.61612328  0.12807521  1
  O  O174  1  0.12322124  0.60671593  0.62169051  1
  O  O175  1  0.61860802  0.11778659  0.12650922  1
  O  O176  1  0.62710736  0.11502676  0.61663561  1
  O  O177  1  0.61547684  0.62522786  0.11898275  1
  O  O178  1  0.63121450  0.61758345  0.61188867  1
  O  O179  1  0.38558965  0.36658746  0.38451053  1
  O  O180  1  0.38986342  0.37702337  0.86967919  1
  O  O181  1  0.38018272  0.88971135  0.36861976  1
  O  O182  1  0.37185464  0.88814538  0.86819057  1
  O  O183  1  0.88180696  0.37907614  0.38022952  1
  O  O184  1  0.88379171  0.37776161  0.88561946  1
  O  O185  1  0.87054167  0.88445708  0.38461793  1
  O  O186  1  0.86806118  0.88951938  0.88471069  1
  O  O187  1  0.26115734  0.01104910  0.37716098  1
  O  O188  1  0.23990695  -0.00137072  0.86363966  1
  O  O189  1  0.24566917  0.51681007  0.36520231  1
  O  O190  1  0.25048716  0.50904136  0.86503553  1
  O  O191  1  0.75548652  0.00214576  0.37193542  1
  O  O192  1  0.75477596  0.00797642  0.87201691  1
  O  O193  1  0.75509788  0.50390678  0.36621768  1
  O  O194  1  0.76407075  0.49686570  0.88027297  1
  O  O195  1  0.24116739  0.50320142  0.12928055  1
  O  O196  1  0.24477240  0.49091639  0.62770273  1
  O  O197  1  0.25115681  0.98593458  0.11269236  1
  O  O198  1  0.23752725  0.99329310  0.62749764  1
  O  O199  1  0.74919183  0.49390950  0.13365572  1
  O  O200  1  0.73671428  0.48490686  0.62288166  1
  O  O201  1  0.74647923  0.99549468  0.13118615  1
  O  O202  1  0.74695274  0.99249685  0.63146298  1
  O  O203  1  0.00100688  0.36527264  0.26032608  1
  O  O204  1  0.01219272  0.37761989  0.75619734  1
  O  O205  1  0.01365304  0.86780781  0.25050007  1
  O  O206  1  0.01488878  0.88058730  0.74656519  1
  O  O207  1  0.50506884  0.37413911  0.25848333  1
  O  O208  1  0.51392258  0.36104624  0.76096808  1
  O  O209  1  0.51121068  0.88039140  0.25859911  1
  O  O210  1  0.50230650  0.85979271  0.75711165  1
  O  O211  1  0.49755220  0.12787233  0.23968246  1
  O  O212  1  0.49311226  0.13692319  0.75343972  1
  O  O213  1  0.48773689  0.62072059  0.24022386  1
  O  O214  1  0.50364960  0.63547241  0.75406696  1
  O  O215  1  0.99930894  0.13006185  0.24209815  1
  O  O216  1  0.99116515  0.12731066  0.74028722  1
  O  O217  1  0.99197273  0.62400460  0.24270645  1
  O  O218  1  0.99085156  0.58484109  0.72864904  1
  O  O219  1  0.36406782  0.24510658  -0.00436894  1
  O  O220  1  0.37270071  0.25491387  0.50573910  1
  O  O221  1  0.36624059  0.75135956  -0.00322835  1
  O  O222  1  0.35211869  0.74667893  0.50208209  1
  O  O223  1  0.87234043  0.25863938  0.00503684  1
  O  O224  1  0.86139569  0.25596290  0.49339787  1
  O  O225  1  0.86869180  0.75766714  -0.00038181  1
  O  O226  1  0.86867852  0.76389043  0.50579320  1
  O  O227  1  0.13228125  0.24658660  0.49155190  1
  O  O228  1  0.13150734  0.24647680  0.98769919  1
  O  O229  1  0.13969601  0.74855822  0.50762149  1
  O  O230  1  0.12669867  0.75626437  0.98508028  1
  O  O231  1  0.63444846  0.24447247  0.49648192  1
  O  O232  1  0.63485668  0.24946690  0.99503001  1
  O  O233  1  0.62535295  0.74055521  0.49642080  1
  O  O234  1  0.63152800  0.74541054  0.99843628  1
  O  O235  1  0.50269998  0.24090584  0.13016209  1
  O  O236  1  0.49104297  0.25643384  0.63521684  1
  O  O237  1  0.50170832  0.73601398  0.12411910  1
  O  O238  1  0.49696010  0.75057342  0.63979776  1
  O  O239  1  1.00009776  0.24443298  0.13056879  1
  O  O240  1  1.00654412  0.23761414  0.62397386  1
  O  O241  1  1.00034068  0.73476116  0.12910048  1
  O  O242  1  0.97946244  0.75059781  0.62603095  1
  O  O243  1  0.00395617  0.25077187  0.36655970  1
  O  O244  1  0.00815835  0.26337185  0.87006215  1
  O  O245  1  -0.01071792  0.75541178  0.37024881  1
  O  O246  1  0.01242767  0.74437032  0.87484254  1
  O  O247  1  0.50720554  0.25999342  0.36994230  1
  O  O248  1  0.50716197  0.25520268  0.87203625  1
  O  O249  1  0.50941424  0.75697015  0.37975241  1
  O  O250  1  0.50489923  0.74923119  0.86973101  1
  O  O251  1  0.24902849  0.13052120  0.49090683  1
  O  O252  1  0.24593964  0.14015772  0.99941916  1
  O  O253  1  0.24521503  0.63061634  0.47976501  1
  O  O254  1  0.25029140  0.64109515  0.99251208  1
  O  O255  1  0.74530748  0.13159537  0.49637201  1
  O  O256  1  0.75205326  0.13279911  0.99589204  1
  O  O257  1  0.74345375  0.62496829  0.49121824  1
  O  O258  1  0.74274005  0.63253123  1.00204115  1
  O  O259  1  0.24676989  0.35812728  -0.00129745  1
  O  O260  1  0.25980432  0.36822206  0.50037811  1
  O  O261  1  0.24842571  0.86279867  0.00979952  1
  O  O262  1  0.24419928  0.86547975  0.50677568  1
  O  O263  1  0.75811176  0.36880624  0.00884028  1
  O  O264  1  0.75344831  0.36557059  0.50534641  1
  O  O265  1  0.75916310  0.86974048  0.00719725  1
  O  O266  1  0.75611835  0.87744230  0.50989508  1
  O  O267  1  0.13903332  0.49949117  0.23961062  1
  O  O268  1  0.13856137  0.48720112  0.74170753  1
  O  O269  1  0.12132866  0.98428878  0.24128978  1
  O  O270  1  0.12790236  0.99319734  0.74284864  1
  O  O271  1  0.63215063  0.49448707  0.25086970  1
  O  O272  1  0.62050284  0.48920615  0.74137581  1
  O  O273  1  0.63022552  0.99196520  0.24583484  1
  O  O274  1  0.62939900  1.00221785  0.74244682  1
  O  O275  1  0.38072439  0.01416082  0.25977695  1
  O  O276  1  0.36149084  0.00835446  0.74600010  1
  O  O277  1  0.36111766  0.51417424  0.24506730  1
  O  O278  1  0.36353909  0.49753846  0.74862505  1
  O  O279  1  0.87206015  -0.00338382  0.25947231  1
  O  O280  1  0.86930701  0.00728723  0.75816674  1
  O  O281  1  0.86998682  0.50551536  0.25763947  1
  O  O282  1  0.86477251  0.47979255  0.76959801  1
  O  O283  1  0.11716178  0.36636448  0.37238983  1
  O  O284  1  0.12112848  0.37178880  0.86677038  1
  O  O285  1  0.13009296  0.88165155  0.35810843  1
  O  O286  1  0.12748402  0.85949822  0.85980481  1
  O  O287  1  0.61962766  0.36927676  0.37181122  1
  O  O288  1  0.62238621  0.36945060  0.86896801  1
  O  O289  1  0.61749828  0.86907632  0.37123507  1
  O  O290  1  0.62325446  0.86175292  0.87941004  1
  O  O291  1  0.38349409  0.12992883  0.13168600  1
  O  O292  1  0.37146803  0.13628931  0.63247078  1
  O  O293  1  0.38440365  0.62629855  0.13326486  1
  O  O294  1  0.37344604  0.62080180  0.61734390  1
  O  O295  1  0.88751968  0.13204345  0.12583508  1
  O  O296  1  0.88402538  0.11890472  0.63432629  1
  O  O297  1  0.88731783  0.62056540  0.13271119  1
  O  O298  1  0.84930723  0.64891299  0.64006986  1
  O  O299  1  0.25047329  0.25363781  0.10957499  1
  O  O300  1  0.25640846  0.25421388  0.61759354  1
  O  O301  1  0.24885538  0.75600155  0.10853097  1
  O  O302  1  0.24990559  0.75764406  0.61787027  1
  O  O303  1  0.75913173  0.25444082  0.12289705  1
  O  O304  1  0.74455911  0.26152553  0.61647863  1
  O  O305  1  0.75218951  0.75402775  0.11506821  1
  O  O306  1  0.75271010  0.76764229  0.62794243  1
  O  O307  1  0.24731427  0.23921496  0.37752506  1
  O  O308  1  0.24168836  0.25394118  0.88184463  1
  O  O309  1  0.24737104  0.74243289  0.38190687  1
  O  O310  1  0.24373177  0.74628826  0.88323972  1
  O  O311  1  0.74473873  0.24321465  0.38115392  1
  O  O312  1  0.74715129  0.24727495  0.88096884  1
  O  O313  1  0.73691245  0.74416784  0.37886502  1
  O  O314  1  0.74283051  0.74951348  0.88858278  1
  O  O315  1  0.00171788  0.11722020  0.00557639  1
  O  O316  1  -0.00128680  0.11420717  0.50605833  1
  O  O317  1  -0.00451484  0.62242211  0.01541004  1
  O  O318  1  -0.04336853  0.61056925  0.52346648  1
  O  O319  1  0.50484845  0.11957557  0.01182041  1
  O  O320  1  0.51229884  0.13420283  0.49695360  1
  O  O321  1  0.50347132  0.61979969  0.01160168  1
  O  O322  1  0.50742605  0.61352197  0.49098418  1
  O  O323  1  0.49502619  0.38228366  0.49433217  1
  O  O324  1  0.50841548  0.38552035  0.99113088  1
  O  O325  1  0.50254900  0.87336073  0.48986364  1
  O  O326  1  0.50147130  0.88910756  1.00153945  1
  O  O327  1  0.98984499  0.36218311  0.48566584  1
  O  O328  1  0.99368810  0.36982507  0.99347999  1
  O  O329  1  0.99283294  0.88397093  0.50180620  1
  O  O330  1  0.98834768  0.88087680  1.00724880  1
  O  O331  1  0.50507079  0.48794072  0.38347148  1
  O  O332  1  0.50155347  0.49288492  0.88270561  1
  O  O333  1  0.48819743  0.99384559  0.37589656  1
  O  O334  1  0.50646576  1.00132816  0.89270182  1
  O  O335  1  0.99157589  0.48817345  0.36927045  1
  O  O336  1  0.99037877  0.48796658  0.87416578  1
  O  O337  1  0.99274742  0.99599250  0.38381577  1
  O  O338  1  0.98954285  1.00437569  0.88309724  1
  O  O339  1  -0.00252378  0.00836969  0.11386129  1
  O  O340  1  0.00754722  0.00637610  0.61901051  1
  O  O341  1  0.01539479  0.50827755  0.13027019  1
  O  O342  1  0.02520023  0.47114908  0.61044020  1
  O  O343  1  0.50466252  0.00553570  0.11837149  1
  O  O344  1  0.50678423  -0.00529764  0.63338336  1
  O  O345  1  0.50224143  0.50971407  0.11869547  1
  O  O346  1  0.51242217  0.49990849  0.61544890  1
  O  O347  1  0.24934547  0.38676380  0.25340323  1
  O  O348  1  0.24905852  0.37973325  0.74051160  1
  O  O349  1  0.24363494  0.87217704  0.23366046  1
  O  O350  1  0.23760147  0.88190943  0.74031634  1
  O  O351  1  0.74751185  0.37923786  0.24695918  1
  O  O352  1  0.73773067  0.37170660  0.74179849  1
  O  O353  1  0.74277410  0.87907407  0.24680108  1
  O  O354  1  0.74237163  0.88538336  0.74565480  1
  O  O355  1  0.25851335  0.13040900  0.25616989  1
  O  O356  1  0.25651681  0.11397434  0.74366866  1
  O  O357  1  0.25810789  0.62578151  0.25898914  1
  O  O358  1  0.24403661  0.61747134  0.75628973  1
  O  O359  1  0.75355183  0.11633216  0.25790705  1
  O  O360  1  0.75723138  0.12187720  0.75352150  1
  O  O361  1  0.75505000  0.61764267  0.25339544  1
  O  O362  1  0.72484979  0.61610363  0.76508907  1
  O  O363  1  0.37024609  0.11635133  0.36918986  1
  O  O364  1  0.37728367  0.11828047  0.86093940  1
  O  O365  1  0.37508826  0.62605834  0.36281739  1
  O  O366  1  0.35988121  0.62292082  0.87405487  1
  O  O367  1  0.86926789  0.11001329  0.37625065  1
  O  O368  1  0.87143346  0.11807401  0.86838679  1
  O  O369  1  0.86955595  0.61450598  0.36700399  1
  O  O370  1  0.87468498  0.60665118  0.88165592  1
  O  O371  1  0.12825878  0.38843042  0.12743665  1
  O  O372  1  0.14173013  0.37349567  0.62909660  1
  O  O373  1  0.13509047  0.87853693  0.13068557  1
  O  O374  1  0.12816739  0.87973639  0.63398127  1
  O  O375  1  0.63268378  0.37589761  0.13452834  1
  O  O376  1  0.62795664  0.37968902  0.63189090  1
  O  O377  1  0.63017065  0.87853621  0.13428306  1
  O  O378  1  0.63054754  0.88513547  0.62567626  1
  O  O379  1  0.11561800  0.25059035  0.25267194  1
  O  O380  1  0.12727807  0.26218262  0.75452244  1
  O  O381  1  0.12893151  0.76586423  0.24333222  1
  O  O382  1  0.12376409  0.75781216  0.75132500  1
  O  O383  1  0.62001656  0.25526264  0.25685210  1
  O  O384  1  0.61910461  0.25215580  0.75526726  1
  O  O385  1  0.62861713  0.75863056  0.26046048  1
  O  O386  1  0.61544620  0.75206080  0.76017728  1
  O  O387  1  0.38602251  0.23604621  0.25350855  1
  O  O388  1  0.38060552  0.24356929  0.74342217  1
  O  O389  1  0.37330211  0.73843464  0.25348677  1
  O  O390  1  0.38640206  0.74927674  0.74867806  1
  O  O391  1  0.88755149  0.24680451  0.24519668  1
  O  O392  1  0.87606791  0.23944615  0.75427582  1
  O  O393  1  0.86863480  0.73456309  0.24699104  1
  O  O394  1  0.87293661  0.76129276  0.74674863  1
  O  O395  1  0.38217132  0.48629961  0.50212027  1
  O  O396  1  0.38587767  0.50520558  0.99738117  1
  O  O397  1  0.37441414  1.00568108  0.48714890  1
  O  O398  1  0.39161969  1.00956435  1.00024094  1
  O  O399  1  0.86234418  0.48499973  0.48295355  1
  O  O400  1  0.87289697  0.48621501  0.99344809  1
  O  O401  1  0.88103418  0.99124439  0.49618059  1
  O  O402  1  0.88229724  0.99432273  0.99359215  1
  O  O403  1  0.11340551  -0.00136822  -0.00358296  1
  O  O404  1  0.11614605  -0.00051545  0.50698864  1
  O  O405  1  0.13212435  0.49792413  0.01331034  1
  O  O406  1  0.13733143  0.49350098  0.50838066  1
  O  O407  1  0.61836353  0.00152974  0.01050353  1
  O  O408  1  0.62621315  0.01031838  0.51126084  1
  O  O409  1  0.61827866  0.50973331  0.00333887  1
  O  O410  1  0.61764289  0.50487350  0.50530673  1
  O  O411  1  0.37344829  0.36772324  0.13297475  1
  O  O412  1  0.36428478  0.36164275  0.61421396  1
  O  O413  1  0.36227984  0.87585444  0.13071338  1
  O  O414  1  0.36003266  0.87358580  0.62932363  1
  O  O415  1  0.87483993  0.37114894  0.12065662  1
  O  O416  1  0.86630760  0.38024883  0.61151915  1
  O  O417  1  0.86956894  0.87267258  0.11858706  1
  O  O418  1  0.86651044  0.87197543  0.62134619  1
  O  O419  1  0.13305351  0.12636286  0.37409424  1
  O  O420  1  0.11660212  0.13972271  0.86906454  1
  O  O421  1  0.12947486  0.62680958  0.36769520  1
  O  O422  1  0.13350015  0.63923711  0.86897797  1
  O  O423  1  0.62988164  0.12775467  0.38205586  1
  O  O424  1  0.63389055  0.13385985  0.87694855  1
  O  O425  1  0.62670553  0.63089535  0.38174330  1
  O  O426  1  0.62145836  0.63710269  0.89428756  1
