# generated using pymatgen
data_V85Zn86O256
_symmetry_space_group_name_H-M   'P 1'
_cell_length_a   16.93797115
_cell_length_b   16.94083108
_cell_length_c   16.93934709
_cell_angle_alpha   90.04424970
_cell_angle_beta   90.04764470
_cell_angle_gamma   90.06638690
_symmetry_Int_Tables_number   1
_chemical_formula_structural   V85Zn86O256
_chemical_formula_sum   'V85 Zn86 O256'
_cell_volume   4860.62589351
_cell_formula_units_Z   1
loop_
 _symmetry_equiv_pos_site_id
 _symmetry_equiv_pos_as_xyz
  1  'x, y, z'
loop_
 _atom_site_type_symbol
 _atom_site_label
 _atom_site_symmetry_multiplicity
 _atom_site_fract_x
 _atom_site_fract_y
 _atom_site_fract_z
 _atom_site_occupancy
  V  V0  1  0.37086028  0.24265245  0.12393403  1
  V  V1  1  0.24304037  0.25310094  0.49484631  1
  V  V2  1  0.37632161  0.62728103  0.74111605  1
  V  V3  1  0.74883398  0.87470437  0.12564361  1
  V  V4  1  0.74720716  0.12681182  0.87214598  1
  V  V5  1  0.62587172  0.62368273  0.49677364  1
  V  V6  1  0.24662596  0.36881281  0.12548763  1
  V  V7  1  0.88486989  0.38379350  -0.01700439  1
  V  V8  1  0.73675355  -0.00860610  0.74348567  1
  V  V9  1  0.62514915  0.25164698  0.37673996  1
  V  V10  1  0.62365292  0.62607125  -0.00364632  1
  V  V11  1  0.12336554  0.37142406  0.75539108  1
  V  V12  1  0.12112922  0.12088218  0.49746362  1
  V  V13  1  0.37540019  0.62330205  0.25147005  1
  V  V14  1  0.89865642  0.59536372  0.76728073  1
  V  V15  1  0.88145824  0.00049698  0.87652920  1
  V  V16  1  0.74979349  0.25797638  0.50577792  1
  V  V17  1  0.50511940  0.87084576  0.86882770  1
  V  V18  1  0.62442444  -0.00617465  0.12942702  1
  V  V19  1  0.74861484  0.12689653  0.37745860  1
  V  V20  1  0.12974731  0.87333964  0.74303801  1
  V  V21  1  0.74346631  0.49916292  0.74520710  1
  V  V22  1  0.75208810  0.62148184  0.87016760  1
  V  V23  1  0.74782399  0.25241158  -0.00394910  1
  V  V24  1  0.00024692  0.63331706  0.62498313  1
  V  V25  1  0.49608229  0.87302203  0.38113700  1
  V  V26  1  0.87504823  0.25950419  0.62753264  1
  V  V27  1  0.87503655  0.12342763  0.74774250  1
  V  V28  1  0.12168020  0.25290673  0.88646621  1
  V  V29  1  0.88056432  -0.00058418  0.38580851  1
  V  V30  1  0.62506129  0.37339727  0.75597283  1
  V  V31  1  0.00454740  0.62109516  0.11252669  1
  V  V32  1  0.37359150  -0.00480925  0.38409227  1
  V  V33  1  0.24859115  -0.00158981  0.74021168  1
  V  V34  1  0.49789696  -0.00339335  -0.00071809  1
  V  V35  1  0.50586115  0.12245136  0.62362580  1
  V  V36  1  0.12351588  0.75046465  0.37438212  1
  V  V37  1  0.13088466  0.62679496  0.50109730  1
  V  V38  1  0.62553723  0.37454754  0.24971759  1
  V  V39  1  0.88213471  0.88029734  0.00093290  1
  V  V40  1  0.75551839  0.62764074  0.38060346  1
  V  V41  1  0.50193181  0.25004946  0.76148330  1
  V  V42  1  -0.00069508  0.11809202  0.62069083  1
  V  V43  1  0.37506651  0.25139275  0.62601435  1
  V  V44  1  0.24660119  0.12916815  0.37265159  1
  V  V45  1  0.62226572  0.49332719  0.61744840  1
  V  V46  1  0.11829113  -0.00597620  0.11485575  1
  V  V47  1  0.37514632  0.36576615  -0.00221442  1
  V  V48  1  0.87965032  0.49600039  0.37503848  1
  V  V49  1  -0.00255354  0.12214275  0.11695900  1
  V  V50  1  0.63228418  0.75756014  0.37451318  1
  V  V51  1  0.49897059  0.37641748  0.37736514  1
  V  V52  1  0.38149398  0.37867955  0.50010334  1
  V  V53  1  0.50684015  0.75577723  0.24919779  1
  V  V54  1  0.25185514  0.37459569  0.62666227  1
  V  V55  1  0.12346137  0.87403397  0.24603454  1
  V  V56  1  0.87770879  0.74751859  0.12647255  1
  V  V57  1  0.75011448  0.75008352  -0.00111080  1
  V  V58  1  0.01374617  0.25373014  0.25442118  1
  V  V59  1  0.37129679  0.12554067  0.75126416  1
  V  V60  1  0.36012700  0.75948834  0.12826688  1
  V  V61  1  0.62591377  0.12700575  -0.00313707  1
  V  V62  1  0.12292374  0.49927496  0.10431190  1
  V  V63  1  0.62596922  0.50116577  0.12556285  1
  V  V64  1  0.87563576  0.12833366  0.24919166  1
  V  V65  1  0.49924910  0.62115743  0.61436093  1
  V  V66  1  0.23855606  0.49657000  0.25173030  1
  V  V67  1  0.74783332  -0.00413346  0.25225994  1
  V  V68  1  0.14344011  0.74220060  0.88379554  1
  V  V69  1  0.73842677  0.86770159  0.61745878  1
  V  V70  1  0.50036469  0.12370307  0.12752734  1
  V  V71  1  0.50214289  0.62666932  0.12648851  1
  V  V72  1  0.75335503  0.49937367  0.25104990  1
  V  V73  1  0.00233288  0.49588640  0.50318982  1
  V  V74  1  0.75395556  0.37460418  0.12242153  1
  V  V75  1  0.37427653  0.76753116  0.61690803  1
  V  V76  1  0.12745718  0.50072585  0.63013122  1
  V  V77  1  0.49581288  0.24793163  0.25091693  1
  V  V78  1  0.25654019  0.50425236  0.75465035  1
  V  V79  1  -0.00366941  0.75694095  0.75540360  1
  V  V80  1  0.24753699  0.12538050  0.88368109  1
  V  V81  1  0.25041105  0.76850783  0.50302523  1
  V  V82  1  0.24905112  -0.00541865  0.24790476  1
  V  V83  1  0.37988304  0.49850139  0.37629554  1
  V  V84  1  0.36358906  0.53782740  0.90320196  1
  Zn  Zn85  1  0.88030968  0.62258046  0.24847965  1
  Zn  Zn86  1  0.50332515  -0.01182509  0.51073445  1
  Zn  Zn87  1  0.00647686  0.87916842  0.87906250  1
  Zn  Zn88  1  0.36477941  0.86261123  -0.00752044  1
  Zn  Zn89  1  0.37074876  -0.00573221  0.87458773  1
  Zn  Zn90  1  0.50200385  0.49483279  0.00198008  1
  Zn  Zn91  1  0.62810065  0.75467087  0.86643570  1
  Zn  Zn92  1  0.37520837  0.12005882  0.25138646  1
  Zn  Zn93  1  0.87793538  0.86195126  0.50604756  1
  Zn  Zn94  1  0.86735672  0.74803522  0.62659989  1
  Zn  Zn95  1  0.12273348  -0.00755395  0.61820118  1
  Zn  Zn96  1  0.11940004  0.12024629  -0.00257882  1
  Zn  Zn97  1  0.25279048  0.62680131  0.37640019  1
  Zn  Zn98  1  0.00060335  0.24926520  0.75336740  1
  Zn  Zn99  1  0.00108970  0.74737190  0.24921482  1
  Zn  Zn100  1  0.01623462  0.37358244  0.37274453  1
  Zn  Zn101  1  0.49501315  0.38179554  0.87588153  1
  Zn  Zn102  1  0.87768137  0.25251225  0.12344034  1
  Zn  Zn103  1  0.00179718  0.88058262  0.38065345  1
  Zn  Zn104  1  0.87414606  0.37840095  0.50603768  1
  Zn  Zn105  1  0.50580576  0.75487857  0.73864318  1
  Zn  Zn106  1  0.62745268  0.12150380  0.50694797  1
  Zn  Zn107  1  0.18871361  0.17676766  0.18029838  1
  Zn  Zn108  1  0.18580264  0.18670002  0.68637377  1
  Zn  Zn109  1  0.18466060  0.68036448  0.18792323  1
  Zn  Zn110  1  0.19034696  0.69259798  0.68998795  1
  Zn  Zn111  1  0.68712701  0.18691360  0.18652212  1
  Zn  Zn112  1  0.68784687  0.19194086  0.69030037  1
  Zn  Zn113  1  0.69121970  0.68600076  0.19073505  1
  Zn  Zn114  1  0.68468424  0.68541296  0.68940844  1
  Zn  Zn115  1  0.19290129  0.31291230  0.30917910  1
  Zn  Zn116  1  0.30621168  0.30764536  0.81459159  1
  Zn  Zn117  1  0.31069452  0.81250650  0.31239915  1
  Zn  Zn118  1  0.31686197  0.81418754  0.80627128  1
  Zn  Zn119  1  0.81766963  0.31360964  0.31442961  1
  Zn  Zn120  1  0.80759195  0.31239921  0.81057757  1
  Zn  Zn121  1  0.81323802  0.81470641  0.31201801  1
  Zn  Zn122  1  0.81270576  0.81181095  0.81020666  1
  Zn  Zn123  1  0.19154446  0.44154343  0.43947702  1
  Zn  Zn124  1  0.19654968  0.43144617  0.93817544  1
  Zn  Zn125  1  0.18387599  0.94063918  0.43293646  1
  Zn  Zn126  1  0.19000045  0.92941018  0.92853569  1
  Zn  Zn127  1  0.68889713  0.43891113  0.43900421  1
  Zn  Zn128  1  0.68887226  0.44032950  0.93393464  1
  Zn  Zn129  1  0.68512868  0.94042393  0.44426178  1
  Zn  Zn130  1  0.68978641  0.94005176  0.93705640  1
  Zn  Zn131  1  0.29264048  0.02246912  0.04627713  1
  Zn  Zn132  1  0.31377280  0.06466973  0.56120577  1
  Zn  Zn133  1  0.31620944  0.55828306  0.07149342  1
  Zn  Zn134  1  0.31257487  0.56189466  0.56192491  1
  Zn  Zn135  1  0.81274321  0.06237562  0.06265631  1
  Zn  Zn136  1  0.80747214  0.06433179  0.56612736  1
  Zn  Zn137  1  0.81572605  0.56143453  0.05817163  1
  Zn  Zn138  1  0.81420017  0.56489982  0.56727740  1
  Zn  Zn139  1  0.43499373  0.43449960  0.18755689  1
  Zn  Zn140  1  0.44122451  0.43975405  0.68809288  1
  Zn  Zn141  1  0.43881348  0.93625467  0.19496693  1
  Zn  Zn142  1  0.43912660  0.94130357  0.69207562  1
  Zn  Zn143  1  0.94107301  0.43633548  0.18347532  1
  Zn  Zn144  1  0.94501079  0.44179997  0.70266942  1
  Zn  Zn145  1  0.93808677  0.93655596  0.19412928  1
  Zn  Zn146  1  0.93250249  0.93651212  0.68490301  1
  Zn  Zn147  1  0.06334245  0.06617333  0.30897532  1
  Zn  Zn148  1  0.06316553  0.06314056  0.80885062  1
  Zn  Zn149  1  0.05981518  0.56695866  0.31150777  1
  Zn  Zn150  1  0.06912895  0.56677859  0.81598555  1
  Zn  Zn151  1  0.56493511  0.05871444  0.32010988  1
  Zn  Zn152  1  0.56000446  0.06227154  0.81480253  1
  Zn  Zn153  1  0.56363488  0.56388011  0.31290346  1
  Zn  Zn154  1  0.55375603  0.56531646  0.81181684  1
  Zn  Zn155  1  0.43090756  0.18885780  0.43748743  1
  Zn  Zn156  1  0.43538480  0.18251209  0.93974983  1
  Zn  Zn157  1  0.43880097  0.68982507  0.43880400  1
  Zn  Zn158  1  0.43070723  0.68992375  0.94338951  1
  Zn  Zn159  1  0.93664471  0.18995357  0.43773198  1
  Zn  Zn160  1  0.93423544  0.19450444  0.93625199  1
  Zn  Zn161  1  0.93844692  0.68863269  0.44147059  1
  Zn  Zn162  1  0.93998721  0.69110259  0.93679081  1
  Zn  Zn163  1  0.06046776  0.31305630  0.06593158  1
  Zn  Zn164  1  0.06235177  0.30964275  0.56745082  1
  Zn  Zn165  1  0.06440562  0.80894525  0.06028867  1
  Zn  Zn166  1  0.05622228  0.81693260  0.55867358  1
  Zn  Zn167  1  0.56347634  0.31083182  0.06123985  1
  Zn  Zn168  1  0.56253005  0.30834238  0.56788861  1
  Zn  Zn169  1  0.55939490  0.81274763  0.05897325  1
  Zn  Zn170  1  0.56774112  0.80720760  0.55980482  1
  O  O171  1  0.11430447  0.11511262  0.11924753  1
  O  O172  1  0.11579560  0.12487345  0.61661467  1
  O  O173  1  0.12089951  0.60957143  0.12300487  1
  O  O174  1  0.11932333  0.62258701  0.62097204  1
  O  O175  1  0.62293014  0.11519756  0.11640465  1
  O  O176  1  0.60904134  0.13093354  0.62755555  1
  O  O177  1  0.62359986  0.62001752  0.11869286  1
  O  O178  1  0.61818274  0.61987672  0.61355072  1
  O  O179  1  0.38332791  0.38353796  0.38409848  1
  O  O180  1  0.37274276  0.35959110  0.89293612  1
  O  O181  1  0.38326503  0.88154895  0.37146711  1
  O  O182  1  0.38674053  0.87670003  0.87588542  1
  O  O183  1  0.88025863  0.38706199  0.38016569  1
  O  O184  1  0.87411975  0.36913303  0.88345190  1
  O  O185  1  0.87139056  0.89197809  0.37540286  1
  O  O186  1  0.87334104  0.88396377  0.88295934  1
  O  O187  1  0.25614741  0.00609460  0.36797051  1
  O  O188  1  0.24891561  0.01171092  0.85866511  1
  O  O189  1  0.26346902  0.50204679  0.36727224  1
  O  O190  1  0.26701920  0.49413516  0.86756499  1
  O  O191  1  0.75575346  0.00853216  0.36829538  1
  O  O192  1  0.75712755  0.00894453  0.86708772  1
  O  O193  1  0.75989988  0.50388453  0.37086608  1
  O  O194  1  0.74516585  0.51356022  0.86376044  1
  O  O195  1  0.24033310  0.49504124  0.13067128  1
  O  O196  1  0.24576691  0.49380359  0.63269221  1
  O  O197  1  0.23299837  1.01018492  0.14286294  1
  O  O198  1  0.24747432  1.00932273  0.63604482  1
  O  O199  1  0.74578309  0.49421459  0.13050955  1
  O  O200  1  0.73066877  0.50817116  0.62858918  1
  O  O201  1  0.74332796  0.99700435  0.13229884  1
  O  O202  1  0.74923379  0.99543425  0.63816625  1
  O  O203  1  -0.00422205  0.35644993  0.24848364  1
  O  O204  1  0.01974834  0.36879846  0.74793661  1
  O  O205  1  0.00736299  0.86947817  0.25938227  1
  O  O206  1  0.00549838  0.86980902  0.75123127  1
  O  O207  1  0.50602834  0.36709039  0.25465853  1
  O  O208  1  0.50184101  0.36669734  0.75486098  1
  O  O209  1  0.50124874  0.86161874  0.26016082  1
  O  O210  1  0.49937388  0.87535844  0.76444842  1
  O  O211  1  0.50278994  0.13168847  0.24675226  1
  O  O212  1  0.49267081  0.12980404  0.74481834  1
  O  O213  1  0.49428674  0.63324853  0.24693269  1
  O  O214  1  0.49427473  0.62489682  0.72982414  1
  O  O215  1  0.99339640  0.13499587  0.24395276  1
  O  O216  1  0.98985383  0.12711809  0.74282132  1
  O  O217  1  0.99838912  0.62748329  0.23601427  1
  O  O218  1  1.00446599  0.64213441  0.74102830  1
  O  O219  1  0.38159148  0.24961131  0.01671523  1
  O  O220  1  0.36358562  0.25775680  0.50524715  1
  O  O221  1  0.37859491  0.75244233  0.02452244  1
  O  O222  1  0.36495551  0.74703105  0.50881321  1
  O  O223  1  0.86145267  0.25776992  0.00231610  1
  O  O224  1  0.86889336  0.25359505  0.50903637  1
  O  O225  1  0.86896726  0.75644848  0.00990514  1
  O  O226  1  0.87620446  0.74462650  0.51172255  1
  O  O227  1  0.13815629  0.24327800  0.50677988  1
  O  O228  1  0.12231767  0.24758637  0.98940295  1
  O  O229  1  0.13186993  0.74438649  0.49599068  1
  O  O230  1  0.12929634  0.75884917  0.98308302  1
  O  O231  1  0.63193681  0.24679740  0.49546606  1
  O  O232  1  0.63786205  0.24125106  1.00496901  1
  O  O233  1  0.62460667  0.73366679  0.48828582  1
  O  O234  1  0.63185548  0.73917504  1.00020970  1
  O  O235  1  0.49875730  0.24349434  0.13305219  1
  O  O236  1  0.49232472  0.24175968  0.63710574  1
  O  O237  1  0.50003377  0.74438583  0.13479594  1
  O  O238  1  0.48799975  0.74288044  0.61693546  1
  O  O239  1  0.99851470  0.24155272  0.13667451  1
  O  O240  1  0.99165405  0.23896835  0.62893638  1
  O  O241  1  0.99357323  0.74171151  0.12463538  1
  O  O242  1  1.00322336  0.74206350  0.63245375  1
  O  O243  1  -0.00342785  0.25018858  0.35860534  1
  O  O244  1  0.01685200  0.24310539  0.87148963  1
  O  O245  1  0.01520591  0.74406478  0.37332620  1
  O  O246  1  0.00564648  0.75481034  0.86603535  1
  O  O247  1  0.50351543  0.25361084  0.36863985  1
  O  O248  1  0.49736324  0.24608051  0.86354442  1
  O  O249  1  0.50714520  0.75407555  0.36855553  1
  O  O250  1  0.49951501  0.76500057  0.88159472  1
  O  O251  1  0.24549817  0.13427013  0.49344195  1
  O  O252  1  0.24712954  0.11462156  0.98614788  1
  O  O253  1  0.23907609  0.62863327  0.50059451  1
  O  O254  1  0.32805798  0.61022642  0.97092818  1
  O  O255  1  0.74882058  0.13532347  0.49225479  1
  O  O256  1  0.74566295  0.13078170  0.99355079  1
  O  O257  1  0.74495237  0.61766462  0.48671038  1
  O  O258  1  0.74466754  0.62894709  0.99166685  1
  O  O259  1  0.26043699  0.37372697  0.01565989  1
  O  O260  1  0.25962943  0.36960810  0.50604195  1
  O  O261  1  0.26859730  0.91704954  0.00443142  1
  O  O262  1  0.24368318  0.86755570  0.49918099  1
  O  O263  1  0.75059438  0.36823654  0.00376431  1
  O  O264  1  0.75252338  0.36258786  0.49765093  1
  O  O265  1  0.75756611  0.86952530  0.00584589  1
  O  O266  1  0.75422821  0.88104195  0.51446675  1
  O  O267  1  0.13744634  0.50484793  0.24959011  1
  O  O268  1  0.13759764  0.49333290  0.75084819  1
  O  O269  1  0.12883917  0.99092758  0.24783021  1
  O  O270  1  0.13116405  0.99252994  0.74602238  1
  O  O271  1  0.63241066  0.49354743  0.24651004  1
  O  O272  1  0.62728856  0.49738315  0.74190272  1
  O  O273  1  0.63541123  1.00648389  0.24146089  1
  O  O274  1  0.63931846  1.00435272  0.75509165  1
  O  O275  1  0.36462373  -0.00035968  0.25797788  1
  O  O276  1  0.36814963  0.01002824  0.75218421  1
  O  O277  1  0.36819612  0.50633896  0.25391773  1
  O  O278  1  0.36859134  0.50930684  0.74765150  1
  O  O279  1  0.86684000  0.01172625  0.25669342  1
  O  O280  1  0.86566065  0.01069091  0.75603539  1
  O  O281  1  0.87251444  0.49798091  0.25825915  1
  O  O282  1  0.84839017  0.49860626  0.72798891  1
  O  O283  1  0.12940891  0.37596992  0.37558647  1
  O  O284  1  0.13437912  0.36097308  0.87128714  1
  O  O285  1  0.12332399  0.86740276  0.36625500  1
  O  O286  1  0.12313550  0.86814126  0.86168982  1
  O  O287  1  0.61907673  0.37076609  0.37121354  1
  O  O288  1  0.61519514  0.38734040  0.86113604  1
  O  O289  1  0.62346609  0.86097640  0.37821326  1
  O  O290  1  0.61010212  0.87385567  0.88637440  1
  O  O291  1  0.38436736  0.13061503  0.13099556  1
  O  O292  1  0.37991061  0.13165274  0.63575300  1
  O  O293  1  0.38128949  0.63107690  0.13920436  1
  O  O294  1  0.38258148  0.62758794  0.62554782  1
  O  O295  1  0.87940490  0.12581190  0.13331459  1
  O  O296  1  0.87952679  0.13063163  0.63152657  1
  O  O297  1  0.87935185  0.63209966  0.12551576  1
  O  O298  1  0.88987096  0.62055477  0.64021209  1
  O  O299  1  0.25964366  0.25482469  0.13339071  1
  O  O300  1  0.25666636  0.25551764  0.61939440  1
  O  O301  1  0.26166394  0.74637923  0.13325868  1
  O  O302  1  0.26487808  0.74871518  0.61698407  1
  O  O303  1  0.75100949  0.25831194  0.11769918  1
  O  O304  1  0.76036527  0.24358190  0.61692452  1
  O  O305  1  0.75666275  0.75408856  0.12061957  1
  O  O306  1  0.74786769  0.76437595  0.63282346  1
  O  O307  1  0.25254282  0.24161667  0.38237118  1
  O  O308  1  0.23523128  0.23703116  0.87235240  1
  O  O309  1  0.24098270  0.74815955  0.38380682  1
  O  O310  1  0.24286089  0.75384783  0.87004137  1
  O  O311  1  0.74788203  0.24453402  0.38112341  1
  O  O312  1  0.75074745  0.23552060  0.88068653  1
  O  O313  1  0.74447026  0.73968631  0.36695147  1
  O  O314  1  0.74921381  0.74019984  0.88013502  1
  O  O315  1  -0.00604325  0.12974175  0.01380585  1
  O  O316  1  0.01030760  0.13340444  0.50556368  1
  O  O317  1  -0.00729371  0.62433983  0.01237793  1
  O  O318  1  0.01199529  0.61567240  0.50739012  1
  O  O319  1  0.51175948  0.12254290  0.00654949  1
  O  O320  1  0.49538544  0.13430550  0.51898116  1
  O  O321  1  0.50891410  0.62457087  0.00829077  1
  O  O322  1  0.50750928  0.62459677  0.50583823  1
  O  O323  1  0.48784788  0.36592728  0.49739664  1
  O  O324  1  0.49348046  0.37367792  0.99720235  1
  O  O325  1  0.50356586  0.87135931  0.48586456  1
  O  O326  1  0.49214667  0.88368463  0.99536724  1
  O  O327  1  1.00297316  0.38759631  0.50244711  1
  O  O328  1  0.98289522  0.36885404  1.00319207  1
  O  O329  1  0.99214340  0.87777064  0.49322946  1
  O  O330  1  0.98536375  0.87160963  0.99917973  1
  O  O331  1  0.48807648  0.49441323  0.36726462  1
  O  O332  1  0.47432289  0.50619537  0.88181087  1
  O  O333  1  0.48819949  0.98845540  0.36718062  1
  O  O334  1  0.50028138  0.98981368  0.88233408  1
  O  O335  1  0.99572328  0.49947683  0.38421413  1
  O  O336  1  0.96693828  0.51901717  0.80397060  1
  O  O337  1  0.98220840  1.00679890  0.36861647  1
  O  O338  1  0.98557263  1.00048314  0.87024500  1
  O  O339  1  0.00686400  0.00994289  0.13590812  1
  O  O340  1  -0.00087668  0.01435766  0.62925947  1
  O  O341  1  0.01673336  0.50246394  0.12612474  1
  O  O342  1  0.00907331  0.50814279  0.62150589  1
  O  O343  1  0.50717272  0.00237899  0.12228245  1
  O  O344  1  0.49332487  0.01752246  0.62562764  1
  O  O345  1  0.50801026  0.50725945  0.12789348  1
  O  O346  1  0.51047039  0.50761687  0.62362602  1
  O  O347  1  0.25305274  0.38351094  0.23632935  1
  O  O348  1  0.24616321  0.38275121  0.74601574  1
  O  O349  1  0.23905249  0.88434842  0.25588743  1
  O  O350  1  0.24360983  0.88609124  0.75046427  1
  O  O351  1  0.74657683  0.37857657  0.24278962  1
  O  O352  1  0.73666135  0.38319066  0.75402298  1
  O  O353  1  0.75431349  0.88898706  0.24307980  1
  O  O354  1  0.75022417  0.88750336  0.74612493  1
  O  O355  1  0.24999981  0.11768888  0.25931613  1
  O  O356  1  0.25676141  0.12244739  0.75467616  1
  O  O357  1  0.25932724  0.61591389  0.25297942  1
  O  O358  1  0.25903606  0.61302840  0.74108560  1
  O  O359  1  0.75700736  0.11992651  0.25566819  1
  O  O360  1  0.75399162  0.11908273  0.75576477  1
  O  O361  1  0.75420480  0.61518550  0.26130626  1
  O  O362  1  0.75662803  0.61723237  0.75616276  1
  O  O363  1  0.36406294  0.11809162  0.37307465  1
  O  O364  1  0.36621883  0.12654360  0.86473005  1
  O  O365  1  0.37685238  0.62001774  0.36608235  1
  O  O366  1  0.39119731  0.63554083  0.84577662  1
  O  O367  1  0.86503814  0.12077804  0.36961189  1
  O  O368  1  0.86787446  0.12077234  0.86861088  1
  O  O369  1  0.87142067  0.61391246  0.37385231  1
  O  O370  1  0.86740911  0.62985346  0.86645972  1
  O  O371  1  0.13276752  0.38701043  0.11993846  1
  O  O372  1  0.13300917  0.37964342  0.63354152  1
  O  O373  1  0.11602783  0.87953166  0.13730207  1
  O  O374  1  0.12092230  0.87439174  0.63756774  1
  O  O375  1  0.63570395  0.38008636  0.12805651  1
  O  O376  1  0.61576760  0.38527546  0.63619890  1
  O  O377  1  0.63022981  0.88715058  0.11851011  1
  O  O378  1  0.63730133  0.87607792  0.61961130  1
  O  O379  1  0.11719668  0.24478947  0.24720700  1
  O  O380  1  0.12766992  0.25716695  0.75880392  1
  O  O381  1  0.12787779  0.75551688  0.25772112  1
  O  O382  1  0.11994830  0.75742002  0.75572203  1
  O  O383  1  0.61782283  0.25607298  0.25450681  1
  O  O384  1  0.61576311  0.26141297  0.74674776  1
  O  O385  1  0.61671708  0.74125742  0.26032046  1
  O  O386  1  0.61573289  0.74142015  0.75519189  1
  O  O387  1  0.39104517  0.24860928  0.24032861  1
  O  O388  1  0.37957600  0.24427315  0.74598864  1
  O  O389  1  0.38195864  0.74200402  0.24592328  1
  O  O390  1  0.37922849  0.74659635  0.73059893  1
  O  O391  1  0.87732343  0.23810751  0.24829806  1
  O  O392  1  0.87253187  0.23905613  0.74498698  1
  O  O393  1  0.87492738  0.75025053  0.23641318  1
  O  O394  1  0.88799804  0.74558026  0.74922919  1
  O  O395  1  0.37006893  0.49087605  0.49009114  1
  O  O396  1  0.37968439  0.47972952  1.00543301  1
  O  O397  1  0.38041120  1.00446311  0.48770047  1
  O  O398  1  0.39594184  1.01783723  0.99508205  1
  O  O399  1  0.88554786  0.50004104  0.49737230  1
  O  O400  1  0.86875080  0.48285745  0.99707985  1
  O  O401  1  0.86936191  1.00775793  0.48541774  1
  O  O402  1  0.86661650  0.99174363  0.99024292  1
  O  O403  1  0.12076339  -0.00460888  0.01249286  1
  O  O404  1  0.13092053  0.01567662  0.50194538  1
  O  O405  1  0.13121037  0.49967717  0.00574929  1
  O  O406  1  0.12265090  0.50850098  0.50882571  1
  O  O407  1  0.61827719  0.00717906  0.00764228  1
  O  O408  1  0.61018112  0.01341404  0.48009828  1
  O  O409  1  0.62494926  0.51037940  0.00577413  1
  O  O410  1  0.62580764  0.50905644  0.50444990  1
  O  O411  1  0.36976981  0.36422668  0.11961058  1
  O  O412  1  0.37218463  0.37216025  0.61926560  1
  O  O413  1  0.37579884  0.86057616  0.13519180  1
  O  O414  1  0.38284835  0.86586586  0.62261052  1
  O  O415  1  0.86253976  0.37484546  0.12079635  1
  O  O416  1  0.88492976  0.36182926  0.62986684  1
  O  O417  1  0.87045731  0.87030143  0.12001894  1
  O  O418  1  0.85962886  0.87341800  0.62696284  1
  O  O419  1  0.13667340  0.12115144  0.38160483  1
  O  O420  1  0.12946180  0.13190405  0.87735669  1
  O  O421  1  0.12864548  0.63069721  0.38447901  1
  O  O422  1  0.12809466  0.64175068  0.87288536  1
  O  O423  1  0.63840532  0.13488262  0.36978036  1
  O  O424  1  0.63195512  0.11902118  0.88843578  1
  O  O425  1  0.63417162  0.62820618  0.37970421  1
  O  O426  1  0.62922531  0.62354817  0.88392831  1
