# generated using pymatgen
data_V85Zn86O256
_symmetry_space_group_name_H-M   'P 1'
_cell_length_a   16.94679167
_cell_length_b   16.95201874
_cell_length_c   16.93779008
_cell_angle_alpha   90.06928343
_cell_angle_beta   90.01517309
_cell_angle_gamma   90.02553222
_symmetry_Int_Tables_number   1
_chemical_formula_structural   V85Zn86O256
_chemical_formula_sum   'V85 Zn86 O256'
_cell_volume   4865.92358937
_cell_formula_units_Z   1
loop_
 _symmetry_equiv_pos_site_id
 _symmetry_equiv_pos_as_xyz
  1  'x, y, z'
loop_
 _atom_site_type_symbol
 _atom_site_label
 _atom_site_symmetry_multiplicity
 _atom_site_fract_x
 _atom_site_fract_y
 _atom_site_fract_z
 _atom_site_occupancy
  V  V0  1  0.87692585  0.00371789  0.37373444  1
  V  V1  1  0.62088818  0.61381658  0.49288194  1
  V  V2  1  0.38096420  0.48069698  0.37956823  1
  V  V3  1  0.87466971  0.87288701  0.50121946  1
  V  V4  1  0.24777341  0.74919475  0.00035584  1
  V  V5  1  0.49599188  0.12248225  0.62010898  1
  V  V6  1  0.00845619  0.87158040  0.87538096  1
  V  V7  1  0.62303577  0.11855465  0.49911940  1
  V  V8  1  0.88106374  0.75085106  0.13558463  1
  V  V9  1  0.25251785  0.62192539  0.37527726  1
  V  V10  1  0.37842722  -0.00004176  0.87552067  1
  V  V11  1  0.37397961  0.24951637  0.12461817  1
  V  V12  1  -0.00122776  0.37264204  0.86759935  1
  V  V13  1  0.24967343  0.13443520  0.37825645  1
  V  V14  1  0.74760222  0.12739868  0.87476507  1
  V  V15  1  0.85993378  0.50153295  0.37174892  1
  V  V16  1  0.61934463  0.37831897  0.75536594  1
  V  V17  1  -0.00022408  0.87012549  0.37045415  1
  V  V18  1  0.24362661  0.49632012  0.24656719  1
  V  V19  1  0.12740464  0.13035243  0.50174265  1
  V  V20  1  0.74395508  0.50212051  0.74478525  1
  V  V21  1  0.62509541  0.87275891  0.25316036  1
  V  V22  1  0.75279719  0.00198484  0.25095441  1
  V  V23  1  0.13388305  0.37836675  0.75192948  1
  V  V24  1  0.00176202  0.62098970  0.62415338  1
  V  V25  1  0.37148586  0.49394662  0.86768402  1
  V  V26  1  0.00220676  0.49278404  0.49214545  1
  V  V27  1  0.10659601  0.25400942  0.37360827  1
  V  V28  1  0.37187296  0.12896407  0.74562175  1
  V  V29  1  -0.00879560  0.12963409  0.13699858  1
  V  V30  1  0.12522440  0.00106866  0.12593992  1
  V  V31  1  0.75271272  0.12524364  0.37912101  1
  V  V32  1  0.74821086  0.74999345  0.00084291  1
  V  V33  1  0.62601604  0.75515849  0.86588524  1
  V  V34  1  0.11144023  0.37112959  0.24885720  1
  V  V35  1  0.49806796  -0.01419516  -0.00545528  1
  V  V36  1  0.75053822  0.37731534  0.62620375  1
  V  V37  1  0.24912149  0.62305234  0.86637484  1
  V  V38  1  0.24345966  0.37671302  0.12310891  1
  V  V39  1  0.37898254  0.00058008  0.37999811  1
  V  V40  1  0.37607702  0.62073798  0.25118291  1
  V  V41  1  0.87412148  0.62427132  0.75033453  1
  V  V42  1  0.24988906  -0.00029840  0.25163637  1
  V  V43  1  0.49972893  0.12012570  0.12143259  1
  V  V44  1  0.00411012  0.50038385  0.00504815  1
  V  V45  1  0.45064538  0.81451303  0.81603097  1
  V  V46  1  0.00140101  0.12952556  0.63423010  1
  V  V47  1  0.74949223  0.62617629  0.87655800  1
  V  V48  1  0.62290377  0.00002632  0.12399933  1
  V  V49  1  0.00628176  0.74903426  0.75364068  1
  V  V50  1  0.62534271  -0.00046260  0.62779450  1
  V  V51  1  0.38166295  0.87475220  0.50214376  1
  V  V52  1  0.49500083  0.25562183  0.76059764  1
  V  V53  1  0.49848904  0.63153669  0.62971337  1
  V  V54  1  0.11925794  0.24744594  0.86913474  1
  V  V55  1  0.25235229  0.87465660  0.12267790  1
  V  V56  1  0.87161216  0.74880542  0.62499350  1
  V  V57  1  0.37506097  0.12375240  0.24932409  1
  V  V58  1  0.50382629  0.49262236  -0.00851419  1
  V  V59  1  0.12727289  0.62314476  -0.00361214  1
  V  V60  1  0.62586680  0.26029316  0.37011406  1
  V  V61  1  0.74193524  0.74253490  0.48622676  1
  V  V62  1  0.12342580  -0.00275815  0.62420560  1
  V  V63  1  0.12364365  0.74731211  0.37137040  1
  V  V64  1  0.74812203  0.38546928  0.13990433  1
  V  V65  1  0.00628089  0.63091578  0.13211210  1
  V  V66  1  0.50314951  0.74802812  0.25536320  1
  V  V67  1  -0.00032624  0.00077342  0.00026018  1
  V  V68  1  0.87192863  0.37779514  0.00107049  1
  V  V69  1  0.87500420  0.50062148  0.87650109  1
  V  V70  1  0.24782439  0.36078814  0.61194719  1
  V  V71  1  0.42182314  0.30823343  0.56970095  1
  V  V72  1  0.12132370  0.12549101  0.00027795  1
  V  V73  1  0.74135996  0.25624992  0.00335461  1
  V  V74  1  0.87671376  0.87525075  -0.00258933  1
  V  V75  1  0.12419352  0.87217905  0.25111750  1
  V  V76  1  0.37552771  0.75132852  0.12243882  1
  V  V77  1  0.50648017  0.87835444  0.37684873  1
  V  V78  1  0.24822542  0.24930807  -0.00414639  1
  V  V79  1  0.25661015  0.74807505  0.49921770  1
  V  V80  1  0.25242333  0.87243874  0.62210344  1
  V  V81  1  0.87874804  0.25172348  0.63340936  1
  V  V82  1  0.75182228  0.87767785  0.12469462  1
  V  V83  1  0.62162069  0.50140723  0.14266547  1
  V  V84  1  0.13719241  0.50131473  0.62776728  1
  Zn  Zn85  1  0.37781331  0.63171920  0.74632732  1
  Zn  Zn86  1  0.12338322  0.87409152  0.74805825  1
  Zn  Zn87  1  -0.00113556  -0.00000406  0.50164368  1
  Zn  Zn88  1  0.24996288  -0.00162565  0.75043845  1
  Zn  Zn89  1  0.87143673  0.63116227  0.26657954  1
  Zn  Zn90  1  0.74744158  0.87389106  0.62784501  1
  Zn  Zn91  1  0.62565259  0.87721287  0.75240590  1
  Zn  Zn92  1  0.49843467  0.48895604  0.50277124  1
  Zn  Zn93  1  0.62082043  0.62601309  0.00076907  1
  Zn  Zn94  1  0.50156806  0.25838637  0.25812373  1
  Zn  Zn95  1  0.87400907  0.00234025  0.87235464  1
  Zn  Zn96  1  0.87865607  0.12788499  0.75609499  1
  Zn  Zn97  1  0.61663028  0.25546502  0.88288512  1
  Zn  Zn98  1  0.75153126  -0.00061203  0.75193186  1
  Zn  Zn99  1  0.62031807  0.12846338  -0.00051381  1
  Zn  Zn100  1  0.24763350  0.12074311  0.87220694  1
  Zn  Zn101  1  0.50008661  0.62351671  0.12431941  1
  Zn  Zn102  1  0.75368739  0.25055772  0.50268175  1
  Zn  Zn103  1  0.87873383  0.37189607  0.49854055  1
  Zn  Zn104  1  0.37849581  0.37220686  -0.00552313  1
  Zn  Zn105  1  0.88498667  0.26058227  0.13858148  1
  Zn  Zn106  1  0.12858640  0.62317570  0.49947408  1
  Zn  Zn107  1  0.18366529  0.18827843  0.18938844  1
  Zn  Zn108  1  0.18626834  0.18799260  0.69035105  1
  Zn  Zn109  1  0.18687000  0.68487046  0.18774813  1
  Zn  Zn110  1  0.18917650  0.68962541  0.68411153  1
  Zn  Zn111  1  0.73252327  0.21251448  0.21480880  1
  Zn  Zn112  1  0.68528550  0.19130304  0.69048859  1
  Zn  Zn113  1  0.68611224  0.68728533  0.19370098  1
  Zn  Zn114  1  0.68236562  0.68387084  0.68076755  1
  Zn  Zn115  1  0.30713505  0.30969012  0.30832611  1
  Zn  Zn116  1  0.30967516  0.31213150  0.80922230  1
  Zn  Zn117  1  0.31454500  0.81180846  0.31223268  1
  Zn  Zn118  1  0.28985465  0.81199284  0.81570553  1
  Zn  Zn119  1  0.82642577  0.31661729  0.31705545  1
  Zn  Zn120  1  0.81001437  0.31097955  0.81335689  1
  Zn  Zn121  1  0.81265420  0.81467044  0.31332640  1
  Zn  Zn122  1  0.81331596  0.81598999  0.81128166  1
  Zn  Zn123  1  0.18542653  0.43593065  0.43462811  1
  Zn  Zn124  1  0.18783828  0.43956495  0.93780298  1
  Zn  Zn125  1  0.18916246  0.93981041  0.43929045  1
  Zn  Zn126  1  0.18992133  0.93664526  0.93841719  1
  Zn  Zn127  1  0.69180346  0.43727039  0.43817312  1
  Zn  Zn128  1  0.68610444  0.43908935  0.93504923  1
  Zn  Zn129  1  0.68897140  0.93675340  0.44343002  1
  Zn  Zn130  1  0.68505928  0.93880493  0.93578434  1
  Zn  Zn131  1  0.31224953  0.06077305  0.05755984  1
  Zn  Zn132  1  0.31051476  0.06150347  0.56103716  1
  Zn  Zn133  1  0.31546722  0.55926674  0.06110419  1
  Zn  Zn134  1  0.32085129  0.56155380  0.56412129  1
  Zn  Zn135  1  0.81111796  0.06589349  0.05909493  1
  Zn  Zn136  1  0.81376296  0.06237106  0.56516030  1
  Zn  Zn137  1  0.79666972  0.58552857  0.10050806  1
  Zn  Zn138  1  0.81258451  0.56264473  0.55748086  1
  Zn  Zn139  1  0.43621475  0.43417540  0.18707673  1
  Zn  Zn140  1  0.44321473  0.44958455  0.68725064  1
  Zn  Zn141  1  0.43608912  0.93536912  0.18858117  1
  Zn  Zn142  1  0.43659988  0.94486813  0.68224400  1
  Zn  Zn143  1  0.93422711  0.44759144  0.18659730  1
  Zn  Zn144  1  0.93918901  0.43874433  0.68742577  1
  Zn  Zn145  1  0.93878579  0.94008886  0.18905075  1
  Zn  Zn146  1  0.93502528  0.94034639  0.69006471  1
  Zn  Zn147  1  0.06253374  0.06139620  0.31497681  1
  Zn  Zn148  1  0.06174643  0.05809837  0.81212458  1
  Zn  Zn149  1  0.06365585  0.56168113  0.31016038  1
  Zn  Zn150  1  0.06450001  0.56035187  0.81352834  1
  Zn  Zn151  1  0.56350342  0.06596168  0.30913650  1
  Zn  Zn152  1  0.56264060  0.06689787  0.81203606  1
  Zn  Zn153  1  0.55961554  0.56300261  0.32170243  1
  Zn  Zn154  1  0.56230449  0.56643589  0.81322541  1
  Zn  Zn155  1  0.44325683  0.18632041  0.43380525  1
  Zn  Zn156  1  0.43486639  0.18126740  0.93896604  1
  Zn  Zn157  1  0.44094315  0.68730977  0.43760245  1
  Zn  Zn158  1  0.43410045  0.67715475  0.94240241  1
  Zn  Zn159  1  0.93723696  0.18586577  0.44769431  1
  Zn  Zn160  1  0.93300680  0.19158766  0.94414775  1
  Zn  Zn161  1  0.94010908  0.68488743  0.44074898  1
  Zn  Zn162  1  0.93765210  0.68848794  0.94058483  1
  Zn  Zn163  1  0.06113192  0.31140872  0.06138747  1
  Zn  Zn164  1  0.06475410  0.31066276  0.56289408  1
  Zn  Zn165  1  0.06669273  0.81008211  0.06115154  1
  Zn  Zn166  1  0.06260876  0.80945357  0.55838902  1
  Zn  Zn167  1  0.55470819  0.32147835  0.09056590  1
  Zn  Zn168  1  0.58448868  0.30860313  0.56530704  1
  Zn  Zn169  1  0.56367627  0.81053482  0.06419904  1
  Zn  Zn170  1  0.56206173  0.81036297  0.56580637  1
  O  O171  1  0.11752883  0.12015846  0.11973282  1
  O  O172  1  0.12173758  0.12063323  0.61918471  1
  O  O173  1  0.11264266  0.62818832  0.11817462  1
  O  O174  1  0.11994562  0.61715124  0.62490556  1
  O  O175  1  0.60696506  0.11734689  0.12365570  1
  O  O176  1  0.61808420  0.12295943  0.61907676  1
  O  O177  1  0.62373686  0.61153631  0.12211936  1
  O  O178  1  0.61292238  0.62937777  0.60940986  1
  O  O179  1  0.37268675  0.38222821  0.36778704  1
  O  O180  1  0.36582294  0.38907258  0.87612627  1
  O  O181  1  0.38258487  0.88305260  0.37899952  1
  O  O182  1  0.38305026  0.87716748  0.86429963  1
  O  O183  1  0.87380506  0.39232706  0.38306150  1
  O  O184  1  0.88271799  0.37758489  0.88028060  1
  O  O185  1  0.88214973  0.88071300  0.38099798  1
  O  O186  1  0.88533033  0.87600278  0.88374179  1
  O  O187  1  0.25578259  0.00880530  0.37019498  1
  O  O188  1  0.25997718  -0.00183175  0.87173137  1
  O  O189  1  0.25830510  0.50254773  0.36693883  1
  O  O190  1  0.26275343  0.50878809  0.88200877  1
  O  O191  1  0.75791459  0.00156191  0.37123153  1
  O  O192  1  0.75135162  0.01373566  0.87915167  1
  O  O193  1  0.76097111  0.50650992  0.37915119  1
  O  O194  1  0.75619515  0.50770173  0.86747659  1
  O  O195  1  0.25487661  0.48872967  0.13319012  1
  O  O196  1  0.23984127  0.49426822  0.61978312  1
  O  O197  1  0.24530979  0.99482746  0.12889616  1
  O  O198  1  0.24209824  0.98823293  0.62319618  1
  O  O199  1  0.73512966  0.49156898  0.11516709  1
  O  O200  1  0.75980854  0.49464073  0.63781639  1
  O  O201  1  0.74692992  0.99781099  0.13254577  1
  O  O202  1  0.73741227  1.00133955  0.62603434  1
  O  O203  1  0.01279414  0.38013537  0.23613302  1
  O  O204  1  0.00821563  0.38010605  0.76327153  1
  O  O205  1  0.00638903  0.87918350  0.26303005  1
  O  O206  1  -0.00116534  0.86667358  0.75768965  1
  O  O207  1  0.50782711  0.35155090  0.19859885  1
  O  O208  1  0.50658814  0.36773112  0.74071816  1
  O  O209  1  0.50483615  0.86880341  0.25705039  1
  O  O210  1  0.50193778  0.87059906  0.74735674  1
  O  O211  1  0.49155180  0.12881436  0.24004618  1
  O  O212  1  0.49453069  0.13722879  0.73835670  1
  O  O213  1  0.49278482  0.63181365  0.25058388  1
  O  O214  1  0.50121753  0.62409349  0.73614183  1
  O  O215  1  1.00282314  0.11770318  0.23515976  1
  O  O216  1  1.00266622  0.12365023  0.73792657  1
  O  O217  1  0.99812609  0.62145830  0.23434258  1
  O  O218  1  0.99627328  0.62897760  0.74218467  1
  O  O219  1  0.36277045  0.25027207  0.00148057  1
  O  O220  1  0.37523664  0.25043084  0.50392663  1
  O  O221  1  0.36796043  0.74096076  0.01620718  1
  O  O222  1  0.36344986  0.75956085  0.49015725  1
  O  O223  1  0.86803110  0.26576867  0.00860197  1
  O  O224  1  0.87307333  0.25317667  0.51434037  1
  O  O225  1  0.87042998  0.76206371  0.00535338  1
  O  O226  1  0.86854489  0.75247964  0.50673843  1
  O  O227  1  0.12154930  0.24340488  0.48584607  1
  O  O228  1  0.12977495  0.24543724  0.99031129  1
  O  O229  1  0.13705954  0.74928946  0.48839193  1
  O  O230  1  0.13459410  0.73511449  1.00431887  1
  O  O231  1  0.63196588  0.23554642  0.49201280  1
  O  O232  1  0.62991714  0.25486425  1.00347326  1
  O  O233  1  0.64061511  0.75049205  0.50079704  1
  O  O234  1  0.63420135  0.74938754  0.99528435  1
  O  O235  1  0.48009505  0.23234697  0.10529130  1
  O  O236  1  0.49069070  0.24868576  0.62660335  1
  O  O237  1  0.49204742  0.74896836  0.13549223  1
  O  O238  1  0.49763467  0.73299906  0.61616624  1
  O  O239  1  0.99932317  0.23518412  0.12232132  1
  O  O240  1  0.99434957  0.24166569  0.62255086  1
  O  O241  1  0.99707382  0.74138594  0.12283776  1
  O  O242  1  0.99148947  0.74152359  0.62739350  1
  O  O243  1  0.00802763  0.24377091  0.37436805  1
  O  O244  1  0.00754613  0.26156949  0.88509559  1
  O  O245  1  0.01043599  0.75731187  0.38086802  1
  O  O246  1  -0.00540450  0.75702671  0.86527788  1
  O  O247  1  0.51910837  0.24474201  0.37265944  1
  O  O248  1  0.49595608  0.24731447  0.86421409  1
  O  O249  1  0.49155704  0.76133615  0.36170869  1
  O  O250  1  0.50535802  0.75157668  0.87999669  1
  O  O251  1  0.23678715  0.11987142  0.49279023  1
  O  O252  1  0.24074064  0.13422185  0.99824924  1
  O  O253  1  0.25134566  0.63267288  0.49536411  1
  O  O254  1  0.24422345  0.62777057  0.99646855  1
  O  O255  1  0.74416941  0.12236199  0.49128836  1
  O  O256  1  0.74616915  0.13801660  0.99613602  1
  O  O257  1  0.73711300  0.63447600  0.50615076  1
  O  O258  1  0.75243553  0.64041497  0.99990637  1
  O  O259  1  0.24598115  0.36372853  0.00555830  1
  O  O260  1  0.24350220  0.37434363  0.51320013  1
  O  O261  1  0.24279405  0.86180251  0.00916072  1
  O  O262  1  0.25920192  0.86902907  0.50219804  1
  O  O263  1  0.75800624  0.37264728  -0.00225914  1
  O  O264  1  0.75317021  0.37518388  0.51388600  1
  O  O265  1  0.75829191  0.86873021  0.00224089  1
  O  O266  1  0.76035784  0.86259764  0.50190175  1
  O  O267  1  0.13695859  0.48967741  0.25604535  1
  O  O268  1  0.12101145  0.49051106  0.74038795  1
  O  O269  1  0.13133735  0.99385691  0.24620714  1
  O  O270  1  0.12662993  0.99782400  0.73594182  1
  O  O271  1  0.61832653  0.50358746  0.24123790  1
  O  O272  1  0.63481716  0.49484688  0.75553084  1
  O  O273  1  0.63063001  0.99250045  0.24385334  1
  O  O274  1  0.62728040  1.00095190  0.74215452  1
  O  O275  1  0.36901715  0.00403061  0.25951032  1
  O  O276  1  0.37655333  0.00997715  0.75844110  1
  O  O277  1  0.36947650  0.50278880  0.25604603  1
  O  O278  1  0.37738836  0.50362785  0.76552151  1
  O  O279  1  0.86589250  -0.00687414  0.26159498  1
  O  O280  1  0.87082632  0.00851258  0.75356642  1
  O  O281  1  0.88102142  0.50383887  0.26922610  1
  O  O282  1  0.87033983  0.50668291  0.75715589  1
  O  O283  1  0.12596321  0.36047942  0.36777640  1
  O  O284  1  0.12019371  0.37072637  0.86898457  1
  O  O285  1  0.11849469  0.86953201  0.37330925  1
  O  O286  1  0.11276894  0.87733441  0.87296514  1
  O  O287  1  0.63094620  0.35888280  0.38126389  1
  O  O288  1  0.62787880  0.37232745  0.86021910  1
  O  O289  1  0.61233617  0.88238075  0.37418949  1
  O  O290  1  0.62606397  0.86303827  0.87386934  1
  O  O291  1  0.37801263  0.12671189  0.12913161  1
  O  O292  1  0.38293494  0.11585611  0.63209206  1
  O  O293  1  0.37504514  0.62870366  0.13784776  1
  O  O294  1  0.38571555  0.62663742  0.62937058  1
  O  O295  1  0.88967478  0.12364337  0.12044790  1
  O  O296  1  0.88523403  0.13216355  0.62521314  1
  O  O297  1  0.89687469  0.64096500  0.10649976  1
  O  O298  1  0.88325158  0.62951873  0.62878441  1
  O  O299  1  0.25666674  0.25027442  0.11728303  1
  O  O300  1  0.24435182  0.26161551  0.62316894  1
  O  O301  1  0.25554330  0.75229082  0.11982121  1
  O  O302  1  0.24518109  0.76273065  0.61384507  1
  O  O303  1  0.74473549  0.27289125  0.11474816  1
  O  O304  1  0.75753514  0.25825287  0.62624872  1
  O  O305  1  0.75896783  0.76135708  0.11630524  1
  O  O306  1  0.76300890  0.74815732  0.61937928  1
  O  O307  1  0.24458632  0.23640796  0.37190866  1
  O  O308  1  0.24034824  0.24814730  0.88158388  1
  O  O309  1  0.24553782  0.74355556  0.37963905  1
  O  O310  1  0.25404750  0.73909519  0.89267385  1
  O  O311  1  0.74490625  0.23930429  0.38105433  1
  O  O312  1  0.74795564  0.24655463  0.88830714  1
  O  O313  1  0.75651202  0.74777567  0.38771817  1
  O  O314  1  0.74553954  0.74631430  0.88231698  1
  O  O315  1  0.00521546  0.11861168  0.00543363  1
  O  O316  1  0.01282420  0.12122687  0.50997060  1
  O  O317  1  0.01041845  0.61961169  0.00062312  1
  O  O318  1  0.00522843  0.61719697  0.51278642  1
  O  O319  1  0.49774824  0.11049561  0.00619647  1
  O  O320  1  0.50692499  0.12881591  0.51203603  1
  O  O321  1  0.50056583  0.61035638  0.00592137  1
  O  O322  1  0.50961951  0.62387531  0.50189120  1
  O  O323  1  0.49114859  0.36540253  0.51943748  1
  O  O324  1  0.49734914  0.38930299  1.00531350  1
  O  O325  1  0.48933951  0.86874149  0.49210615  1
  O  O326  1  0.49913442  0.88662640  1.00808319  1
  O  O327  1  0.99981522  0.39035521  0.50892302  1
  O  O328  1  0.99557762  0.38348502  0.99572521  1
  O  O329  1  0.98933471  0.87331695  0.49085223  1
  O  O330  1  0.99569178  0.87771885  0.99484523  1
  O  O331  1  0.48526328  0.49468306  0.37805976  1
  O  O332  1  0.48862702  0.50409350  0.88430189  1
  O  O333  1  0.48941189  0.99300744  0.36790028  1
  O  O334  1  0.49283885  1.00282753  0.88160811  1
  O  O335  1  1.00668880  0.50298264  0.39150114  1
  O  O336  1  0.99532864  0.49369254  0.88439615  1
  O  O337  1  0.99302992  0.99280392  0.37914779  1
  O  O338  1  0.99778323  0.99155759  0.88327529  1
  O  O339  1  0.00589712  0.00648858  0.11920742  1
  O  O340  1  0.00734687  0.00581734  0.62228417  1
  O  O341  1  -0.00579916  0.51504328  0.11157111  1
  O  O342  1  0.00832343  0.50674859  0.61968522  1
  O  O343  1  0.49938910  0.00365680  0.11955625  1
  O  O344  1  0.51240733  0.01182621  0.62747160  1
  O  O345  1  0.51220377  0.50081164  0.11700304  1
  O  O346  1  0.49434240  0.51656103  0.61419065  1
  O  O347  1  0.24190343  0.37927167  0.24146594  1
  O  O348  1  0.23816400  0.37291323  0.74066317  1
  O  O349  1  0.24428546  0.88008064  0.24551024  1
  O  O350  1  0.24338627  0.87618409  0.73748630  1
  O  O351  1  0.75234591  0.38312043  0.23760815  1
  O  O352  1  0.74539224  0.38404255  0.74738836  1
  O  O353  1  0.74484324  0.88338723  0.24759683  1
  O  O354  1  0.74725818  0.87902849  0.74579545  1
  O  O355  1  0.25454212  0.11917918  0.25711621  1
  O  O356  1  0.25829837  0.12127131  0.74967538  1
  O  O357  1  0.25553327  0.61432268  0.25261419  1
  O  O358  1  0.25269319  0.63655609  0.76308599  1
  O  O359  1  0.74315915  0.10725440  0.26580836  1
  O  O360  1  0.74893377  0.12990880  0.76603615  1
  O  O361  1  0.77591356  0.62751795  0.20801640  1
  O  O362  1  0.75369354  0.61892242  0.75264694  1
  O  O363  1  0.36894561  0.11914717  0.37234792  1
  O  O364  1  0.37138289  0.11612987  0.86554156  1
  O  O365  1  0.37085471  0.62059549  0.36334865  1
  O  O366  1  0.36670467  0.61486241  0.87238330  1
  O  O367  1  0.86875852  0.11160061  0.38562879  1
  O  O368  1  0.86501280  0.12675078  0.87839927  1
  O  O369  1  0.88289442  0.61000235  0.37915423  1
  O  O370  1  0.86932749  0.62199011  0.87052577  1
  O  O371  1  0.13658290  0.36344510  0.13192144  1
  O  O372  1  0.13298506  0.37919279  0.63150752  1
  O  O373  1  0.13026584  0.88002253  0.13167260  1
  O  O374  1  0.13013431  0.88205652  0.62026753  1
  O  O375  1  0.63990120  0.39275939  0.11931845  1
  O  O376  1  0.64193827  0.37300822  0.63857550  1
  O  O377  1  0.63372963  0.88040017  0.13078980  1
  O  O378  1  0.62507405  0.88599398  0.62489144  1
  O  O379  1  0.12663273  0.25560290  0.26404330  1
  O  O380  1  0.12566896  0.25730959  0.76306809  1
  O  O381  1  0.13202839  0.75526424  0.26333768  1
  O  O382  1  0.10954703  0.75184081  0.74243925  1
  O  O383  1  0.63285940  0.24271277  0.26792839  1
  O  O384  1  0.61152892  0.25878955  0.75139885  1
  O  O385  1  0.61494445  0.75735501  0.24602687  1
  O  O386  1  0.63029471  0.74955282  0.76240247  1
  O  O387  1  0.37475275  0.24199130  0.23975048  1
  O  O388  1  0.37881178  0.23887972  0.75208422  1
  O  O389  1  0.37895558  0.74076378  0.24255989  1
  O  O390  1  0.38432002  0.75562845  0.76573135  1
  O  O391  1  0.84235331  0.24017890  0.24060423  1
  O  O392  1  0.87312821  0.24787248  0.73903378  1
  O  O393  1  0.87826883  0.75490695  0.23880297  1
  O  O394  1  0.88302080  0.74379370  0.74205845  1
  O  O395  1  0.37240466  0.49752761  0.48184501  1
  O  O396  1  0.38553645  0.49738201  0.99189532  1
  O  O397  1  0.37003664  0.99131146  0.48706484  1
  O  O398  1  0.37985635  1.00071896  0.98423016  1
  O  O399  1  0.88831882  0.50072151  0.49436992  1
  O  O400  1  0.88267791  0.48948052  0.99280891  1
  O  O401  1  0.87460106  0.98819248  0.49434327  1
  O  O402  1  0.87961138  0.98776272  1.00161880  1
  O  O403  1  0.12063204  0.00536801  0.00617809  1
  O  O404  1  0.12370248  0.00681072  0.50967142  1
  O  O405  1  0.11692194  0.50938940  -0.00136606  1
  O  O406  1  0.11713029  0.50113675  0.50735990  1
  O  O407  1  0.61650237  0.00072001  0.00769495  1
  O  O408  1  0.62758620  0.01153317  0.50739692  1
  O  O409  1  0.61178629  0.50286908  -0.00499540  1
  O  O410  1  0.62140730  0.51005372  0.49470360  1
  O  O411  1  0.35935472  0.36363029  0.11956219  1
  O  O412  1  0.36285297  0.37402602  0.62793567  1
  O  O413  1  0.36446695  0.86330842  0.13338735  1
  O  O414  1  0.36712296  0.88284377  0.61272684  1
  O  O415  1  0.86378269  0.38244195  0.11870538  1
  O  O416  1  0.86815941  0.36938796  0.62821412  1
  O  O417  1  0.87385564  0.86982434  0.11835762  1
  O  O418  1  0.87705202  0.86604962  0.61655673  1
  O  O419  1  0.12912419  0.13242911  0.38107460  1
  O  O420  1  0.12360156  0.13180577  0.87965420  1
  O  O421  1  0.13251890  0.63164838  0.37513671  1
  O  O422  1  0.13555553  0.61835470  0.88327400  1
  O  O423  1  0.63315260  0.12340235  0.38359098  1
  O  O424  1  0.63151713  0.13299067  0.87998853  1
  O  O425  1  0.61963849  0.63003385  0.39275979  1
  O  O426  1  0.63255020  0.63477587  0.87910570  1
