# generated using pymatgen
data_V85Zn86O256
_symmetry_space_group_name_H-M   'P 1'
_cell_length_a   16.91974903
_cell_length_b   16.91966328
_cell_length_c   16.92055212
_cell_angle_alpha   90.05889291
_cell_angle_beta   90.08028024
_cell_angle_gamma   90.01651769
_symmetry_Int_Tables_number   1
_chemical_formula_structural   V85Zn86O256
_chemical_formula_sum   'V85 Zn86 O256'
_cell_volume   4843.94818378
_cell_formula_units_Z   1
loop_
 _symmetry_equiv_pos_site_id
 _symmetry_equiv_pos_as_xyz
  1  'x, y, z'
loop_
 _atom_site_type_symbol
 _atom_site_label
 _atom_site_symmetry_multiplicity
 _atom_site_fract_x
 _atom_site_fract_y
 _atom_site_fract_z
 _atom_site_occupancy
  V  V0  1  0.12766837  0.50179642  0.12610754  1
  V  V1  1  0.12323857  0.00030831  0.12254768  1
  V  V2  1  0.75058682  0.62652803  0.37446693  1
  V  V3  1  0.11133133  0.86781283  0.75766481  1
  V  V4  1  0.74425630  0.62197449  0.87817948  1
  V  V5  1  0.37035412  0.62701707  0.75712701  1
  V  V6  1  0.37541495  0.87153542  0.49437227  1
  V  V7  1  0.19215682  0.68802784  -0.06365042  1
  V  V8  1  0.62560507  0.50222272  0.62468604  1
  V  V9  1  0.61688937  0.75416612  0.37632371  1
  V  V10  1  0.75062568  0.75171961  0.50064258  1
  V  V11  1  0.38195740  0.61899504  0.25146186  1
  V  V12  1  0.00116659  0.88000627  0.37886139  1
  V  V13  1  0.61795799  0.87827870  0.25339065  1
  V  V14  1  0.74897966  0.37549611  0.12995022  1
  V  V15  1  0.00030282  0.62702014  0.62197948  1
  V  V16  1  0.12452317  0.24859548  0.37419362  1
  V  V17  1  0.75107257  0.50434684  0.75179861  1
  V  V18  1  -0.00516368  0.75267491  0.24821229  1
  V  V19  1  0.00434595  0.50224144  0.00081246  1
  V  V20  1  0.87557312  0.12073507  0.74225170  1
  V  V21  1  0.25124765  0.49852062  0.25897173  1
  V  V22  1  0.74855899  0.12513347  0.37294770  1
  V  V23  1  0.00223769  0.50085056  0.49806347  1
  V  V24  1  0.62069713  0.75009761  0.87848217  1
  V  V25  1  0.62395057  -0.00173592  0.12051877  1
  V  V26  1  -0.00241436  0.13358329  0.12039854  1
  V  V27  1  0.61874828  0.25154583  0.86868730  1
  V  V28  1  0.87459602  0.12999915  0.24427215  1
  V  V29  1  0.50061096  0.74875291  0.24204199  1
  V  V30  1  0.49805983  0.12760010  0.63671411  1
  V  V31  1  0.61787455  0.12208077  -0.00261542  1
  V  V32  1  0.26753813  0.12080948  0.87337717  1
  V  V33  1  0.87836117  0.36902820  0.00751629  1
  V  V34  1  0.25529314  0.63432436  0.38002258  1
  V  V35  1  0.87449806  0.50264309  0.37456862  1
  V  V36  1  0.12868507  0.50095945  0.62610682  1
  V  V37  1  0.63055757  0.88235539  0.75120882  1
  V  V38  1  0.12451538  0.87431283  0.24945926  1
  V  V39  1  0.49980477  0.62573215  0.62393372  1
  V  V40  1  0.49814392  0.49978960  0.49458512  1
  V  V41  1  -0.00089529  0.24564891  0.74243849  1
  V  V42  1  0.61315055  0.49610099  0.12874120  1
  V  V43  1  0.00169763  0.37592003  0.87283881  1
  V  V44  1  0.62195050  0.25375925  0.36018614  1
  V  V45  1  0.87645839  0.00238838  0.37821362  1
  V  V46  1  0.49546361  0.88933435  0.88310225  1
  V  V47  1  0.00004893  0.37458338  0.37269607  1
  V  V48  1  0.25159566  0.24738786  0.50262198  1
  V  V49  1  0.87310394  -0.00753061  0.87069721  1
  V  V50  1  0.36972074  0.75109374  0.62161771  1
  V  V51  1  0.87889670  0.87876138  0.50195975  1
  V  V52  1  0.90135620  0.63964209  0.77221464  1
  V  V53  1  0.50071356  -0.00233244  0.49983424  1
  V  V54  1  0.25047508  0.12319707  0.37732588  1
  V  V55  1  0.24933373  0.00083996  0.24986510  1
  V  V56  1  0.37997400  0.13454159  0.25087562  1
  V  V57  1  0.37978752  0.24680779  0.63751916  1
  V  V58  1  0.75059481  0.12060843  0.86973162  1
  V  V59  1  0.11229219  0.00499780  0.62547760  1
  V  V60  1  0.75279246  0.37512083  0.62809090  1
  V  V61  1  0.12634784  0.24302641  0.87295381  1
  V  V62  1  0.24757031  0.87695527  0.62188273  1
  V  V63  1  0.00213624  0.63158579  0.12188064  1
  V  V64  1  0.24989263  0.50293446  0.75973359  1
  V  V65  1  0.37763091  0.37483188  0.49639010  1
  V  V66  1  0.36417585  0.74852308  0.12306094  1
  V  V67  1  0.62270650  0.12523747  0.49904514  1
  V  V68  1  0.26390747  0.00285960  0.74903633  1
  V  V69  1  0.75331681  0.74667455  0.01073795  1
  V  V70  1  0.11068575  0.12122965  0.50347098  1
  V  V71  1  0.50150825  0.13401281  0.12744292  1
  V  V72  1  0.87810507  0.87191474  0.00779851  1
  V  V73  1  0.74754681  0.25235592  0.50000532  1
  V  V74  1  0.60951963  0.61913868  0.00700756  1
  V  V75  1  0.00005391  -0.00342145  -0.00775867  1
  V  V76  1  0.25252870  0.37458685  0.62570999  1
  V  V77  1  0.49608461  0.38172870  0.86890212  1
  V  V78  1  0.87358882  0.62753892  0.24352446  1
  V  V79  1  0.37889496  0.38070835  0.00454798  1
  V  V80  1  0.50237891  0.37248836  0.36566400  1
  V  V81  1  0.38266336  -0.00398064  0.36900107  1
  V  V82  1  0.49915722  0.75129963  0.75087228  1
  V  V83  1  0.87709355  0.74962105  0.63084447  1
  V  V84  1  0.75309609  0.24888888  0.00123660  1
  Zn  Zn85  1  0.36144377  0.88434334  -0.01309877  1
  Zn  Zn86  1  0.37312259  0.25055100  0.12520272  1
  Zn  Zn87  1  0.74622814  0.49674229  0.25029724  1
  Zn  Zn88  1  0.75080169  0.87262696  0.12822796  1
  Zn  Zn89  1  -0.00254598  0.25303669  0.24415213  1
  Zn  Zn90  1  0.12796229  0.12333403  -0.00349949  1
  Zn  Zn91  1  0.62134254  0.37273196  0.74847152  1
  Zn  Zn92  1  0.12870582  0.75430609  0.38380980  1
  Zn  Zn93  1  0.12466302  0.37513532  0.74898839  1
  Zn  Zn94  1  0.87437766  0.37602874  0.50098867  1
  Zn  Zn95  1  0.62459941  0.62686769  0.49989788  1
  Zn  Zn96  1  0.75475119  0.88160714  0.63413723  1
  Zn  Zn97  1  0.13546627  0.63538737  0.50303063  1
  Zn  Zn98  1  0.37644556  0.51078408  0.88724466  1
  Zn  Zn99  1  0.12711774  0.37322743  0.24917011  1
  Zn  Zn100  1  0.24584887  0.86924056  0.11553544  1
  Zn  Zn101  1  0.63000602  0.00423894  0.62870978  1
  Zn  Zn102  1  0.24946953  0.37209994  0.12485594  1
  Zn  Zn103  1  0.87224475  0.49632761  0.87868553  1
  Zn  Zn104  1  0.75075161  -0.00349168  0.24889336  1
  Zn  Zn105  1  0.25245809  0.24935094  0.00102646  1
  Zn  Zn106  1  0.87838059  0.24672418  0.62221777  1
  Zn  Zn107  1  0.18814621  0.18667889  0.18668743  1
  Zn  Zn108  1  0.18986568  0.18464019  0.68974830  1
  Zn  Zn109  1  0.18518597  0.68355363  0.19326903  1
  Zn  Zn110  1  0.18772247  0.69019569  0.68989063  1
  Zn  Zn111  1  0.69092564  0.18730189  0.18345131  1
  Zn  Zn112  1  0.68748995  0.18625249  0.68761647  1
  Zn  Zn113  1  0.68358219  0.68363795  0.18774607  1
  Zn  Zn114  1  0.68856315  0.69084011  0.68938970  1
  Zn  Zn115  1  0.31223373  0.31499210  0.31525985  1
  Zn  Zn116  1  0.31193149  0.31468803  0.81524690  1
  Zn  Zn117  1  0.31541801  0.81349474  0.30533903  1
  Zn  Zn118  1  0.30789187  0.81566429  0.81015015  1
  Zn  Zn119  1  0.81357405  0.31143251  0.31314470  1
  Zn  Zn120  1  0.81406992  0.31040700  0.81461431  1
  Zn  Zn121  1  0.80986786  0.81339589  0.31119279  1
  Zn  Zn122  1  0.81045673  0.81072677  0.82097498  1
  Zn  Zn123  1  0.18868617  0.43967361  0.43813257  1
  Zn  Zn124  1  0.18742917  0.43787221  0.93974632  1
  Zn  Zn125  1  0.18901159  0.93917508  0.44032247  1
  Zn  Zn126  1  0.18716091  0.93508121  0.93300557  1
  Zn  Zn127  1  0.68462423  0.43758992  0.43717279  1
  Zn  Zn128  1  0.68343250  0.43600574  0.94203342  1
  Zn  Zn129  1  0.68974634  0.93713648  0.43883086  1
  Zn  Zn130  1  0.68949354  0.93641389  0.93905170  1
  Zn  Zn131  1  0.31440574  0.05853752  0.05744647  1
  Zn  Zn132  1  0.31344985  0.06230730  0.56294286  1
  Zn  Zn133  1  0.31121831  0.56545527  0.06653705  1
  Zn  Zn134  1  0.31598830  0.56114124  0.56336455  1
  Zn  Zn135  1  0.81011489  0.06061240  0.06033085  1
  Zn  Zn136  1  0.80924274  0.06030784  0.56210717  1
  Zn  Zn137  1  0.81312237  0.55818878  0.06268094  1
  Zn  Zn138  1  0.81567496  0.56559298  0.56452259  1
  Zn  Zn139  1  0.43504362  0.43846708  0.18730954  1
  Zn  Zn140  1  0.43605798  0.43862671  0.68751178  1
  Zn  Zn141  1  0.42527925  0.95098032  0.15430291  1
  Zn  Zn142  1  0.44371871  0.93598506  0.68645554  1
  Zn  Zn143  1  0.93674522  0.43999265  0.18747521  1
  Zn  Zn144  1  0.93545256  0.44380144  0.69083463  1
  Zn  Zn145  1  0.93775185  0.94338557  0.18630456  1
  Zn  Zn146  1  0.93763473  0.93915251  0.68801115  1
  Zn  Zn147  1  0.05951868  0.06364527  0.31124297  1
  Zn  Zn148  1  0.06330477  0.05953020  0.80901428  1
  Zn  Zn149  1  0.06797824  0.56650954  0.31275958  1
  Zn  Zn150  1  0.06036224  0.57922047  0.82124858  1
  Zn  Zn151  1  0.56150408  0.06290378  0.31006619  1
  Zn  Zn152  1  0.56044402  0.06256915  0.81510452  1
  Zn  Zn153  1  0.56458078  0.56199391  0.31303364  1
  Zn  Zn154  1  0.56050362  0.56121229  0.81179485  1
  Zn  Zn155  1  0.43877837  0.18808024  0.43973772  1
  Zn  Zn156  1  0.43970562  0.19502531  0.93904860  1
  Zn  Zn157  1  0.43620897  0.68687957  0.43447668  1
  Zn  Zn158  1  0.43138902  0.69487462  0.94107292  1
  Zn  Zn159  1  0.93439627  0.18995915  0.43689311  1
  Zn  Zn160  1  0.93749464  0.18564514  0.93290007  1
  Zn  Zn161  1  0.93979345  0.69170679  0.43690744  1
  Zn  Zn162  1  0.94119978  0.69028821  0.94052481  1
  Zn  Zn163  1  0.06884579  0.31343116  0.05942082  1
  Zn  Zn164  1  0.06433725  0.31398837  0.56035260  1
  Zn  Zn165  1  0.06836410  0.81124915  0.05509971  1
  Zn  Zn166  1  0.06304478  0.81277860  0.56589060  1
  Zn  Zn167  1  0.56202764  0.31397593  0.05712729  1
  Zn  Zn168  1  0.56385457  0.31221484  0.56238882  1
  Zn  Zn169  1  0.56134350  0.81076530  0.06422952  1
  Zn  Zn170  1  0.56025107  0.81459943  0.56362961  1
  O  O171  1  0.11613497  0.11714479  0.12197579  1
  O  O172  1  0.12851717  0.11391329  0.61884121  1
  O  O173  1  0.11430388  0.61257879  0.13392406  1
  O  O174  1  0.11893359  0.61887117  0.62281781  1
  O  O175  1  0.62267146  0.12159365  0.11584933  1
  O  O176  1  0.61688755  0.12689149  0.61688607  1
  O  O177  1  0.62629202  0.61361393  0.11419261  1
  O  O178  1  0.61869596  0.62217165  0.62341232  1
  O  O179  1  0.38362783  0.36790348  0.38967498  1
  O  O180  1  0.38451142  0.37774622  0.88109955  1
  O  O181  1  0.36892561  0.88305963  0.38257072  1
  O  O182  1  0.39135557  0.87005452  0.87318575  1
  O  O183  1  0.88277531  0.38274224  0.37649264  1
  O  O184  1  0.88649777  0.37494272  0.88367969  1
  O  O185  1  0.87999794  0.88206374  0.38041739  1
  O  O186  1  0.86968993  0.88606539  0.88440613  1
  O  O187  1  0.25988444  0.00459547  0.37025834  1
  O  O188  1  0.24849029  0.01087107  0.86102952  1
  O  O189  1  0.24625294  0.50790306  0.36443230  1
  O  O190  1  0.25515733  0.49197251  0.86179000  1
  O  O191  1  0.75817081  0.00756779  0.37368603  1
  O  O192  1  0.75861264  0.00984787  0.88008704  1
  O  O193  1  0.75390071  0.50768436  0.37347136  1
  O  O194  1  0.74620328  0.50447036  0.86938546  1
  O  O195  1  0.24163701  0.50060728  0.13624621  1
  O  O196  1  0.24400927  0.49497899  0.62875669  1
  O  O197  1  0.23344743  1.00321893  0.13268788  1
  O  O198  1  0.24605310  0.99668098  0.63391240  1
  O  O199  1  0.74322543  0.49064839  0.12546378  1
  O  O200  1  0.74694991  0.49695837  0.63182617  1
  O  O201  1  0.73763127  1.00000462  0.12773665  1
  O  O202  1  0.74175422  0.99234402  0.61767811  1
  O  O203  1  0.00081439  0.37437220  0.26119879  1
  O  O204  1  -0.00066269  0.37140116  0.75826746  1
  O  O205  1  0.00548088  0.87146911  0.25414660  1
  O  O206  1  0.01131591  0.87445604  0.74450924  1
  O  O207  1  0.49183167  0.37935872  0.26682593  1
  O  O208  1  0.50081902  0.37772544  0.76309482  1
  O  O209  1  0.51391559  0.86530264  0.24811038  1
  O  O210  1  0.50925125  0.86960510  0.76036863  1
  O  O211  1  0.49099527  0.12497987  0.24352991  1
  O  O212  1  0.50499836  0.12237411  0.73616629  1
  O  O213  1  0.49086629  0.63164216  0.25822273  1
  O  O214  1  0.49371985  0.63094347  0.74314719  1
  O  O215  1  0.99274764  0.12571678  0.23951188  1
  O  O216  1  0.98954898  0.13426062  0.75563985  1
  O  O217  1  0.99425247  0.63405891  0.24692399  1
  O  O218  1  0.99519974  0.59326942  0.72382307  1
  O  O219  1  0.37239561  0.26367338  0.00163368  1
  O  O220  1  0.36876288  0.25600416  0.50685471  1
  O  O221  1  0.38180401  0.75899638  0.02177359  1
  O  O222  1  0.38249971  0.76346309  0.50516461  1
  O  O223  1  0.86746530  0.25723769  -0.00630153  1
  O  O224  1  0.86187120  0.25250227  0.50174994  1
  O  O225  1  0.86720108  0.75920363  -0.00766645  1
  O  O226  1  0.86943059  0.75636098  0.50753239  1
  O  O227  1  0.13012771  0.24340772  0.49217353  1
  O  O228  1  0.12828870  0.24735448  0.98449225  1
  O  O229  1  0.12154269  0.74817171  0.49748476  1
  O  O230  1  0.11604253  0.73881143  0.98568264  1
  O  O231  1  0.63548345  0.24563228  0.49554712  1
  O  O232  1  0.63238561  0.24350313  0.98851884  1
  O  O233  1  0.63227924  0.75301842  0.49432271  1
  O  O234  1  0.63024964  0.73838815  0.99750691  1
  O  O235  1  0.50287736  0.23871422  0.12255562  1
  O  O236  1  0.49301340  0.23994717  0.61890801  1
  O  O237  1  0.49443930  0.74948038  0.13783317  1
  O  O238  1  0.48967147  0.74748967  0.62982996  1
  O  O239  1  1.00615747  0.23777256  0.12312751  1
  O  O240  1  0.99885238  0.25883822  0.63797466  1
  O  O241  1  1.00559998  0.73954620  0.13214106  1
  O  O242  1  0.98729953  0.74015172  0.62356898  1
  O  O243  1  0.00632617  0.25916320  0.37532533  1
  O  O244  1  0.00663946  0.25601151  0.86563968  1
  O  O245  1  -0.00086738  0.76438780  0.36686100  1
  O  O246  1  -0.01738158  0.67587745  0.83682084  1
  O  O247  1  0.51119595  0.25899956  0.38290934  1
  O  O248  1  0.50860681  0.26295814  0.87638648  1
  O  O249  1  0.51270049  0.74716409  0.36943498  1
  O  O250  1  0.51047210  0.75137664  0.87161034  1
  O  O251  1  0.24443040  0.12969443  0.49420897  1
  O  O252  1  0.25033587  0.12220429  0.98521863  1
  O  O253  1  0.25556297  0.61825863  0.48387674  1
  O  O254  1  0.25299317  0.63526831  1.00007904  1
  O  O255  1  0.74449772  0.13378934  0.49312192  1
  O  O256  1  0.74412406  0.13218220  0.99113703  1
  O  O257  1  0.75171836  0.63790778  0.49629054  1
  O  O258  1  0.74420913  0.62867440  0.99523206  1
  O  O259  1  0.26335412  0.37313857  -0.00142379  1
  O  O260  1  0.25836031  0.37073092  0.50481242  1
  O  O261  1  0.24898762  0.87809216  0.00314084  1
  O  O262  1  0.26036671  0.88324540  0.51371830  1
  O  O263  1  0.75913884  0.36884092  0.00425912  1
  O  O264  1  0.75033238  0.36933949  0.50826314  1
  O  O265  1  0.75602100  0.86352245  0.00210327  1
  O  O266  1  0.76197726  0.86420129  0.49791814  1
  O  O267  1  0.13248016  0.49762692  0.24491751  1
  O  O268  1  0.13209986  0.50049061  0.73772717  1
  O  O269  1  0.12491233  0.99336674  0.24301196  1
  O  O270  1  0.13124290  0.99621539  0.73676991  1
  O  O271  1  0.62847757  0.50635389  0.23357713  1
  O  O272  1  0.63542191  0.49948832  0.74377136  1
  O  O273  1  0.62776415  0.99206944  0.24636023  1
  O  O274  1  0.62275237  0.98517559  0.75264510  1
  O  O275  1  0.37085943  0.00647742  0.25411397  1
  O  O276  1  0.36254993  -0.00390801  0.74375450  1
  O  O277  1  0.36657481  0.51017595  0.24535005  1
  O  O278  1  0.36733001  0.51072284  0.74846865  1
  O  O279  1  0.87380796  0.00803947  0.26110253  1
  O  O280  1  0.87912820  0.00649707  0.75963686  1
  O  O281  1  0.87339045  0.51004675  0.25749501  1
  O  O282  1  0.86472122  0.51407000  0.75638683  1
  O  O283  1  0.11816826  0.36633212  0.37641264  1
  O  O284  1  0.11514654  0.36798633  0.87326622  1
  O  O285  1  0.11719470  0.87872717  0.36955208  1
  O  O286  1  0.12051167  0.88520704  0.85630923  1
  O  O287  1  0.61665381  0.36557480  0.37806682  1
  O  O288  1  0.61323902  0.37005403  0.87656492  1
  O  O289  1  0.63111612  0.86504964  0.36774535  1
  O  O290  1  0.61935350  0.86827590  0.86912660  1
  O  O291  1  0.38444336  0.12726054  0.13359232  1
  O  O292  1  0.38633558  0.13349915  0.61861600  1
  O  O293  1  0.37293047  0.63753097  0.13789832  1
  O  O294  1  0.38011253  0.63449705  0.62957194  1
  O  O295  1  0.88328939  0.11652333  0.13272399  1
  O  O296  1  0.86922462  0.12567211  0.63822264  1
  O  O297  1  0.88292404  0.61931468  0.13758130  1
  O  O298  1  0.88135148  0.63378459  0.63424026  1
  O  O299  1  0.25100562  0.25273794  0.12083885  1
  O  O300  1  0.25541698  0.25429580  0.62089195  1
  O  O301  1  0.25956296  0.74817371  0.13451123  1
  O  O302  1  0.26226062  0.76034615  0.62764536  1
  O  O303  1  0.74347205  0.25801671  0.10918431  1
  O  O304  1  0.75061018  0.25908956  0.61884969  1
  O  O305  1  0.74722697  0.74728735  0.11367315  1
  O  O306  1  0.75999460  0.75323287  0.61827320  1
  O  O307  1  0.24180549  0.24466675  0.38133098  1
  O  O308  1  0.24415612  0.23629426  0.87042017  1
  O  O309  1  0.25108643  0.73760992  0.36905559  1
  O  O310  1  0.24998958  0.74895650  0.87777029  1
  O  O311  1  0.74350019  0.24736129  0.38216242  1
  O  O312  1  0.74475151  0.24468035  0.88425354  1
  O  O313  1  0.74419160  0.74519162  0.38268937  1
  O  O314  1  0.73661753  0.74170626  0.88447562  1
  O  O315  1  -0.00090299  0.11686025  0.00522290  1
  O  O316  1  0.01138767  0.12999272  0.49751118  1
  O  O317  1  -0.00838008  0.61505060  0.01282585  1
  O  O318  1  -0.00191160  0.61751574  0.50818839  1
  O  O319  1  0.51245228  0.12934882  0.00454188  1
  O  O320  1  0.50406424  0.11435041  0.50461648  1
  O  O321  1  0.51173248  0.62831187  -0.00267329  1
  O  O322  1  0.49929839  0.61690397  0.50467908  1
  O  O323  1  0.49485454  0.38132594  0.49669834  1
  O  O324  1  0.48692031  0.37376434  0.98913719  1
  O  O325  1  0.49153318  0.88896031  0.50562040  1
  O  O326  1  0.50594787  0.86968050  0.98295664  1
  O  O327  1  0.99887825  0.38215619  0.48920138  1
  O  O328  1  0.99489140  0.37886879  0.99465116  1
  O  O329  1  0.98699575  0.87207895  0.49319582  1
  O  O330  1  0.99210516  0.88450075  1.00373160  1
  O  O331  1  0.50955232  0.49205340  0.38878694  1
  O  O332  1  0.49814768  0.48702420  0.87447046  1
  O  O333  1  0.48834367  1.00350913  0.38106530  1
  O  O334  1  0.50062430  0.98844451  0.87725655  1
  O  O335  1  0.99946956  0.49675315  0.38282870  1
  O  O336  1  1.00041733  0.49341424  0.88350440  1
  O  O337  1  0.99288046  0.98837137  0.37122410  1
  O  O338  1  0.99045553  1.00700722  0.88560760  1
  O  O339  1  0.00794004  0.00818424  0.11710005  1
  O  O340  1  0.01348823  0.00079040  0.62421679  1
  O  O341  1  0.00576240  0.50729831  0.12042443  1
  O  O342  1  0.00677914  0.49766925  0.61049698  1
  O  O343  1  0.51886929  0.01631180  0.13323062  1
  O  O344  1  0.50472638  0.00838184  0.61753350  1
  O  O345  1  0.51426993  0.49418713  0.12491791  1
  O  O346  1  0.50661413  0.50401084  0.61791203  1
  O  O347  1  0.24948205  0.38433075  0.24982015  1
  O  O348  1  0.24907747  0.38373530  0.74229534  1
  O  O349  1  0.23452504  0.88091332  0.25194241  1
  O  O350  1  0.24540344  0.88748454  0.73994130  1
  O  O351  1  0.75749468  0.37307841  0.23369982  1
  O  O352  1  0.75163314  0.38502512  0.74514093  1
  O  O353  1  0.73768035  0.87356399  0.24629667  1
  O  O354  1  0.73405646  0.86731952  0.75410819  1
  O  O355  1  0.25556387  0.11806430  0.25788755  1
  O  O356  1  0.25028816  0.11246509  0.75792795  1
  O  O357  1  0.25755067  0.61844192  0.26092743  1
  O  O358  1  0.26121049  0.61624245  0.73900015  1
  O  O359  1  0.75771383  0.12343089  0.25509780  1
  O  O360  1  0.75732091  0.13048362  0.76248647  1
  O  O361  1  0.75916185  0.62695158  0.25526930  1
  O  O362  1  0.74789256  0.61978588  0.76180586  1
  O  O363  1  0.37188030  0.11783481  0.36943798  1
  O  O364  1  0.36633945  0.12815355  0.87604278  1
  O  O365  1  0.36497792  0.62556903  0.36732357  1
  O  O366  1  0.38260880  0.62654610  0.86232594  1
  O  O367  1  0.87122687  0.11824815  0.36995260  1
  O  O368  1  0.86691908  0.11649168  0.86804709  1
  O  O369  1  0.87136329  0.62308764  0.36643584  1
  O  O370  1  0.85482414  0.62006485  0.87796962  1
  O  O371  1  0.12495643  0.38708771  0.12863729  1
  O  O372  1  0.13284674  0.38351878  0.62473933  1
  O  O373  1  0.12262144  0.88161353  0.13325062  1
  O  O374  1  0.13196501  0.88754311  0.62732433  1
  O  O375  1  0.63329823  0.38816999  0.11346576  1
  O  O376  1  0.63619021  0.38123057  0.62751934  1
  O  O377  1  0.62523924  0.88269708  0.13047525  1
  O  O378  1  0.62317485  0.87122360  0.64336096  1
  O  O379  1  0.12186882  0.24900142  0.26387065  1
  O  O380  1  0.11878532  0.25095682  0.75717536  1
  O  O381  1  0.11347484  0.75855311  0.25486885  1
  O  O382  1  0.12868618  0.76839400  0.74385899  1
  O  O383  1  0.63027566  0.24651350  0.26130690  1
  O  O384  1  0.63354619  0.25389335  0.76471622  1
  O  O385  1  0.61854007  0.75265734  0.25609104  1
  O  O386  1  0.61919719  0.75532419  0.76056872  1
  O  O387  1  0.36995548  0.23732764  0.25180074  1
  O  O388  1  0.37140442  0.25494011  0.73635699  1
  O  O389  1  0.38475374  0.73865874  0.25072846  1
  O  O390  1  0.37906715  0.74590109  0.74163726  1
  O  O391  1  0.87868355  0.23483414  0.25553363  1
  O  O392  1  0.88232503  0.24116684  0.74966773  1
  O  O393  1  0.88651967  0.74511195  0.25311220  1
  O  O394  1  0.86617754  0.74176336  0.74524350  1
  O  O395  1  0.38667999  0.48847167  0.50698693  1
  O  O396  1  0.37124327  0.48774546  1.00227861  1
  O  O397  1  0.38112495  0.99308036  0.49160395  1
  O  O398  1  0.38800527  0.97733185  1.04664439  1
  O  O399  1  0.88427773  0.50042704  0.49411404  1
  O  O400  1  0.88638330  0.49023396  0.99948763  1
  O  O401  1  0.87292186  0.99366725  0.48777049  1
  O  O402  1  0.88041045  0.99322653  0.99251493  1
  O  O403  1  0.11571991  0.00099171  0.00577533  1
  O  O404  1  0.13051314  0.00828679  0.51407799  1
  O  O405  1  0.11283745  0.49502563  0.00884870  1
  O  O406  1  0.11983490  0.50506529  0.50896464  1
  O  O407  1  0.63085283  0.01028937  0.00636896  1
  O  O408  1  0.61514365  0.00509192  0.49598059  1
  O  O409  1  0.62734223  0.51290949  0.00865460  1
  O  O410  1  0.61908557  0.50341697  0.50892705  1
  O  O411  1  0.37554560  0.37241400  0.11519126  1
  O  O412  1  0.37312641  0.36758881  0.61629299  1
  O  O413  1  0.36523351  0.85175037  0.15246931  1
  O  O414  1  0.37022547  0.86979346  0.61876226  1
  O  O415  1  0.86981085  0.37751064  0.11400609  1
  O  O416  1  0.86317968  0.37685196  0.62446684  1
  O  O417  1  0.87113119  0.88254719  0.11263334  1
  O  O418  1  0.87561125  0.86881114  0.61885459  1
  O  O419  1  0.12807262  0.12920297  0.38188641  1
  O  O420  1  0.13100008  0.13082024  0.87371020  1
  O  O421  1  0.14043958  0.62907788  0.37654936  1
  O  O422  1  0.14856297  0.61829528  0.87493271  1
  O  O423  1  0.62848487  0.13209208  0.38022370  1
  O  O424  1  0.63030338  0.13057125  0.87909180  1
  O  O425  1  0.63405439  0.63402214  0.37765706  1
  O  O426  1  0.62780301  0.62860052  0.88503558  1
