# generated using pymatgen
data_V85Zn86O256
_symmetry_space_group_name_H-M   'P 1'
_cell_length_a   16.96320194
_cell_length_b   16.98164127
_cell_length_c   16.98489604
_cell_angle_alpha   89.97412771
_cell_angle_beta   89.95685380
_cell_angle_gamma   89.97064370
_symmetry_Int_Tables_number   1
_chemical_formula_structural   V85Zn86O256
_chemical_formula_sum   'V85 Zn86 O256'
_cell_volume   4892.71775056
_cell_formula_units_Z   1
loop_
 _symmetry_equiv_pos_site_id
 _symmetry_equiv_pos_as_xyz
  1  'x, y, z'
loop_
 _atom_site_type_symbol
 _atom_site_label
 _atom_site_symmetry_multiplicity
 _atom_site_fract_x
 _atom_site_fract_y
 _atom_site_fract_z
 _atom_site_occupancy
  V  V0  1  0.12014108  0.25583691  0.87148791  1
  V  V1  1  0.88191573  0.24606677  0.11816897  1
  V  V2  1  0.23695924  0.88547968  0.62903425  1
  V  V3  1  0.74381660  0.62867874  0.36127592  1
  V  V4  1  0.50270609  0.12567906  0.62319915  1
  V  V5  1  0.86987468  0.00879320  0.37663933  1
  V  V6  1  0.63537998  0.63487010  0.49793328  1
  V  V7  1  0.62794461  0.87608674  0.75175555  1
  V  V8  1  0.50344228  0.00447395  -0.00306329  1
  V  V9  1  0.75025094  0.87493721  0.12623649  1
  V  V10  1  0.12863392  0.24731098  0.37520967  1
  V  V11  1  0.12081031  0.12603239  0.00999361  1
  V  V12  1  0.00224819  0.24030190  0.24349377  1
  V  V13  1  0.37485235  0.37647180  0.50182207  1
  V  V14  1  -0.00017697  0.00066148  0.00384162  1
  V  V15  1  0.07347199  0.54739536  0.67001241  1
  V  V16  1  0.63830495  0.12494311  0.49629980  1
  V  V17  1  0.62717041  0.49708828  0.63326223  1
  V  V18  1  0.24559716  0.37603638  0.62613293  1
  V  V19  1  0.37248514  0.87523916  -0.00028334  1
  V  V20  1  0.75416553  0.37288086  0.12879484  1
  V  V21  1  0.37506561  0.88083965  0.49483533  1
  V  V22  1  0.10546674  0.75371658  0.86708782  1
  V  V23  1  -0.00009710  0.87582436  0.36739872  1
  V  V24  1  0.24555563  0.87330798  0.12913433  1
  V  V25  1  0.75221921  0.62203165  0.87206412  1
  V  V26  1  0.49406530  0.24359811  0.25060147  1
  V  V27  1  0.74725935  0.37589598  0.63859782  1
  V  V28  1  0.25162777  0.24987107  0.00174017  1
  V  V29  1  0.74860107  0.85749855  0.62014287  1
  V  V30  1  0.63070704  0.24488856  0.37119618  1
  V  V31  1  0.00123801  0.50248127  0.49043340  1
  V  V32  1  0.62452827  0.62475219  0.00371873  1
  V  V33  1  0.26917952  0.00048749  0.25360746  1
  V  V34  1  0.74839772  0.00928131  0.25218116  1
  V  V35  1  0.24942880  0.50150061  0.25196823  1
  V  V36  1  0.37112992  0.75043663  0.12173873  1
  V  V37  1  0.49352877  0.12219679  0.12691348  1
  V  V38  1  0.87723196  -0.00386276  0.87378109  1
  V  V39  1  0.88531513  0.61445186  0.24582047  1
  V  V40  1  0.12221463  0.11771279  0.50397233  1
  V  V41  1  0.37816947  0.25194859  0.62621534  1
  V  V42  1  0.62431649  0.24964532  0.88166432  1
  V  V43  1  0.25310799  0.49925487  0.74753276  1
  V  V44  1  0.75387314  0.25218012  -0.00080790  1
  V  V45  1  0.88379305  0.13277443  0.74574753  1
  V  V46  1  0.12254161  0.63333573  0.00391007  1
  V  V47  1  0.49812177  0.62514666  0.12593227  1
  V  V48  1  0.12143124  -0.00043718  0.13746410  1
  V  V49  1  0.37598247  0.12068196  0.74923068  1
  V  V50  1  0.75175992  0.00188719  0.74459171  1
  V  V51  1  0.50613475  0.87217522  0.37643124  1
  V  V52  1  0.62763170  0.00187402  0.62207239  1
  V  V53  1  0.50528468  0.37778935  0.87223488  1
  V  V54  1  0.25260217  0.12292997  0.87687641  1
  V  V55  1  0.12486335  0.37549629  0.25070573  1
  V  V56  1  0.37584946  0.75526444  0.62477166  1
  V  V57  1  0.50451595  0.50199807  0.49930269  1
  V  V58  1  -0.01231781  0.49539007  0.00592575  1
  V  V59  1  0.50790024  0.25288995  0.75020776  1
  V  V60  1  0.74535725  0.12402431  0.87760943  1
  V  V61  1  0.37293000  0.62677703  0.25226915  1
  V  V62  1  0.50054561  0.37317905  0.37304650  1
  V  V63  1  0.25262737  0.37590106  0.12534594  1
  V  V64  1  0.12507963  0.75191509  0.36624286  1
  V  V65  1  0.12209891  0.50595777  0.12289338  1
  V  V66  1  0.24951389  0.63685146  0.87861048  1
  V  V67  1  0.37324834  0.50151636  0.37661753  1
  V  V68  1  0.49872031  0.00424316  0.49113630  1
  V  V69  1  0.49881560  0.49877077  0.00098988  1
  V  V70  1  0.37657267  0.62878025  0.75070021  1
  V  V71  1  0.24889332  0.74898606  0.49762013  1
  V  V72  1  0.62696904  0.49533270  0.13301356  1
  V  V73  1  0.50675185  0.75011195  0.25391740  1
  V  V74  1  0.37453583  0.49998735  0.87585296  1
  V  V75  1  0.88324052  0.87148706  -0.00231299  1
  V  V76  1  0.86718016  0.85966967  0.49543689  1
  V  V77  1  -0.01041988  0.37025903  0.37675891  1
  V  V78  1  0.75485897  0.26206486  0.49651048  1
  V  V79  1  0.86602380  0.49479340  0.86056788  1
  V  V80  1  0.50397138  0.75369215  0.75103832  1
  V  V81  1  0.26215158  0.12110848  0.37285102  1
  V  V82  1  0.75013436  0.74995985  0.00004319  1
  V  V83  1  0.88461026  0.25357455  0.62376057  1
  V  V84  1  0.62694587  0.00509579  0.12069723  1
  Zn  Zn85  1  0.62352154  0.74993423  0.87703224  1
  Zn  Zn86  1  0.86077079  0.49159565  0.37476477  1
  Zn  Zn87  1  0.37452007  -0.00272529  0.87316193  1
  Zn  Zn88  1  0.49869708  0.87654275  0.87511876  1
  Zn  Zn89  1  -0.00478166  0.00117733  0.50086884  1
  Zn  Zn90  1  0.23165073  0.00129594  0.74905477  1
  Zn  Zn91  1  0.62669767  0.37495296  0.25132811  1
  Zn  Zn92  1  0.08458980  0.66147959  0.53000401  1
  Zn  Zn93  1  0.24388016  0.62314214  0.38167588  1
  Zn  Zn94  1  0.87684230  0.12325854  0.24526154  1
  Zn  Zn95  1  -0.01577933  0.36808522  0.87271473  1
  Zn  Zn96  1  0.50541767  0.62788810  0.62322348  1
  Zn  Zn97  1  0.06528461  0.91750510  0.80449904  1
  Zn  Zn98  1  0.88230459  0.74260166  0.12636924  1
  Zn  Zn99  1  0.63065995  0.87188364  0.25550660  1
  Zn  Zn100  1  0.05982396  0.05951217  0.66704182  1
  Zn  Zn101  1  0.00217221  0.74974354  0.24236414  1
  Zn  Zn102  1  0.11295905  0.36953944  0.74346413  1
  Zn  Zn103  1  -0.05964019  0.69418350  0.66258922  1
  Zn  Zn104  1  0.25297867  0.24750754  0.50018080  1
  Zn  Zn105  1  0.37704895  0.37272084  0.00076683  1
  Zn  Zn106  1  0.37254500  0.24420230  0.12976789  1
  Zn  Zn107  1  0.19008720  0.18353261  0.19053926  1
  Zn  Zn108  1  0.19230388  0.19068165  0.68860616  1
  Zn  Zn109  1  0.18740804  0.68785603  0.18931110  1
  Zn  Zn110  1  0.18808154  0.69524744  0.68967953  1
  Zn  Zn111  1  0.68303996  0.18679823  0.18242265  1
  Zn  Zn112  1  0.69045705  0.19009510  0.68745163  1
  Zn  Zn113  1  0.69041700  0.68752627  0.18708302  1
  Zn  Zn114  1  0.78344157  0.67736777  0.69254001  1
  Zn  Zn115  1  0.31340856  0.31220709  0.31298749  1
  Zn  Zn116  1  0.31539940  0.31206990  0.81272822  1
  Zn  Zn117  1  0.31578727  0.81585712  0.31203212  1
  Zn  Zn118  1  0.30977339  0.81673719  0.81041279  1
  Zn  Zn119  1  0.81151999  0.30472302  0.30494745  1
  Zn  Zn120  1  0.81071110  0.31323698  0.80966421  1
  Zn  Zn121  1  0.81383386  0.80674057  0.31082776  1
  Zn  Zn122  1  0.91037330  0.80655123  0.80983908  1
  Zn  Zn123  1  0.18345959  0.43685564  0.44037898  1
  Zn  Zn124  1  0.18794394  0.44052170  0.93951727  1
  Zn  Zn125  1  0.18698135  0.93571806  0.43372665  1
  Zn  Zn126  1  0.18926031  0.93675705  0.94406946  1
  Zn  Zn127  1  0.68692337  0.43843746  0.43354220  1
  Zn  Zn128  1  0.68692502  0.43525792  0.94297610  1
  Zn  Zn129  1  0.68972911  0.93562569  0.43565650  1
  Zn  Zn130  1  0.68996644  0.93645144  0.93624816  1
  Zn  Zn131  1  0.31300558  0.05881827  0.06386041  1
  Zn  Zn132  1  0.31179106  0.06355286  0.55966216  1
  Zn  Zn133  1  0.30967777  0.56386109  0.06053072  1
  Zn  Zn134  1  0.31362837  0.56583815  0.56561748  1
  Zn  Zn135  1  0.81284904  0.06609749  0.06112227  1
  Zn  Zn136  1  0.82160624  0.06319047  0.56439666  1
  Zn  Zn137  1  0.80804866  0.56041027  0.06881970  1
  Zn  Zn138  1  0.81783198  0.55337986  0.55221931  1
  Zn  Zn139  1  0.43795514  0.43554351  0.18979319  1
  Zn  Zn140  1  0.44003416  0.43799023  0.68757630  1
  Zn  Zn141  1  0.44089188  0.93422913  0.18617896  1
  Zn  Zn142  1  0.43844686  0.93925193  0.68272161  1
  Zn  Zn143  1  0.93621082  0.43238742  0.18855541  1
  Zn  Zn144  1  0.93182306  0.43062189  0.68926991  1
  Zn  Zn145  1  0.93378348  0.93684089  0.18587340  1
  Zn  Zn146  1  0.92816714  0.93439101  0.67605241  1
  Zn  Zn147  1  0.06288302  0.06155434  0.31982580  1
  Zn  Zn148  1  0.05625177  0.07999789  0.83258507  1
  Zn  Zn149  1  0.06499000  0.56441678  0.31862758  1
  Zn  Zn150  1  0.05919152  0.55839609  0.83310086  1
  Zn  Zn151  1  0.56409712  0.06190174  0.31068728  1
  Zn  Zn152  1  0.56390454  0.06328571  0.81386970  1
  Zn  Zn153  1  0.56301911  0.56427623  0.31524650  1
  Zn  Zn154  1  0.56531975  0.56684243  0.81192077  1
  Zn  Zn155  1  0.44037475  0.18894543  0.43874768  1
  Zn  Zn156  1  0.43760297  0.18562533  0.93988397  1
  Zn  Zn157  1  0.43833565  0.68751442  0.43833545  1
  Zn  Zn158  1  0.43753816  0.69030011  0.93772770  1
  Zn  Zn159  1  0.93629321  0.18831873  0.43703202  1
  Zn  Zn160  1  0.93470081  0.18377726  0.93917911  1
  Zn  Zn161  1  0.93102798  0.68586571  0.42353184  1
  Zn  Zn162  1  0.93536062  0.67803315  0.94444279  1
  Zn  Zn163  1  0.06293219  0.31902564  0.06002659  1
  Zn  Zn164  1  0.06559868  0.31274030  0.55577866  1
  Zn  Zn165  1  0.06361418  0.81257591  0.06472262  1
  Zn  Zn166  1  0.05577120  0.82525497  0.56018786  1
  Zn  Zn167  1  0.56316839  0.31051570  0.06128782  1
  Zn  Zn168  1  0.56655342  0.31427642  0.55954209  1
  Zn  Zn169  1  0.56171273  0.81545837  0.06480455  1
  Zn  Zn170  1  0.56399854  0.81325795  0.56438589  1
  O  O171  1  0.13145918  0.11729673  0.11517879  1
  O  O172  1  0.13061552  0.13197049  0.61000497  1
  O  O173  1  0.13311289  0.61374962  0.11849830  1
  O  O174  1  0.14054841  0.60986299  0.62218143  1
  O  O175  1  0.61508775  0.11103313  0.12455216  1
  O  O176  1  0.62065607  0.12224448  0.61720565  1
  O  O177  1  0.62073213  0.61752660  0.11828649  1
  O  O178  1  0.62495740  0.60640707  0.60729710  1
  O  O179  1  0.37977140  0.38127587  0.38164395  1
  O  O180  1  0.38547739  0.38126036  0.87694132  1
  O  O181  1  0.38490573  0.87303912  0.38906097  1
  O  O182  1  0.37414456  0.87691418  0.88507747  1
  O  O183  1  0.88734641  0.37096532  0.36407765  1
  O  O184  1  0.86544385  0.38974228  0.87587845  1
  O  O185  1  0.87482474  0.88130070  0.38176086  1
  O  O186  1  0.86681063  0.88310437  0.88813927  1
  O  O187  1  0.24798068  0.00391430  0.36035727  1
  O  O188  1  0.24908685  0.01271723  0.87462645  1
  O  O189  1  0.25480474  0.50025983  0.37171405  1
  O  O190  1  0.25272353  0.50641648  0.86401850  1
  O  O191  1  0.75586126  -0.00441218  0.36235408  1
  O  O192  1  0.75378838  0.00809524  0.86812041  1
  O  O193  1  0.74789001  0.51307237  0.37777519  1
  O  O194  1  0.75791551  0.50854499  0.88819059  1
  O  O195  1  0.24368613  0.49280597  0.12905510  1
  O  O196  1  0.26045531  0.49198353  0.63867845  1
  O  O197  1  0.24514091  0.99616985  0.13752045  1
  O  O198  1  0.25497752  0.98873396  0.62737697  1
  O  O199  1  0.73846918  0.48524767  0.11840403  1
  O  O200  1  0.73728657  0.48482449  0.61622670  1
  O  O201  1  0.74386858  0.99517472  0.12702137  1
  O  O202  1  0.74474018  0.99974723  0.63088970  1
  O  O203  1  0.00805122  0.36565462  0.25812009  1
  O  O204  1  0.00332578  0.38511098  0.76179331  1
  O  O205  1  -0.01071806  0.87456346  0.26455790  1
  O  O206  1  -0.01915206  0.87384349  0.75168251  1
  O  O207  1  0.50265564  0.36612915  0.25697989  1
  O  O208  1  0.49444404  0.36402915  0.75932623  1
  O  O209  1  0.49992709  0.86783115  0.25924951  1
  O  O210  1  0.50758522  0.87282072  0.74971286  1
  O  O211  1  0.50397998  0.13150294  0.24083437  1
  O  O212  1  0.49561962  0.13125902  0.74400877  1
  O  O213  1  0.49314415  0.63151841  0.24588835  1
  O  O214  1  0.49504678  0.63623543  0.74826719  1
  O  O215  1  1.00486469  0.13810102  0.25312688  1
  O  O216  1  0.98625109  0.12376036  0.75155929  1
  O  O217  1  0.98779018  0.62449721  0.25646099  1
  O  O218  1  1.01868309  0.60406590  0.73224608  1
  O  O219  1  0.36257496  0.25028310  0.00280571  1
  O  O220  1  0.37595912  0.25810225  0.50783496  1
  O  O221  1  0.38022525  0.75743875  0.01401895  1
  O  O222  1  0.37217826  0.75932764  0.50789545  1
  O  O223  1  0.86758744  0.24964728  0.00454730  1
  O  O224  1  0.86286629  0.24247490  0.50702735  1
  O  O225  1  0.86753683  0.75495172  0.00207794  1
  O  O226  1  0.87225408  0.76154116  0.48812899  1
  O  O227  1  0.13075803  0.24316818  0.48761003  1
  O  O228  1  0.13569540  0.24553420  0.99815922  1
  O  O229  1  0.13663791  0.75745060  0.48869723  1
  O  O230  1  0.11897548  0.73723905  0.99090006  1
  O  O231  1  0.63051252  0.24289373  0.49121635  1
  O  O232  1  0.62966868  0.24815881  0.98703261  1
  O  O233  1  0.61835872  0.73208502  0.50444176  1
  O  O234  1  0.62926318  0.74222900  1.00265131  1
  O  O235  1  0.50062819  0.23985805  0.13109440  1
  O  O236  1  0.49930380  0.24766677  0.63284815  1
  O  O237  1  0.49207873  0.74452510  0.13128005  1
  O  O238  1  0.49214972  0.75096346  0.63236217  1
  O  O239  1  0.99511073  0.25830732  0.13090560  1
  O  O240  1  0.98394711  0.26216466  0.61707804  1
  O  O241  1  0.99593488  0.75535792  0.12894317  1
  O  O242  1  1.02662893  0.72912426  0.60570955  1
  O  O243  1  0.00681894  0.25632870  0.36771389  1
  O  O244  1  0.01662531  0.25086603  0.88591610  1
  O  O245  1  0.00783203  0.75810252  0.37173417  1
  O  O246  1  0.00291639  0.74620865  0.87565662  1
  O  O247  1  0.50665544  0.25306085  0.36831214  1
  O  O248  1  0.50585834  0.25457989  0.87143116  1
  O  O249  1  0.49337102  0.75859149  0.36525655  1
  O  O250  1  0.50257632  0.75463182  0.86707661  1
  O  O251  1  0.24129222  0.12563873  0.49167995  1
  O  O252  1  0.24604399  0.13055702  0.99598455  1
  O  O253  1  0.25885936  0.64410845  0.50100398  1
  O  O254  1  0.23771699  0.61815851  0.98875598  1
  O  O255  1  0.73965158  0.13312850  0.50555488  1
  O  O256  1  0.75371857  0.13616341  0.98876681  1
  O  O257  1  0.73761130  0.62154325  0.48996579  1
  O  O258  1  0.74094208  0.63039265  1.00203840  1
  O  O259  1  0.25106915  0.36772374  0.00815515  1
  O  O260  1  0.25735783  0.37507573  0.50878819  1
  O  O261  1  0.26477071  0.88321428  0.01295328  1
  O  O262  1  0.25852992  0.87200360  0.50700344  1
  O  O263  1  0.74246967  0.35908657  0.01038856  1
  O  O264  1  0.74310213  0.36386112  0.50440016  1
  O  O265  1  0.75500194  0.86629483  0.00492255  1
  O  O266  1  0.75670213  0.87434923  0.50506921  1
  O  O267  1  0.12956798  0.49750883  0.24248523  1
  O  O268  1  0.13139555  0.49825629  0.74623585  1
  O  O269  1  0.12480658  1.00464006  0.23851167  1
  O  O270  1  0.11514367  1.01101380  0.75767308  1
  O  O271  1  0.61487193  0.49824318  0.23591662  1
  O  O272  1  0.61668656  0.50315524  0.73131824  1
  O  O273  1  0.63173941  0.99503678  0.24166016  1
  O  O274  1  0.63264788  0.99651390  0.74510502  1
  O  O275  1  0.36739017  0.00053980  0.24744960  1
  O  O276  1  0.37893599  0.01339663  0.75064817  1
  O  O277  1  0.36916982  0.50507405  0.25583319  1
  O  O278  1  0.37097453  0.50704359  0.75619473  1
  O  O279  1  0.86594865  0.00318546  0.25434992  1
  O  O280  1  0.86164416  0.00891664  0.75245513  1
  O  O281  1  0.87997562  0.50933450  0.25337695  1
  O  O282  1  0.86811363  0.50063273  0.76303695  1
  O  O283  1  0.12206631  0.36365065  0.36817991  1
  O  O284  1  0.13380419  0.35917271  0.87626830  1
  O  O285  1  0.11087223  0.86912184  0.38040648  1
  O  O286  1  0.12729129  0.85815409  0.88300382  1
  O  O287  1  0.61776126  0.36279344  0.37363355  1
  O  O288  1  0.61315587  0.36838413  0.87872602  1
  O  O289  1  0.61101581  0.87658639  0.37507050  1
  O  O290  1  0.62657773  0.87406406  0.86135697  1
  O  O291  1  0.38862400  0.12428687  0.12226062  1
  O  O292  1  0.38112634  0.13136722  0.63085017  1
  O  O293  1  0.37668990  0.63248938  0.12951740  1
  O  O294  1  0.37685755  0.64048485  0.63181884  1
  O  O295  1  0.87413450  0.13996706  0.12485707  1
  O  O296  1  0.86442213  0.14111447  0.63562323  1
  O  O297  1  0.86697576  0.62336758  0.14252485  1
  O  O298  1  0.85695432  0.62520254  0.62498804  1
  O  O299  1  0.25049718  0.25662782  0.12011111  1
  O  O300  1  0.26184723  0.25837518  0.62568667  1
  O  O301  1  0.25806197  0.76156396  0.13278276  1
  O  O302  1  0.25565701  0.76306290  0.61951874  1
  O  O303  1  0.75457426  0.25168208  0.11584230  1
  O  O304  1  0.74741731  0.26314816  0.61678177  1
  O  O305  1  0.75094988  0.75791076  0.11569595  1
  O  O306  1  0.73253740  0.76077840  0.62879829  1
  O  O307  1  0.24341630  0.24202392  0.37286463  1
  O  O308  1  0.24677832  0.24111936  0.88283706  1
  O  O309  1  0.24516205  0.75517413  0.38201429  1
  O  O310  1  0.24923148  0.73844525  0.87175020  1
  O  O311  1  0.74151954  0.25266397  0.38128160  1
  O  O312  1  0.74304992  0.24600475  0.87954627  1
  O  O313  1  0.74749935  0.72973836  0.36898522  1
  O  O314  1  0.74372183  0.73402302  0.89236780  1
  O  O315  1  0.01005525  0.11577153  -0.00268028  1
  O  O316  1  0.01968625  0.12699881  0.48970682  1
  O  O317  1  0.01051505  0.60821480  -0.00210811  1
  O  O318  1  -0.00388915  0.60787418  0.48116837  1
  O  O319  1  0.49743057  0.11171558  0.00658458  1
  O  O320  1  0.50825417  0.11963946  0.50461793  1
  O  O321  1  0.50557269  0.62117821  0.00666713  1
  O  O322  1  0.50637976  0.61646621  0.49999893  1
  O  O323  1  0.49452103  0.38118616  0.49322467  1
  O  O324  1  0.49732193  0.37983714  0.99262365  1
  O  O325  1  0.49588003  0.88242252  0.49540461  1
  O  O326  1  0.48970355  0.88427388  1.00172539  1
  O  O327  1  1.00374563  0.37527420  0.48031981  1
  O  O328  1  1.00801871  0.39251133  0.98998826  1
  O  O329  1  0.98225197  0.87893428  0.48941748  1
  O  O330  1  0.98823738  0.88120920  1.00258332  1
  O  O331  1  0.49411804  0.49409672  0.38073730  1
  O  O332  1  0.49772292  0.49375455  0.87862846  1
  O  O333  1  0.50336286  0.99491394  0.38585349  1
  O  O334  1  0.49907138  0.99820282  0.88355996  1
  O  O335  1  1.00142401  0.48401224  0.37713814  1
  O  O336  1  0.97802612  0.50188613  0.88705154  1
  O  O337  1  0.98956159  0.99304808  0.37777682  1
  O  O338  1  0.99549464  0.99816636  0.88862964  1
  O  O339  1  0.00777523  -0.00689966  0.11438970  1
  O  O340  1  -0.02079270  0.01003994  0.61245493  1
  O  O341  1  0.01013826  0.49043134  0.11577444  1
  O  O342  1  0.00358870  0.49344827  0.61388395  1
  O  O343  1  0.50711445  0.00377520  0.11995797  1
  O  O344  1  0.50819415  0.00568980  0.61340713  1
  O  O345  1  0.50239803  0.50602881  0.11972409  1
  O  O346  1  0.50816136  0.49986580  0.61650126  1
  O  O347  1  0.24516226  0.38035874  0.24375235  1
  O  O348  1  0.25024661  0.38293855  0.74487924  1
  O  O349  1  0.25585403  0.88946076  0.24303156  1
  O  O350  1  0.25138642  0.88088727  0.73444297  1
  O  O351  1  0.74360939  0.36501113  0.23418659  1
  O  O352  1  0.73991682  0.37068076  0.73677105  1
  O  O353  1  0.75035375  0.88069325  0.24037181  1
  O  O354  1  0.73999193  0.88745963  0.73670335  1
  O  O355  1  0.24958382  0.11039682  0.25723818  1
  O  O356  1  0.25840607  0.12298677  0.75823175  1
  O  O357  1  0.25690750  0.61792328  0.25290038  1
  O  O358  1  0.25693995  0.61932037  0.75598815  1
  O  O359  1  0.74884009  0.11200159  0.24258296  1
  O  O360  1  0.75322696  0.11929994  0.75675741  1
  O  O361  1  0.75067273  0.62076487  0.25664878  1
  O  O362  1  0.72768063  0.62239207  0.77621370  1
  O  O363  1  0.36127764  0.12886321  0.38297795  1
  O  O364  1  0.36806854  0.12445551  0.86791654  1
  O  O365  1  0.37218592  0.61850335  0.36948509  1
  O  O366  1  0.36823964  0.62082730  0.87161719  1
  O  O367  1  0.87875343  0.11238956  0.37014129  1
  O  O368  1  0.86556291  0.11983305  0.86681657  1
  O  O369  1  0.86108791  0.61863334  0.36149918  1
  O  O370  1  0.85858784  0.61257921  0.88371535  1
  O  O371  1  0.13599209  0.38406204  0.12927699  1
  O  O372  1  0.14136353  0.36502768  0.62665175  1
  O  O373  1  0.13923443  0.88574535  0.11556054  1
  O  O374  1  0.13838913  0.88188106  0.61829393  1
  O  O375  1  0.62912914  0.38065792  0.12598785  1
  O  O376  1  0.63086976  0.38677658  0.62035687  1
  O  O377  1  0.63579926  0.88412867  0.12572291  1
  O  O378  1  0.62862158  0.88402257  0.63076469  1
  O  O379  1  0.12194726  0.25319383  0.25676709  1
  O  O380  1  0.12988463  0.24788462  0.76835896  1
  O  O381  1  0.12584839  0.75103735  0.26180781  1
  O  O382  1  0.12458162  0.74697913  0.76930213  1
  O  O383  1  0.61588930  0.24783334  0.25703218  1
  O  O384  1  0.61335313  0.24402782  0.76087000  1
  O  O385  1  0.61023198  0.75231653  0.24092289  1
  O  O386  1  0.61103891  0.76143385  0.75133405  1
  O  O387  1  0.38929354  0.25318943  0.24892813  1
  O  O388  1  0.38576107  0.23913709  0.74819504  1
  O  O389  1  0.38286979  0.74713948  0.24033370  1
  O  O390  1  0.38371494  0.75179007  0.74348464  1
  O  O391  1  0.88556595  0.24376508  0.24055873  1
  O  O392  1  0.86903257  0.24321976  0.74020828  1
  O  O393  1  0.87686325  0.73356189  0.24875518  1
  O  O394  1  0.87145488  0.72682834  0.74705448  1
  O  O395  1  0.38496342  0.49782647  0.49800101  1
  O  O396  1  0.38104100  0.49949802  0.99319981  1
  O  O397  1  0.38675969  0.99303454  0.50607947  1
  O  O398  1  0.38349619  0.99255966  0.99886759  1
  O  O399  1  0.89287862  0.48982734  0.49177638  1
  O  O400  1  0.88682950  0.50122510  1.00825952  1
  O  O401  1  0.86778258  0.99391598  0.48658093  1
  O  O402  1  0.88214400  0.99513417  0.99686346  1
  O  O403  1  0.11908367  0.00815271  0.00722413  1
  O  O404  1  0.12470046  0.01499584  0.49477491  1
  O  O405  1  0.11951770  0.50783144  0.00658098  1
  O  O406  1  0.10502314  0.49351678  0.49931370  1
  O  O407  1  0.61617339  -0.00795390  0.00786110  1
  O  O408  1  0.62113133  0.00876127  0.50111834  1
  O  O409  1  0.61703918  0.50571259  0.01051518  1
  O  O410  1  0.61212383  0.50041477  0.50138230  1
  O  O411  1  0.36256870  0.37389197  0.12419710  1
  O  O412  1  0.36902057  0.37086966  0.62180135  1
  O  O413  1  0.36917001  0.86828689  0.12071827  1
  O  O414  1  0.37237667  0.86780422  0.61588455  1
  O  O415  1  0.86598006  0.36083936  0.12908292  1
  O  O416  1  0.85569354  0.36904539  0.62844173  1
  O  O417  1  0.86138831  0.87726491  0.11488854  1
  O  O418  1  0.86057601  0.87156636  0.60566185  1
  O  O419  1  0.13548733  0.13146137  0.38100646  1
  O  O420  1  0.13471895  0.13876958  0.89022548  1
  O  O421  1  0.12796168  0.63930824  0.37904254  1
  O  O422  1  0.12947509  0.63532145  0.88250411  1
  O  O423  1  0.61998138  0.13577747  0.38327285  1
  O  O424  1  0.63752097  0.13240658  0.87094737  1
  O  O425  1  0.63151553  0.62145611  0.38522897  1
  O  O426  1  0.62893971  0.62121461  0.89257948  1
