# generated using pymatgen
data_V85Zn86O256
_symmetry_space_group_name_H-M   'P 1'
_cell_length_a   16.91965724
_cell_length_b   16.91505323
_cell_length_c   16.91373866
_cell_angle_alpha   89.94987149
_cell_angle_beta   90.00766267
_cell_angle_gamma   89.97829814
_symmetry_Int_Tables_number   1
_chemical_formula_structural   V85Zn86O256
_chemical_formula_sum   'V85 Zn86 O256'
_cell_volume   4840.65737533
_cell_formula_units_Z   1
loop_
 _symmetry_equiv_pos_site_id
 _symmetry_equiv_pos_as_xyz
  1  'x, y, z'
loop_
 _atom_site_type_symbol
 _atom_site_label
 _atom_site_symmetry_multiplicity
 _atom_site_fract_x
 _atom_site_fract_y
 _atom_site_fract_z
 _atom_site_occupancy
  V  V0  1  0.74055883  0.24430860  0.50203393  1
  V  V1  1  -0.01014348  0.37949764  0.87362609  1
  V  V2  1  0.00343994  0.75275940  0.74754820  1
  V  V3  1  0.50270542  0.87616583  0.37546510  1
  V  V4  1  0.00123536  0.11933693  0.62345987  1
  V  V5  1  0.25461619  0.86541605  0.12585412  1
  V  V6  1  0.12301093  0.49382537  0.62679470  1
  V  V7  1  0.24930421  0.24892454  0.00162898  1
  V  V8  1  0.49766715  0.25118790  0.74776727  1
  V  V9  1  0.62757038  0.74484859  0.87327194  1
  V  V10  1  0.74186973  0.62173498  0.38870177  1
  V  V11  1  0.12145739  0.25176252  0.87508077  1
  V  V12  1  0.49548936  0.75246732  0.24252762  1
  V  V13  1  0.37307584  0.12529244  0.24596855  1
  V  V14  1  -0.00519626  0.62421061  0.62336806  1
  V  V15  1  0.49924165  0.13069754  0.61732118  1
  V  V16  1  0.75351212  0.49788763  0.75573342  1
  V  V17  1  0.13561721  -0.00078984  0.12973228  1
  V  V18  1  0.63233896  0.62844482  0.00346299  1
  V  V19  1  -0.00245842  0.12532916  0.12571720  1
  V  V20  1  0.75128772  -0.01155589  0.74813393  1
  V  V21  1  0.37621044  0.75653614  0.62642700  1
  V  V22  1  0.87095647  0.12535182  0.24695617  1
  V  V23  1  0.74774329  0.76708027  0.50006616  1
  V  V24  1  0.73971935  0.49443622  0.25439887  1
  V  V25  1  0.23279350  0.87964821  0.62581886  1
  V  V26  1  -0.00092816  0.25104129  0.74850784  1
  V  V27  1  0.24928838  0.49848344  0.25137149  1
  V  V28  1  0.36446075  0.62950226  0.75056574  1
  V  V29  1  0.13332252  0.87674671  0.25891725  1
  V  V30  1  0.87439146  0.85789768  0.01989727  1
  V  V31  1  0.50787053  0.63349401  0.62714293  1
  V  V32  1  0.00222157  -0.00288912  0.00287106  1
  V  V33  1  0.37761119  0.87932485  0.50658661  1
  V  V34  1  0.12192527  0.49874397  0.12372561  1
  V  V35  1  0.74181521  0.37258482  0.63019122  1
  V  V36  1  0.62529222  0.87870545  0.23504381  1
  V  V37  1  0.25090244  0.12438389  0.37312199  1
  V  V38  1  0.87126382  0.76398751  0.61958088  1
  V  V39  1  0.50260438  0.25840368  0.24549414  1
  V  V40  1  0.23794874  -0.00146980  0.74411740  1
  V  V41  1  -0.00249094  0.49863532  0.49666145  1
  V  V42  1  0.50410645  0.50650257  0.49965818  1
  V  V43  1  0.75354352  0.24656362  0.00352320  1
  V  V44  1  -0.00089566  0.63329771  0.12775488  1
  V  V45  1  0.76086140  0.62285550  0.88022326  1
  V  V46  1  0.24739183  0.63473336  0.37360571  1
  V  V47  1  0.12201756  0.37364030  0.24838259  1
  V  V48  1  0.50845967  0.37752744  0.87398457  1
  V  V49  1  -0.00510220  0.37299688  0.37197399  1
  V  V50  1  0.01227398  0.74524797  0.25996344  1
  V  V51  1  0.74828233  0.36673946  0.13327830  1
  V  V52  1  0.37455671  0.00164435  0.37079406  1
  V  V53  1  0.13321041  0.74769639  0.86978194  1
  V  V54  1  0.50266620  0.50328873  -0.00087368  1
  V  V55  1  -0.00976033  0.50133077  -0.00246684  1
  V  V56  1  0.29303580  0.44726016  0.69147172  1
  V  V57  1  0.37265755  -0.00005924  0.87490918  1
  V  V58  1  0.12478472  0.24853644  0.37512008  1
  V  V59  1  0.62321611  0.25631006  0.37221396  1
  V  V60  1  0.12558881  0.11940209  0.50339921  1
  V  V61  1  0.74513813  -0.00229123  0.23553263  1
  V  V62  1  -0.00511443  0.24881524  0.24620388  1
  V  V63  1  0.37439441  0.62835635  0.24220832  1
  V  V64  1  0.00595260  0.87304400  0.87305257  1
  V  V65  1  0.75015093  0.12214500  0.87536235  1
  V  V66  1  0.37558353  0.37490773  0.00025279  1
  V  V67  1  0.24898236  0.12475625  0.87370370  1
  V  V68  1  0.13125827  0.62438542  -0.00623161  1
  V  V69  1  0.87774049  -0.00513656  0.87726033  1
  V  V70  1  0.74098454  0.12129180  0.37668028  1
  V  V71  1  0.25541383  0.25721057  0.51216492  1
  V  V72  1  0.62671906  0.25154630  0.87411596  1
  V  V73  1  0.62977821  0.00092871  0.61826830  1
  V  V74  1  -0.00167250  0.87134376  0.37914920  1
  V  V75  1  0.12180469  0.63252280  0.49398260  1
  V  V76  1  0.87200603  -0.00755249  0.38003005  1
  V  V77  1  0.84482346  0.65077113  0.23568107  1
  V  V78  1  0.53666995  0.92046521  0.90087897  1
  V  V79  1  0.87339700  0.24914605  0.62276409  1
  V  V80  1  0.62760451  0.50337004  0.62720454  1
  V  V81  1  0.50658599  0.11291645  0.11896048  1
  V  V82  1  0.37373378  0.49743419  0.37699015  1
  V  V83  1  0.37468856  0.86944110  -0.00454416  1
  V  V84  1  0.35948430  0.50451041  0.87544671  1
  Zn  Zn85  1  0.87413434  0.37085016  0.00492493  1
  Zn  Zn86  1  0.87048559  0.37486591  0.49704094  1
  Zn  Zn87  1  0.62043146  0.74847956  0.38117042  1
  Zn  Zn88  1  0.61731503  0.09725726  -0.00485542  1
  Zn  Zn89  1  0.62103604  0.49503014  0.13025801  1
  Zn  Zn90  1  0.37250419  0.37827723  0.51616104  1
  Zn  Zn91  1  0.25002078  0.37258692  0.12661666  1
  Zn  Zn92  1  0.25563442  0.74372827  -0.00315761  1
  Zn  Zn93  1  0.50101687  0.37763942  0.37545398  1
  Zn  Zn94  1  0.37860854  0.24811061  0.12173056  1
  Zn  Zn95  1  0.50615062  0.00760309  0.49719444  1
  Zn  Zn96  1  0.12522326  0.12312341  0.00233380  1
  Zn  Zn97  1  0.49930306  0.76416336  0.75782309  1
  Zn  Zn98  1  0.87672365  0.62154782  0.75305259  1
  Zn  Zn99  1  0.49779748  0.62789963  0.12241736  1
  Zn  Zn100  1  -0.00198710  -0.00435560  0.50307056  1
  Zn  Zn101  1  0.24633378  0.75714680  0.49715853  1
  Zn  Zn102  1  0.37315368  0.12681728  0.74447065  1
  Zn  Zn103  1  0.87413093  0.50607279  0.36864827  1
  Zn  Zn104  1  0.87475359  0.12321004  0.74979413  1
  Zn  Zn105  1  0.12741024  0.37886179  0.74904813  1
  Zn  Zn106  1  0.62682960  0.87282528  0.74753796  1
  Zn  Zn107  1  0.18743436  0.18667447  0.18752499  1
  Zn  Zn108  1  0.18479206  0.18692881  0.68836377  1
  Zn  Zn109  1  0.18606357  0.68812621  0.18640898  1
  Zn  Zn110  1  0.18514325  0.68842403  0.68029881  1
  Zn  Zn111  1  0.68137401  0.18403792  0.18550638  1
  Zn  Zn112  1  0.68322760  0.18257637  0.69171174  1
  Zn  Zn113  1  0.67647609  0.68708248  0.19267467  1
  Zn  Zn114  1  0.69167638  0.68813081  0.68969234  1
  Zn  Zn115  1  0.31367036  0.31085883  0.31392827  1
  Zn  Zn116  1  0.31824282  0.30965824  0.81919043  1
  Zn  Zn117  1  0.31454422  0.81469936  0.31186668  1
  Zn  Zn118  1  0.31236392  0.81789366  0.80878842  1
  Zn  Zn119  1  0.81158531  0.30833198  0.31216959  1
  Zn  Zn120  1  0.81190968  0.31156932  0.81082698  1
  Zn  Zn121  1  0.80896475  0.80731358  0.29810028  1
  Zn  Zn122  1  0.81702754  0.80648878  0.81646996  1
  Zn  Zn123  1  0.18496943  0.43905298  0.43801635  1
  Zn  Zn124  1  0.18233151  0.43414943  0.93827253  1
  Zn  Zn125  1  0.18919192  0.94087587  0.43801689  1
  Zn  Zn126  1  0.18865610  0.93535041  0.93849378  1
  Zn  Zn127  1  0.68490433  0.43585998  0.44424695  1
  Zn  Zn128  1  0.69044264  0.43783201  0.94226472  1
  Zn  Zn129  1  0.68577662  0.93942595  0.43344660  1
  Zn  Zn130  1  0.70363168  0.92840665  0.94493151  1
  Zn  Zn131  1  0.31542480  0.05919046  0.06012786  1
  Zn  Zn132  1  0.31544641  0.06431942  0.56242450  1
  Zn  Zn133  1  0.31027117  0.55945596  0.06307499  1
  Zn  Zn134  1  0.31723643  0.57338010  0.55720696  1
  Zn  Zn135  1  0.81552066  0.06045188  0.05916737  1
  Zn  Zn136  1  0.81117454  0.06207592  0.56068164  1
  Zn  Zn137  1  0.80996586  0.55957780  0.06998424  1
  Zn  Zn138  1  0.81453252  0.56096953  0.56379286  1
  Zn  Zn139  1  0.43704569  0.43841125  0.18575471  1
  Zn  Zn140  1  0.45773202  0.44302490  0.69387743  1
  Zn  Zn141  1  0.43287381  0.93742128  0.18674936  1
  Zn  Zn142  1  0.44545139  0.94264995  0.69893155  1
  Zn  Zn143  1  0.92623182  0.44447492  0.18719406  1
  Zn  Zn144  1  0.93383629  0.43491634  0.68656194  1
  Zn  Zn145  1  0.94330185  0.93953589  0.19547323  1
  Zn  Zn146  1  0.94076154  0.93705961  0.69113637  1
  Zn  Zn147  1  0.06206949  0.05834879  0.31302877  1
  Zn  Zn148  1  0.06136839  0.06527325  0.81211476  1
  Zn  Zn149  1  0.06320297  0.56071960  0.31304827  1
  Zn  Zn150  1  0.06380475  0.56202759  0.80979729  1
  Zn  Zn151  1  0.56072158  0.06449388  0.30735056  1
  Zn  Zn152  1  0.56768879  0.07007116  0.80343196  1
  Zn  Zn153  1  0.56327175  0.56501049  0.31382802  1
  Zn  Zn154  1  0.56482265  0.56660248  0.81095411  1
  Zn  Zn155  1  0.43595567  0.19246916  0.43873999  1
  Zn  Zn156  1  0.43779072  0.18474996  0.93598658  1
  Zn  Zn157  1  0.43519771  0.68897684  0.43620299  1
  Zn  Zn158  1  0.43916212  0.68653924  0.93433302  1
  Zn  Zn159  1  0.93144173  0.18398998  0.43652449  1
  Zn  Zn160  1  0.93658812  0.18498957  0.93910794  1
  Zn  Zn161  1  0.92932778  0.69053376  0.43071353  1
  Zn  Zn162  1  0.94247481  0.68728603  0.93852584  1
  Zn  Zn163  1  0.05924120  0.31178518  0.06122132  1
  Zn  Zn164  1  0.06332108  0.30970004  0.55927597  1
  Zn  Zn165  1  0.06563436  0.81248039  0.06230780  1
  Zn  Zn166  1  0.05797847  0.81147114  0.55915048  1
  Zn  Zn167  1  0.56811728  0.30812344  0.06111571  1
  Zn  Zn168  1  0.56170360  0.31693083  0.56043502  1
  Zn  Zn169  1  0.56140116  0.80932657  0.05798424  1
  Zn  Zn170  1  0.56560342  0.81785896  0.56385587  1
  O  O171  1  0.11999259  0.11548409  0.12659447  1
  O  O172  1  0.11326046  0.13279247  0.61548990  1
  O  O173  1  0.11878678  0.61636497  0.11921953  1
  O  O174  1  0.11276701  0.61733884  0.61579798  1
  O  O175  1  0.61199362  0.11999146  0.11768469  1
  O  O176  1  0.61375595  0.11367318  0.63028452  1
  O  O177  1  0.62159303  0.62158620  0.11830471  1
  O  O178  1  0.61542621  0.62255919  0.62794910  1
  O  O179  1  0.37517211  0.38976097  0.37440086  1
  O  O180  1  0.38350357  0.38363803  0.88505645  1
  O  O181  1  0.38199902  0.88410533  0.38048368  1
  O  O182  1  0.37100183  0.88539851  0.88124081  1
  O  O183  1  0.88434833  0.37587294  0.37463680  1
  O  O184  1  0.88647062  0.36924524  0.87877699  1
  O  O185  1  0.88379873  0.88195381  0.36174334  1
  O  O186  1  0.88746309  0.87773267  0.88122644  1
  O  O187  1  0.25861571  0.01582254  0.38017586  1
  O  O188  1  0.25113966  0.00444394  0.86507727  1
  O  O189  1  0.25504393  0.50760482  0.37040186  1
  O  O190  1  0.26002505  0.49688921  0.88051303  1
  O  O191  1  0.75326921  0.00583074  0.36632931  1
  O  O192  1  0.76038572  0.00349725  0.87019112  1
  O  O193  1  0.74880235  0.50653404  0.37653542  1
  O  O194  1  0.74544491  0.50581799  0.86599056  1
  O  O195  1  0.23720100  0.49699355  0.13069851  1
  O  O196  1  0.24070039  0.50569563  0.61967097  1
  O  O197  1  0.23967360  0.99238027  0.12019477  1
  O  O198  1  0.25316882  0.99643450  0.63601818  1
  O  O199  1  0.74418411  0.48890435  0.13653660  1
  O  O200  1  0.74456837  0.49257508  0.62765415  1
  O  O201  1  0.75153296  1.00395500  0.13603035  1
  O  O202  1  0.74018161  1.00810709  0.63353451  1
  O  O203  1  -0.00069429  0.37135823  0.25353989  1
  O  O204  1  0.00048247  0.37006950  0.75683210  1
  O  O205  1  0.01251639  0.86741041  0.25938489  1
  O  O206  1  -0.00063188  0.86509907  0.75864780  1
  O  O207  1  0.49437803  0.36260777  0.25138473  1
  O  O208  1  0.50266796  0.36910344  0.76539873  1
  O  O209  1  0.50408484  0.87211065  0.25492734  1
  O  O210  1  0.50956815  0.88415555  0.77861522  1
  O  O211  1  0.49124767  0.13288259  0.24003942  1
  O  O212  1  0.49747569  0.13503407  0.73956308  1
  O  O213  1  0.49187442  0.63349184  0.25058582  1
  O  O214  1  0.49012284  0.62334948  0.73847644  1
  O  O215  1  0.99163642  0.12656306  0.24506501  1
  O  O216  1  0.99824211  0.13241175  0.74143931  1
  O  O217  1  1.00717537  0.63168514  0.24356423  1
  O  O218  1  0.99664722  0.63028800  0.73962646  1
  O  O219  1  0.36723796  0.25838359  -0.00283546  1
  O  O220  1  0.36075613  0.25711369  0.49869333  1
  O  O221  1  0.37293096  0.76239005  -0.01008161  1
  O  O222  1  0.37333694  0.76507742  0.50425604  1
  O  O223  1  0.85830623  0.24569547  -0.00316789  1
  O  O224  1  0.86163058  0.25021773  0.50570663  1
  O  O225  1  0.88813378  0.75878947  0.00781409  1
  O  O226  1  0.86598687  0.74704881  0.51165959  1
  O  O227  1  0.13306750  0.24231012  0.49228692  1
  O  O228  1  0.13149724  0.24913173  0.99296231  1
  O  O229  1  0.12638671  0.73606818  0.50404692  1
  O  O230  1  0.12475016  0.74048525  0.98944583  1
  O  O231  1  0.63437904  0.25117163  0.49432721  1
  O  O232  1  0.63593822  0.24560106  0.98810378  1
  O  O233  1  0.64184092  0.75594511  0.50207798  1
  O  O234  1  0.62485536  0.73583169  0.99474320  1
  O  O235  1  0.50006128  0.24294755  0.13103202  1
  O  O236  1  0.50958703  0.24107461  0.63258288  1
  O  O237  1  0.50019597  0.74935393  0.13774604  1
  O  O238  1  0.49659460  0.74807030  0.62907931  1
  O  O239  1  1.00573778  0.23473761  0.13002561  1
  O  O240  1  0.99069939  0.24423258  0.62614212  1
  O  O241  1  1.01095450  0.73740233  0.13415703  1
  O  O242  1  0.99174557  0.74410889  0.62735005  1
  O  O243  1  0.00256719  0.25523053  0.36922449  1
  O  O244  1  0.00513493  0.25417041  0.87164301  1
  O  O245  1  0.00612777  0.75661297  0.37366700  1
  O  O246  1  0.00590525  0.75491925  0.86523143  1
  O  O247  1  0.50671575  0.25074332  0.36792557  1
  O  O248  1  0.50773919  0.25667767  0.87259221  1
  O  O249  1  0.49875979  0.75960214  0.36813331  1
  O  O250  1  0.52079220  0.73717238  0.87187276  1
  O  O251  1  0.24526290  0.13392966  0.49503250  1
  O  O252  1  0.24815728  0.13265402  0.99376732  1
  O  O253  1  0.24113005  0.62825509  0.49059919  1
  O  O254  1  0.23635909  0.62508427  1.00434675  1
  O  O255  1  0.75166347  0.13229634  0.48938634  1
  O  O256  1  0.74485476  0.12444478  0.99053143  1
  O  O257  1  0.75427267  0.62790607  0.49030831  1
  O  O258  1  0.74399108  0.61639379  0.99457999  1
  O  O259  1  0.25713535  0.36715980  -0.00022348  1
  O  O260  1  0.24850499  0.36182207  0.49602708  1
  O  O261  1  0.25675980  0.87013142  0.00674357  1
  O  O262  1  0.25823302  0.87885179  0.50848278  1
  O  O263  1  0.75360058  0.36486911  0.00805912  1
  O  O264  1  0.75111359  0.36656719  0.51267822  1
  O  O265  1  0.77413428  0.87000793  0.00635916  1
  O  O266  1  0.75412047  0.86537565  0.49332859  1
  O  O267  1  0.12805571  0.49334639  0.24236290  1
  O  O268  1  0.12509387  0.49868766  0.73665240  1
  O  O269  1  0.12338892  0.99009799  0.24176012  1
  O  O270  1  0.13867350  1.00434640  0.75248061  1
  O  O271  1  0.63351259  0.49722891  0.25235474  1
  O  O272  1  0.63515949  0.50542804  0.73661385  1
  O  O273  1  0.62913178  0.98787293  0.25150721  1
  O  O274  1  0.63709066  0.99945532  0.74320094  1
  O  O275  1  0.37801014  0.00849634  0.26270604  1
  O  O276  1  0.36348328  0.00262951  0.76028948  1
  O  O277  1  0.36994753  0.50645682  0.25610040  1
  O  O278  1  0.36804549  0.50424905  0.75403540  1
  O  O279  1  0.86718543  0.00769104  0.25723369  1
  O  O280  1  0.87191020  0.00058056  0.76105104  1
  O  O281  1  0.85591778  0.51303090  0.25057359  1
  O  O282  1  0.85942334  0.50199561  0.74229868  1
  O  O283  1  0.11281724  0.37098494  0.36921028  1
  O  O284  1  0.11404886  0.36441938  0.87489762  1
  O  O285  1  0.12089926  0.88290998  0.36524339  1
  O  O286  1  0.11308963  0.86580803  0.88114172  1
  O  O287  1  0.62300602  0.36095427  0.37982985  1
  O  O288  1  0.61781337  0.36735756  0.88275904  1
  O  O289  1  0.61090903  0.87624792  0.37062780  1
  O  O290  1  0.63073458  0.86195924  0.87694601  1
  O  O291  1  0.38037899  0.12582210  0.13106312  1
  O  O292  1  0.39325664  0.12127029  0.62638432  1
  O  O293  1  0.37463637  0.61956828  0.13821291  1
  O  O294  1  0.38368944  0.63667926  0.62969742  1
  O  O295  1  0.88537863  0.11694594  0.13325658  1
  O  O296  1  0.87919307  0.13549292  0.62444166  1
  O  O297  1  0.88506580  0.62099481  0.13651711  1
  O  O298  1  0.88660572  0.63039295  0.62331798  1
  O  O299  1  0.25088284  0.25062049  0.11235217  1
  O  O300  1  0.24587800  0.24830033  0.61091352  1
  O  O301  1  0.24632354  0.76153339  0.12055388  1
  O  O302  1  0.25666651  0.76343070  0.62312070  1
  O  O303  1  0.74408806  0.25665180  0.11963903  1
  O  O304  1  0.75103810  0.25198969  0.62183055  1
  O  O305  1  0.78046193  0.73067260  0.19753845  1
  O  O306  1  0.76216587  0.74721735  0.61432045  1
  O  O307  1  0.24582738  0.24015787  0.38116758  1
  O  O308  1  0.24231044  0.24715749  0.88348051  1
  O  O309  1  0.25460199  0.73858419  0.37671067  1
  O  O310  1  0.23596074  0.75529350  0.87121041  1
  O  O311  1  0.74293338  0.24306496  0.38168063  1
  O  O312  1  0.74540001  0.24163998  0.87837838  1
  O  O313  1  0.74942372  0.74182171  0.38781622  1
  O  O314  1  0.74152970  0.73650095  0.87006539  1
  O  O315  1  0.00151209  0.11735235  0.00867664  1
  O  O316  1  0.00727220  0.12678107  0.50529041  1
  O  O317  1  0.00858910  0.61864159  0.00832761  1
  O  O318  1  0.00279756  0.61870089  0.50053627  1
  O  O319  1  0.49938189  0.12760725  0.01424733  1
  O  O320  1  0.49936396  0.12828726  0.51240211  1
  O  O321  1  0.50608620  0.61718728  0.00142024  1
  O  O322  1  0.49233021  0.61585422  0.50950061  1
  O  O323  1  0.49307682  0.39015562  0.50105119  1
  O  O324  1  0.49451111  0.37938333  0.99299559  1
  O  O325  1  0.49387492  0.87987565  0.49239124  1
  O  O326  1  0.49274383  0.87082351  0.98614209  1
  O  O327  1  0.99854202  0.38068139  0.48967256  1
  O  O328  1  0.99611827  0.38245533  0.99431629  1
  O  O329  1  1.00424475  0.87824886  0.48474133  1
  O  O330  1  0.99579672  0.87970680  0.99451309  1
  O  O331  1  0.49347642  0.50198839  0.38314938  1
  O  O332  1  0.49712248  0.49426521  0.88254809  1
  O  O333  1  0.49355813  0.99664828  0.37691232  1
  O  O334  1  0.48710070  1.01161174  0.86824833  1
  O  O335  1  0.99658087  0.49209702  0.37924463  1
  O  O336  1  1.00588362  0.49133116  0.88421905  1
  O  O337  1  0.98911942  0.99182630  0.37368067  1
  O  O338  1  0.99685803  0.99276053  0.87859120  1
  O  O339  1  0.01051149  0.00843612  0.12424118  1
  O  O340  1  -0.00890356  0.01460049  0.62252352  1
  O  O341  1  0.00706123  0.50728717  0.12150094  1
  O  O342  1  0.00248088  0.50535178  0.61684360  1
  O  O343  1  0.49601147  0.01440975  0.12877962  1
  O  O344  1  0.51035589  0.01220218  0.62515913  1
  O  O345  1  0.50083567  0.49995473  0.11144561  1
  O  O346  1  0.50908116  0.51123845  0.61979367  1
  O  O347  1  0.24240617  0.37927972  0.24922163  1
  O  O348  1  0.24861163  0.37585717  0.75301025  1
  O  O349  1  0.24440702  0.87289145  0.24242930  1
  O  O350  1  0.25000414  0.88911340  0.74000892  1
  O  O351  1  0.75106468  0.37638916  0.24221941  1
  O  O352  1  0.75236180  0.37966717  0.73881070  1
  O  O353  1  0.73225789  0.88308552  0.25503885  1
  O  O354  1  0.75363416  0.88577975  0.75498785  1
  O  O355  1  0.26355712  0.13219112  0.25721520  1
  O  O356  1  0.25151743  0.11757776  0.75313250  1
  O  O357  1  0.25433959  0.62014278  0.25512662  1
  O  O358  1  0.26440743  0.62920203  0.74004001  1
  O  O359  1  0.75386250  0.11873650  0.25367348  1
  O  O360  1  0.75270831  0.11727283  0.76297831  1
  O  O361  1  0.74065723  0.61128460  0.26547714  1
  O  O362  1  0.75403084  0.61598711  0.75896254  1
  O  O363  1  0.37083822  0.12118903  0.36928610  1
  O  O364  1  0.36482654  0.11964874  0.87327260  1
  O  O365  1  0.36696677  0.61569833  0.36785328  1
  O  O366  1  0.37987502  0.61485682  0.86392470  1
  O  O367  1  0.86298203  0.11759563  0.36661434  1
  O  O368  1  0.86936507  0.11347310  0.87524374  1
  O  O369  1  0.85682135  0.62750880  0.36155609  1
  O  O370  1  0.86531431  0.62852420  0.87614854  1
  O  O371  1  0.12333421  0.38249872  0.12950300  1
  O  O372  1  0.11940729  0.38908008  0.62244383  1
  O  O373  1  0.13256865  0.88101379  0.13302904  1
  O  O374  1  0.13353359  0.87493866  0.61818688  1
  O  O375  1  0.64164440  0.37688814  0.11820836  1
  O  O376  1  0.63215793  0.38517895  0.62462497  1
  O  O377  1  0.62026138  0.87240531  0.13608628  1
  O  O378  1  0.61887140  0.89533496  0.63052452  1
  O  O379  1  0.11744889  0.25451692  0.25549916  1
  O  O380  1  0.11824342  0.25460912  0.75760338  1
  O  O381  1  0.12134540  0.76011400  0.25034812  1
  O  O382  1  0.11232931  0.74184927  0.75352152  1
  O  O383  1  0.61441049  0.24451208  0.25861011  1
  O  O384  1  0.61627064  0.24533779  0.76514300  1
  O  O385  1  0.61420580  0.76391864  0.25701939  1
  O  O386  1  0.62433970  0.75323775  0.75626046  1
  O  O387  1  0.38282014  0.24267461  0.24762125  1
  O  O388  1  0.39227060  0.24886919  0.75702758  1
  O  O389  1  0.38224173  0.74047068  0.25574549  1
  O  O390  1  0.38001985  0.74686021  0.74647509  1
  O  O391  1  0.87924572  0.23375966  0.25421886  1
  O  O392  1  0.88022694  0.24671089  0.74076110  1
  O  O393  1  0.90232863  0.74276912  0.26434780  1
  O  O394  1  0.88305124  0.74668947  0.73673889  1
  O  O395  1  0.37973416  0.49990468  0.49242575  1
  O  O396  1  0.38094108  0.49611994  0.99327380  1
  O  O397  1  0.37801843  0.99340619  0.49048810  1
  O  O398  1  0.36771041  0.99023084  0.98394839  1
  O  O399  1  0.88684135  0.49769680  0.49659208  1
  O  O400  1  0.88797615  0.50035660  1.00568323  1
  O  O401  1  0.87490502  1.00387693  0.48418708  1
  O  O402  1  0.88269719  0.99303822  0.98994721  1
  O  O403  1  0.11916503  -0.00008283  0.00873954  1
  O  O404  1  0.12214322  0.01585269  0.49556069  1
  O  O405  1  0.11685185  0.50414120  0.00682596  1
  O  O406  1  0.11325467  0.50740301  0.50330174  1
  O  O407  1  0.60606186  -0.01614976  -0.03883394  1
  O  O408  1  0.62723287  -0.00001109  0.51351696  1
  O  O409  1  0.61719498  0.50985875  0.00021632  1
  O  O410  1  0.61680415  0.50068628  0.51251512  1
  O  O411  1  0.37285571  0.37423210  0.11112689  1
  O  O412  1  0.36650978  0.39614437  0.63536707  1
  O  O413  1  0.36543199  0.88270213  0.11276042  1
  O  O414  1  0.37738612  0.87565320  0.62036951  1
  O  O415  1  0.85642792  0.37688608  0.12353264  1
  O  O416  1  0.86783482  0.36177973  0.62172525  1
  O  O417  1  0.88864731  0.87653356  0.11810214  1
  O  O418  1  0.88129758  0.86242892  0.62361711  1
  O  O419  1  0.13260110  0.12921557  0.37780746  1
  O  O420  1  0.12816466  0.13760644  0.87688652  1
  O  O421  1  0.13505120  0.61794889  0.38231311  1
  O  O422  1  0.11780365  0.63356498  0.88299571  1
  O  O423  1  0.63525583  0.13173652  0.36966864  1
  O  O424  1  0.63370472  0.13124276  0.87806218  1
  O  O425  1  0.63690536  0.62948500  0.37780683  1
  O  O426  1  0.63683376  0.62647344  0.88229848  1
