# generated using pymatgen
data_V85Zn86O256
_symmetry_space_group_name_H-M   'P 1'
_cell_length_a   16.93721569
_cell_length_b   16.93479971
_cell_length_c   16.93273492
_cell_angle_alpha   90.01412265
_cell_angle_beta   89.89842152
_cell_angle_gamma   89.98465671
_symmetry_Int_Tables_number   1
_chemical_formula_structural   V85Zn86O256
_chemical_formula_sum   'V85 Zn86 O256'
_cell_volume   4856.78055234
_cell_formula_units_Z   1
loop_
 _symmetry_equiv_pos_site_id
 _symmetry_equiv_pos_as_xyz
  1  'x, y, z'
loop_
 _atom_site_type_symbol
 _atom_site_label
 _atom_site_symmetry_multiplicity
 _atom_site_fract_x
 _atom_site_fract_y
 _atom_site_fract_z
 _atom_site_occupancy
  V  V0  1  0.62292161  0.11895397  -0.00172882  1
  V  V1  1  0.25169529  0.61335001  0.37184691  1
  V  V2  1  0.86772659  0.62955655  0.23947242  1
  V  V3  1  0.49540383  0.48951230  -0.00217585  1
  V  V4  1  0.50363597  0.12356319  0.62284395  1
  V  V5  1  0.12301122  0.62771060  0.49789146  1
  V  V6  1  0.74953504  0.62417964  0.39464399  1
  V  V7  1  0.62641062  0.49694348  0.12345287  1
  V  V8  1  0.50437219  0.62278923  0.61085691  1
  V  V9  1  0.62143923  0.62286048  -0.00241536  1
  V  V10  1  0.13069688  0.25097084  0.87423255  1
  V  V11  1  0.13882971  0.38199181  0.25312446  1
  V  V12  1  0.11635967  0.50049783  0.62799371  1
  V  V13  1  0.23806525  0.74883868  0.00332093  1
  V  V14  1  0.37266240  0.49335846  0.87461894  1
  V  V15  1  0.37039320  0.60901119  0.25257969  1
  V  V16  1  0.37602624  0.75174239  0.62495624  1
  V  V17  1  0.11665476  0.87751943  0.25939689  1
  V  V18  1  0.85815405  0.75352487  0.62492261  1
  V  V19  1  0.37366321  0.24442009  0.61995023  1
  V  V20  1  0.38491453  0.87554010  -0.00153286  1
  V  V21  1  0.24671910  0.87711262  0.12710987  1
  V  V22  1  0.12024456  0.00445361  0.62725137  1
  V  V23  1  0.50111275  0.87324060  0.36985561  1
  V  V24  1  0.12594958  0.37474641  0.74534738  1
  V  V25  1  0.62823369  0.74419138  0.38498045  1
  V  V26  1  0.11993606  0.12604252  0.50219009  1
  V  V27  1  0.37270998  0.74742831  0.12835425  1
  V  V28  1  0.87830806  0.23845640  0.62859176  1
  V  V29  1  0.75216974  0.75369617  0.01009204  1
  V  V30  1  0.38961655  -0.00409921  0.87966432  1
  V  V31  1  0.12467492  0.87302957  0.74974786  1
  V  V32  1  0.62787399  0.87540272  0.75124026  1
  V  V33  1  0.87040950  0.49646682  0.88210945  1
  V  V34  1  0.87473339  0.37756435  0.50037714  1
  V  V35  1  0.86199738  0.86918664  0.50064972  1
  V  V36  1  0.75588884  -0.00270126  0.74386728  1
  V  V37  1  0.50427497  0.25766862  0.74516290  1
  V  V38  1  0.25521926  0.12777297  0.87783044  1
  V  V39  1  0.13429770  0.13201047  0.00089833  1
  V  V40  1  0.75120245  0.25435731  0.49987810  1
  V  V41  1  0.25134896  0.24490277  0.49817771  1
  V  V42  1  0.75376885  0.12334761  0.86937469  1
  V  V43  1  0.00036725  0.87535777  0.87593854  1
  V  V44  1  -0.00417893  0.63096392  0.62507616  1
  V  V45  1  0.62683813  0.25423336  0.86979274  1
  V  V46  1  0.74565678  0.37666981  0.64510511  1
  V  V47  1  0.37705819  0.12090568  0.75036874  1
  V  V48  1  0.50025249  0.11594088  0.12282834  1
  V  V49  1  0.37185532  0.00528619  0.37417970  1
  V  V50  1  0.25029469  0.62561189  0.87860215  1
  V  V51  1  0.49676634  0.37304548  0.87146163  1
  V  V52  1  0.24885636  0.87478807  0.62504776  1
  V  V53  1  -0.00017315  0.23798099  0.74664528  1
  V  V54  1  0.00072407  0.00450481  -0.00004992  1
  V  V55  1  0.12842289  0.24577006  0.37456846  1
  V  V56  1  0.61951898  0.75421931  0.87733657  1
  V  V57  1  0.25570838  0.37589773  0.10886735  1
  V  V58  1  0.27750540  0.40122503  0.60731480  1
  V  V59  1  0.50067418  0.75193089  0.75242593  1
  V  V60  1  0.87133004  0.61869812  0.75082703  1
  V  V61  1  0.12755033  0.50165107  0.12220018  1
  V  V62  1  0.87678644  0.13076691  0.24663963  1
  V  V63  1  -0.00111080  0.37561356  0.88034893  1
  V  V64  1  0.62956251  -0.00765107  0.62047893  1
  V  V65  1  0.37597547  0.87790347  0.49859089  1
  V  V66  1  0.88068983  -0.00532145  0.37321449  1
  V  V67  1  0.74527944  0.62147157  0.86971328  1
  V  V68  1  0.49065538  0.38899639  0.38601175  1
  V  V69  1  0.87659994  0.00043913  0.87055014  1
  V  V70  1  0.00047539  -0.00732838  0.49903499  1
  V  V71  1  0.00602810  0.63089660  0.12423456  1
  V  V72  1  0.00163688  0.25649898  0.24978968  1
  V  V73  1  0.12164101  0.74472161  0.87781155  1
  V  V74  1  0.49567577  0.62074881  0.12560946  1
  V  V75  1  0.37451479  0.25309451  0.11097830  1
  V  V76  1  0.12825314  0.00474780  0.12568076  1
  V  V77  1  0.74906392  -0.00661504  0.24028594  1
  V  V78  1  0.75667312  0.25483944  0.00150364  1
  V  V79  1  0.62799561  0.12457217  0.49855757  1
  V  V80  1  0.75121157  0.12591823  0.37283914  1
  V  V81  1  0.62719957  0.50294701  0.62921701  1
  V  V82  1  0.62634536  0.37477946  0.25091136  1
  V  V83  1  0.50023188  0.25040843  0.25027219  1
  V  V84  1  0.36789829  0.12803082  0.25127440  1
  Zn  Zn85  1  0.12338359  0.75185742  0.37630561  1
  Zn  Zn86  1  0.00358790  0.13148839  0.12322099  1
  Zn  Zn87  1  0.86047506  0.88053634  0.01269076  1
  Zn  Zn88  1  0.37641149  0.62490713  0.75101427  1
  Zn  Zn89  1  0.63412973  0.86397302  0.24339649  1
  Zn  Zn90  1  0.88550418  0.26218629  0.11605867  1
  Zn  Zn91  1  -0.00365308  0.50133867  0.49743581  1
  Zn  Zn92  1  0.00059747  0.37885965  0.37619700  1
  Zn  Zn93  1  0.62603591  -0.01009547  0.11499913  1
  Zn  Zn94  1  0.24806348  0.00531646  0.25467099  1
  Zn  Zn95  1  -0.00788481  0.75346047  0.25813487  1
  Zn  Zn96  1  -0.00217790  0.50054787  0.00390916  1
  Zn  Zn97  1  0.25159056  -0.00159490  0.75204831  1
  Zn  Zn98  1  0.50203029  0.00157972  0.49630075  1
  Zn  Zn99  1  0.25026943  0.75026844  0.49669771  1
  Zn  Zn100  1  0.50132676  0.74569986  0.25037493  1
  Zn  Zn101  1  -0.00642876  0.75147731  0.75269846  1
  Zn  Zn102  1  0.62395595  0.25272359  0.37596623  1
  Zn  Zn103  1  0.87590294  0.50128838  0.37302410  1
  Zn  Zn104  1  0.24641336  0.50362965  0.75331424  1
  Zn  Zn105  1  0.74940909  0.50024690  0.25315174  1
  Zn  Zn106  1  0.75841724  0.38044417  0.12119634  1
  Zn  Zn107  1  0.19130306  0.19543084  0.18546949  1
  Zn  Zn108  1  0.18981128  0.18634175  0.68627508  1
  Zn  Zn109  1  0.18453470  0.68834655  0.19268585  1
  Zn  Zn110  1  0.18681160  0.68789718  0.69041710  1
  Zn  Zn111  1  0.68701321  0.18508431  0.18455161  1
  Zn  Zn112  1  0.69050990  0.18530679  0.68624502  1
  Zn  Zn113  1  0.68213241  0.68509670  0.19048242  1
  Zn  Zn114  1  0.68391780  0.68411967  0.68758584  1
  Zn  Zn115  1  0.31548233  0.31356230  0.31309602  1
  Zn  Zn116  1  0.31180763  0.31359390  0.80310096  1
  Zn  Zn117  1  0.30692685  0.80856271  0.31337923  1
  Zn  Zn118  1  0.31210882  0.81362973  0.81374510  1
  Zn  Zn119  1  0.81214622  0.31542427  0.31208530  1
  Zn  Zn120  1  0.82002354  0.30792249  0.81538926  1
  Zn  Zn121  1  0.81315341  0.80903807  0.31738535  1
  Zn  Zn122  1  0.81011157  0.81179086  0.81660205  1
  Zn  Zn123  1  0.18441935  0.43868986  0.44000406  1
  Zn  Zn124  1  0.18346784  0.43945549  0.93909190  1
  Zn  Zn125  1  0.19228267  0.94137769  0.43974678  1
  Zn  Zn126  1  0.19161596  0.93932701  0.93780032  1
  Zn  Zn127  1  0.67968814  0.44034391  0.44004844  1
  Zn  Zn128  1  0.68481814  0.43612460  0.93101548  1
  Zn  Zn129  1  0.68870921  0.93616268  0.42934792  1
  Zn  Zn130  1  0.68541722  0.93472587  0.93402262  1
  Zn  Zn131  1  0.31641847  0.06206987  0.06107572  1
  Zn  Zn132  1  0.30740105  0.06252217  0.55965190  1
  Zn  Zn133  1  0.30960506  0.55980795  0.05967291  1
  Zn  Zn134  1  0.31047564  0.56960302  0.56451897  1
  Zn  Zn135  1  0.81559181  0.06977911  0.06051923  1
  Zn  Zn136  1  0.81327874  0.06053176  0.56057049  1
  Zn  Zn137  1  0.81102954  0.56693082  0.05990339  1
  Zn  Zn138  1  0.80965742  0.55686315  0.56895333  1
  Zn  Zn139  1  0.43809156  0.43271808  0.18864088  1
  Zn  Zn140  1  0.43271235  0.44425381  0.67731656  1
  Zn  Zn141  1  0.43644998  0.93584467  0.18866183  1
  Zn  Zn142  1  0.44281014  0.93686826  0.68818588  1
  Zn  Zn143  1  0.93652376  0.44122995  0.18852208  1
  Zn  Zn144  1  0.93502509  0.43368184  0.69105622  1
  Zn  Zn145  1  0.93560777  0.94337935  0.18536996  1
  Zn  Zn146  1  0.93866667  0.93594344  0.68391910  1
  Zn  Zn147  1  0.06202506  0.06627855  0.31375080  1
  Zn  Zn148  1  0.06682614  0.06232327  0.81357330  1
  Zn  Zn149  1  0.05821379  0.56216830  0.31116114  1
  Zn  Zn150  1  0.05716643  0.56368069  0.81404160  1
  Zn  Zn151  1  0.56214812  0.06263449  0.31117429  1
  Zn  Zn152  1  0.56574744  0.06492277  0.80974270  1
  Zn  Zn153  1  0.56221439  0.56322426  0.31424069  1
  Zn  Zn154  1  0.56123932  0.56123772  0.80483885  1
  Zn  Zn155  1  0.44067135  0.19039079  0.43520171  1
  Zn  Zn156  1  0.44162563  0.18565293  0.93583354  1
  Zn  Zn157  1  0.43418106  0.68894604  0.43441177  1
  Zn  Zn158  1  0.43412205  0.68614846  0.94072190  1
  Zn  Zn159  1  0.94011223  0.18750660  0.43658515  1
  Zn  Zn160  1  0.93960463  0.18583315  0.93054068  1
  Zn  Zn161  1  0.93742707  0.69095857  0.43348421  1
  Zn  Zn162  1  0.93465251  0.68557820  0.94207503  1
  Zn  Zn163  1  0.06816358  0.31450603  0.06315668  1
  Zn  Zn164  1  0.05970277  0.31240770  0.56289585  1
  Zn  Zn165  1  0.02812302  0.83306782  0.08373899  1
  Zn  Zn166  1  0.05676486  0.81187687  0.56133789  1
  Zn  Zn167  1  0.56573203  0.30862025  0.06124199  1
  Zn  Zn168  1  0.56714652  0.31858705  0.56156438  1
  Zn  Zn169  1  0.56367294  0.81095912  0.06665525  1
  Zn  Zn170  1  0.56173393  0.81452144  0.56075168  1
  O  O171  1  0.13025202  0.12293185  0.11744094  1
  O  O172  1  0.12794002  0.11510435  0.61776062  1
  O  O173  1  0.11551999  0.61573921  0.13503106  1
  O  O174  1  0.11431175  0.62221155  0.62272357  1
  O  O175  1  0.61770374  0.12089180  0.11597336  1
  O  O176  1  0.62531270  0.11417963  0.61759366  1
  O  O177  1  0.61529059  0.61523840  0.11990620  1
  O  O178  1  0.61519527  0.61857461  0.62412666  1
  O  O179  1  0.39180998  0.37552584  0.36796175  1
  O  O180  1  0.38023198  0.38180947  0.86821876  1
  O  O181  1  0.38039629  0.87895726  0.37920088  1
  O  O182  1  0.36761118  0.88411829  0.88535348  1
  O  O183  1  0.87450711  0.37727629  0.38638390  1
  O  O184  1  0.88561123  0.38440607  0.86890447  1
  O  O185  1  0.87264471  0.88199258  0.38710235  1
  O  O186  1  0.88006298  0.88536695  0.88143291  1
  O  O187  1  0.26702334  -0.00111563  0.37345288  1
  O  O188  1  0.25868064  0.01251624  0.87257058  1
  O  O189  1  0.25020851  0.51363915  0.38268872  1
  O  O190  1  0.25449204  0.50703004  0.87685512  1
  O  O191  1  0.76246415  0.00710411  0.36653175  1
  O  O192  1  0.75687520  0.00420812  0.86722895  1
  O  O193  1  0.74513617  0.51461508  0.37612549  1
  O  O194  1  0.75548845  0.50854619  0.87771144  1
  O  O195  1  0.24505196  0.48693755  0.12151333  1
  O  O196  1  0.22825521  0.50567865  0.63189456  1
  O  O197  1  0.24501504  0.99335929  0.12593397  1
  O  O198  1  0.23826275  0.99253299  0.62557151  1
  O  O199  1  0.73518348  0.50076412  0.11959567  1
  O  O200  1  0.74423668  0.48578907  0.63118008  1
  O  O201  1  0.75415949  1.00548764  0.13753528  1
  O  O202  1  0.74498669  1.00465200  0.63606938  1
  O  O203  1  0.01035258  0.36546429  0.25088036  1
  O  O204  1  0.01059429  0.36931052  0.75821142  1
  O  O205  1  0.01432678  0.87999867  0.25057701  1
  O  O206  1  0.00643572  0.87354243  0.75819286  1
  O  O207  1  0.50973063  0.36803566  0.25294327  1
  O  O208  1  0.49399747  0.36144314  0.75029363  1
  O  O209  1  0.49575196  0.87004613  0.26226867  1
  O  O210  1  0.51220789  0.86209275  0.74386748  1
  O  O211  1  0.49590565  0.13277593  0.24157315  1
  O  O212  1  0.49501747  0.13106009  0.74194318  1
  O  O213  1  0.48917657  0.62405280  0.24377271  1
  O  O214  1  0.49889594  0.63968538  0.74133203  1
  O  O215  1  0.99479275  0.13779659  0.24986278  1
  O  O216  1  1.00804191  0.13874954  0.75389356  1
  O  O217  1  0.98630460  0.62325106  0.24084863  1
  O  O218  1  0.98967730  0.62961243  0.74373072  1
  O  O219  1  0.38186912  0.24715772  0.01174300  1
  O  O220  1  0.36596935  0.23990388  0.50848519  1
  O  O221  1  0.36309692  0.75353880  0.01050521  1
  O  O222  1  0.37539295  0.75793358  0.51180224  1
  O  O223  1  0.86103638  0.24215790  -0.00366553  1
  O  O224  1  0.87040707  0.25673307  0.50623108  1
  O  O225  1  0.85431864  0.75068919  -0.00775497  1
  O  O226  1  0.87616864  0.76304179  0.50627542  1
  O  O227  1  0.12764572  0.24381812  0.49580729  1
  O  O228  1  0.12320849  0.23850250  0.99217878  1
  O  O229  1  0.12579680  0.73661302  0.50533258  1
  O  O230  1  0.13551591  0.75716075  0.99303514  1
  O  O231  1  0.63634549  0.24376205  0.50074183  1
  O  O232  1  0.63420978  0.23940915  0.99072757  1
  O  O233  1  0.62265635  0.75507975  0.48416779  1
  O  O234  1  0.62663581  0.74251604  0.99243187  1
  O  O235  1  0.49476282  0.24568487  0.13325336  1
  O  O236  1  0.49580374  0.24358611  0.62810433  1
  O  O237  1  0.48789331  0.73851042  0.12442959  1
  O  O238  1  0.49655963  0.74360787  0.62982262  1
  O  O239  1  1.00371919  0.24924031  0.13366623  1
  O  O240  1  0.99050685  0.25458413  0.63443411  1
  O  O241  1  1.01331407  0.73310869  0.13779446  1
  O  O242  1  0.98976548  0.74010868  0.62681001  1
  O  O243  1  0.01028528  0.25437755  0.36875215  1
  O  O244  1  0.00794276  0.25640127  0.86689931  1
  O  O245  1  0.01018795  0.74500449  0.36999307  1
  O  O246  1  0.00629931  0.75556155  0.87917052  1
  O  O247  1  0.50298632  0.25269737  0.35990992  1
  O  O248  1  0.50746649  0.25230742  0.86575940  1
  O  O249  1  0.50860550  0.75463423  0.37393769  1
  O  O250  1  0.51011137  0.74192105  0.86834967  1
  O  O251  1  0.23483319  0.13254451  0.50096827  1
  O  O252  1  0.24642268  0.12444173  0.99093841  1
  O  O253  1  0.24339574  0.62702482  0.49265988  1
  O  O254  1  0.25163128  0.63418641  0.98878141  1
  O  O255  1  0.74802243  0.13409336  0.49447011  1
  O  O256  1  0.74521799  0.13145473  0.98781604  1
  O  O257  1  0.75318804  0.62439118  0.49305161  1
  O  O258  1  0.74152456  0.63284860  0.98898845  1
  O  O259  1  0.24771101  0.37292488  0.01027685  1
  O  O260  1  0.24071988  0.36722103  0.51451057  1
  O  O261  1  0.25313345  0.86897527  0.01208558  1
  O  O262  1  0.25687023  0.87309469  0.50828585  1
  O  O263  1  0.74336539  0.35706648  -0.00413767  1
  O  O264  1  0.75488085  0.36379232  0.50338508  1
  O  O265  1  0.74512286  0.86005001  -0.00208042  1
  O  O266  1  0.76376940  0.88269021  0.50023384  1
  O  O267  1  0.12064852  0.48852009  0.24047390  1
  O  O268  1  0.12173578  0.49295850  0.74618316  1
  O  O269  1  0.12786967  0.99613283  0.24584864  1
  O  O270  1  0.12631950  0.99276562  0.74270285  1
  O  O271  1  0.62417289  0.49300144  0.23949055  1
  O  O272  1  0.61690052  0.49416294  0.73272219  1
  O  O273  1  0.64416271  1.00276793  0.25116887  1
  O  O274  1  0.63143863  0.99311583  0.74314265  1
  O  O275  1  0.37412649  0.01011435  0.25544076  1
  O  O276  1  0.37694669  0.00768464  0.75481929  1
  O  O277  1  0.37458842  0.51023709  0.24333594  1
  O  O278  1  0.37148113  0.50356185  0.76153192  1
  O  O279  1  0.87066242  0.00797499  0.25512523  1
  O  O280  1  0.86643075  -0.00758844  0.75563138  1
  O  O281  1  0.86950526  0.51361394  0.25376096  1
  O  O282  1  0.87935073  0.51288168  0.75930093  1
  O  O283  1  0.12621291  0.36672220  0.36886727  1
  O  O284  1  0.12389144  0.37036017  0.86495802  1
  O  O285  1  0.13335879  0.88095640  0.36139212  1
  O  O286  1  0.12447119  0.86656210  0.86801221  1
  O  O287  1  0.61708307  0.37318195  0.36580753  1
  O  O288  1  0.61705295  0.36055179  0.87504024  1
  O  O289  1  0.61917389  0.86570806  0.36885295  1
  O  O290  1  0.62295451  0.86575007  0.86560999  1
  O  O291  1  0.38200830  0.13247110  0.12984936  1
  O  O292  1  0.37919218  0.12714452  0.63138200  1
  O  O293  1  0.37418075  0.62944525  0.13008361  1
  O  O294  1  0.38470340  0.63630921  0.62830912  1
  O  O295  1  0.87910361  0.13188203  0.13665112  1
  O  O296  1  0.87040101  0.13919914  0.62040930  1
  O  O297  1  0.88320709  0.62208635  0.13389539  1
  O  O298  1  0.87721189  0.62979302  0.63199182  1
  O  O299  1  0.26074009  0.26404614  0.12518948  1
  O  O300  1  0.25778094  0.24854143  0.61380652  1
  O  O301  1  0.25131829  0.75523510  0.11981924  1
  O  O302  1  0.25988090  0.75525539  0.62554822  1
  O  O303  1  0.74943650  0.24707445  0.10714751  1
  O  O304  1  0.75653402  0.25786083  0.62076920  1
  O  O305  1  0.74206376  0.74115598  0.10814353  1
  O  O306  1  0.75887553  0.74657783  0.62776699  1
  O  O307  1  0.24482216  0.25784388  0.38960016  1
  O  O308  1  0.24694069  0.23714327  0.86494697  1
  O  O309  1  0.24251643  0.73936302  0.37920078  1
  O  O310  1  0.24375295  0.74506739  0.88232755  1
  O  O311  1  0.74916221  0.24420541  0.38354700  1
  O  O312  1  0.74609957  0.24217962  0.87869394  1
  O  O313  1  0.73823025  0.73808444  0.37408953  1
  O  O314  1  0.73522754  0.74256678  0.87957118  1
  O  O315  1  0.01041033  0.11807094  -0.00394997  1
  O  O316  1  0.01191613  0.11487683  0.49527812  1
  O  O317  1  -0.00552767  0.62530577  0.01989915  1
  O  O318  1  0.00440300  0.62369026  0.50912862  1
  O  O319  1  0.51098121  0.13108030  0.00948615  1
  O  O320  1  0.51057731  0.12473207  0.50483833  1
  O  O321  1  0.50256325  0.61302553  0.00477853  1
  O  O322  1  0.49537288  0.62964817  0.51261995  1
  O  O323  1  0.49985202  0.36503532  0.48412905  1
  O  O324  1  0.50485488  0.38367034  0.99263969  1
  O  O325  1  0.49407373  0.87834901  0.48788944  1
  O  O326  1  0.48342117  0.86430115  1.00166882  1
  O  O327  1  0.98810769  0.37699953  0.50084810  1
  O  O328  1  1.00846471  0.37373944  0.98389499  1
  O  O329  1  0.99386528  0.88831042  0.50079081  1
  O  O330  1  1.01878002  0.89671619  0.98668414  1
  O  O331  1  0.50392546  0.48897422  0.37780917  1
  O  O332  1  0.49308886  0.49402219  0.87830637  1
  O  O333  1  0.49246070  0.99168966  0.37372426  1
  O  O334  1  0.48895980  1.00476155  0.87099283  1
  O  O335  1  0.99537197  0.49689089  0.37968125  1
  O  O336  1  0.99253165  0.49366761  0.87931468  1
  O  O337  1  0.98754569  1.00490137  0.38059239  1
  O  O338  1  0.99359821  0.99836108  0.87776087  1
  O  O339  1  0.01098030  0.01116161  0.11565595  1
  O  O340  1  0.01194006  -0.00251382  0.61719123  1
  O  O341  1  0.00913597  0.50878345  0.12467351  1
  O  O342  1  0.00267720  0.51165221  0.62737688  1
  O  O343  1  0.49930527  0.01332139  0.12951762  1
  O  O344  1  0.51129763  0.00612613  0.62220166  1
  O  O345  1  0.50615961  0.49892556  0.11553740  1
  O  O346  1  0.50579701  0.51822484  0.62840716  1
  O  O347  1  0.24090006  0.36924195  0.24399563  1
  O  O348  1  0.23957875  0.37899849  0.73227858  1
  O  O349  1  0.24497452  0.87862864  0.23800921  1
  O  O350  1  0.24294110  0.87659224  0.74302770  1
  O  O351  1  0.73721405  0.37752307  0.24879988  1
  O  O352  1  0.75336897  0.36860335  0.74277635  1
  O  O353  1  0.75547357  0.89037491  0.25398487  1
  O  O354  1  0.73801377  0.88309960  0.75497939  1
  O  O355  1  0.26430418  0.12767626  0.24595360  1
  O  O356  1  0.26132226  0.12129763  0.75458649  1
  O  O357  1  0.25352421  0.62564944  0.26364866  1
  O  O358  1  0.25176855  0.62674968  0.76467195  1
  O  O359  1  0.75897231  0.12071150  0.25329294  1
  O  O360  1  0.74472860  0.11458810  0.76223652  1
  O  O361  1  0.75942635  0.62192939  0.24929345  1
  O  O362  1  0.75476536  0.62822113  0.76187354  1
  O  O363  1  0.38481823  0.11732739  0.36351939  1
  O  O364  1  0.37271269  0.11928099  0.86907305  1
  O  O365  1  0.36197637  0.62929628  0.36722739  1
  O  O366  1  0.36616743  0.61877113  0.87349306  1
  O  O367  1  0.87203998  0.12002610  0.36468286  1
  O  O368  1  0.86777742  0.11100288  0.87594916  1
  O  O369  1  0.85884512  0.62527069  0.37063256  1
  O  O370  1  0.86667063  0.62038214  0.86879966  1
  O  O371  1  0.13813956  0.37852713  0.13179421  1
  O  O372  1  0.11846025  0.38683471  0.63114770  1
  O  O373  1  0.12862694  0.88601976  0.13301274  1
  O  O374  1  0.12804316  0.87896929  0.63051699  1
  O  O375  1  0.62740200  0.38126576  0.13044754  1
  O  O376  1  0.64152080  0.37209444  0.63088820  1
  O  O377  1  0.61680437  0.87993638  0.13323261  1
  O  O378  1  0.62305044  0.88653385  0.62950059  1
  O  O379  1  0.12142495  0.25534307  0.25820704  1
  O  O380  1  0.12184705  0.25756657  0.75150119  1
  O  O381  1  0.12760711  0.77079354  0.25028177  1
  O  O382  1  0.12054893  0.75703081  0.75850297  1
  O  O383  1  0.61884495  0.25645013  0.24799052  1
  O  O384  1  0.61609216  0.24088665  0.75700410  1
  O  O385  1  0.62056362  0.74825637  0.26216855  1
  O  O386  1  0.62056880  0.75672974  0.75557587  1
  O  O387  1  0.38287115  0.24437905  0.24256196  1
  O  O388  1  0.38341343  0.23366640  0.74691089  1
  O  O389  1  0.37166291  0.74371451  0.23691890  1
  O  O390  1  0.38324915  0.75426412  0.74109998  1
  O  O391  1  0.88458731  0.24524505  0.25207385  1
  O  O392  1  0.88706492  0.25061475  0.74203715  1
  O  O393  1  0.87334285  0.73474027  0.25322171  1
  O  O394  1  0.87300364  0.74204346  0.74480455  1
  O  O395  1  0.35729287  0.46756426  0.57521843  1
  O  O396  1  0.38316089  0.50281067  0.98659513  1
  O  O397  1  0.37771882  0.99689268  0.49298145  1
  O  O398  1  0.37372131  0.98922662  0.99223653  1
  O  O399  1  0.87284815  0.48751697  0.50211937  1
  O  O400  1  0.87626164  0.50516397  0.98617664  1
  O  O401  1  0.88146464  0.99343835  0.49398604  1
  O  O402  1  0.88461200  1.00146076  0.99333415  1
  O  O403  1  0.12389697  0.01359195  0.00349372  1
  O  O404  1  0.11913612  0.00567191  0.50435622  1
  O  O405  1  0.12072198  0.49650986  0.01637210  1
  O  O406  1  0.12092738  0.51146012  0.51067124  1
  O  O407  1  0.63182963  0.01390603  -0.00300829  1
  O  O408  1  0.62854412  0.00389051  0.50521092  1
  O  O409  1  0.61648234  0.50313836  0.00265031  1
  O  O410  1  0.62212994  0.48226791  0.52716291  1
  O  O411  1  0.36374441  0.36958726  0.12633261  1
  O  O412  1  0.37080097  0.34691251  0.64794130  1
  O  O413  1  0.36613318  0.86761809  0.12120603  1
  O  O414  1  0.37153280  0.87122628  0.62064049  1
  O  O415  1  0.87073374  0.37325254  0.12896267  1
  O  O416  1  0.86326157  0.36942862  0.62078150  1
  O  O417  1  0.91769289  0.86785912  0.10777063  1
  O  O418  1  0.87819975  0.86703313  0.61238169  1
  O  O419  1  0.12502824  0.13868272  0.38102303  1
  O  O420  1  0.13662594  0.12902631  0.88050576  1
  O  O421  1  0.13390526  0.62175524  0.38291242  1
  O  O422  1  0.12873785  0.63815560  0.87210434  1
  O  O423  1  0.63149952  0.12602325  0.38226915  1
  O  O424  1  0.63150215  0.13315065  0.87937946  1
  O  O425  1  0.63529626  0.63391676  0.37400009  1
  O  O426  1  0.62878136  0.62801618  0.87686223  1
