# generated using pymatgen
data_V85Zn86O256
_symmetry_space_group_name_H-M   'P 1'
_cell_length_a   16.91260373
_cell_length_b   16.91210741
_cell_length_c   16.91763761
_cell_angle_alpha   89.99512193
_cell_angle_beta   90.01815311
_cell_angle_gamma   90.03788101
_symmetry_Int_Tables_number   1
_chemical_formula_structural   V85Zn86O256
_chemical_formula_sum   'V85 Zn86 O256'
_cell_volume   4838.91285806
_cell_formula_units_Z   1
loop_
 _symmetry_equiv_pos_site_id
 _symmetry_equiv_pos_as_xyz
  1  'x, y, z'
loop_
 _atom_site_type_symbol
 _atom_site_label
 _atom_site_symmetry_multiplicity
 _atom_site_fract_x
 _atom_site_fract_y
 _atom_site_fract_z
 _atom_site_occupancy
  V  V0  1  0.24875287  0.87225407  0.63080110  1
  V  V1  1  0.87520703  -0.00734439  0.88095327  1
  V  V2  1  0.88353083  0.49759206  0.37324847  1
  V  V3  1  0.63035834  0.48668875  0.12239779  1
  V  V4  1  0.25247898  0.87471255  0.12303152  1
  V  V5  1  0.24795290  0.74761794  -0.00019894  1
  V  V6  1  0.00332270  0.86371559  0.87729959  1
  V  V7  1  -0.00587969  0.63531414  0.12233285  1
  V  V8  1  0.85479914  0.50168863  0.86763156  1
  V  V9  1  -0.00127091  -0.00796540  0.48723312  1
  V  V10  1  0.63178692  0.63079037  0.50045909  1
  V  V11  1  -0.00237553  0.37871530  0.87604375  1
  V  V12  1  0.63163679  0.25523001  0.37147813  1
  V  V13  1  0.37732301  0.00234873  0.87722926  1
  V  V14  1  0.11891432  0.25335545  0.37619769  1
  V  V15  1  0.62832483  0.50231979  0.63801171  1
  V  V16  1  0.37599098  0.74691351  0.12833636  1
  V  V17  1  0.12312221  0.12866408  0.00662409  1
  V  V18  1  0.12231052  0.38103700  0.74591119  1
  V  V19  1  0.12202688  0.63215274  -0.00694924  1
  V  V20  1  0.37752773  0.12614359  0.24829718  1
  V  V21  1  0.11004578  0.37054771  0.25087536  1
  V  V22  1  0.75006326  0.37741723  0.63216374  1
  V  V23  1  0.89042365  0.12499677  0.24427562  1
  V  V24  1  0.62782199  -0.00628368  0.63048874  1
  V  V25  1  0.74903601  -0.01287324  0.75256359  1
  V  V26  1  0.12336150  0.86022670  0.75592118  1
  V  V27  1  0.75656355  -0.00059135  0.25184827  1
  V  V28  1  0.87623617  0.75300501  0.62508138  1
  V  V29  1  -0.00295863  0.75789470  0.25153688  1
  V  V30  1  0.62819385  -0.00351592  0.12753324  1
  V  V31  1  0.24777528  0.36991491  0.61633853  1
  V  V32  1  0.87151724  0.62837116  0.24470413  1
  V  V33  1  0.49375494  0.37536883  0.87703971  1
  V  V34  1  0.74925045  0.25590624  0.01061846  1
  V  V35  1  0.25122753  0.00190273  0.25154463  1
  V  V36  1  0.37721308  0.25515417  0.11918895  1
  V  V37  1  -0.00112828  -0.00126749  0.00221159  1
  V  V38  1  0.50789796  0.25211062  0.24801106  1
  V  V39  1  0.25419013  0.37867865  0.11783487  1
  V  V40  1  0.37568309  0.61913217  0.74803099  1
  V  V41  1  0.56228600  0.79314444  0.81006001  1
  V  V42  1  0.12043253  0.75558541  0.37650220  1
  V  V43  1  0.37704440  0.49788379  0.37435404  1
  V  V44  1  0.24920092  0.63389825  0.87181066  1
  V  V45  1  0.37405942  0.87553882  0.50173624  1
  V  V46  1  0.88999394  0.25441861  0.12669431  1
  V  V47  1  0.50421366  0.75167359  0.25426430  1
  V  V48  1  -0.00571737  0.50433619  -0.00534925  1
  V  V49  1  0.12337711  0.25262861  0.87706949  1
  V  V50  1  0.24760724  0.12871940  0.87559284  1
  V  V51  1  0.38385337  0.86065511  -0.01312290  1
  V  V52  1  0.86238064  0.63005104  0.75185123  1
  V  V53  1  0.12290086  0.50315340  0.12374993  1
  V  V54  1  -0.00141559  0.12171750  0.62516361  1
  V  V55  1  0.87300671  0.87222744  0.48718771  1
  V  V56  1  0.74408131  0.48824558  0.25031533  1
  V  V57  1  0.51210660  0.62703308  0.12208391  1
  V  V58  1  0.12191569  -0.00387698  0.62938707  1
  V  V59  1  0.75404523  0.24994266  0.50075156  1
  V  V60  1  0.13138766  0.12887782  0.50095169  1
  V  V61  1  0.50329335  0.12564204  0.62679305  1
  V  V62  1  0.24820472  0.62501753  0.37810684  1
  V  V63  1  0.24619736  0.49877003  0.74526978  1
  V  V64  1  0.50246604  -0.00817474  -0.00059637  1
  V  V65  1  0.00468444  0.61859611  0.63209039  1
  V  V66  1  0.50344152  -0.00098242  0.50063782  1
  V  V67  1  0.75869898  0.12190771  0.37274436  1
  V  V68  1  0.49483668  0.49928464  0.00181736  1
  V  V69  1  0.37637891  0.00020311  0.37456438  1
  V  V70  1  0.49967705  0.62588492  0.62296262  1
  V  V71  1  0.75174227  0.63137363  0.37634858  1
  V  V72  1  0.87388143  0.12191334  0.75230905  1
  V  V73  1  -0.00246133  0.24930778  0.75222673  1
  V  V74  1  0.50372688  0.49513562  0.49977993  1
  V  V75  1  0.62788685  0.12180135  -0.00008541  1
  V  V76  1  0.76613882  0.86712212  0.11209612  1
  V  V77  1  0.37618211  0.12662233  0.74905268  1
  V  V78  1  0.73932842  0.71621954  -0.02916111  1
  V  V79  1  0.37730020  0.74822621  0.62343515  1
  V  V80  1  0.24982264  0.49858943  0.24975487  1
  V  V81  1  0.88228607  0.37468990  0.49741842  1
  V  V82  1  0.50532005  0.37482165  0.36996172  1
  V  V83  1  0.12361020  0.00325127  0.12574531  1
  V  V84  1  0.62750235  0.25049197  0.87251749  1
  Zn  Zn85  1  0.24586609  0.74969767  0.49889773  1
  Zn  Zn86  1  0.87453038  0.24980093  0.62700276  1
  Zn  Zn87  1  0.36963576  0.24508803  0.61535769  1
  Zn  Zn88  1  0.12185070  0.87809371  0.25367804  1
  Zn  Zn89  1  0.25669040  0.13844988  0.38380005  1
  Zn  Zn90  1  0.25518108  0.25805571  -0.00224426  1
  Zn  Zn91  1  0.24931854  -0.00115966  0.75256792  1
  Zn  Zn92  1  0.50245591  0.25416128  0.74753753  1
  Zn  Zn93  1  0.37232070  0.49664362  0.88097475  1
  Zn  Zn94  1  0.62773129  0.38516106  0.75641580  1
  Zn  Zn95  1  0.86734524  0.38165918  0.00524525  1
  Zn  Zn96  1  0.63101574  0.12352913  0.49962951  1
  Zn  Zn97  1  0.62904964  0.75534059  0.38031977  1
  Zn  Zn98  1  0.00518756  0.49716614  0.50336918  1
  Zn  Zn99  1  0.37730473  0.62361400  0.25163174  1
  Zn  Zn100  1  0.75152347  0.12168864  0.87751204  1
  Zn  Zn101  1  0.50225515  0.12487223  0.12529533  1
  Zn  Zn102  1  0.63094421  0.87440395  0.25397001  1
  Zn  Zn103  1  0.37087349  0.36377086  0.49469166  1
  Zn  Zn104  1  0.50361061  0.87491243  0.37475556  1
  Zn  Zn105  1  0.12093429  0.62188597  0.50402060  1
  Zn  Zn106  1  0.74811066  0.86521659  0.62215133  1
  Zn  Zn107  1  0.18897254  0.19149115  0.18966758  1
  Zn  Zn108  1  0.18516828  0.18922628  0.68906053  1
  Zn  Zn109  1  0.18379801  0.68689004  0.18995935  1
  Zn  Zn110  1  0.18820935  0.68854704  0.68694706  1
  Zn  Zn111  1  0.69095467  0.18544561  0.18746695  1
  Zn  Zn112  1  0.69014650  0.18329936  0.68851203  1
  Zn  Zn113  1  0.68806187  0.68855709  0.18716400  1
  Zn  Zn114  1  0.69111451  0.69073368  0.68885870  1
  Zn  Zn115  1  0.31035397  0.31302340  0.31112252  1
  Zn  Zn116  1  0.31405114  0.31159799  0.80768633  1
  Zn  Zn117  1  0.31262646  0.81429052  0.31359911  1
  Zn  Zn118  1  0.36402289  0.80753360  0.81645837  1
  Zn  Zn119  1  0.82173589  0.31083663  0.31037523  1
  Zn  Zn120  1  0.81062221  0.31202449  0.81734089  1
  Zn  Zn121  1  0.81364020  0.81156349  0.30944632  1
  Zn  Zn122  1  0.81421331  0.80844922  0.81832820  1
  Zn  Zn123  1  0.17964903  0.43915300  0.43476326  1
  Zn  Zn124  1  0.18577906  0.44493111  0.93405476  1
  Zn  Zn125  1  0.18825747  0.93891984  0.43952352  1
  Zn  Zn126  1  0.19076714  0.93633778  0.93727734  1
  Zn  Zn127  1  0.69203659  0.43972030  0.43992856  1
  Zn  Zn128  1  0.68157755  0.43744408  0.94287954  1
  Zn  Zn129  1  0.68990655  0.93767792  0.43775658  1
  Zn  Zn130  1  0.68200253  0.92329001  0.93198211  1
  Zn  Zn131  1  0.31267964  0.06431197  0.06147914  1
  Zn  Zn132  1  0.31264136  0.05951438  0.56582104  1
  Zn  Zn133  1  0.31653061  0.56673379  0.06313708  1
  Zn  Zn134  1  0.31057322  0.55424065  0.55947309  1
  Zn  Zn135  1  0.81390728  0.06342271  0.06635925  1
  Zn  Zn136  1  0.81538053  0.05680621  0.56235633  1
  Zn  Zn137  1  0.80606268  0.57108513  0.05812318  1
  Zn  Zn138  1  0.81520370  0.56149565  0.56374198  1
  Zn  Zn139  1  0.43958766  0.43736136  0.18787834  1
  Zn  Zn140  1  0.43698110  0.43376808  0.68745228  1
  Zn  Zn141  1  0.43944515  0.93438331  0.18264186  1
  Zn  Zn142  1  0.44519386  0.93136614  0.69726542  1
  Zn  Zn143  1  0.93172220  0.44312818  0.18177053  1
  Zn  Zn144  1  0.93319525  0.43963343  0.68833595  1
  Zn  Zn145  1  0.93785825  0.94122283  0.18724245  1
  Zn  Zn146  1  0.93875615  0.93231458  0.69165045  1
  Zn  Zn147  1  0.06775425  0.06667720  0.31484285  1
  Zn  Zn148  1  0.06188705  0.05834943  0.81484525  1
  Zn  Zn149  1  0.06363487  0.56657646  0.31160350  1
  Zn  Zn150  1  0.05990078  0.56903897  0.81005857  1
  Zn  Zn151  1  0.56756801  0.06534462  0.31451973  1
  Zn  Zn152  1  0.56337145  0.05974234  0.81404318  1
  Zn  Zn153  1  0.56671008  0.56563970  0.30995653  1
  Zn  Zn154  1  0.55706207  0.58070172  0.81920361  1
  Zn  Zn155  1  0.43995233  0.18762070  0.43802706  1
  Zn  Zn156  1  0.44291598  0.18588132  0.93888642  1
  Zn  Zn157  1  0.43704788  0.68576845  0.43825671  1
  Zn  Zn158  1  0.45450172  0.68428775  0.93074971  1
  Zn  Zn159  1  0.94197888  0.18577849  0.43496088  1
  Zn  Zn160  1  0.93669290  0.18434607  0.94137040  1
  Zn  Zn161  1  0.93819083  0.68685223  0.43992942  1
  Zn  Zn162  1  0.92309828  0.68923935  0.93973001  1
  Zn  Zn163  1  0.06311683  0.31800620  0.06168042  1
  Zn  Zn164  1  0.06367080  0.30992290  0.56479617  1
  Zn  Zn165  1  0.06219377  0.81646890  0.06414281  1
  Zn  Zn166  1  0.05679352  0.80601501  0.56412948  1
  Zn  Zn167  1  0.56264775  0.31428087  0.05933615  1
  Zn  Zn168  1  0.56662380  0.31201637  0.56113941  1
  Zn  Zn169  1  0.57442712  0.81068247  0.06364299  1
  Zn  Zn170  1  0.56258741  0.81176471  0.56660992  1
  O  O171  1  0.13321592  0.11852085  0.11703804  1
  O  O172  1  0.11978859  0.11718351  0.62171375  1
  O  O173  1  0.11559574  0.62001638  0.11808872  1
  O  O174  1  0.10873343  0.63001398  0.62858273  1
  O  O175  1  0.62705893  0.11399058  0.11789528  1
  O  O176  1  0.61939668  0.11435674  0.62367114  1
  O  O177  1  0.61510298  0.61448930  0.13350322  1
  O  O178  1  0.61935566  0.62031473  0.61968735  1
  O  O179  1  0.38469358  0.38027839  0.37389571  1
  O  O180  1  0.38831160  0.37685187  0.86901428  1
  O  O181  1  0.37769692  0.88245831  0.38335704  1
  O  O182  1  0.34438916  0.90264244  0.87788497  1
  O  O183  1  0.86991381  0.38391958  0.38402299  1
  O  O184  1  0.87954882  0.38821113  0.87553601  1
  O  O185  1  0.87549181  0.87124848  0.38805528  1
  O  O186  1  0.88758339  0.88447733  0.87271958  1
  O  O187  1  0.25696790  0.00318270  0.36675475  1
  O  O188  1  0.25058072  0.01825460  0.87514908  1
  O  O189  1  0.25459532  0.50404151  0.36658419  1
  O  O190  1  0.25307397  0.50822265  0.86375785  1
  O  O191  1  0.74741490  0.01349554  0.36776536  1
  O  O192  1  0.75680405  -0.00431112  0.87114008  1
  O  O193  1  0.75409551  0.50710089  0.36345183  1
  O  O194  1  0.75680779  0.49152346  0.87227895  1
  O  O195  1  0.24615091  0.49877141  0.13074451  1
  O  O196  1  0.25131696  0.49010382  0.63768337  1
  O  O197  1  0.24429339  0.99649437  0.12973182  1
  O  O198  1  0.23984622  0.99133418  0.62779828  1
  O  O199  1  0.73828263  0.50372614  0.13451143  1
  O  O200  1  0.73984124  0.49000419  0.61917399  1
  O  O201  1  0.74586863  0.99451645  0.13228921  1
  O  O202  1  0.74357768  1.00078271  0.63475833  1
  O  O203  1  0.01243342  0.38445653  0.24204277  1
  O  O204  1  0.00540387  0.37182039  0.75370597  1
  O  O205  1  -0.00076004  0.86182250  0.24497770  1
  O  O206  1  0.00876986  0.87733295  0.76747263  1
  O  O207  1  0.49984220  0.36747873  0.26162115  1
  O  O208  1  0.50685337  0.37353070  0.75767003  1
  O  O209  1  0.50088913  0.86265692  0.24925900  1
  O  O210  1  0.48081075  0.84492972  0.76367145  1
  O  O211  1  0.49471890  0.13345677  0.24919239  1
  O  O212  1  0.49392728  0.12516066  0.74336586  1
  O  O213  1  0.49932889  0.63609459  0.24477868  1
  O  O214  1  0.48807567  0.61209589  0.72952995  1
  O  O215  1  0.98917077  0.12052620  0.25085446  1
  O  O216  1  0.99067310  0.12605724  0.74814952  1
  O  O217  1  0.99252217  0.63048763  0.23953623  1
  O  O218  1  0.98769949  0.62154937  0.73898024  1
  O  O219  1  0.37599946  0.24269843  0.01525357  1
  O  O220  1  0.37507024  0.25019146  0.50143145  1
  O  O221  1  0.36246688  0.73972441  0.02009004  1
  O  O222  1  0.37181619  0.75525426  0.50809619  1
  O  O223  1  0.86753116  0.24723970  0.01124873  1
  O  O224  1  0.86763006  0.25467850  0.49919859  1
  O  O225  1  0.83922809  0.73193729  0.00033640  1
  O  O226  1  0.88202432  0.76547523  0.50656533  1
  O  O227  1  0.12186061  0.24045530  0.49318816  1
  O  O228  1  0.12709764  0.24486506  0.99578760  1
  O  O229  1  0.12495142  0.74379987  0.49222402  1
  O  O230  1  0.13064939  0.73899550  1.00647228  1
  O  O231  1  0.63897710  0.24731045  0.49229394  1
  O  O232  1  0.63087166  0.24202481  0.99509749  1
  O  O233  1  0.61985461  0.73506026  0.50099782  1
  O  O234  1  0.64783608  0.74662261  1.01045346  1
  O  O235  1  0.49672016  0.25010962  0.13213197  1
  O  O236  1  0.50563270  0.23526885  0.62506983  1
  O  O237  1  0.49620270  0.74360001  0.12956344  1
  O  O238  1  0.48892982  0.73892388  0.61851681  1
  O  O239  1  0.98857834  0.24889006  0.11695285  1
  O  O240  1  0.99804125  0.24020098  0.63451558  1
  O  O241  1  1.00276166  0.74080639  0.13013362  1
  O  O242  1  0.98599435  0.73693329  0.62526870  1
  O  O243  1  0.01678256  0.24566629  0.37278507  1
  O  O244  1  0.00158426  0.25738359  0.87231581  1
  O  O245  1  0.00885656  0.74169401  0.36451181  1
  O  O246  1  -0.00545937  0.76535129  0.88850771  1
  O  O247  1  0.51101997  0.25468730  0.36833578  1
  O  O248  1  0.50873486  0.25754559  0.87633005  1
  O  O249  1  0.50020164  0.75067449  0.36694293  1
  O  O250  1  0.43513922  0.79453651  0.91023897  1
  O  O251  1  0.23536492  0.11617952  0.50226031  1
  O  O252  1  0.24091043  0.12949901  0.99292613  1
  O  O253  1  0.25043943  0.62328514  0.48733030  1
  O  O254  1  0.24158759  0.62594317  0.99214464  1
  O  O255  1  0.75646694  0.13128562  0.49113271  1
  O  O256  1  0.73974761  0.12780636  0.99942089  1
  O  O257  1  0.74232862  0.61628080  0.49050357  1
  O  O258  1  0.73492596  0.61444215  0.98168376  1
  O  O259  1  0.24286494  0.37924955  0.01302762  1
  O  O260  1  0.24824275  0.38323717  0.51416896  1
  O  O261  1  0.25638667  0.86529218  0.00446518  1
  O  O262  1  0.25614816  0.87616973  0.51321728  1
  O  O263  1  0.75077661  0.36237819  -0.00269997  1
  O  O264  1  0.75791423  0.36749695  0.50832341  1
  O  O265  1  0.74925723  0.87679058  0.01183921  1
  O  O266  1  0.76956438  0.88676714  0.50467175  1
  O  O267  1  0.13080242  0.49422865  0.24439170  1
  O  O268  1  0.12965457  0.48859016  0.75599261  1
  O  O269  1  0.13358738  1.00072860  0.24411229  1
  O  O270  1  0.12588705  0.99369460  0.74062603  1
  O  O271  1  0.63712202  0.50080571  0.24320819  1
  O  O272  1  0.61928920  0.50927816  0.74105199  1
  O  O273  1  0.63526325  1.00253188  0.24273799  1
  O  O274  1  0.63601957  1.00304952  0.74471373  1
  O  O275  1  0.37247919  0.00706434  0.25113018  1
  O  O276  1  0.37579489  0.01046188  0.75769105  1
  O  O277  1  0.36694669  0.50039166  0.25538953  1
  O  O278  1  0.36599560  0.50683617  0.74792997  1
  O  O279  1  0.87106133  0.01528894  0.24526132  1
  O  O280  1  0.87114270  0.00457897  0.75911781  1
  O  O281  1  0.86498995  0.50791481  0.25347820  1
  O  O282  1  0.87419601  0.50638997  0.76264772  1
  O  O283  1  0.12684875  0.37043301  0.35824825  1
  O  O284  1  0.11838444  0.37127556  0.86947507  1
  O  O285  1  0.13466905  0.86064582  0.37273346  1
  O  O286  1  0.11502224  0.88006556  0.86910261  1
  O  O287  1  0.62268348  0.36359445  0.37886140  1
  O  O288  1  0.61759862  0.36690862  0.87417255  1
  O  O289  1  0.62284656  0.87298792  0.37320658  1
  O  O290  1  0.60944227  0.85963385  0.87044358  1
  O  O291  1  0.37701184  0.13132053  0.13521306  1
  O  O292  1  0.38304381  0.12282297  0.63335803  1
  O  O293  1  0.38642299  0.63057434  0.13188478  1
  O  O294  1  0.37993101  0.62742876  0.62351054  1
  O  O295  1  0.87431301  0.13528795  0.13654994  1
  O  O296  1  0.88100810  0.12413802  0.63427987  1
  O  O297  1  0.88163318  0.61843230  0.13272954  1
  O  O298  1  0.87895032  0.62808550  0.63551858  1
  O  O299  1  0.25936139  0.26136287  0.12529943  1
  O  O300  1  0.24926349  0.26551481  0.63101023  1
  O  O301  1  0.25610534  0.75359470  0.12583067  1
  O  O302  1  0.25622962  0.75578281  0.62035059  1
  O  O303  1  0.75572358  0.24545302  0.11422887  1
  O  O304  1  0.75064162  0.25387743  0.61581842  1
  O  O305  1  0.75098491  0.76991488  0.13846236  1
  O  O306  1  0.76803360  0.74821479  0.62344169  1
  O  O307  1  0.23310834  0.24936558  0.36333668  1
  O  O308  1  0.24654747  0.24401571  0.87696587  1
  O  O309  1  0.24580745  0.74049383  0.37450518  1
  O  O310  1  0.26186540  0.73642590  0.87875307  1
  O  O311  1  0.74751846  0.24619857  0.37850885  1
  O  O312  1  0.74383370  0.24555798  0.88689186  1
  O  O313  1  0.74958277  0.73572920  0.37045339  1
  O  O314  1  0.74000101  0.74202786  0.87134428  1
  O  O315  1  0.01560664  0.11459715  -0.00609263  1
  O  O316  1  0.00715935  0.11256791  0.50518627  1
  O  O317  1  0.00280096  0.62456620  0.00247124  1
  O  O318  1  -0.00591090  0.62195117  0.51692747  1
  O  O319  1  0.51245495  0.11553383  0.00304367  1
  O  O320  1  0.50239376  0.11317218  0.50840358  1
  O  O321  1  0.50038955  0.61589925  0.01101562  1
  O  O322  1  0.50516056  0.61523501  0.50695868  1
  O  O323  1  0.50359477  0.38000692  0.48852258  1
  O  O324  1  0.50403617  0.38432563  0.99002317  1
  O  O325  1  0.49395244  0.88644490  0.50317650  1
  O  O326  1  0.50168911  0.88822655  1.01379526  1
  O  O327  1  0.98581207  0.37437264  0.50861534  1
  O  O328  1  0.99596293  0.38777372  0.99474488  1
  O  O329  1  0.99373843  0.88604360  0.50400741  1
  O  O330  1  1.00882423  0.88849836  0.99056046  1
  O  O331  1  0.50092340  0.49272105  0.37807825  1
  O  O332  1  0.50408856  0.49710166  0.88522413  1
  O  O333  1  0.49635033  1.00157865  0.38457428  1
  O  O334  1  0.48946184  1.00338567  0.88494258  1
  O  O335  1  0.98572063  0.50582276  0.37123579  1
  O  O336  1  0.99747366  0.49922483  0.88412455  1
  O  O337  1  1.00880478  0.99849493  0.38885385  1
  O  O338  1  0.99392530  0.99322252  0.88378284  1
  O  O339  1  0.01500909  -0.00431611  0.11824677  1
  O  O340  1  0.00765111  0.00272012  0.62279419  1
  O  O341  1  0.00058892  0.51054560  0.11122201  1
  O  O342  1  -0.00699204  0.51376156  0.62477030  1
  O  O343  1  0.51024527  0.00385646  0.12043036  1
  O  O344  1  0.50599317  0.00524328  0.62440313  1
  O  O345  1  0.50951683  0.50515827  0.12328795  1
  O  O346  1  0.50716218  0.50114371  0.61550691  1
  O  O347  1  0.24384853  0.38682670  0.23955477  1
  O  O348  1  0.24177223  0.38096879  0.74561338  1
  O  O349  1  0.25388061  0.88895329  0.24322980  1
  O  O350  1  0.24450184  0.87663811  0.73888505  1
  O  O351  1  0.75491252  0.39000400  0.25356393  1
  O  O352  1  0.74714686  0.36748768  0.73665089  1
  O  O353  1  0.75545991  0.89053117  0.24894104  1
  O  O354  1  0.76015317  0.88522986  0.74612983  1
  O  O355  1  0.25905638  0.11518299  0.24831801  1
  O  O356  1  0.25709491  0.12457700  0.75709861  1
  O  O357  1  0.24951782  0.61379343  0.25757647  1
  O  O358  1  0.25197766  0.61665949  0.75354379  1
  O  O359  1  0.75829774  0.11720080  0.25479413  1
  O  O360  1  0.76296004  0.11707064  0.75348103  1
  O  O361  1  0.75637234  0.61788492  0.25520410  1
  O  O362  1  0.76306494  0.62015918  0.74505396  1
  O  O363  1  0.37499304  0.12063556  0.36306073  1
  O  O364  1  0.36866225  0.12152292  0.87133662  1
  O  O365  1  0.36740355  0.61742086  0.37284919  1
  O  O366  1  0.37178340  0.61947234  0.86269492  1
  O  O367  1  0.86824908  0.13592900  0.35874895  1
  O  O368  1  0.87517699  0.11218889  0.86980613  1
  O  O369  1  0.86824804  0.61752054  0.36909379  1
  O  O370  1  0.87772600  0.61371670  0.86110999  1
  O  O371  1  0.13109497  0.38275361  0.13262706  1
  O  O372  1  0.13443601  0.37180975  0.63462120  1
  O  O373  1  0.13476378  0.88462464  0.12789173  1
  O  O374  1  0.12846582  0.87764824  0.63150162  1
  O  O375  1  0.62151992  0.38785568  0.12881681  1
  O  O376  1  0.63101658  0.38442333  0.62783999  1
  O  O377  1  0.63428697  0.88788732  0.13091579  1
  O  O378  1  0.62903629  0.88917868  0.61777870  1
  O  O379  1  0.12270404  0.26507610  0.24924780  1
  O  O380  1  0.11772473  0.25904751  0.75766945  1
  O  O381  1  0.11517765  0.75245774  0.25589970  1
  O  O382  1  0.12729617  0.76102567  0.75142979  1
  O  O383  1  0.61653937  0.24543816  0.25497885  1
  O  O384  1  0.62665771  0.24562426  0.76462803  1
  O  O385  1  0.61690938  0.75216708  0.25409332  1
  O  O386  1  0.62350195  0.77037131  0.73298947  1
  O  O387  1  0.38522331  0.24403254  0.24296838  1
  O  O388  1  0.37961883  0.23684919  0.74617440  1
  O  O389  1  0.38049934  0.75020976  0.24143016  1
  O  O390  1  0.36484351  0.72938334  0.73387831  1
  O  O391  1  0.87376613  0.24141566  0.23539452  1
  O  O392  1  0.87940318  0.24005533  0.75304678  1
  O  O393  1  0.88212510  0.73635807  0.25469692  1
  O  O394  1  0.87379045  0.73652849  0.74577964  1
  O  O395  1  0.38907803  0.49409853  0.49363162  1
  O  O396  1  0.38879199  0.50156266  1.00125249  1
  O  O397  1  0.38294591  0.99648525  0.49658730  1
  O  O398  1  0.38425847  0.99592686  0.99546414  1
  O  O399  1  0.87560353  0.49153875  0.48986283  1
  O  O400  1  0.87793310  0.50374874  0.98716217  1
  O  O401  1  0.89111062  0.99030727  0.50336819  1
  O  O402  1  0.88737676  1.00875508  0.99419161  1
  O  O403  1  0.12350811  0.00780821  0.00769820  1
  O  O404  1  0.11588504  0.00144411  0.51053459  1
  O  O405  1  0.11553294  0.51214079  0.00345847  1
  O  O406  1  0.11734887  0.50859652  0.49199258  1
  O  O407  1  0.62170938  0.00335570  0.00379679  1
  O  O408  1  0.61824680  0.00371533  0.50690204  1
  O  O409  1  0.61656796  0.49731145  0.01660603  1
  O  O410  1  0.61684148  0.50747301  0.50565216  1
  O  O411  1  0.36729092  0.36751927  0.13036138  1
  O  O412  1  0.36069110  0.37166875  0.62492137  1
  O  O413  1  0.37254067  0.86470181  0.11400152  1
  O  O414  1  0.36917888  0.86692606  0.62519610  1
  O  O415  1  0.87679460  0.36067357  0.12332592  1
  O  O416  1  0.86625361  0.37287425  0.61913808  1
  O  O417  1  0.86512996  0.88131550  0.12264315  1
  O  O418  1  0.87825113  0.86547148  0.62120032  1
  O  O419  1  0.13022061  0.13230700  0.38465152  1
  O  O420  1  0.13107949  0.13228516  0.87936866  1
  O  O421  1  0.13421065  0.63611057  0.37157449  1
  O  O422  1  0.13345291  0.62347852  0.88208348  1
  O  O423  1  0.63726960  0.13790271  0.37657080  1
  O  O424  1  0.62641741  0.13069666  0.88390888  1
  O  O425  1  0.63367859  0.62459187  0.38395396  1
  O  O426  1  0.54627036  0.69371501  0.85222302  1
