# generated using pymatgen
data_V85Zn86O256
_symmetry_space_group_name_H-M   'P 1'
_cell_length_a   16.93262830
_cell_length_b   16.95709339
_cell_length_c   16.95788884
_cell_angle_alpha   90.00088752
_cell_angle_beta   90.04416985
_cell_angle_gamma   90.04201641
_symmetry_Int_Tables_number   1
_chemical_formula_structural   V85Zn86O256
_chemical_formula_sum   'V85 Zn86 O256'
_cell_volume   4869.08465173
_cell_formula_units_Z   1
loop_
 _symmetry_equiv_pos_site_id
 _symmetry_equiv_pos_as_xyz
  1  'x, y, z'
loop_
 _atom_site_type_symbol
 _atom_site_label
 _atom_site_symmetry_multiplicity
 _atom_site_fract_x
 _atom_site_fract_y
 _atom_site_fract_z
 _atom_site_occupancy
  V  V0  1  0.49418906  -0.00334236  -0.00091051  1
  V  V1  1  0.49656991  0.00234444  0.49463789  1
  V  V2  1  0.11938364  0.37025307  0.75044677  1
  V  V3  1  0.12735517  0.24920417  0.38061214  1
  V  V4  1  0.12331076  -0.00208598  0.12381972  1
  V  V5  1  0.25279772  -0.00346078  0.25649770  1
  V  V6  1  0.37589268  0.24709680  0.12848887  1
  V  V7  1  0.50931755  0.87458953  0.37990227  1
  V  V8  1  0.86385731  0.61815166  0.24471840  1
  V  V9  1  0.75265920  0.49936999  0.74920748  1
  V  V10  1  0.75007123  0.12557327  0.36503549  1
  V  V11  1  0.12297192  0.37281626  0.25065530  1
  V  V12  1  -0.00869993  0.37223278  0.37672209  1
  V  V13  1  0.88071180  0.88581464  -0.00116621  1
  V  V14  1  0.87925949  0.62497448  0.76029734  1
  V  V15  1  0.23656380  0.88227532  0.62743050  1
  V  V16  1  0.00402937  0.00188411  0.50192422  1
  V  V17  1  0.62906012  0.23924590  0.86410952  1
  V  V18  1  0.37285265  0.36656420  -0.00590557  1
  V  V19  1  0.49540980  0.62496582  0.62621200  1
  V  V20  1  0.75115280  0.24791125  0.49514431  1
  V  V21  1  0.49860242  0.74982316  0.74829673  1
  V  V22  1  0.01340238  0.75499705  0.75317628  1
  V  V23  1  0.87187768  0.75050556  0.62417767  1
  V  V24  1  0.49758129  0.49503596  0.50180031  1
  V  V25  1  0.24746837  0.36398517  0.62046719  1
  V  V26  1  0.12307197  0.49941697  0.12012179  1
  V  V27  1  0.25003623  0.37214017  0.12729277  1
  V  V28  1  0.37359361  0.12123341  0.74973124  1
  V  V29  1  0.87497476  0.87684546  0.49843061  1
  V  V30  1  0.63059146  0.37604430  0.25571326  1
  V  V31  1  0.25936270  0.50894166  0.74628752  1
  V  V32  1  0.48116662  0.66614651  0.09113720  1
  V  V33  1  0.74829496  0.25322671  0.00038318  1
  V  V34  1  -0.00559186  0.23931386  0.25061059  1
  V  V35  1  0.75035352  0.62010026  0.87203386  1
  V  V36  1  0.32582810  0.55029556  0.91822691  1
  V  V37  1  0.62368608  0.62779922  0.49379953  1
  V  V38  1  -0.00155612  0.62462637  0.62340111  1
  V  V39  1  0.49901687  0.37550925  0.87321976  1
  V  V40  1  0.01370407  0.87767537  0.87566453  1
  V  V41  1  0.62193639  0.75217525  0.87313722  1
  V  V42  1  0.25269949  0.12412931  0.38303757  1
  V  V43  1  0.24845816  0.12622455  0.87764079  1
  V  V44  1  0.12235546  0.12594614  0.50613391  1
  V  V45  1  0.62372938  -0.00331977  0.12892382  1
  V  V46  1  0.37217467  0.87870992  0.49535068  1
  V  V47  1  -0.00792886  0.49571896  0.49915806  1
  V  V48  1  0.50053949  0.12393508  0.62343643  1
  V  V49  1  0.37671691  -0.00348829  0.87529701  1
  V  V50  1  0.86583655  0.49843556  0.37124320  1
  V  V51  1  0.87415849  0.24523460  0.12571614  1
  V  V52  1  0.87460863  0.37826132  -0.00663939  1
  V  V53  1  0.26608186  0.86493801  0.11429265  1
  V  V54  1  0.11132170  0.24713186  0.87443598  1
  V  V55  1  0.12935911  0.73848810  0.37094298  1
  V  V56  1  0.24950869  0.74166199  0.49722492  1
  V  V57  1  0.49651220  0.12297439  0.13038756  1
  V  V58  1  0.63471647  0.87726694  0.74758276  1
  V  V59  1  0.62410789  0.12732313  0.00440325  1
  V  V60  1  -0.00014996  0.49953308  -0.01151100  1
  V  V61  1  0.00392486  0.62385844  0.11859257  1
  V  V62  1  0.74680813  0.75156868  0.48976970  1
  V  V63  1  0.74930225  0.75078623  -0.00295446  1
  V  V64  1  0.12987089  0.87197903  0.24974209  1
  V  V65  1  0.37463136  0.12041409  0.25710076  1
  V  V66  1  0.37215311  0.49979270  0.37710035  1
  V  V67  1  0.87084418  -0.00265367  0.85308605  1
  V  V68  1  0.49569287  0.25318178  0.74642922  1
  V  V69  1  0.74861337  0.87336821  0.12612876  1
  V  V70  1  0.12248785  0.49828109  0.62554753  1
  V  V71  1  0.11602448  0.12222109  0.00468602  1
  V  V72  1  0.75013060  0.37483244  0.61883160  1
  V  V73  1  0.51528194  0.74086387  0.26480706  1
  V  V74  1  0.50208409  0.49410328  0.00502000  1
  V  V75  1  0.63385181  0.00151697  0.62345048  1
  V  V76  1  0.37358308  0.63333104  0.25546181  1
  V  V77  1  0.37269429  0.75062939  0.62718347  1
  V  V78  1  0.24843332  0.50402386  0.25826594  1
  V  V79  1  0.00003691  0.74637664  0.24801844  1
  V  V80  1  0.00157445  0.87308797  0.37462458  1
  V  V81  1  0.87626167  0.74878235  0.11819302  1
  V  V82  1  -0.00720260  0.12238144  0.63973442  1
  V  V83  1  0.62317694  0.62092715  -0.00245784  1
  V  V84  1  0.87721922  0.25245077  0.63812222  1
  Zn  Zn85  1  0.62274932  0.38180350  0.74926517  1
  Zn  Zn86  1  0.50453307  0.36672281  0.37805194  1
  Zn  Zn87  1  -0.01028249  0.11221734  0.12864093  1
  Zn  Zn88  1  0.50646779  0.24746114  0.26458509  1
  Zn  Zn89  1  0.75129755  0.39261418  0.12859990  1
  Zn  Zn90  1  0.12540571  0.62045134  0.49370571  1
  Zn  Zn91  1  0.62970955  0.87265352  0.25816061  1
  Zn  Zn92  1  0.62790453  0.50437620  0.13162071  1
  Zn  Zn93  1  0.75919426  0.88598217  0.62867241  1
  Zn  Zn94  1  0.76037344  0.00590981  0.24469788  1
  Zn  Zn95  1  0.61969347  0.13437661  0.49201564  1
  Zn  Zn96  1  -0.00663888  0.37433666  0.86735312  1
  Zn  Zn97  1  0.76353330  0.12116996  0.86634894  1
  Zn  Zn98  1  0.74241432  0.62521158  0.36757588  1
  Zn  Zn99  1  0.50171496  0.88099334  0.87048285  1
  Zn  Zn100  1  0.24678913  0.24651531  0.00207127  1
  Zn  Zn101  1  0.36551201  0.36443933  0.49369611  1
  Zn  Zn102  1  0.23446206  -0.00201545  0.75028671  1
  Zn  Zn103  1  0.20376425  0.70294624  -0.06562513  1
  Zn  Zn104  1  0.62493258  0.50161992  0.62563805  1
  Zn  Zn105  1  0.36732312  0.24455277  0.61768293  1
  Zn  Zn106  1  0.88094599  0.01079045  0.36665010  1
  Zn  Zn107  1  0.18653144  0.18528455  0.19168248  1
  Zn  Zn108  1  0.17890813  0.18031927  0.69315912  1
  Zn  Zn109  1  0.18935108  0.68855294  0.17681991  1
  Zn  Zn110  1  0.18792080  0.68555841  0.68459240  1
  Zn  Zn111  1  0.68620148  0.19492855  0.18728213  1
  Zn  Zn112  1  0.68464775  0.19046166  0.68656255  1
  Zn  Zn113  1  0.68127420  0.68465966  0.18155275  1
  Zn  Zn114  1  0.68575672  0.68788535  0.68272025  1
  Zn  Zn115  1  0.31256014  0.30980962  0.31472691  1
  Zn  Zn116  1  0.30633249  0.31041357  0.80820140  1
  Zn  Zn117  1  0.31548906  0.81241574  0.31571252  1
  Zn  Zn118  1  0.30677806  0.81447403  0.80764471  1
  Zn  Zn119  1  0.80932137  0.31141196  0.31067269  1
  Zn  Zn120  1  0.81060398  0.31384502  0.81288869  1
  Zn  Zn121  1  0.81558399  0.81283546  0.30968860  1
  Zn  Zn122  1  0.81785410  0.81062155  0.81292319  1
  Zn  Zn123  1  0.18033743  0.43773434  0.43841943  1
  Zn  Zn124  1  0.18248733  0.43207457  0.93784050  1
  Zn  Zn125  1  0.18527620  0.93601080  0.43852405  1
  Zn  Zn126  1  0.19296506  0.94070047  0.94132528  1
  Zn  Zn127  1  0.68582697  0.43640413  0.44077295  1
  Zn  Zn128  1  0.68570612  0.43422364  0.93514023  1
  Zn  Zn129  1  0.68966979  0.94575710  0.43948023  1
  Zn  Zn130  1  0.68894558  0.93998098  0.93795718  1
  Zn  Zn131  1  0.30803195  0.05731186  0.06433240  1
  Zn  Zn132  1  0.31299645  0.06195750  0.56089661  1
  Zn  Zn133  1  0.31662189  0.56048388  0.08478221  1
  Zn  Zn134  1  0.31281957  0.56070121  0.56471414  1
  Zn  Zn135  1  0.80833258  0.06408470  0.06025632  1
  Zn  Zn136  1  0.81704267  0.06692538  0.55738062  1
  Zn  Zn137  1  0.81451100  0.56074970  0.05668557  1
  Zn  Zn138  1  0.81233368  0.56381912  0.56094782  1
  Zn  Zn139  1  0.44082013  0.43405868  0.19254874  1
  Zn  Zn140  1  0.43138184  0.43672106  0.68374882  1
  Zn  Zn141  1  0.44008368  0.93459191  0.19614187  1
  Zn  Zn142  1  0.43860902  0.93632662  0.68397690  1
  Zn  Zn143  1  0.93503103  0.43239404  0.18526669  1
  Zn  Zn144  1  0.93332100  0.43736009  0.68866089  1
  Zn  Zn145  1  0.93853733  0.93518270  0.19047078  1
  Zn  Zn146  1  1.05689283  0.94101271  0.68891033  1
  Zn  Zn147  1  0.06497807  0.06022630  0.31497119  1
  Zn  Zn148  1  0.05726989  0.06024227  0.82056340  1
  Zn  Zn149  1  0.05558880  0.56010627  0.30729136  1
  Zn  Zn150  1  0.07701893  0.56674187  0.81150169  1
  Zn  Zn151  1  0.56692936  0.06349282  0.31545954  1
  Zn  Zn152  1  0.58066810  0.07100058  0.80581139  1
  Zn  Zn153  1  0.56155607  0.55360121  0.31657931  1
  Zn  Zn154  1  0.55724426  0.56225483  0.81265013  1
  Zn  Zn155  1  0.43222205  0.19430588  0.44124128  1
  Zn  Zn156  1  0.44055615  0.18465559  0.93719700  1
  Zn  Zn157  1  0.43408992  0.68469447  0.43805676  1
  Zn  Zn158  1  0.40244920  0.72007947  0.92154236  1
  Zn  Zn159  1  0.93069979  0.19090287  0.44334772  1
  Zn  Zn160  1  0.93385158  0.18078932  0.93896855  1
  Zn  Zn161  1  0.93531527  0.68450959  0.43451449  1
  Zn  Zn162  1  1.04265881  0.69086874  0.93867639  1
  Zn  Zn163  1  0.05885549  0.31037055  0.06162864  1
  Zn  Zn164  1  0.05699673  0.31052919  0.56271634  1
  Zn  Zn165  1  0.07104570  0.81694573  0.05987135  1
  Zn  Zn166  1  0.06059784  0.80593778  0.55741268  1
  Zn  Zn167  1  0.56425087  0.31355723  0.07166572  1
  Zn  Zn168  1  0.56485904  0.31317135  0.56364446  1
  Zn  Zn169  1  0.55382674  0.81390880  0.06065477  1
  Zn  Zn170  1  0.56530381  0.81432601  0.56276949  1
  O  O171  1  0.12675385  0.11666784  0.12018429  1
  O  O172  1  0.10790561  0.13727721  0.61283749  1
  O  O173  1  0.11495335  0.61171591  0.13301392  1
  O  O174  1  0.11105890  0.61815179  0.62401659  1
  O  O175  1  0.61928110  0.11943657  0.12052619  1
  O  O176  1  0.61226540  0.11914990  0.62381841  1
  O  O177  1  0.60339516  0.63231552  0.10807152  1
  O  O178  1  0.61205180  0.62507358  0.61441352  1
  O  O179  1  0.37110335  0.38755171  0.37567752  1
  O  O180  1  0.37893603  0.36356984  0.88683889  1
  O  O181  1  0.38480944  0.87071021  0.38989413  1
  O  O182  1  0.37981386  0.89471771  0.86163085  1
  O  O183  1  0.88436793  0.38182799  0.36797677  1
  O  O184  1  0.87715399  0.37018498  0.88729650  1
  O  O185  1  0.88360741  0.86973377  0.38611903  1
  O  O186  1  0.87730227  0.88207800  0.88255144  1
  O  O187  1  0.24269945  0.00735102  0.36478112  1
  O  O188  1  0.25725983  0.01051601  0.87200414  1
  O  O189  1  0.24955476  0.49741154  0.36399827  1
  O  O190  1  0.25132295  0.49664115  0.86499946  1
  O  O191  1  0.75375902  0.01329391  0.37166264  1
  O  O192  1  0.76503090  -0.00016738  0.87789589  1
  O  O193  1  0.76352987  0.50265344  0.38279390  1
  O  O194  1  0.74465906  0.51256473  0.86768275  1
  O  O195  1  0.24196028  0.49185167  0.13554320  1
  O  O196  1  0.24437452  0.49238835  0.63334345  1
  O  O197  1  0.24250913  0.99450162  0.13941799  1
  O  O198  1  0.25185479  0.98399029  0.62274252  1
  O  O199  1  0.74225209  0.50722929  0.11966624  1
  O  O200  1  0.75165333  0.49205593  0.62951758  1
  O  O201  1  0.74135834  0.99202615  0.12446789  1
  O  O202  1  0.73834905  1.00503277  0.61798128  1
  O  O203  1  0.00565424  0.36674595  0.25746215  1
  O  O204  1  0.01329460  0.38229790  0.75042713  1
  O  O205  1  0.00937844  0.86334760  0.25314675  1
  O  O206  1  0.00176870  0.86781620  0.76168746  1
  O  O207  1  0.50801708  0.36923416  0.25448713  1
  O  O208  1  0.49307565  0.36990231  0.75606828  1
  O  O209  1  0.50307399  0.86471864  0.26441694  1
  O  O210  1  0.51054350  0.86362073  0.74332251  1
  O  O211  1  0.49160000  0.12371338  0.24829897  1
  O  O212  1  0.49442651  0.13331054  0.74295696  1
  O  O213  1  0.49667006  0.63571210  0.26138076  1
  O  O214  1  0.50662022  0.63870004  0.74004671  1
  O  O215  1  1.00565132  0.13622783  0.24991192  1
  O  O216  1  1.00013636  0.12529776  0.73715885  1
  O  O217  1  0.98949186  0.62816662  0.23749058  1
  O  O218  1  0.99374182  0.62951712  0.74317811  1
  O  O219  1  0.37225499  0.25234292  0.00848886  1
  O  O220  1  0.36210057  0.25137480  0.50518273  1
  O  O221  1  0.44688875  0.74092330  0.02494112  1
  O  O222  1  0.36752272  0.75488795  0.50736745  1
  O  O223  1  0.86827376  0.25503253  0.00382612  1
  O  O224  1  0.85842534  0.24892636  0.51450529  1
  O  O225  1  0.86651554  0.75878922  0.01214125  1
  O  O226  1  0.87025172  0.75306568  0.50518716  1
  O  O227  1  0.11637912  0.24231879  0.48785438  1
  O  O228  1  0.12719240  0.24317670  0.99404518  1
  O  O229  1  0.13140209  0.74536288  0.48934694  1
  O  O230  1  0.12342734  0.73535990  1.00810898  1
  O  O231  1  0.64461200  0.24964149  0.51059169  1
  O  O232  1  0.63162837  0.24525165  0.99895328  1
  O  O233  1  0.63544454  0.74255881  0.50587581  1
  O  O234  1  0.62792719  0.74379208  0.99156921  1
  O  O235  1  0.48626671  0.24246464  0.12680709  1
  O  O236  1  0.49598285  0.24236868  0.63012005  1
  O  O237  1  0.50932517  0.75344951  0.15409710  1
  O  O238  1  0.49237260  0.74501732  0.62621681  1
  O  O239  1  0.99233845  0.24847945  0.13482044  1
  O  O240  1  0.98425739  0.24153253  0.62121802  1
  O  O241  1  0.99310140  0.74227315  0.12728596  1
  O  O242  1  0.99075360  0.74279979  0.62802069  1
  O  O243  1  0.00059469  0.25558126  0.37016702  1
  O  O244  1  0.00847520  0.24898093  0.87955442  1
  O  O245  1  0.00680995  0.75274286  0.36832933  1
  O  O246  1  -0.00602965  0.76609001  0.86417181  1
  O  O247  1  0.50154185  0.25218571  0.37851581  1
  O  O248  1  0.50191174  0.25703495  0.86541290  1
  O  O249  1  0.49883405  0.75714553  0.37163651  1
  O  O250  1  0.50117185  0.75691762  0.86151104  1
  O  O251  1  0.23688139  0.11608438  0.49357140  1
  O  O252  1  0.24124251  0.12523031  0.99283696  1
  O  O253  1  0.24599106  0.63744280  0.50806536  1
  O  O254  1  0.27475395  0.60710942  0.98713557  1
  O  O255  1  0.74625121  0.13591644  0.49459589  1
  O  O256  1  0.73784823  0.13202768  0.99471369  1
  O  O257  1  0.74083073  0.63298193  0.49976357  1
  O  O258  1  0.74307770  0.63027495  0.98961198  1
  O  O259  1  0.25792130  0.37195919  0.00662510  1
  O  O260  1  0.24265764  0.38179456  0.51770352  1
  O  O261  1  0.25449037  0.88146202  0.01546955  1
  O  O262  1  0.25421345  0.86765141  0.50703517  1
  O  O263  1  0.75656381  0.36914465  0.00023388  1
  O  O264  1  0.74903725  0.36712705  0.51144218  1
  O  O265  1  0.75480958  0.87002106  0.00959105  1
  O  O266  1  0.75777767  0.86954635  0.50026325  1
  O  O267  1  0.12982733  0.49397475  0.24344741  1
  O  O268  1  0.13336187  0.49215963  0.74262182  1
  O  O269  1  0.13371391  0.99281164  0.24710405  1
  O  O270  1  0.12294682  1.01048169  0.74576490  1
  O  O271  1  0.61580151  0.48606762  0.24589949  1
  O  O272  1  0.63734089  0.50313540  0.74762621  1
  O  O273  1  0.62724765  0.99671801  0.23759820  1
  O  O274  1  0.61592361  0.98740108  0.73663518  1
  O  O275  1  0.36852126  0.01216072  0.24977855  1
  O  O276  1  0.37799686  0.01214559  0.75364367  1
  O  O277  1  0.36826925  0.50669440  0.25567784  1
  O  O278  1  0.35844914  0.49503320  0.75050793  1
  O  O279  1  0.87325670  -0.00406153  0.25398644  1
  O  O280  1  0.87020117  -0.00814889  0.75798014  1
  O  O281  1  0.88097274  0.50773220  0.25670641  1
  O  O282  1  0.86283040  0.51033143  0.74627798  1
  O  O283  1  0.11552951  0.36645277  0.37127652  1
  O  O284  1  0.12304172  0.36357702  0.86800282  1
  O  O285  1  0.12056289  0.86338362  0.36917178  1
  O  O286  1  0.11314597  0.88204229  0.88195557  1
  O  O287  1  0.62506426  0.38190141  0.36210036  1
  O  O288  1  0.61611408  0.36176686  0.87153546  1
  O  O289  1  0.61403498  0.87978483  0.37886998  1
  O  O290  1  0.62463022  0.87148769  0.86581634  1
  O  O291  1  0.37490775  0.12950303  0.13456563  1
  O  O292  1  0.38338507  0.12286759  0.63221690  1
  O  O293  1  0.39506175  0.62287737  0.13734244  1
  O  O294  1  0.38673694  0.63434357  0.61874117  1
  O  O295  1  0.87566534  0.13885629  0.11661049  1
  O  O296  1  0.88582841  0.13338728  0.62288429  1
  O  O297  1  0.88066145  0.63124130  0.12772650  1
  O  O298  1  0.88372101  0.63004873  0.63070676  1
  O  O299  1  0.25965549  0.25331552  0.12735673  1
  O  O300  1  0.24269196  0.26235129  0.63355759  1
  O  O301  1  0.25571458  0.76469111  0.12720379  1
  O  O302  1  0.25466964  0.75878158  0.61874008  1
  O  O303  1  0.75631551  0.25088497  0.11202241  1
  O  O304  1  0.75725158  0.25414674  0.62233409  1
  O  O305  1  0.75362044  0.75466907  0.11899242  1
  O  O306  1  0.76322341  0.74764264  0.61683047  1
  O  O307  1  0.23681297  0.23897950  0.36911860  1
  O  O308  1  0.24290223  0.23666163  0.87554215  1
  O  O309  1  0.24171293  0.75332960  0.38462468  1
  O  O310  1  0.29652187  0.74966605  0.89491834  1
  O  O311  1  0.75454591  0.24390602  0.38738982  1
  O  O312  1  0.74773491  0.24900055  0.88749781  1
  O  O313  1  0.75702076  0.74654532  0.38672506  1
  O  O314  1  0.74409732  0.73936897  0.87672622  1
  O  O315  1  0.01244633  0.12685173  0.00690049  1
  O  O316  1  0.00461039  0.11765177  0.50018241  1
  O  O317  1  -0.00775149  0.61441574  0.01295448  1
  O  O318  1  -0.00000672  0.61878228  0.50766691  1
  O  O319  1  0.49985903  0.11702942  0.01550721  1
  O  O320  1  0.49881722  0.11808546  0.50734307  1
  O  O321  1  0.50783063  0.60774654  -0.00505727  1
  O  O322  1  0.50348819  0.61636364  0.50522031  1
  O  O323  1  0.49657845  0.38686640  0.50517626  1
  O  O324  1  0.49216428  0.37439928  0.99344012  1
  O  O325  1  0.49326472  0.88081663  0.49760309  1
  O  O326  1  0.50643753  0.89395660  0.99383882  1
  O  O327  1  1.00184875  0.38296609  0.48929542  1
  O  O328  1  0.99282372  0.38264005  0.99760335  1
  O  O329  1  0.99533761  0.88122310  0.49631383  1
  O  O330  1  0.99211913  0.86803577  0.98666587  1
  O  O331  1  0.48850779  0.49437521  0.38624874  1
  O  O332  1  0.50615012  0.48173873  0.88158376  1
  O  O333  1  0.50318019  0.99399485  0.38744878  1
  O  O334  1  0.49383274  1.00661453  0.88265951  1
  O  O335  1  0.99307402  0.49176571  0.38018655  1
  O  O336  1  1.01064291  0.49917605  0.88678642  1
  O  O337  1  1.00068487  0.99133843  0.38255070  1
  O  O338  1  0.98681708  0.98454075  0.87313337  1
  O  O339  1  0.01776241  -0.00259499  0.13263376  1
  O  O340  1  -0.00259588  0.01511169  0.61704905  1
  O  O341  1  0.00662287  0.50407742  0.12009861  1
  O  O342  1  -0.00073352  0.50500598  0.61735114  1
  O  O343  1  0.50547721  0.00230151  0.12172033  1
  O  O344  1  0.50516499  0.00667369  0.61542297  1
  O  O345  1  0.49775154  0.49273295  0.10832680  1
  O  O346  1  0.49703505  0.50829401  0.62066568  1
  O  O347  1  0.24379158  0.38100901  0.24570840  1
  O  O348  1  0.23882592  0.38143054  0.74157930  1
  O  O349  1  0.24840868  0.88152684  0.25026219  1
  O  O350  1  0.25010488  0.87715104  0.73181006  1
  O  O351  1  0.73724903  0.37245210  0.24687209  1
  O  O352  1  0.75007805  0.38469255  0.74269567  1
  O  O353  1  0.74776884  0.87152785  0.23654541  1
  O  O354  1  0.73880674  0.86516919  0.74523745  1
  O  O355  1  0.25489723  0.11659850  0.25921302  1
  O  O356  1  0.25782469  0.12197902  0.75622227  1
  O  O357  1  0.26185220  0.61535179  0.23810613  1
  O  O358  1  0.24879890  0.60875560  0.74288758  1
  O  O359  1  0.74724338  0.12964703  0.26141886  1
  O  O360  1  0.68337523  0.14250834  0.78902197  1
  O  O361  1  0.75996981  0.63146841  0.24872172  1
  O  O362  1  0.75492339  0.62108247  0.75292739  1
  O  O363  1  0.35990444  0.12685619  0.37092544  1
  O  O364  1  0.36765175  0.12138926  0.86808909  1
  O  O365  1  0.37392003  0.61089290  0.36917718  1
  O  O366  1  0.38895899  0.60880521  0.87110041  1
  O  O367  1  0.85733494  0.12641151  0.38293882  1
  O  O368  1  0.87806720  0.10474895  0.87578591  1
  O  O369  1  0.87504961  0.61600330  0.36148306  1
  O  O370  1  0.86469424  0.63010095  0.86114523  1
  O  O371  1  0.12862289  0.37870411  0.13124117  1
  O  O372  1  0.12864351  0.37768194  0.63044473  1
  O  O373  1  0.13583889  0.88127262  0.13300653  1
  O  O374  1  0.13282058  0.87433966  0.61845504  1
  O  O375  1  0.62831547  0.38132454  0.13403115  1
  O  O376  1  0.63551792  0.38050494  0.62916048  1
  O  O377  1  0.63205776  0.88109880  0.12396186  1
  O  O378  1  0.63100404  0.88399926  0.62915516  1
  O  O379  1  0.11671480  0.25326427  0.26027451  1
  O  O380  1  0.12654936  0.25706536  0.76218687  1
  O  O381  1  0.12274213  0.75161497  0.25375530  1
  O  O382  1  0.11214282  0.74984887  0.73993604  1
  O  O383  1  0.62022444  0.26731350  0.24195592  1
  O  O384  1  0.60568791  0.26205174  0.74625918  1
  O  O385  1  0.61848238  0.74744911  0.26012947  1
  O  O386  1  0.61898856  0.75578294  0.75287646  1
  O  O387  1  0.37391282  0.23697452  0.24477436  1
  O  O388  1  0.38042123  0.23938236  0.74646692  1
  O  O389  1  0.38479745  0.73662222  0.26111249  1
  O  O390  1  0.38264329  0.75698767  0.73370742  1
  O  O391  1  0.88302962  0.25575231  0.23954854  1
  O  O392  1  0.86559557  0.24529206  0.73731527  1
  O  O393  1  0.87972666  0.74324966  0.23738300  1
  O  O394  1  0.88199987  0.74338602  0.74009739  1
  O  O395  1  0.37848654  0.49695817  0.49342820  1
  O  O396  1  0.37895072  0.49074215  0.99329766  1
  O  O397  1  0.38352141  0.99063938  0.50407854  1
  O  O398  1  0.38295247  1.00978649  0.98971224  1
  O  O399  1  0.88583234  0.50620308  0.49020698  1
  O  O400  1  0.88698414  0.49000544  1.00159770  1
  O  O401  1  0.88544602  0.99183906  0.49630140  1
  O  O402  1  0.87468517  0.98642886  1.00673396  1
  O  O403  1  0.13138531  0.00936635  0.01231793  1
  O  O404  1  0.11233176  0.00792284  0.49666157  1
  O  O405  1  0.11919168  0.49250517  0.01370583  1
  O  O406  1  0.11166628  0.50271908  0.50575331  1
  O  O407  1  0.61999492  0.00825502  0.01056223  1
  O  O408  1  0.61510822  0.00356155  0.50885465  1
  O  O409  1  0.61765304  0.50613409  -0.00204139  1
  O  O410  1  0.61491792  0.50689314  0.50410602  1
  O  O411  1  0.37157662  0.36608554  0.11707313  1
  O  O412  1  0.35604102  0.37135463  0.62529526  1
  O  O413  1  0.36411102  0.88206512  0.13080775  1
  O  O414  1  0.36770802  0.86843736  0.61379561  1
  O  O415  1  0.87240621  0.36433948  0.11326517  1
  O  O416  1  0.86824348  0.36080563  0.62996109  1
  O  O417  1  0.86990009  0.86658875  0.11954879  1
  O  O418  1  0.87481183  0.86423827  0.60858483  1
  O  O419  1  0.13060769  0.13115364  0.38406919  1
  O  O420  1  0.12886242  0.12887972  0.88464684  1
  O  O421  1  0.11874386  0.63487711  0.37119715  1
  O  O422  1  0.12427396  0.64120706  0.87594585  1
  O  O423  1  0.64187559  0.12273753  0.37833594  1
  O  O424  1  0.59417615  0.13319548  0.90316518  1
  O  O425  1  0.62503716  0.61900120  0.38894495  1
  O  O426  1  0.62798715  0.63018284  0.88230765  1
