# generated using pymatgen
data_V85Zn86O256
_symmetry_space_group_name_H-M   'P 1'
_cell_length_a   16.94447186
_cell_length_b   16.94323882
_cell_length_c   16.93891718
_cell_angle_alpha   89.98859133
_cell_angle_beta   89.97049112
_cell_angle_gamma   90.07851539
_symmetry_Int_Tables_number   1
_chemical_formula_structural   V85Zn86O256
_chemical_formula_sum   'V85 Zn86 O256'
_cell_volume   4863.06013509
_cell_formula_units_Z   1
loop_
 _symmetry_equiv_pos_site_id
 _symmetry_equiv_pos_as_xyz
  1  'x, y, z'
loop_
 _atom_site_type_symbol
 _atom_site_label
 _atom_site_symmetry_multiplicity
 _atom_site_fract_x
 _atom_site_fract_y
 _atom_site_fract_z
 _atom_site_occupancy
  V  V0  1  0.87290539  0.75027763  0.62076111  1
  V  V1  1  0.37381648  0.75212715  0.12622088  1
  V  V2  1  0.25993163  0.25465575  -0.00531406  1
  V  V3  1  0.49962795  0.87227397  0.87551097  1
  V  V4  1  0.00977479  0.87809052  0.36106138  1
  V  V5  1  0.36763216  0.25119443  0.61979970  1
  V  V6  1  0.00208642  0.87439528  0.88769284  1
  V  V7  1  0.49973789  0.75543331  0.25692633  1
  V  V8  1  0.00303339  0.75249232  0.75205718  1
  V  V9  1  0.37171336  -0.00160988  0.87368703  1
  V  V10  1  0.75351529  0.50521398  0.25350073  1
  V  V11  1  0.12734479  0.49712565  0.63259089  1
  V  V12  1  0.62594678  0.50270672  0.62654832  1
  V  V13  1  0.23786740  0.87705871  0.13085570  1
  V  V14  1  0.62298695  0.36625533  0.25331142  1
  V  V15  1  0.87145793  0.37701215  0.00067963  1
  V  V16  1  0.74895090  0.12071953  0.87281799  1
  V  V17  1  0.12537769  0.26532334  0.38204658  1
  V  V18  1  0.74651209  0.25033733  0.00238419  1
  V  V19  1  0.50245007  0.36990255  0.38126899  1
  V  V20  1  0.88735701  0.12559626  0.24902666  1
  V  V21  1  0.49675232  0.62282599  0.62419081  1
  V  V22  1  0.62868225  0.62763524  0.49819378  1
  V  V23  1  0.24388998  0.62403401  0.86963693  1
  V  V24  1  0.24540920  0.75144175  -0.00598291  1
  V  V25  1  0.50082597  0.24620265  0.74425635  1
  V  V26  1  0.37415202  0.50063369  0.37522201  1
  V  V27  1  0.37878267  0.12382108  0.74397748  1
  V  V28  1  0.36769862  0.74681655  0.62316912  1
  V  V29  1  0.00906503  0.24652863  0.74470122  1
  V  V30  1  0.37337459  0.24907409  0.13447556  1
  V  V31  1  0.24171483  0.87539891  0.62122530  1
  V  V32  1  0.73868505  0.24983459  0.49657672  1
  V  V33  1  0.49822075  0.00103781  -0.00001629  1
  V  V34  1  0.62331318  0.24929093  0.87408822  1
  V  V35  1  0.75126144  0.50607316  0.74975353  1
  V  V36  1  0.24712819  0.00030373  0.73956647  1
  V  V37  1  0.75925280  0.62943828  0.37533911  1
  V  V38  1  0.87285117  0.50111825  0.87454786  1
  V  V39  1  0.12226712  0.87701109  0.75021531  1
  V  V40  1  0.62203162  0.12336708  0.00146390  1
  V  V41  1  0.87653523  0.37532183  0.48817840  1
  V  V42  1  0.37238566  0.87386910  0.00058266  1
  V  V43  1  0.37027081  0.62679750  0.25641805  1
  V  V44  1  0.87703842  0.12016541  0.74539985  1
  V  V45  1  0.38005832  0.00385971  0.36678956  1
  V  V46  1  0.62394779  0.50102758  0.12828714  1
  V  V47  1  0.62900833  0.75195385  0.37795555  1
  V  V48  1  0.12473143  0.49717274  0.12850461  1
  V  V49  1  0.00540913  0.37385989  0.87545738  1
  V  V50  1  0.62563713  0.75044427  0.87675529  1
  V  V51  1  0.00029986  0.62617324  0.62298310  1
  V  V52  1  0.74492545  0.13266478  0.37406436  1
  V  V53  1  0.49428793  0.12415524  0.13526567  1
  V  V54  1  0.37007582  0.49269358  0.88146711  1
  V  V55  1  0.36931007  0.61641575  0.74927465  1
  V  V56  1  0.76184538  0.75274844  -0.00050308  1
  V  V57  1  0.62398935  0.88132679  0.25023280  1
  V  V58  1  0.88518057  0.00438763  0.38428506  1
  V  V59  1  0.49937273  0.62620762  0.12765006  1
  V  V60  1  0.75539270  0.87620376  0.12187117  1
  V  V61  1  0.24541507  0.49951689  0.25627887  1
  V  V62  1  -0.00427388  0.62774557  0.14033920  1
  V  V63  1  0.11296915  0.01275596  0.11931331  1
  V  V64  1  0.24848599  0.12587557  0.87849121  1
  V  V65  1  0.25619722  0.37794718  0.12214404  1
  V  V66  1  -0.00171629  0.50324114  0.00153239  1
  V  V67  1  0.62491975  0.62502911  0.00217764  1
  V  V68  1  0.12353877  0.74656018  0.35903489  1
  V  V69  1  0.74794525  0.37532227  0.12717425  1
  V  V70  1  0.24431044  0.74218997  0.49294719  1
  V  V71  1  0.00698038  0.26826676  0.25268247  1
  V  V72  1  0.08394600  0.19334709  0.93409942  1
  V  V73  1  0.87893539  0.74999848  0.14257964  1
  V  V74  1  0.88226654  0.87121214  0.49869833  1
  V  V75  1  0.75542460  0.00138260  0.24991240  1
  V  V76  1  0.00292248  0.11196310  0.61226269  1
  V  V77  1  0.13352939  0.11354788  0.49717557  1
  V  V78  1  0.24610908  0.12681998  0.36639681  1
  V  V79  1  0.00028305  0.49725032  0.49449776  1
  V  V80  1  0.75520994  0.37436266  0.62458595  1
  V  V81  1  0.37394205  0.88371718  0.49769734  1
  V  V82  1  0.12077729  0.62963841  -0.00211382  1
  V  V83  1  0.87654502  -0.00672758  0.88687483  1
  V  V84  1  0.62462560  0.37499542  0.74959258  1
  Zn  Zn85  1  0.87797660  0.24760766  0.61935507  1
  Zn  Zn86  1  0.49910705  0.24483186  0.25466609  1
  Zn  Zn87  1  0.49246186  0.49415054  0.00481349  1
  Zn  Zn88  1  0.13100979  0.37468492  0.75709956  1
  Zn  Zn89  1  0.49922839  0.50023064  0.49840695  1
  Zn  Zn90  1  0.62446670  -0.00057418  0.12556466  1
  Zn  Zn91  1  0.24540661  0.00119862  0.24788747  1
  Zn  Zn92  1  0.87511680  0.62857763  0.75110312  1
  Zn  Zn93  1  0.36831170  0.37163972  0.49639900  1
  Zn  Zn94  1  0.49294987  0.37280972  0.87987849  1
  Zn  Zn95  1  0.87722968  0.25119570  0.12772153  1
  Zn  Zn96  1  0.62536071  0.87999934  0.74376820  1
  Zn  Zn97  1  0.24987429  0.37634329  0.62956205  1
  Zn  Zn98  1  0.74585120  0.87620223  0.61667914  1
  Zn  Zn99  1  0.49489612  0.74643610  0.75373199  1
  Zn  Zn100  1  0.75038217  0.62741086  0.87522836  1
  Zn  Zn101  1  0.12470953  0.62521097  0.49521028  1
  Zn  Zn102  1  0.74589915  -0.00352933  0.73881344  1
  Zn  Zn103  1  0.53904768  0.91972093  0.42347262  1
  Zn  Zn104  1  0.61534287  0.01845089  0.61222315  1
  Zn  Zn105  1  0.88171449  0.50469158  0.36949213  1
  Zn  Zn106  1  0.00053953  0.13021021  0.11036497  1
  Zn  Zn107  1  0.18249347  0.19128565  0.18752769  1
  Zn  Zn108  1  0.18577663  0.18222828  0.68421113  1
  Zn  Zn109  1  0.18874521  0.68454709  0.18393675  1
  Zn  Zn110  1  0.18226091  0.68862280  0.68732117  1
  Zn  Zn111  1  0.68772350  0.18483450  0.18916983  1
  Zn  Zn112  1  0.69246744  0.18565480  0.68591609  1
  Zn  Zn113  1  0.68967215  0.69047599  0.19081698  1
  Zn  Zn114  1  0.67110312  0.71730958  0.67161061  1
  Zn  Zn115  1  0.30569125  0.31620941  0.31115561  1
  Zn  Zn116  1  0.30636210  0.31157066  0.80623545  1
  Zn  Zn117  1  0.31081417  0.81637530  0.31546024  1
  Zn  Zn118  1  0.31049440  0.80815216  0.81067243  1
  Zn  Zn119  1  0.81518498  0.31240138  0.30954931  1
  Zn  Zn120  1  0.81526640  0.30988790  0.81088017  1
  Zn  Zn121  1  0.81314962  0.81660780  0.31631531  1
  Zn  Zn122  1  0.81326353  0.81656569  0.80752268  1
  Zn  Zn123  1  0.19027632  0.43871990  0.44634378  1
  Zn  Zn124  1  0.18942192  0.44068398  0.94074681  1
  Zn  Zn125  1  0.18898464  0.93924021  0.43477194  1
  Zn  Zn126  1  0.18311899  0.93960788  0.93746778  1
  Zn  Zn127  1  0.68588983  0.43923906  0.43884821  1
  Zn  Zn128  1  0.68108528  0.43768488  0.93875955  1
  Zn  Zn129  1  0.70508856  0.94090738  0.44042334  1
  Zn  Zn130  1  0.68922491  0.93709392  0.93635264  1
  Zn  Zn131  1  0.30938985  0.06419534  0.06157746  1
  Zn  Zn132  1  0.43693741  0.05983933  0.56207136  1
  Zn  Zn133  1  0.31062063  0.56619318  0.06292934  1
  Zn  Zn134  1  0.30689719  0.55738228  0.55872338  1
  Zn  Zn135  1  0.81401624  0.06497861  0.06448320  1
  Zn  Zn136  1  0.80647827  0.06174979  0.56059688  1
  Zn  Zn137  1  0.81132926  0.56703102  0.06571368  1
  Zn  Zn138  1  0.81423341  0.56515496  0.56003426  1
  Zn  Zn139  1  0.43618523  0.43530138  0.18904434  1
  Zn  Zn140  1  0.43688117  0.43591320  0.69199058  1
  Zn  Zn141  1  0.43583789  0.93861350  0.18855193  1
  Zn  Zn142  1  0.43789152  0.93287603  0.68840780  1
  Zn  Zn143  1  0.93422095  0.44101530  0.18668884  1
  Zn  Zn144  1  0.94068253  0.43698788  0.68678605  1
  Zn  Zn145  1  0.94005862  0.93883203  0.18507238  1
  Zn  Zn146  1  0.93568821  0.93750250  0.68708376  1
  Zn  Zn147  1  0.06861625  0.06040734  0.30602573  1
  Zn  Zn148  1  0.05729030  0.05363426  0.80552863  1
  Zn  Zn149  1  0.06560657  0.56258316  0.31454575  1
  Zn  Zn150  1  0.05943543  0.56500773  0.81294093  1
  Zn  Zn151  1  0.56912713  0.07779104  0.42920961  1
  Zn  Zn152  1  0.56311413  0.05863666  0.80681221  1
  Zn  Zn153  1  0.56306761  0.56125386  0.31250955  1
  Zn  Zn154  1  0.55799859  0.56338785  0.81464880  1
  Zn  Zn155  1  0.42208824  0.19276572  0.42900407  1
  Zn  Zn156  1  0.43599277  0.18857888  0.93551818  1
  Zn  Zn157  1  0.43718824  0.69058641  0.43914404  1
  Zn  Zn158  1  0.43463061  0.68282861  0.93905230  1
  Zn  Zn159  1  0.93993385  0.19339029  0.43497469  1
  Zn  Zn160  1  0.91963564  0.19076555  0.93199959  1
  Zn  Zn161  1  0.94567556  0.69132639  0.43503793  1
  Zn  Zn162  1  0.93809899  0.68924928  0.93643259  1
  Zn  Zn163  1  0.06150823  0.31851315  0.06941995  1
  Zn  Zn164  1  0.06130446  0.31184410  0.56044482  1
  Zn  Zn165  1  0.06066265  0.80992377  0.06695477  1
  Zn  Zn166  1  0.05989687  0.81706319  0.55636760  1
  Zn  Zn167  1  0.55726296  0.31311893  0.06382077  1
  Zn  Zn168  1  0.56104028  0.20447297  0.56033533  1
  Zn  Zn169  1  0.56424578  0.81190671  0.06418797  1
  Zn  Zn170  1  0.55535870  0.81134108  0.56468461  1
  O  O171  1  0.12169903  0.11779147  0.12096090  1
  O  O172  1  0.11438165  0.12987895  0.60894791  1
  O  O173  1  0.11656886  0.61827519  0.11856440  1
  O  O174  1  0.11234549  0.61880734  0.62499487  1
  O  O175  1  0.61837715  0.12282407  0.11592695  1
  O  O176  1  0.62583986  0.13296134  0.61692208  1
  O  O177  1  0.62046543  0.62412861  0.12095192  1
  O  O178  1  0.61614299  0.62692434  0.61796476  1
  O  O179  1  0.38228429  0.38373521  0.37147061  1
  O  O180  1  0.37108940  0.39035967  0.87029273  1
  O  O181  1  0.36677323  0.89103431  0.38323018  1
  O  O182  1  0.37975072  0.87613766  0.88063528  1
  O  O183  1  0.86903727  0.38168329  0.38532255  1
  O  O184  1  0.88384802  0.37967111  0.88019029  1
  O  O185  1  0.88568488  0.88280827  0.37763046  1
  O  O186  1  0.88392226  0.88631585  0.87238483  1
  O  O187  1  0.25379811  0.00857569  0.36902933  1
  O  O188  1  0.25381365  0.00535151  0.86806663  1
  O  O189  1  0.25652434  0.49582135  0.36388404  1
  O  O190  1  0.25907097  0.51107312  0.87976587  1
  O  O191  1  0.76432404  0.01252793  0.36786512  1
  O  O192  1  0.76149207  0.00268037  0.87279215  1
  O  O193  1  0.74928929  0.51023297  0.36912731  1
  O  O194  1  0.76006750  0.49744481  0.86966799  1
  O  O195  1  0.24431390  0.49641071  0.12879153  1
  O  O196  1  0.22859320  0.51122770  0.62882076  1
  O  O197  1  0.25008903  0.98681299  0.12464249  1
  O  O198  1  0.25367007  0.98969415  0.63887450  1
  O  O199  1  0.74406876  0.49673515  0.13284935  1
  O  O200  1  0.74636843  0.49649539  0.63207772  1
  O  O201  1  0.75165675  0.99199167  0.13037887  1
  O  O202  1  0.73710072  0.99517944  0.61812015  1
  O  O203  1  -0.00277190  0.36695112  0.24863381  1
  O  O204  1  -0.00103646  0.36370026  0.75951968  1
  O  O205  1  -0.00386852  0.87373613  0.26252501  1
  O  O206  1  0.00634685  0.87156383  0.75423242  1
  O  O207  1  0.50797656  0.37415680  0.25774698  1
  O  O208  1  0.51037172  0.36861234  0.75536299  1
  O  O209  1  0.50987636  0.86745508  0.24423527  1
  O  O210  1  0.49844660  0.86692431  0.76518773  1
  O  O211  1  0.50442286  0.12687332  0.23373096  1
  O  O212  1  0.48851789  0.13335158  0.76056473  1
  O  O213  1  0.49458075  0.63303076  0.24442476  1
  O  O214  1  0.48888533  0.62519402  0.74249188  1
  O  O215  1  0.99277597  0.13142307  0.24879533  1
  O  O216  1  0.99690045  0.12818486  0.73902258  1
  O  O217  1  0.99787311  0.61803728  0.23910425  1
  O  O218  1  0.99832436  0.63599732  0.74496302  1
  O  O219  1  0.36346781  0.24909365  0.00602596  1
  O  O220  1  0.37493321  0.25122835  0.51691179  1
  O  O221  1  0.36582831  0.75247789  0.00637189  1
  O  O222  1  0.36213757  0.75452082  0.50229751  1
  O  O223  1  0.86384954  0.25927607  0.00242785  1
  O  O224  1  0.86922366  0.26096252  0.49919295  1
  O  O225  1  0.86343743  0.74773997  0.00444346  1
  O  O226  1  0.88689534  0.75757272  0.50876322  1
  O  O227  1  0.11559217  0.24315153  0.48476301  1
  O  O228  1  0.13496867  0.25563090  1.00019723  1
  O  O229  1  0.13124722  0.75066908  0.49259774  1
  O  O230  1  0.13058412  0.73794662  1.00585286  1
  O  O231  1  0.63979992  0.26175762  0.49633101  1
  O  O232  1  0.62768941  0.23942307  0.99606321  1
  O  O233  1  0.61708572  0.74308869  0.48440595  1
  O  O234  1  0.63205385  0.74224622  0.99476281  1
  O  O235  1  0.48966257  0.24275994  0.12514421  1
  O  O236  1  0.48969185  0.25104295  0.63987636  1
  O  O237  1  0.49465253  0.74634295  0.13461758  1
  O  O238  1  0.48672423  0.73488729  0.62670830  1
  O  O239  1  1.00084708  0.25039064  0.13853292  1
  O  O240  1  0.99649286  0.24204219  0.63157272  1
  O  O241  1  0.98650477  0.74439484  0.12475073  1
  O  O242  1  0.99682440  0.74386663  0.63092172  1
  O  O243  1  0.01154508  0.25065374  0.36235115  1
  O  O244  1  0.00845457  0.25358680  0.87367182  1
  O  O245  1  0.01435175  0.76187134  0.37384620  1
  O  O246  1  -0.00833966  0.76512881  0.86660226  1
  O  O247  1  0.49150230  0.26584291  0.37064505  1
  O  O248  1  0.50577375  0.25207958  0.86555582  1
  O  O249  1  0.50695438  0.74652379  0.36237884  1
  O  O250  1  0.50548693  0.75619271  0.88142981  1
  O  O251  1  0.23289046  0.12821271  0.48623875  1
  O  O252  1  0.25060890  0.13297837  0.98597733  1
  O  O253  1  0.24655288  0.63861407  0.50097388  1
  O  O254  1  0.24138446  0.63282080  0.99420251  1
  O  O255  1  0.75748180  0.13511572  0.48320413  1
  O  O256  1  0.74148295  0.12853605  0.99503396  1
  O  O257  1  0.73589979  0.62160897  0.49334288  1
  O  O258  1  0.74205900  0.63524642  0.99990561  1
  O  O259  1  0.24713827  0.36912374  0.01091995  1
  O  O260  1  0.25971201  0.38998741  0.51713872  1
  O  O261  1  0.25237353  0.86715062  0.00438621  1
  O  O262  1  0.25436251  0.86983929  0.50695015  1
  O  O263  1  0.75018296  0.37123049  0.00636214  1
  O  O264  1  0.75603002  0.37291961  0.50702856  1
  O  O265  1  0.74320951  0.86753624  0.01383894  1
  O  O266  1  0.77377270  0.87262467  0.49771956  1
  O  O267  1  0.13496927  0.50730673  0.24225240  1
  O  O268  1  0.11012265  0.49757575  0.73547288  1
  O  O269  1  0.12862485  0.99972016  0.22782411  1
  O  O270  1  0.13243804  0.98653547  0.75094047  1
  O  O271  1  0.63338030  0.49267952  0.24560953  1
  O  O272  1  0.63146296  0.49494271  0.74882876  1
  O  O273  1  0.63553719  0.98591457  0.24792149  1
  O  O274  1  0.62645071  0.99644981  0.74155557  1
  O  O275  1  0.36868477  -0.00516864  0.26313380  1
  O  O276  1  0.36821545  0.00493445  0.75526006  1
  O  O277  1  0.36946575  0.50821722  0.25694284  1
  O  O278  1  0.37451732  0.51102296  0.75929275  1
  O  O279  1  0.87355549  0.00875804  0.25505783  1
  O  O280  1  0.87447749  0.01050174  0.75504328  1
  O  O281  1  0.85904716  0.49704395  0.25199960  1
  O  O282  1  0.86911635  0.49995188  0.75793236  1
  O  O283  1  0.12779986  0.36434289  0.38156711  1
  O  O284  1  0.10903256  0.38654304  0.87714002  1
  O  O285  1  0.11503706  0.87024621  0.37479578  1
  O  O286  1  0.11002552  0.87970507  0.86792504  1
  O  O287  1  0.60980438  0.38271642  0.36899137  1
  O  O288  1  0.63232087  0.36767838  0.86117631  1
  O  O289  1  0.62966132  0.86764356  0.36758466  1
  O  O290  1  0.61610449  0.86673654  0.87718277  1
  O  O291  1  0.38241518  0.13459186  0.11800250  1
  O  O292  1  0.37761400  0.13363272  0.63733181  1
  O  O293  1  0.37944292  0.63266946  0.13379914  1
  O  O294  1  0.37716252  0.62267908  0.63055111  1
  O  O295  1  0.88032776  0.12967360  0.13219472  1
  O  O296  1  0.88462318  0.12430633  0.62853899  1
  O  O297  1  0.88213017  0.63920718  0.12187014  1
  O  O298  1  0.88697968  0.62902043  0.62697161  1
  O  O299  1  0.25447468  0.25789831  0.11957720  1
  O  O300  1  0.26572018  0.24624449  0.63204132  1
  O  O301  1  0.25232812  0.75877421  0.11527911  1
  O  O302  1  0.25028864  0.75533880  0.61732880  1
  O  O303  1  0.75017882  0.25722401  0.12005924  1
  O  O304  1  0.75670870  0.25957231  0.61693619  1
  O  O305  1  0.76039102  0.75507976  0.12123136  1
  O  O306  1  0.77229710  0.74007666  0.62504578  1
  O  O307  1  0.23355449  0.24541280  0.36808020  1
  O  O308  1  0.25099243  0.24156583  0.88253149  1
  O  O309  1  0.23471239  0.76029381  0.38149016  1
  O  O310  1  0.25192213  0.74251054  0.88741686  1
  O  O311  1  0.75668151  0.23990354  0.37900049  1
  O  O312  1  0.74475928  0.24185676  0.88010295  1
  O  O313  1  0.74006334  0.74237052  0.36808147  1
  O  O314  1  0.74420845  0.75167060  0.88314820  1
  O  O315  1  0.00939209  0.14454156  -0.00987046  1
  O  O316  1  0.00265503  0.12753719  0.50907563  1
  O  O317  1  0.00533438  0.62110779  0.00441386  1
  O  O318  1  0.00120113  0.61810431  0.50818533  1
  O  O319  1  0.50663057  0.12056915  0.00275564  1
  O  O320  1  0.49619993  0.13482246  0.49415871  1
  O  O321  1  0.50775478  0.62396271  0.00969538  1
  O  O322  1  0.50843445  0.62324806  0.50619341  1
  O  O323  1  0.49201477  0.38033209  0.48362006  1
  O  O324  1  0.51836474  0.38467966  0.98974430  1
  O  O325  1  0.47884502  0.85776886  0.49683031  1
  O  O326  1  0.49497300  0.87866861  0.99309604  1
  O  O327  1  0.98725980  0.38439274  0.50755250  1
  O  O328  1  0.99296779  0.38239605  0.99543559  1
  O  O329  1  0.99101449  0.87688425  0.48576106  1
  O  O330  1  1.00351803  0.86932942  0.98614301  1
  O  O331  1  0.49070426  0.49155537  0.37123275  1
  O  O332  1  0.48205794  0.50261866  0.87695287  1
  O  O333  1  0.48399236  1.00740332  0.37077540  1
  O  O334  1  0.49276286  0.99089914  0.88015034  1
  O  O335  1  0.99967891  0.50552410  0.38901921  1
  O  O336  1  0.98818668  0.49437338  0.87895039  1
  O  O337  1  0.99712877  0.98960922  0.36775479  1
  O  O338  1  0.98787623  0.98784881  0.87205390  1
  O  O339  1  0.00783234  0.00609002  0.12049424  1
  O  O340  1  0.00058751  0.01405242  0.62654613  1
  O  O341  1  0.00487888  0.50662520  0.12002333  1
  O  O342  1  0.00364824  0.50822518  0.61766190  1
  O  O343  1  0.49931621  0.00636391  0.11689974  1
  O  O344  1  0.50225867  -0.01291940  0.61719617  1
  O  O345  1  0.50554478  0.50805924  0.12676038  1
  O  O346  1  0.50495387  0.50913861  0.62606358  1
  O  O347  1  0.25307348  0.38796079  0.23507859  1
  O  O348  1  0.24218898  0.37495738  0.74326275  1
  O  O349  1  0.25300595  0.87217498  0.23190674  1
  O  O350  1  0.24175244  0.87769710  0.74598116  1
  O  O351  1  0.74201466  0.38082857  0.24754440  1
  O  O352  1  0.74919323  0.38294939  0.74461491  1
  O  O353  1  0.74590911  0.87825128  0.24042902  1
  O  O354  1  0.74721918  0.87694785  0.74103858  1
  O  O355  1  0.24150157  0.12519961  0.26144386  1
  O  O356  1  0.25388916  0.11687813  0.75684520  1
  O  O357  1  0.26118846  0.61533110  0.24206018  1
  O  O358  1  0.25159861  0.63153820  0.76226160  1
  O  O359  1  0.76465317  0.12541374  0.25672059  1
  O  O360  1  0.76094553  0.12429277  0.75634834  1
  O  O361  1  0.74208031  0.61646651  0.26160962  1
  O  O362  1  0.74992558  0.61108420  0.75187034  1
  O  O363  1  0.36038292  0.11316874  0.37719020  1
  O  O364  1  0.36552885  0.12008574  0.86623970  1
  O  O365  1  0.38094618  0.62046346  0.36261031  1
  O  O366  1  0.36507726  0.61975654  0.86789804  1
  O  O367  1  0.87572597  0.11973266  0.36757252  1
  O  O368  1  0.87155280  0.11222075  0.86577916  1
  O  O369  1  0.86240975  0.62686494  0.38329944  1
  O  O370  1  0.87204812  0.61546571  0.87299502  1
  O  O371  1  0.13203093  0.39217386  0.12177326  1
  O  O372  1  0.11904297  0.38959584  0.62564701  1
  O  O373  1  0.13581951  0.87642238  0.12269659  1
  O  O374  1  0.13472957  0.87093595  0.63100550  1
  O  O375  1  0.62973210  0.38106424  0.13407377  1
  O  O376  1  0.64011773  0.38274152  0.63975655  1
  O  O377  1  0.63500029  0.87391138  0.13281999  1
  O  O378  1  0.63654634  0.82958346  0.63656179  1
  O  O379  1  0.11284942  0.25217432  0.25854882  1
  O  O380  1  0.11288198  0.24866375  0.74725074  1
  O  O381  1  0.13075351  0.74795016  0.26002720  1
  O  O382  1  0.11263544  0.76128970  0.74784678  1
  O  O383  1  0.62364363  0.26330458  0.24608467  1
  O  O384  1  0.61950993  0.25645725  0.75289225  1
  O  O385  1  0.61873429  0.75850053  0.25717443  1
  O  O386  1  0.61825746  0.73996231  0.77203703  1
  O  O387  1  0.37374696  0.25263609  0.23762318  1
  O  O388  1  0.38193428  0.24120402  0.74742585  1
  O  O389  1  0.38052473  0.74601373  0.24881480  1
  O  O390  1  0.37228482  0.73630563  0.74263023  1
  O  O391  1  0.88913261  0.24515605  0.25112525  1
  O  O392  1  0.88689067  0.23550923  0.75315891  1
  O  O393  1  0.87019153  0.74785499  0.24058236  1
  O  O394  1  0.88757905  0.75088452  0.74201082  1
  O  O395  1  0.37765729  0.50778228  0.48360488  1
  O  O396  1  0.37413558  0.50793988  0.98606650  1
  O  O397  1  0.37237580  0.99174245  0.48931227  1
  O  O398  1  0.37779193  0.99381675  0.99277209  1
  O  O399  1  0.88184742  0.49325903  0.49909256  1
  O  O400  1  0.87667601  0.49711503  0.99385172  1
  O  O401  1  0.87626477  0.99725154  0.48718927  1
  O  O402  1  0.87377040  1.00509733  0.98528842  1
  O  O403  1  0.13237438  -0.00347264  0.02056495  1
  O  O404  1  0.12569138  0.01422660  0.49663893  1
  O  O405  1  0.11995980  0.51147020  0.00833996  1
  O  O406  1  0.11574257  0.50471623  0.51055169  1
  O  O407  1  0.61982332  0.00962436  0.00015091  1
  O  O408  1  0.61373268  -0.01189302  0.48614757  1
  O  O409  1  0.62968029  0.51480443  0.00828185  1
  O  O410  1  0.62180306  0.50823776  0.50957239  1
  O  O411  1  0.36762536  0.36698925  0.12420162  1
  O  O412  1  0.37814206  0.35943571  0.62990729  1
  O  O413  1  0.36732751  0.86950079  0.11781076  1
  O  O414  1  0.36048127  0.86704038  0.62020149  1
  O  O415  1  0.86540807  0.37545076  0.11836738  1
  O  O416  1  0.86447189  0.37632510  0.62121754  1
  O  O417  1  0.86948675  0.86216607  0.12849849  1
  O  O418  1  0.88067887  0.86653013  0.61563114  1
  O  O419  1  0.12587234  0.12953899  0.38207317  1
  O  O420  1  0.12988493  0.12179663  0.87049007  1
  O  O421  1  0.12073023  0.64237753  0.37656559  1
  O  O422  1  0.13137075  0.61889254  0.88451058  1
  O  O423  1  0.64659391  0.12579284  0.36049861  1
  O  O424  1  0.62825308  0.12915131  0.88194938  1
  O  O425  1  0.63017474  0.63102674  0.38115148  1
  O  O426  1  0.62590925  0.62890939  0.88689886  1
