# generated using pymatgen
data_V85Zn86O256
_symmetry_space_group_name_H-M   'P 1'
_cell_length_a   16.93938005
_cell_length_b   16.94592774
_cell_length_c   16.95832922
_cell_angle_alpha   90.04250147
_cell_angle_beta   90.00877815
_cell_angle_gamma   89.96725803
_symmetry_Int_Tables_number   1
_chemical_formula_structural   V85Zn86O256
_chemical_formula_sum   'V85 Zn86 O256'
_cell_volume   4867.94573940
_cell_formula_units_Z   1
loop_
 _symmetry_equiv_pos_site_id
 _symmetry_equiv_pos_as_xyz
  1  'x, y, z'
loop_
 _atom_site_type_symbol
 _atom_site_label
 _atom_site_symmetry_multiplicity
 _atom_site_fract_x
 _atom_site_fract_y
 _atom_site_fract_z
 _atom_site_occupancy
  V  V0  1  0.00276700  0.24818019  0.25198373  1
  V  V1  1  0.37323365  0.86620538  0.49856942  1
  V  V2  1  0.74582508  0.73469016  -0.00469416  1
  V  V3  1  0.13062361  0.38242723  0.74962930  1
  V  V4  1  -0.00528363  0.00024284  -0.00440358  1
  V  V5  1  0.38099882  -0.00367908  0.37598331  1
  V  V6  1  0.37188505  -0.00328356  0.87138466  1
  V  V7  1  0.10095296  0.75727422  0.37870039  1
  V  V8  1  0.74291307  -0.00273969  0.24987196  1
  V  V9  1  0.74755893  0.87068777  0.62698351  1
  V  V10  1  0.00489074  0.12408807  0.62881887  1
  V  V11  1  0.62616123  0.25598083  0.36782606  1
  V  V12  1  0.25082310  0.74563521  -0.00632809  1
  V  V13  1  0.36857450  0.74874395  0.12551728  1
  V  V14  1  0.24776526  0.12568020  0.87475578  1
  V  V15  1  0.87363992  0.25177028  0.62786123  1
  V  V16  1  0.75715297  -0.00282457  0.75538912  1
  V  V17  1  0.87982301  0.37749258  0.49842242  1
  V  V18  1  0.63223241  0.48522580  0.12075992  1
  V  V19  1  0.36719028  0.87372635  0.00108763  1
  V  V20  1  0.25163226  0.12152394  0.37456734  1
  V  V21  1  0.12042667  0.25786836  0.87711260  1
  V  V22  1  0.51799017  0.49833489  0.50288430  1
  V  V23  1  -0.00118999  0.25878574  0.75451253  1
  V  V24  1  0.74253284  0.87221056  0.12292247  1
  V  V25  1  -0.00182427  0.74651313  0.74896769  1
  V  V26  1  0.00226412  -0.00409931  0.50283483  1
  V  V27  1  0.24053752  0.64300687  0.38263488  1
  V  V28  1  0.74608281  0.25901971  0.00196048  1
  V  V29  1  0.50026122  0.00251752  0.50040391  1
  V  V30  1  0.25033213  0.25116563  0.50436149  1
  V  V31  1  0.62681158  0.12762841  0.50306968  1
  V  V32  1  0.37535803  0.25138974  0.62929546  1
  V  V33  1  0.36882902  0.74816248  0.62301745  1
  V  V34  1  0.62618845  0.73090093  0.87520369  1
  V  V35  1  0.49965802  0.12474198  0.12321582  1
  V  V36  1  0.50007824  0.37651721  0.36959590  1
  V  V37  1  0.24479502  0.88051062  0.61876970  1
  V  V38  1  0.87334056  0.12517411  0.24979814  1
  V  V39  1  0.35764810  0.62128931  0.75216068  1
  V  V40  1  0.50149397  0.50665307  -0.00182396  1
  V  V41  1  0.49961241  -0.00157095  -0.00194202  1
  V  V42  1  0.00332312  0.62898605  0.12935591  1
  V  V43  1  0.87191124  0.87251801  0.50206897  1
  V  V44  1  0.50849091  0.61573011  0.62743227  1
  V  V45  1  0.13148066  -0.01002612  0.12449746  1
  V  V46  1  0.62427259  0.12766062  -0.01009697  1
  V  V47  1  0.63010893  0.37190578  0.74306771  1
  V  V48  1  -0.00483035  0.62386187  0.61391807  1
  V  V49  1  0.50919535  0.87467231  0.87087433  1
  V  V50  1  0.25040400  0.37585507  0.12974845  1
  V  V51  1  0.37398504  0.25076086  0.12657377  1
  V  V52  1  -0.00110456  0.12520393  0.12368243  1
  V  V53  1  0.86208722  0.49887514  0.87192605  1
  V  V54  1  0.00272304  0.49315814  -0.00845424  1
  V  V55  1  0.53200800  0.84006151  0.40691138  1
  V  V56  1  0.87007958  0.87646178  -0.01056640  1
  V  V57  1  0.25383698  -0.01441973  0.24616692  1
  V  V58  1  0.74846774  0.48393086  0.24976455  1
  V  V59  1  0.12524645  0.50311230  0.13196014  1
  V  V60  1  -0.00076699  0.87687077  0.87262394  1
  V  V61  1  0.12629405  0.24702020  0.37683131  1
  V  V62  1  0.12700749  0.11714403  0.50422705  1
  V  V63  1  0.37409219  0.37663363  0.00030665  1
  V  V64  1  0.74961940  0.12578888  0.37526182  1
  V  V65  1  0.75171995  0.25100668  0.50101341  1
  V  V66  1  0.87612280  0.50410345  0.37396603  1
  V  V67  1  0.37417286  0.50874737  0.38084141  1
  V  V68  1  0.12878227  0.62491699  -0.00767437  1
  V  V69  1  0.50026590  0.12710998  0.62909023  1
  V  V70  1  0.87861909  -0.00656902  0.37441492  1
  V  V71  1  0.51587473  0.76165797  0.24058907  1
  V  V72  1  0.13416520  0.50900294  0.62038345  1
  V  V73  1  0.37708788  0.12557642  0.25041169  1
  V  V74  1  0.75868015  0.12594296  0.87612268  1
  V  V75  1  0.62415103  -0.00199407  0.12403200  1
  V  V76  1  0.12357890  0.88184569  0.74384849  1
  V  V77  1  0.50610501  0.36978359  0.87579901  1
  V  V78  1  0.62593697  -0.00202124  0.63382835  1
  V  V79  1  0.86739116  0.62687657  0.24717059  1
  V  V80  1  0.87830844  0.75046775  0.12397355  1
  V  V81  1  0.50030909  0.74993565  0.75059896  1
  V  V82  1  0.36022783  0.50160744  0.87263594  1
  V  V83  1  0.50890957  0.62413117  0.12431623  1
  V  V84  1  0.12307446  0.12456102  -0.00073259  1
  Zn  Zn85  1  0.12742758  0.37585681  0.25448685  1
  Zn  Zn86  1  0.00468547  0.37740379  0.37455633  1
  Zn  Zn87  1  0.86693695  0.74445948  0.62358275  1
  Zn  Zn88  1  0.08915355  0.85487882  0.24712188  1
  Zn  Zn89  1  0.37311921  0.12438479  0.75113667  1
  Zn  Zn90  1  0.13006051  0.74808087  0.87019015  1
  Zn  Zn91  1  0.37860292  0.62597415  0.25173675  1
  Zn  Zn92  1  0.24369520  0.00206587  0.74557667  1
  Zn  Zn93  1  0.74697783  0.38172873  0.62300273  1
  Zn  Zn94  1  0.68316653  0.67910424  0.42861813  1
  Zn  Zn95  1  0.50106031  0.24743965  0.75793841  1
  Zn  Zn96  1  0.87759831  0.37433248  0.00244252  1
  Zn  Zn97  1  0.00443145  0.50472769  0.49476669  1
  Zn  Zn98  1  0.50516906  0.25530287  0.24633368  1
  Zn  Zn99  1  0.72971580  0.52161776  0.74530256  1
  Zn  Zn100  1  0.87070689  0.62535402  0.75688382  1
  Zn  Zn101  1  0.87768865  0.12534838  0.75512226  1
  Zn  Zn102  1  0.25490810  0.38287420  0.63057455  1
  Zn  Zn103  1  0.24730154  0.25059622  0.00223417  1
  Zn  Zn104  1  0.37738816  0.37546946  0.50279188  1
  Zn  Zn105  1  0.25231426  0.50361855  0.25535372  1
  Zn  Zn106  1  0.86578232  0.25822072  0.12915941  1
  Zn  Zn107  1  0.18827634  0.18157447  0.18841100  1
  Zn  Zn108  1  0.18605087  0.18949129  0.69057857  1
  Zn  Zn109  1  0.19146602  0.68899262  0.19593269  1
  Zn  Zn110  1  0.18326784  0.69415662  0.68178520  1
  Zn  Zn111  1  0.68559599  0.18551382  0.18353833  1
  Zn  Zn112  1  0.68653292  0.19356054  0.69505008  1
  Zn  Zn113  1  0.68942573  0.68086116  0.18223111  1
  Zn  Zn114  1  0.68639422  0.68916841  0.69078118  1
  Zn  Zn115  1  0.31531931  0.31422268  0.31486498  1
  Zn  Zn116  1  0.31189175  0.31256536  0.81394251  1
  Zn  Zn117  1  0.32699022  0.81009787  0.31460746  1
  Zn  Zn118  1  0.31163419  0.81227752  0.80938745  1
  Zn  Zn119  1  0.81645904  0.31337662  0.31398430  1
  Zn  Zn120  1  0.81267622  0.31516712  0.82297899  1
  Zn  Zn121  1  0.80654497  0.81332196  0.30764669  1
  Zn  Zn122  1  0.80774734  0.80808178  0.80903444  1
  Zn  Zn123  1  0.19037899  0.43681508  0.44162474  1
  Zn  Zn124  1  0.18451320  0.43529106  0.94304237  1
  Zn  Zn125  1  0.18631589  0.92816033  0.43099156  1
  Zn  Zn126  1  0.18504303  0.93504026  0.93537173  1
  Zn  Zn127  1  0.69188859  0.43802267  0.43370890  1
  Zn  Zn128  1  0.68343862  0.44118362  0.93471114  1
  Zn  Zn129  1  0.69008843  0.93956304  0.44241796  1
  Zn  Zn130  1  0.68807589  0.93722026  0.93571634  1
  Zn  Zn131  1  0.31066646  0.06127106  0.06077681  1
  Zn  Zn132  1  0.31401674  0.06039273  0.56347805  1
  Zn  Zn133  1  0.31385205  0.56383813  0.06362534  1
  Zn  Zn134  1  0.31752635  0.56643290  0.55786285  1
  Zn  Zn135  1  0.81244268  0.06410204  0.06132357  1
  Zn  Zn136  1  0.81424150  0.06248515  0.56652325  1
  Zn  Zn137  1  0.81554511  0.55688354  0.06287408  1
  Zn  Zn138  1  0.79712296  0.56226184  0.56638357  1
  Zn  Zn139  1  0.43859743  0.44060115  0.19040522  1
  Zn  Zn140  1  0.43663264  0.43839574  0.69258355  1
  Zn  Zn141  1  0.43511040  0.93520019  0.18362434  1
  Zn  Zn142  1  0.43545300  0.93600105  0.68781522  1
  Zn  Zn143  1  0.93880895  0.43514412  0.18482184  1
  Zn  Zn144  1  0.93822629  0.43981679  0.68691479  1
  Zn  Zn145  1  0.92885288  0.93842521  0.17880136  1
  Zn  Zn146  1  0.93545784  0.93916547  0.68670440  1
  Zn  Zn147  1  0.04619547  0.02587740  0.29513976  1
  Zn  Zn148  1  0.05995492  0.06269869  0.81288462  1
  Zn  Zn149  1  0.05969658  0.57144811  0.31409023  1
  Zn  Zn150  1  0.06464315  0.56345062  0.80853067  1
  Zn  Zn151  1  0.56372061  0.06327842  0.31387419  1
  Zn  Zn152  1  0.56389275  0.06162733  0.81182411  1
  Zn  Zn153  1  0.56649792  0.55983389  0.30329396  1
  Zn  Zn154  1  0.55179040  0.55606479  0.80906639  1
  Zn  Zn155  1  0.43874014  0.18934299  0.43903711  1
  Zn  Zn156  1  0.43249444  0.18772195  0.94029526  1
  Zn  Zn157  1  0.50602381  0.67207022  0.42801031  1
  Zn  Zn158  1  0.43531469  0.68448028  0.93470900  1
  Zn  Zn159  1  0.93897841  0.18322674  0.43848793  1
  Zn  Zn160  1  0.93395247  0.19207845  0.93833881  1
  Zn  Zn161  1  0.84623483  0.69152327  0.43618682  1
  Zn  Zn162  1  0.93921737  0.68478272  0.93869063  1
  Zn  Zn163  1  0.06312061  0.31360230  0.06721523  1
  Zn  Zn164  1  0.06367504  0.31502217  0.56632082  1
  Zn  Zn165  1  0.06212009  0.81165355  0.05823238  1
  Zn  Zn166  1  0.06215684  0.80594506  0.55723138  1
  Zn  Zn167  1  0.56154278  0.31077020  0.05844066  1
  Zn  Zn168  1  0.56194643  0.31366801  0.56047853  1
  Zn  Zn169  1  0.56134654  0.81049459  0.05519111  1
  Zn  Zn170  1  0.56313683  0.80973846  0.57499275  1
  O  O171  1  0.11976160  0.11706444  0.11700414  1
  O  O172  1  0.11800385  0.12999406  0.61659325  1
  O  O173  1  0.12104369  0.62024450  0.12224732  1
  O  O174  1  0.11738166  0.61391832  0.63012665  1
  O  O175  1  0.61718124  0.11759271  0.11431653  1
  O  O176  1  0.61844539  0.12277048  0.62292014  1
  O  O177  1  0.61395903  0.61277284  0.12397155  1
  O  O178  1  0.60645305  0.63345092  0.62740419  1
  O  O179  1  0.38356112  0.38119218  0.38013228  1
  O  O180  1  0.37960658  0.38161592  0.88054903  1
  O  O181  1  0.39194531  0.87864254  0.38553518  1
  O  O182  1  0.38050570  0.88110799  0.87993660  1
  O  O183  1  0.87960933  0.38374840  0.38096612  1
  O  O184  1  0.87517155  0.39089789  0.88525627  1
  O  O185  1  0.86824119  0.88970567  0.38252838  1
  O  O186  1  0.87889532  0.86963215  0.88403681  1
  O  O187  1  0.25943390  0.00399064  0.36725999  1
  O  O188  1  0.25591745  0.00590749  0.87409545  1
  O  O189  1  0.26340066  0.49932423  0.37663901  1
  O  O190  1  0.26107600  0.49600268  0.88401642  1
  O  O191  1  0.75432275  0.00571299  0.36755423  1
  O  O192  1  0.74248258  0.00842913  0.86467749  1
  O  O193  1  0.75714020  0.49615419  0.35778060  1
  O  O194  1  0.75922550  0.50085047  0.87258021  1
  O  O195  1  0.24307038  0.49457867  0.12881816  1
  O  O196  1  0.23828793  0.50330961  0.62026821  1
  O  O197  1  0.24300713  1.00042034  0.13052206  1
  O  O198  1  0.25597902  0.98599319  0.62892460  1
  O  O199  1  0.73883900  0.49771828  0.12742027  1
  O  O200  1  0.76506630  0.49022133  0.64090580  1
  O  O201  1  0.74520057  0.99368370  0.13010994  1
  O  O202  1  0.74262723  0.99735094  0.63342179  1
  O  O203  1  0.00537477  0.35812964  0.25153964  1
  O  O204  1  0.01121723  0.36373959  0.74429097  1
  O  O205  1  0.00222884  0.92307040  0.25861256  1
  O  O206  1  0.00376597  0.87201421  0.75412612  1
  O  O207  1  0.49806640  0.37372130  0.26472945  1
  O  O208  1  0.50397750  0.37330060  0.76333745  1
  O  O209  1  0.50566014  0.86206924  0.23710766  1
  O  O210  1  0.49134101  0.86329020  0.75900337  1
  O  O211  1  0.48948621  0.12467762  0.24472715  1
  O  O212  1  0.49855841  0.12632396  0.74063736  1
  O  O213  1  0.49832123  0.63219697  0.23757151  1
  O  O214  1  0.48956282  0.62852382  0.74069782  1
  O  O215  1  0.99556181  0.12793214  0.24260392  1
  O  O216  1  0.99952464  0.13451726  0.74446225  1
  O  O217  1  0.98743688  0.61825745  0.23430587  1
  O  O218  1  0.99899652  0.63474587  0.74634514  1
  O  O219  1  0.37044057  0.25762268  0.00937565  1
  O  O220  1  0.36740717  0.24800279  0.51148313  1
  O  O221  1  0.37043684  0.75476540  0.00294980  1
  O  O222  1  0.38555188  0.76373693  0.51077461  1
  O  O223  1  0.85970040  0.25116679  0.00176493  1
  O  O224  1  0.87171050  0.25474207  0.50613599  1
  O  O225  1  0.86757435  0.75556115  0.00516989  1
  O  O226  1  0.89099448  0.77124282  0.50698538  1
  O  O227  1  0.13157945  0.24223239  0.49721852  1
  O  O228  1  0.12425973  0.24510438  0.99289932  1
  O  O229  1  0.12487249  0.75522500  0.48002135  1
  O  O230  1  0.13443898  0.74284471  1.00065878  1
  O  O231  1  0.63232101  0.24561234  0.49325813  1
  O  O232  1  0.63325680  0.23966192  1.00278008  1
  O  O233  1  0.58170660  0.76419785  0.47164712  1
  O  O234  1  0.63021364  0.74911809  0.98480463  1
  O  O235  1  0.49364941  0.24321699  0.12623514  1
  O  O236  1  0.49187878  0.24239983  0.62483863  1
  O  O237  1  0.49716420  0.74274833  0.12614920  1
  O  O238  1  0.48967450  0.74249857  0.63507438  1
  O  O239  1  1.00627002  0.23667907  0.13355094  1
  O  O240  1  0.99566744  0.24224993  0.63297754  1
  O  O241  1  0.99033458  0.74285246  0.11774377  1
  O  O242  1  1.00323310  0.73714930  0.63198110  1
  O  O243  1  0.00964273  0.24577236  0.36824645  1
  O  O244  1  0.00807532  0.24562289  0.86692435  1
  O  O245  1  0.00480012  0.74893559  0.37509042  1
  O  O246  1  0.00097022  0.76063785  0.86913001  1
  O  O247  1  0.50846957  0.25734037  0.37619317  1
  O  O248  1  0.48937973  0.26563981  0.87776244  1
  O  O249  1  0.48971389  0.75515910  0.34904983  1
  O  O250  1  0.50653440  0.75447436  0.87152942  1
  O  O251  1  0.24465564  0.13101951  0.49831933  1
  O  O252  1  0.24339933  0.12541292  0.98935783  1
  O  O253  1  0.25500922  0.62147902  0.47955317  1
  O  O254  1  0.24123272  0.63295645  1.00516083  1
  O  O255  1  0.74714262  0.13072864  0.49617108  1
  O  O256  1  0.74182033  0.12634005  0.99276534  1
  O  O257  1  0.76490072  0.64146673  0.50028279  1
  O  O258  1  0.75452418  0.63621569  1.00467346  1
  O  O259  1  0.25423233  0.37398878  0.01475329  1
  O  O260  1  0.25193969  0.35979393  0.50542078  1
  O  O261  1  0.26105203  0.86933981  -0.00331315  1
  O  O262  1  0.26130898  0.88171626  0.50576092  1
  O  O263  1  0.74275982  0.36046454  -0.00515899  1
  O  O264  1  0.76337646  0.36893263  0.50004370  1
  O  O265  1  0.75588561  0.86890577  0.00299057  1
  O  O266  1  0.76022808  0.88522574  0.51266086  1
  O  O267  1  0.12588427  0.50056703  0.24179128  1
  O  O268  1  0.12143452  0.49267390  0.73780673  1
  O  O269  1  0.14344096  1.01035609  0.23723337  1
  O  O270  1  0.12309859  0.98647765  0.75228791  1
  O  O271  1  0.64025168  0.50039404  0.23754748  1
  O  O272  1  0.62096227  0.47987705  0.75966290  1
  O  O273  1  0.63625314  1.00814478  0.24244909  1
  O  O274  1  0.63319790  1.00538654  0.73863927  1
  O  O275  1  0.37364518  0.00582047  0.25370255  1
  O  O276  1  0.37254253  0.00109310  0.76250776  1
  O  O277  1  0.37653761  0.50162744  0.26610059  1
  O  O278  1  0.37339672  0.50855887  0.75923024  1
  O  O279  1  0.86142972  0.00721504  0.25630373  1
  O  O280  1  0.86142463  0.00721412  0.74474366  1
  O  O281  1  0.86666490  0.50243477  0.25206910  1
  O  O282  1  0.88393840  0.49788618  0.76904632  1
  O  O283  1  0.12696977  0.36055589  0.37599646  1
  O  O284  1  0.12935439  0.36410151  0.87011948  1
  O  O285  1  0.12214991  0.86435516  0.36553697  1
  O  O286  1  0.11593045  0.87086172  0.86715070  1
  O  O287  1  0.61746419  0.36513970  0.37950039  1
  O  O288  1  0.60865635  0.37422872  0.87448115  1
  O  O289  1  0.61014219  0.89285121  0.37382732  1
  O  O290  1  0.61103914  0.87134433  0.87847837  1
  O  O291  1  0.37944678  0.12833816  0.13036904  1
  O  O292  1  0.38351621  0.12996443  0.62791803  1
  O  O293  1  0.38675842  0.63259900  0.12419373  1
  O  O294  1  0.37777663  0.63236129  0.63298039  1
  O  O295  1  0.88353580  0.12766470  0.13123058  1
  O  O296  1  0.88262277  0.13921130  0.62628201  1
  O  O297  1  0.88306617  0.63127298  0.12563594  1
  O  O298  1  0.88871035  0.62635951  0.63113089  1
  O  O299  1  0.25438136  0.25737641  0.12633049  1
  O  O300  1  0.25847361  0.24691400  0.61943390  1
  O  O301  1  0.26312708  0.74414318  0.11614240  1
  O  O302  1  0.26240404  0.76018076  0.62684759  1
  O  O303  1  0.74913800  0.24136028  0.10775179  1
  O  O304  1  0.75882322  0.25406443  0.62121623  1
  O  O305  1  0.75291433  0.75656354  0.11502567  1
  O  O306  1  0.74699156  0.76685315  0.62979129  1
  O  O307  1  0.24724064  0.24321717  0.38352413  1
  O  O308  1  0.24192590  0.24163086  0.87812185  1
  O  O309  1  0.25931348  0.74189929  0.37674180  1
  O  O310  1  0.25048169  0.75383682  0.88892591  1
  O  O311  1  0.74448752  0.24662818  0.37955137  1
  O  O312  1  0.75027503  0.23858496  0.88837633  1
  O  O313  1  0.76117574  0.74451754  0.37802780  1
  O  O314  1  0.73302077  0.75285981  0.87934071  1
  O  O315  1  0.00231209  0.12222435  0.00536338  1
  O  O316  1  0.00923645  0.12135269  0.50969512  1
  O  O317  1  0.00936014  0.61778880  0.01080349  1
  O  O318  1  -0.00244335  0.62494768  0.51579457  1
  O  O319  1  0.50527169  0.11916535  0.00165185  1
  O  O320  1  0.50440034  0.12231686  0.51254666  1
  O  O321  1  0.49490487  0.61216185  0.00451642  1
  O  O322  1  0.48819598  0.61094334  0.52102296  1
  O  O323  1  0.49883454  0.38230079  0.49230820  1
  O  O324  1  0.49465057  0.38212160  0.99193590  1
  O  O325  1  0.49403784  0.88552243  0.50478497  1
  O  O326  1  0.48899607  0.87933032  0.99055534  1
  O  O327  1  0.98961978  0.37367505  0.49779308  1
  O  O328  1  1.00792578  0.39102558  1.00288453  1
  O  O329  1  0.99479551  0.89279752  0.51258204  1
  O  O330  1  0.99205363  0.87782438  0.99061482  1
  O  O331  1  0.49343451  0.49243769  0.38326325  1
  O  O332  1  0.49085562  0.48900179  0.88381620  1
  O  O333  1  0.49352727  1.01021857  0.38735546  1
  O  O334  1  0.49279527  0.99319274  0.87754662  1
  O  O335  1  0.99396594  0.49723977  0.37506093  1
  O  O336  1  1.00892595  0.50082321  0.89133854  1
  O  O337  1  0.98641213  1.01731547  0.39220659  1
  O  O338  1  1.00149561  0.98657412  0.87932608  1
  O  O339  1  0.00651554  0.01250186  0.11615909  1
  O  O340  1  -0.00645137  0.01699606  0.61978823  1
  O  O341  1  0.00991377  0.50696663  0.11806705  1
  O  O342  1  0.00742066  0.51170630  0.62414887  1
  O  O343  1  0.50324737  0.00465889  0.11719944  1
  O  O344  1  0.50608563  0.00671206  0.62309528  1
  O  O345  1  0.50710844  0.50469040  0.11911799  1
  O  O346  1  0.49776146  0.50855164  0.62215978  1
  O  O347  1  0.24968531  0.37713504  0.24076799  1
  O  O348  1  0.23535763  0.36780025  0.74787090  1
  O  O349  1  0.26268074  0.88615036  0.25302070  1
  O  O350  1  0.24039989  0.87550898  0.74179209  1
  O  O351  1  0.75501376  0.38502084  0.24640353  1
  O  O352  1  0.73379148  0.36853401  0.75570848  1
  O  O353  1  0.75375276  0.88564007  0.23551987  1
  O  O354  1  0.75256055  0.88595388  0.74241703  1
  O  O355  1  0.26438378  0.11849172  0.25326195  1
  O  O356  1  0.24852401  0.12213065  0.76253971  1
  O  O357  1  0.25893716  0.62283786  0.26708861  1
  O  O358  1  0.25905235  0.63591121  0.74844715  1
  O  O359  1  0.75461270  0.11953365  0.25394683  1
  O  O360  1  0.75047737  0.12162952  0.76055074  1
  O  O361  1  0.76381069  0.61160175  0.23746971  1
  O  O362  1  0.75634777  0.63122610  0.75249915  1
  O  O363  1  0.37174571  0.12060713  0.36830705  1
  O  O364  1  0.36580272  0.11656206  0.87594384  1
  O  O365  1  0.38083724  0.61129475  0.37735417  1
  O  O366  1  0.37894711  0.61409404  0.86446704  1
  O  O367  1  0.86699356  0.11859191  0.37036098  1
  O  O368  1  0.86309673  0.12349296  0.87616693  1
  O  O369  1  0.88214195  0.61135156  0.36005329  1
  O  O370  1  0.88538622  0.60471611  0.87757581  1
  O  O371  1  0.13376575  0.38371563  0.12913975  1
  O  O372  1  0.12819249  0.38593823  0.63317200  1
  O  O373  1  0.11604487  0.88700284  0.12841742  1
  O  O374  1  0.13386591  0.86815036  0.63016547  1
  O  O375  1  0.61664930  0.38739913  0.12610341  1
  O  O376  1  0.62534372  0.37076728  0.63881217  1
  O  O377  1  0.63571609  0.88042769  0.11346098  1
  O  O378  1  0.63271039  0.88675808  0.62119204  1
  O  O379  1  0.12018308  0.24494014  0.26030951  1
  O  O380  1  0.11762811  0.25603296  0.75834428  1
  O  O381  1  0.12580703  0.75076528  0.26343537  1
  O  O382  1  0.11403041  0.76039986  0.75110379  1
  O  O383  1  0.62368849  0.24079670  0.26361083  1
  O  O384  1  0.61674445  0.26412839  0.75341299  1
  O  O385  1  0.61495181  0.74695482  0.24060222  1
  O  O386  1  0.60960822  0.74791942  0.76246878  1
  O  O387  1  0.37771863  0.24131312  0.24541736  1
  O  O388  1  0.37663524  0.24650599  0.74059685  1
  O  O389  1  0.38526701  0.74916930  0.23529238  1
  O  O390  1  0.38253065  0.74299574  0.74575780  1
  O  O391  1  0.88450502  0.24206841  0.25091855  1
  O  O392  1  0.88156147  0.25241868  0.74573104  1
  O  O393  1  0.86829602  0.74276177  0.23169042  1
  O  O394  1  0.88801305  0.75358575  0.74597028  1
  O  O395  1  0.38215943  0.49522685  0.49108506  1
  O  O396  1  0.38199661  0.49408423  0.99649698  1
  O  O397  1  0.38204750  0.99309302  0.49611769  1
  O  O398  1  0.37805995  0.99302929  0.99058558  1
  O  O399  1  0.87690055  0.49239843  0.48907931  1
  O  O400  1  0.88935739  0.50028649  0.99304549  1
  O  O401  1  0.88136876  0.99679949  0.49453290  1
  O  O402  1  0.88131487  0.98789197  1.00610801  1
  O  O403  1  0.11863795  0.00335030  0.00586394  1
  O  O404  1  0.11944860  0.01077087  0.49252969  1
  O  O405  1  0.11977986  0.50695671  0.01023415  1
  O  O406  1  0.12119295  0.49274313  0.51636948  1
  O  O407  1  0.61836918  0.00589266  0.00393702  1
  O  O408  1  0.62084510  0.00966233  0.51237476  1
  O  O409  1  0.61727744  0.49624488  0.01129267  1
  O  O410  1  0.61754875  0.49120762  0.50341499  1
  O  O411  1  0.36955568  0.37249031  0.12217955  1
  O  O412  1  0.37357497  0.36622875  0.62514337  1
  O  O413  1  0.38110424  0.86317771  0.11127219  1
  O  O414  1  0.36879624  0.86847748  0.61991667  1
  O  O415  1  0.88335668  0.36896867  0.11580365  1
  O  O416  1  0.88086257  0.36330572  0.61772196  1
  O  O417  1  0.86553160  0.86762793  0.11382030  1
  O  O418  1  0.86465721  0.87780950  0.61871339  1
  O  O419  1  0.13442441  0.13515589  0.38572639  1
  O  O420  1  0.12964749  0.13209999  0.87993051  1
  O  O421  1  0.13476167  0.63763925  0.37185520  1
  O  O422  1  0.12093515  0.62778610  0.88891569  1
  O  O423  1  0.63116402  0.13141711  0.38382419  1
  O  O424  1  0.62937763  0.12112064  0.88611630  1
  O  O425  1  0.60020171  0.61840661  0.38951894  1
  O  O426  1  0.61519736  0.63294903  0.87306085  1
