# generated using pymatgen
data_V85Zn86O256
_symmetry_space_group_name_H-M   'P 1'
_cell_length_a   16.94830009
_cell_length_b   16.95681083
_cell_length_c   16.94846599
_cell_angle_alpha   90.02768575
_cell_angle_beta   89.98883958
_cell_angle_gamma   89.93509735
_symmetry_Int_Tables_number   1
_chemical_formula_structural   V85Zn86O256
_chemical_formula_sum   'V85 Zn86 O256'
_cell_volume   4870.80091396
_cell_formula_units_Z   1
loop_
 _symmetry_equiv_pos_site_id
 _symmetry_equiv_pos_as_xyz
  1  'x, y, z'
loop_
 _atom_site_type_symbol
 _atom_site_label
 _atom_site_symmetry_multiplicity
 _atom_site_fract_x
 _atom_site_fract_y
 _atom_site_fract_z
 _atom_site_occupancy
  V  V0  1  0.00667665  0.86927052  0.87709846  1
  V  V1  1  0.75324155  0.12050255  0.87073023  1
  V  V2  1  0.11893878  0.88192205  0.25525999  1
  V  V3  1  0.75303772  0.37577984  0.12215410  1
  V  V4  1  0.24919612  0.61802796  0.37643416  1
  V  V5  1  0.62694892  0.75050402  0.38306167  1
  V  V6  1  0.88606287  0.00381642  0.37574596  1
  V  V7  1  0.37693970  0.88724098  0.50302480  1
  V  V8  1  0.25161179  0.24958857  0.50353998  1
  V  V9  1  0.37304157  0.75240235  0.12379092  1
  V  V10  1  0.38513482  0.24524534  0.63728557  1
  V  V11  1  0.75057663  0.37380882  0.62728931  1
  V  V12  1  0.49744945  0.37423351  0.87389977  1
  V  V13  1  0.37817377  0.87640293  -0.01547506  1
  V  V14  1  0.12502855  0.50031914  0.62578616  1
  V  V15  1  0.12953292  0.75731859  0.37443982  1
  V  V16  1  0.12219426  0.12763014  0.00664912  1
  V  V17  1  0.62755994  0.12443596  -0.00238114  1
  V  V18  1  0.50079124  0.12547915  0.12007747  1
  V  V19  1  0.62745866  0.50128471  0.62889512  1
  V  V20  1  0.25288508  0.37463553  0.62789532  1
  V  V21  1  0.25204488  0.37010951  0.10916316  1
  V  V22  1  0.12578795  0.24953847  0.37550266  1
  V  V23  1  0.62679735  0.62895272  -0.00287926  1
  V  V24  1  0.62158370  0.37502957  0.74771486  1
  V  V25  1  0.87503675  0.86838686  0.00690640  1
  V  V26  1  0.62533749  0.24774948  0.86229082  1
  V  V27  1  0.49726805  0.88128193  0.37908583  1
  V  V28  1  0.00116079  0.24254408  0.24234648  1
  V  V29  1  0.12724879  0.24865618  0.88082487  1
  V  V30  1  0.25055332  0.50284892  0.75164865  1
  V  V31  1  0.74885672  0.62651692  0.37970542  1
  V  V32  1  0.74968551  0.62839634  0.86089764  1
  V  V33  1  0.75324775  0.25721136  -0.00430545  1
  V  V34  1  -0.00662910  0.74327276  0.75184641  1
  V  V35  1  0.49974610  0.62706394  0.62613544  1
  V  V36  1  0.37340285  0.49885126  0.87786319  1
  V  V37  1  0.49872309  0.49952004  0.49853004  1
  V  V38  1  0.13376292  0.37234561  0.24340977  1
  V  V39  1  0.87737459  0.11825777  0.74080963  1
  V  V40  1  0.19784274  0.54638303  0.19602757  1
  V  V41  1  0.87447815  0.63158348  0.24118119  1
  V  V42  1  0.00005956  0.49307365  0.50070133  1
  V  V43  1  0.37724643  0.61798808  0.24947844  1
  V  V44  1  0.37468156  0.75294902  0.62398364  1
  V  V45  1  0.86843818  0.50137091  0.86061197  1
  V  V46  1  0.74882842  0.23936973  0.50216701  1
  V  V47  1  0.37627055  0.13158020  0.24776377  1
  V  V48  1  0.25311730  0.00178732  0.24972558  1
  V  V49  1  0.74727830  0.12307066  0.37572219  1
  V  V50  1  0.87799760  0.24485072  0.11800350  1
  V  V51  1  0.75359124  0.74364700  0.00559037  1
  V  V52  1  0.75083020  0.00192484  0.24879481  1
  V  V53  1  -0.00951374  0.37515420  0.88392826  1
  V  V54  1  0.00112473  0.37185375  0.37009100  1
  V  V55  1  0.37611521  0.25239564  0.09925450  1
  V  V56  1  0.87111857  0.49597246  0.37134241  1
  V  V57  1  0.25204069  0.00084647  0.75406494  1
  V  V58  1  -0.00277860  0.51034857  0.00361283  1
  V  V59  1  0.25357440  0.12154201  0.88053187  1
  V  V60  1  0.49927154  -0.00814330  -0.01146136  1
  V  V61  1  0.24976569  0.12595084  0.37620986  1
  V  V62  1  0.12395355  0.87253156  0.75055927  1
  V  V63  1  0.62646007  -0.00260678  0.12319069  1
  V  V64  1  0.25119247  0.87977584  0.12392916  1
  V  V65  1  0.12371534  0.62571575  0.50149256  1
  V  V66  1  0.62451484  0.37439766  0.25105133  1
  V  V67  1  -0.00022637  0.00757788  0.51674756  1
  V  V68  1  0.50210542  0.75811325  0.76201822  1
  V  V69  1  0.87504170  -0.00334194  0.87173947  1
  V  V70  1  0.12252526  0.37355515  0.75229600  1
  V  V71  1  0.61847485  -0.00531400  0.62909872  1
  V  V72  1  0.23841855  0.62813766  0.87788946  1
  V  V73  1  0.24513077  0.88299267  0.62544414  1
  V  V74  1  0.60029036  0.12310817  0.50959218  1
  V  V75  1  0.49904161  0.75039478  0.24995462  1
  V  V76  1  0.00010168  0.24317641  0.75023234  1
  V  V77  1  0.50156263  0.49828548  -0.00098244  1
  V  V78  1  0.23940127  0.75050882  -0.00528191  1
  V  V79  1  0.88049906  0.24450150  0.62314570  1
  V  V80  1  -0.00139835  0.00545628  0.00589988  1
  V  V81  1  0.12428546  0.12309349  0.51638869  1
  V  V82  1  0.62381598  0.87467492  0.24887468  1
  V  V83  1  0.63367703  0.87311122  0.76886445  1
  V  V84  1  -0.05059332  0.83123329  0.42743424  1
  Zn  Zn85  1  0.75386049  0.86739290  0.12703872  1
  Zn  Zn86  1  0.50030298  0.25253357  0.24815177  1
  Zn  Zn87  1  0.63133475  0.63113353  0.50616821  1
  Zn  Zn88  1  0.12061348  0.00856167  0.12947081  1
  Zn  Zn89  1  0.37412161  0.62751559  0.75181308  1
  Zn  Zn90  1  0.86457218  0.75027320  0.62497720  1
  Zn  Zn91  1  0.25048426  0.75280426  0.50183115  1
  Zn  Zn92  1  0.50250875  0.62447328  0.12298844  1
  Zn  Zn93  1  0.74965978  0.85886621  0.60503702  1
  Zn  Zn94  1  0.37508994  0.49662838  0.37189018  1
  Zn  Zn95  1  0.38039200  0.00650639  0.37913602  1
  Zn  Zn96  1  0.62655135  0.50058417  0.12366456  1
  Zn  Zn97  1  0.87183931  0.37032986  0.49644966  1
  Zn  Zn98  1  0.62057906  0.24860284  0.37429141  1
  Zn  Zn99  1  0.00286724  0.62454327  0.12255105  1
  Zn  Zn100  1  0.37661763  0.37498063  0.49754739  1
  Zn  Zn101  1  -0.00721432  0.75808825  0.24470196  1
  Zn  Zn102  1  0.49837009  0.37483626  0.37311169  1
  Zn  Zn103  1  0.87802892  0.12440601  0.24484407  1
  Zn  Zn104  1  0.74859660  0.49992592  0.24728136  1
  Zn  Zn105  1  -0.00767762  0.61949430  0.63647703  1
  Zn  Zn106  1  0.39354550  0.11458676  0.74851010  1
  Zn  Zn107  1  0.19425082  0.19292996  0.18259127  1
  Zn  Zn108  1  0.19227607  0.18784126  0.69416600  1
  Zn  Zn109  1  0.15244587  0.71925602  0.15901179  1
  Zn  Zn110  1  0.18433579  0.69150494  0.69054373  1
  Zn  Zn111  1  0.68831301  0.18938702  0.18590012  1
  Zn  Zn112  1  0.69168966  0.17398237  0.68293791  1
  Zn  Zn113  1  0.68717731  0.68443135  0.18725431  1
  Zn  Zn114  1  0.68549001  0.69638229  0.68553331  1
  Zn  Zn115  1  0.31393235  0.31486851  0.31046893  1
  Zn  Zn116  1  0.31136921  0.31133232  0.81886678  1
  Zn  Zn117  1  0.31104381  0.81211493  0.31378603  1
  Zn  Zn118  1  0.31127041  0.81027215  0.81043244  1
  Zn  Zn119  1  0.81115711  0.30895396  0.30876310  1
  Zn  Zn120  1  0.81183153  0.31289875  0.80840877  1
  Zn  Zn121  1  0.80620884  0.81043069  0.31053224  1
  Zn  Zn122  1  0.81323518  0.80938517  0.81548139  1
  Zn  Zn123  1  0.18886539  0.43508865  0.43680461  1
  Zn  Zn124  1  0.18088754  0.44114918  0.93666771  1
  Zn  Zn125  1  0.18760205  0.94300816  0.44091647  1
  Zn  Zn126  1  0.18610121  0.93982402  0.93919323  1
  Zn  Zn127  1  0.68559520  0.43557597  0.44046046  1
  Zn  Zn128  1  0.68850570  0.44109742  0.93536527  1
  Zn  Zn129  1  0.67869191  0.94320911  0.43825724  1
  Zn  Zn130  1  0.69210239  0.93598968  0.93863946  1
  Zn  Zn131  1  0.31397822  0.06321622  0.05827074  1
  Zn  Zn132  1  0.31367124  0.06507604  0.56941430  1
  Zn  Zn133  1  0.31700138  0.56679029  0.05560776  1
  Zn  Zn134  1  0.31379778  0.56401261  0.56296994  1
  Zn  Zn135  1  0.81241742  0.06383974  0.05900959  1
  Zn  Zn136  1  0.79375778  0.02559299  0.55354504  1
  Zn  Zn137  1  0.81677937  0.55452476  0.05433510  1
  Zn  Zn138  1  0.80987679  0.56085986  0.56830264  1
  Zn  Zn139  1  0.43790986  0.43397292  0.18018266  1
  Zn  Zn140  1  0.43791792  0.43660040  0.68980190  1
  Zn  Zn141  1  0.43854942  0.93942746  0.18442449  1
  Zn  Zn142  1  0.43980230  0.93838682  0.69233717  1
  Zn  Zn143  1  0.93667065  0.43352284  0.18484975  1
  Zn  Zn144  1  0.93644179  0.43161455  0.68855062  1
  Zn  Zn145  1  0.93671494  0.94130851  0.18694625  1
  Zn  Zn146  1  0.93086992  0.92791492  0.68762007  1
  Zn  Zn147  1  0.06590954  0.06611744  0.31704262  1
  Zn  Zn148  1  0.06476689  0.05795093  0.81395552  1
  Zn  Zn149  1  0.05494626  0.56667830  0.31787787  1
  Zn  Zn150  1  0.06085134  0.55945452  0.81702045  1
  Zn  Zn151  1  0.56268356  0.06589248  0.31165537  1
  Zn  Zn152  1  0.56314392  0.05528866  0.80656079  1
  Zn  Zn153  1  0.56430751  0.56076084  0.31154881  1
  Zn  Zn154  1  0.56509999  0.56485089  0.81043639  1
  Zn  Zn155  1  0.43248365  0.19712554  0.43294174  1
  Zn  Zn156  1  0.45792754  0.16956178  0.90696324  1
  Zn  Zn157  1  0.43770745  0.68994567  0.43952873  1
  Zn  Zn158  1  0.43078906  0.68319401  0.93832730  1
  Zn  Zn159  1  0.93870775  0.18279426  0.43715314  1
  Zn  Zn160  1  0.93726521  0.18641244  0.93600283  1
  Zn  Zn161  1  0.91104108  0.65667874  0.47234935  1
  Zn  Zn162  1  0.93411411  0.68535794  0.93294732  1
  Zn  Zn163  1  0.06238453  0.31723782  0.06150234  1
  Zn  Zn164  1  0.06410142  0.31044169  0.56458599  1
  Zn  Zn165  1  0.05913373  0.82006395  0.06514347  1
  Zn  Zn166  1  0.06341036  0.81068924  0.57030876  1
  Zn  Zn167  1  0.56558397  0.31263327  0.05830084  1
  Zn  Zn168  1  0.56282620  0.31139875  0.55918628  1
  Zn  Zn169  1  0.56377231  0.80941230  0.05909023  1
  Zn  Zn170  1  0.56043706  0.81656660  0.56500678  1
  O  O171  1  0.12970828  0.12921697  0.11086045  1
  O  O172  1  0.13008251  0.13196254  0.61533184  1
  O  O173  1  0.13994280  0.60478743  0.13853561  1
  O  O174  1  0.12133234  0.62060373  0.61600851  1
  O  O175  1  0.62197736  0.11865507  0.11742539  1
  O  O176  1  0.61054209  0.13530575  0.61187590  1
  O  O177  1  0.62255653  0.62156810  0.11527300  1
  O  O178  1  0.61750045  0.61686845  0.62509239  1
  O  O179  1  0.37650477  0.37971318  0.37777322  1
  O  O180  1  0.38633210  0.38263036  0.86944085  1
  O  O181  1  0.38017043  0.87598983  0.38448546  1
  O  O182  1  0.37268090  0.87228217  0.88566331  1
  O  O183  1  0.87969596  0.37923406  0.37395200  1
  O  O184  1  0.87898159  0.38611159  0.86602806  1
  O  O185  1  0.88036184  0.88330429  0.36828089  1
  O  O186  1  0.88230862  0.88113495  0.88290167  1
  O  O187  1  0.25398520  0.00752955  0.36463483  1
  O  O188  1  0.24419597  0.01245853  0.87012676  1
  O  O189  1  0.25298459  0.51330885  0.38142358  1
  O  O190  1  0.25640928  0.50352214  0.87230204  1
  O  O191  1  0.75732232  0.01084651  0.36926895  1
  O  O192  1  0.76112564  0.00929031  0.88061377  1
  O  O193  1  0.75698669  0.50236140  0.37278858  1
  O  O194  1  0.76143210  0.50720929  0.87463029  1
  O  O195  1  0.25861538  0.49421260  0.13026946  1
  O  O196  1  0.24603826  0.49331155  0.62965922  1
  O  O197  1  0.24976947  0.99952655  0.13647045  1
  O  O198  1  0.25127504  0.98944819  0.63285560  1
  O  O199  1  0.75161258  0.48867464  0.12420906  1
  O  O200  1  0.74091146  0.48689656  0.61759376  1
  O  O201  1  0.73970981  1.00034227  0.12771399  1
  O  O202  1  0.71599862  1.03149088  0.63947930  1
  O  O203  1  0.01235405  0.36732394  0.25090745  1
  O  O204  1  0.00396267  0.36272606  0.75660467  1
  O  O205  1  0.01493577  0.87835611  0.24478114  1
  O  O206  1  0.00618602  0.86883638  0.75893895  1
  O  O207  1  0.51311586  0.37506730  0.24572705  1
  O  O208  1  0.51302247  0.37697885  0.75717204  1
  O  O209  1  0.50127128  0.86539199  0.25470776  1
  O  O210  1  0.50724587  0.86272946  0.75025121  1
  O  O211  1  0.49241400  0.12591923  0.23935012  1
  O  O212  1  0.49097796  0.13748104  0.79861698  1
  O  O213  1  0.49419861  0.63650734  0.25041671  1
  O  O214  1  0.50003372  0.63432611  0.73969141  1
  O  O215  1  1.00358143  0.13927413  0.25119852  1
  O  O216  1  0.99360297  0.13539337  0.75812260  1
  O  O217  1  0.98506461  0.62579700  0.24951858  1
  O  O218  1  1.00746464  0.63911479  0.75277480  1
  O  O219  1  0.38339601  0.24431302  0.00336214  1
  O  O220  1  0.36209595  0.25090558  0.51063072  1
  O  O221  1  0.37053235  0.75739632  0.00859133  1
  O  O222  1  0.37360327  0.75837194  0.51172926  1
  O  O223  1  0.86528046  0.24693664  0.00371823  1
  O  O224  1  0.86960243  0.24707840  0.50748641  1
  O  O225  1  0.86875450  0.75732681  -0.00252640  1
  O  O226  1  0.89194566  0.76987261  0.48110831  1
  O  O227  1  0.13456516  0.24533807  0.49737570  1
  O  O228  1  0.11558909  0.24373940  0.98811127  1
  O  O229  1  0.12321082  0.74283211  0.49093492  1
  O  O230  1  0.14048257  0.75992706  1.00471513  1
  O  O231  1  0.63137290  0.23863739  0.49726250  1
  O  O232  1  0.63504263  0.24322267  0.99031276  1
  O  O233  1  0.61568478  0.75024678  0.48603141  1
  O  O234  1  0.63090568  0.73625132  0.99953562  1
  O  O235  1  0.49039237  0.24525201  0.12185931  1
  O  O236  1  0.48228917  0.25907320  0.62317367  1
  O  O237  1  0.49134560  0.74877445  0.13328906  1
  O  O238  1  0.49379962  0.74453438  0.63049452  1
  O  O239  1  0.99039783  0.25763136  0.13044387  1
  O  O240  1  0.98827503  0.25372592  0.63220155  1
  O  O241  1  1.03374668  0.73612755  0.13672590  1
  O  O242  1  0.99900253  0.74806996  0.64139476  1
  O  O243  1  0.00558232  0.25449095  0.36784891  1
  O  O244  1  0.00268049  0.25678131  0.86780995  1
  O  O245  1  0.00831231  0.76588770  0.37121801  1
  O  O246  1  -0.00313395  0.75790391  0.86633757  1
  O  O247  1  0.50242223  0.25565800  0.36747930  1
  O  O248  1  0.51554184  0.26898105  0.88853404  1
  O  O249  1  0.50320102  0.75904008  0.36721476  1
  O  O250  1  0.49170989  0.74253235  0.85916624  1
  O  O251  1  0.24517264  0.13106018  0.49788035  1
  O  O252  1  0.23817109  0.11810232  0.98895508  1
  O  O253  1  0.23915905  0.62745858  0.49516230  1
  O  O254  1  0.25422198  0.63758450  0.99140073  1
  O  O255  1  0.74729093  0.13032198  0.49519432  1
  O  O256  1  0.74687954  0.13303712  0.98849293  1
  O  O257  1  0.74719989  0.61590675  0.48379637  1
  O  O258  1  0.74526139  0.62762140  0.99540096  1
  O  O259  1  0.24579750  0.38239180  0.01022485  1
  O  O260  1  0.24963671  0.36699254  0.51023817  1
  O  O261  1  0.25893811  0.87344807  0.00476026  1
  O  O262  1  0.25562012  0.87506539  0.50891464  1
  O  O263  1  0.74405985  0.36466364  0.00494913  1
  O  O264  1  0.74732870  0.35813303  0.50924668  1
  O  O265  1  0.75883650  0.86377471  0.00011556  1
  O  O266  1  0.75603775  0.92398340  0.51274645  1
  O  O267  1  0.12951765  0.49376089  0.25445672  1
  O  O268  1  0.12811472  0.49368786  0.74387791  1
  O  O269  1  0.13353436  0.99846681  0.25067749  1
  O  O270  1  0.13479380  0.98616199  0.75541627  1
  O  O271  1  0.62821308  0.49146089  0.24476502  1
  O  O272  1  0.62163147  0.49142992  0.73652701  1
  O  O273  1  0.62941699  0.99525492  0.24251505  1
  O  O274  1  0.62218120  0.97937615  0.74842384  1
  O  O275  1  0.36941039  0.01311599  0.24759382  1
  O  O276  1  0.35928607  -0.00013897  0.74817992  1
  O  O277  1  0.38573846  0.51492545  0.24871814  1
  O  O278  1  0.36865252  0.50159253  0.75910274  1
  O  O279  1  0.86977283  0.00424591  0.25601128  1
  O  O280  1  0.88476700  0.00553962  0.76323233  1
  O  O281  1  0.87537017  0.50527204  0.26023892  1
  O  O282  1  0.88051420  0.50201743  0.76039896  1
  O  O283  1  0.12302201  0.36796466  0.36626699  1
  O  O284  1  0.11640452  0.36637171  0.86971506  1
  O  O285  1  0.13584664  0.86949011  0.36852973  1
  O  O286  1  0.11251354  0.87855438  0.87212752  1
  O  O287  1  0.62595314  0.37299236  0.36419359  1
  O  O288  1  0.62422886  0.37087399  0.86422945  1
  O  O289  1  0.61795311  0.87083100  0.37030721  1
  O  O290  1  0.62840287  0.87229697  0.86795083  1
  O  O291  1  0.37886649  0.13572109  0.12644231  1
  O  O292  1  0.37231798  0.13934433  0.63316755  1
  O  O293  1  0.37541458  0.63702167  0.13168544  1
  O  O294  1  0.38066352  0.63512290  0.62762033  1
  O  O295  1  0.86893052  0.13924877  0.12602104  1
  O  O296  1  0.86999052  0.12833214  0.63838703  1
  O  O297  1  0.87189717  0.61944211  0.14046434  1
  O  O298  1  0.88839747  0.63777606  0.58908253  1
  O  O299  1  0.26581356  0.25575269  0.11714013  1
  O  O300  1  0.25374236  0.25821217  0.62121079  1
  O  O301  1  0.25533614  0.75812479  0.11824970  1
  O  O302  1  0.25832905  0.76060935  0.62623951  1
  O  O303  1  0.75522946  0.25409527  0.11362986  1
  O  O304  1  0.75982941  0.24972473  0.61863322  1
  O  O305  1  0.74624660  0.74904460  0.11127940  1
  O  O306  1  0.74844602  0.74447057  0.61042361  1
  O  O307  1  0.24626039  0.24645600  0.38498656  1
  O  O308  1  0.23653383  0.23888038  0.86975378  1
  O  O309  1  0.24463974  0.73902340  0.37914092  1
  O  O310  1  0.25522277  0.74055742  0.88226056  1
  O  O311  1  0.75042658  0.23725287  0.38216067  1
  O  O312  1  0.74518808  0.24623156  0.87970740  1
  O  O313  1  0.73867231  0.74140985  0.37200988  1
  O  O314  1  0.75617412  0.73351140  0.88560775  1
  O  O315  1  0.00812808  0.11597708  -0.00734051  1
  O  O316  1  0.00964771  0.11680603  0.50184935  1
  O  O317  1  -0.00446115  0.61599551  0.00238780  1
  O  O318  1  0.01530974  0.60695965  0.48862093  1
  O  O319  1  0.50907548  0.11483020  0.00157212  1
  O  O320  1  0.50336572  0.12848792  0.49396217  1
  O  O321  1  0.50782071  0.61660616  -0.00384855  1
  O  O322  1  0.50145908  0.62146517  0.51194130  1
  O  O323  1  0.49844937  0.38572737  0.49893703  1
  O  O324  1  0.51119938  0.39076541  0.98977888  1
  O  O325  1  0.48945782  0.87235660  0.49137835  1
  O  O326  1  0.48993400  0.87981748  1.00739842  1
  O  O327  1  1.00222820  0.38172623  0.49332818  1
  O  O328  1  0.99591803  0.37616952  0.98624034  1
  O  O329  1  1.00729080  0.88614816  0.49503755  1
  O  O330  1  0.99364533  0.88017755  0.99414320  1
  O  O331  1  0.49878346  0.50150184  0.38585301  1
  O  O332  1  0.49409916  0.49411538  0.87643105  1
  O  O333  1  0.49807936  0.98513799  0.36561102  1
  O  O334  1  0.50748237  0.99279071  0.89020190  1
  O  O335  1  0.99336718  0.49020205  0.37997863  1
  O  O336  1  0.98809138  0.49283946  0.87601508  1
  O  O337  1  0.98969649  1.00413015  0.37666200  1
  O  O338  1  0.99375730  0.99166750  0.88529782  1
  O  O339  1  0.00036310  -0.00017370  0.11086161  1
  O  O340  1  -0.00332308  -0.00278394  0.61442364  1
  O  O341  1  -0.00905822  0.50135125  0.10912359  1
  O  O342  1  0.00379796  0.49845717  0.61693988  1
  O  O343  1  0.51257562  0.00535110  0.12071836  1
  O  O344  1  0.51664967  0.00795887  0.64226629  1
  O  O345  1  0.49976292  0.50329892  0.11183286  1
  O  O346  1  0.50478749  0.50818556  0.62182535  1
  O  O347  1  0.23958265  0.37011319  0.23983396  1
  O  O348  1  0.24308840  0.38086493  0.74555185  1
  O  O349  1  0.24601789  0.88551463  0.24690154  1
  O  O350  1  0.24337562  0.87929791  0.74612997  1
  O  O351  1  0.74097826  0.37393768  0.24150679  1
  O  O352  1  0.73934788  0.36737654  0.73462562  1
  O  O353  1  0.74296522  0.88291424  0.24663578  1
  O  O354  1  0.73394682  0.86299199  0.75142781  1
  O  O355  1  0.25577526  0.12065539  0.25302826  1
  O  O356  1  0.24665064  0.11553393  0.76314523  1
  O  O357  1  0.25484950  0.61483386  0.25452635  1
  O  O358  1  0.25035551  0.61968812  0.75563951  1
  O  O359  1  0.74828303  0.11943809  0.25865586  1
  O  O360  1  0.76223618  0.13239644  0.76419545  1
  O  O361  1  0.75990597  0.62247958  0.25884348  1
  O  O362  1  0.74256478  0.63022440  0.76259920  1
  O  O363  1  0.36848846  0.12545668  0.36549713  1
  O  O364  1  0.35327412  0.12909413  0.88126364  1
  O  O365  1  0.36638268  0.62740130  0.36668520  1
  O  O366  1  0.36562733  0.61489137  0.87078293  1
  O  O367  1  0.86740023  0.11836407  0.37061744  1
  O  O368  1  0.87099639  0.11681327  0.86810030  1
  O  O369  1  0.86792262  0.61511005  0.37099170  1
  O  O370  1  0.86167864  0.61339326  0.87388238  1
  O  O371  1  0.13670681  0.37056761  0.13060730  1
  O  O372  1  0.13469471  0.37798264  0.63129438  1
  O  O373  1  0.13488426  0.88240621  0.13562448  1
  O  O374  1  0.13518605  0.87238356  0.63459818  1
  O  O375  1  0.63681607  0.37371696  0.12998743  1
  O  O376  1  0.62940773  0.37844446  0.62982780  1
  O  O377  1  0.62617944  0.88187778  0.13041370  1
  O  O378  1  0.62851058  0.88618343  0.62627391  1
  O  O379  1  0.12125640  0.25547166  0.25255407  1
  O  O380  1  0.11658232  0.25227069  0.75814957  1
  O  O381  1  0.13035507  0.76271989  0.26510442  1
  O  O382  1  0.11601585  0.76410319  0.75047535  1
  O  O383  1  0.62408903  0.25858661  0.25075655  1
  O  O384  1  0.63111721  0.25353123  0.75833344  1
  O  O385  1  0.61641327  0.75480250  0.25648645  1
  O  O386  1  0.61018921  0.76050060  0.74779941  1
  O  O387  1  0.37370274  0.23822197  0.24381377  1
  O  O388  1  0.36968881  0.25164915  0.73845097  1
  O  O389  1  0.37951482  0.74251343  0.24476770  1
  O  O390  1  0.38493047  0.75245909  0.73891473  1
  O  O391  1  0.88491004  0.24744354  0.24148543  1
  O  O392  1  0.88230579  0.24252755  0.74340008  1
  O  O393  1  0.87617801  0.73681464  0.25319692  1
  O  O394  1  0.89037705  0.74944075  0.75223543  1
  O  O395  1  0.38757462  0.50073516  0.50161896  1
  O  O396  1  0.38485305  0.50418232  0.98605136  1
  O  O397  1  0.37080623  0.99114841  0.50000732  1
  O  O398  1  0.38651642  0.98781901  1.00919362  1
  O  O399  1  0.88305883  0.49416271  0.48871176  1
  O  O400  1  0.88718483  0.49891372  0.98231156  1
  O  O401  1  0.89295062  1.01159615  0.49170090  1
  O  O402  1  0.88032934  0.99482124  0.99135267  1
  O  O403  1  0.11569484  0.00869658  0.00287095  1
  O  O404  1  0.11134282  0.01074947  0.49569640  1
  O  O405  1  0.09670663  0.49498983  -0.01059772  1
  O  O406  1  0.12058569  0.50315798  0.50592703  1
  O  O407  1  0.62269422  0.00198025  0.00742897  1
  O  O408  1  0.61528932  0.01525178  0.51423937  1
  O  O409  1  0.61948502  0.51049137  -0.00017907  1
  O  O410  1  0.61468367  0.50124059  0.51124576  1
  O  O411  1  0.36953510  0.35952005  0.12380533  1
  O  O412  1  0.36342331  0.36961781  0.62595221  1
  O  O413  1  0.36918126  0.86444758  0.12630280  1
  O  O414  1  0.37104118  0.87144770  0.61985095  1
  O  O415  1  0.86074484  0.36205834  0.13103950  1
  O  O416  1  0.86692168  0.36444434  0.62214051  1
  O  O417  1  0.87448966  0.87903834  0.11147357  1
  O  O418  1  0.86368168  0.86554493  0.62966358  1
  O  O419  1  0.13257378  0.13348325  0.38427008  1
  O  O420  1  0.12906260  0.13171033  0.88288283  1
  O  O421  1  0.13168519  0.63287322  0.37842471  1
  O  O422  1  0.13930158  0.61831698  0.87460944  1
  O  O423  1  0.63133914  0.12198091  0.38757022  1
  O  O424  1  0.63648379  0.13069299  0.87711607  1
  O  O425  1  0.63140839  0.63414152  0.37403335  1
  O  O426  1  0.64093986  0.61584553  0.88155738  1
