# generated using pymatgen
data_V85Zn86O256
_symmetry_space_group_name_H-M   'P 1'
_cell_length_a   16.93280411
_cell_length_b   16.94289809
_cell_length_c   16.95208375
_cell_angle_alpha   89.96445431
_cell_angle_beta   89.93471025
_cell_angle_gamma   90.09291352
_symmetry_Int_Tables_number   1
_chemical_formula_structural   V85Zn86O256
_chemical_formula_sum   'V85 Zn86 O256'
_cell_volume   4863.38594336
_cell_formula_units_Z   1
loop_
 _symmetry_equiv_pos_site_id
 _symmetry_equiv_pos_as_xyz
  1  'x, y, z'
loop_
 _atom_site_type_symbol
 _atom_site_label
 _atom_site_symmetry_multiplicity
 _atom_site_fract_x
 _atom_site_fract_y
 _atom_site_fract_z
 _atom_site_occupancy
  V  V0  1  0.49569489  0.37397211  0.87906793  1
  V  V1  1  0.63040870  0.50132913  0.13151610  1
  V  V2  1  0.63449245  0.37576267  0.25463620  1
  V  V3  1  0.12643392  -0.00747790  0.11835934  1
  V  V4  1  0.50327027  0.11892958  0.12670657  1
  V  V5  1  0.12212340  0.62241988  -0.00156574  1
  V  V6  1  0.64098394  0.74060747  0.38233518  1
  V  V7  1  0.62677348  0.38818357  0.74641036  1
  V  V8  1  0.50430887  0.25237763  0.25390763  1
  V  V9  1  0.00475785  0.75225371  0.74732722  1
  V  V10  1  0.37262584  0.49838585  0.88248755  1
  V  V11  1  0.86658849  0.75020759  0.62631715  1
  V  V12  1  0.11864045  0.37243008  0.75013945  1
  V  V13  1  0.00200175  0.87602334  0.87107927  1
  V  V14  1  0.87302087  0.24067235  0.62427237  1
  V  V15  1  0.50083176  0.62760190  0.12678535  1
  V  V16  1  -0.00451812  0.62465749  0.62401557  1
  V  V17  1  0.74679422  0.00503336  0.23721256  1
  V  V18  1  0.74648482  0.25047423  0.49543138  1
  V  V19  1  0.86167407  0.62725393  0.24852464  1
  V  V20  1  0.25069174  0.62946714  0.37472780  1
  V  V21  1  0.62623412  0.75709378  0.88526247  1
  V  V22  1  0.62496780  0.87769961  0.25267333  1
  V  V23  1  0.12448433  0.25154707  0.37579489  1
  V  V24  1  0.49651864  0.24597166  0.75024248  1
  V  V25  1  0.61574493  0.87626157  0.75186690  1
  V  V26  1  0.75282408  0.12588727  0.37371103  1
  V  V27  1  0.86964118  0.62273001  0.75586802  1
  V  V28  1  0.00148209  0.25324698  0.24903625  1
  V  V29  1  0.37776274  0.62882572  0.25114938  1
  V  V30  1  0.50138680  0.74139133  0.75161971  1
  V  V31  1  0.49535705  0.11970592  0.62702947  1
  V  V32  1  0.87379629  0.00191862  0.87060610  1
  V  V33  1  0.87024649  0.86839075  -0.00428992  1
  V  V34  1  0.24781782  0.25078660  0.50089335  1
  V  V35  1  0.12383241  0.62766897  0.49876892  1
  V  V36  1  0.87718425  0.25597985  0.11284865  1
  V  V37  1  -0.00177767  -0.00507428  0.49724262  1
  V  V38  1  0.00970562  0.12900991  0.11552474  1
  V  V39  1  0.38324052  -0.00514970  0.37977572  1
  V  V40  1  0.87628426  0.13387065  0.24923685  1
  V  V41  1  0.25808213  -0.00342700  0.74844357  1
  V  V42  1  -0.00113650  0.50476713  0.49497004  1
  V  V43  1  0.50536937  0.37457883  0.37806563  1
  V  V44  1  0.25026712  0.62386549  0.87323273  1
  V  V45  1  0.74710712  0.00429642  0.74818528  1
  V  V46  1  0.62737876  0.12112612  0.00473986  1
  V  V47  1  0.37494950  0.12618417  0.25150335  1
  V  V48  1  -0.00035772  0.37977293  0.37407728  1
  V  V49  1  0.75269337  0.12690416  0.87227945  1
  V  V50  1  0.49327794  -0.00585988  -0.00419286  1
  V  V51  1  0.25033210  0.75557399  0.50030074  1
  V  V52  1  0.24835500  0.12358472  0.37524368  1
  V  V53  1  0.25065825  0.49803447  0.24843304  1
  V  V54  1  0.86770041  0.49405530  0.87959584  1
  V  V55  1  0.24943023  0.49813987  0.75056699  1
  V  V56  1  0.61886801  -0.00384022  0.61445008  1
  V  V57  1  0.74604006  0.86794567  0.11990914  1
  V  V58  1  0.86893761  0.38621998  0.51264243  1
  V  V59  1  0.24778391  0.37280235  0.62597817  1
  V  V60  1  0.49974127  0.49664396  0.00389430  1
  V  V61  1  0.62432272  0.25045370  0.87469494  1
  V  V62  1  -0.00708436  0.24683813  0.74906027  1
  V  V63  1  0.61883563  0.12522492  0.49470774  1
  V  V64  1  0.38374195  0.74295218  0.62204858  1
  V  V65  1  0.86490585  0.87508223  0.50418057  1
  V  V66  1  0.10742378  0.75971400  0.36329498  1
  V  V67  1  0.75453295  0.37904501  0.11755717  1
  V  V68  1  0.37742315  0.37728055  0.50111488  1
  V  V69  1  0.00034318  0.11891854  0.63009458  1
  V  V70  1  -0.00460397  0.37424669  0.88192711  1
  V  V71  1  0.89375398  -0.03097824  0.34597008  1
  V  V72  1  0.12130749  0.49870334  0.62506805  1
  V  V73  1  0.85734517  0.50389793  0.36662777  1
  V  V74  1  0.12297607  0.23848201  0.87989038  1
  V  V75  1  0.50772096  0.51059792  0.51329488  1
  V  V76  1  0.00321089  0.62964504  0.13397481  1
  V  V77  1  0.26055679  0.75613886  -0.00059278  1
  V  V78  1  0.37373051  0.24650157  0.62894199  1
  V  V79  1  0.26073449  0.12365284  0.87483039  1
  V  V80  1  0.37553216  0.25785231  0.11780427  1
  V  V81  1  0.12672456  0.75477883  0.87260892  1
  V  V82  1  0.74959247  0.62667497  0.88561491  1
  V  V83  1  0.24268720  -0.00929831  0.25230461  1
  V  V84  1  0.12445823  -0.01162314  0.63050368  1
  Zn  Zn85  1  0.38357076  0.88158723  0.50930603  1
  Zn  Zn86  1  0.12919840  0.37652964  0.24659741  1
  Zn  Zn87  1  0.73928851  0.37832377  0.62691648  1
  Zn  Zn88  1  0.38119976  -0.01499185  0.87342923  1
  Zn  Zn89  1  0.12513301  0.49741547  0.12430608  1
  Zn  Zn90  1  0.00672027  0.00394601  -0.00763673  1
  Zn  Zn91  1  0.87829329  0.75069045  0.12290261  1
  Zn  Zn92  1  0.38147165  0.61837758  0.74633416  1
  Zn  Zn93  1  0.62976307  0.63014799  0.00628828  1
  Zn  Zn94  1  0.24509196  0.86648705  0.63360625  1
  Zn  Zn95  1  -0.00499568  0.49796975  0.00218563  1
  Zn  Zn96  1  0.25412204  0.38251835  0.10841084  1
  Zn  Zn97  1  0.50429216  0.75306775  0.25621207  1
  Zn  Zn98  1  0.12232061  0.12243551  0.50095163  1
  Zn  Zn99  1  0.75125597  0.25396203  -0.00369567  1
  Zn  Zn100  1  0.37824638  0.50349851  0.37792409  1
  Zn  Zn101  1  0.64973720  0.62346209  0.50877841  1
  Zn  Zn102  1  0.24865104  0.24884432  -0.00132633  1
  Zn  Zn103  1  0.51348081  0.87630218  0.38946575  1
  Zn  Zn104  1  0.74440687  0.87285980  0.62860288  1
  Zn  Zn105  1  0.38217989  0.75933763  0.12333601  1
  Zn  Zn106  1  0.25342666  0.87375035  0.12592741  1
  Zn  Zn107  1  0.18827020  0.18714466  0.18841385  1
  Zn  Zn108  1  0.18379127  0.18007763  0.69192567  1
  Zn  Zn109  1  0.18658331  0.68936805  0.18740903  1
  Zn  Zn110  1  0.18810835  0.68485542  0.68669354  1
  Zn  Zn111  1  0.68766493  0.19384958  0.18595120  1
  Zn  Zn112  1  0.68272910  0.18798307  0.68604799  1
  Zn  Zn113  1  0.68743748  0.69268013  0.19021926  1
  Zn  Zn114  1  0.68425709  0.68330591  0.69318451  1
  Zn  Zn115  1  0.31723305  0.31288890  0.31314743  1
  Zn  Zn116  1  0.31227673  0.31242861  0.81526525  1
  Zn  Zn117  1  0.31241779  0.81269882  0.31150622  1
  Zn  Zn118  1  0.31772275  0.81535990  0.80948038  1
  Zn  Zn119  1  0.81353584  0.31444358  0.31430049  1
  Zn  Zn120  1  0.81129933  0.31286494  0.80858179  1
  Zn  Zn121  1  0.82317459  0.81659245  0.30051063  1
  Zn  Zn122  1  0.80788749  0.81339703  0.81095833  1
  Zn  Zn123  1  0.18813286  0.43947835  0.43448979  1
  Zn  Zn124  1  0.18557341  0.43059217  0.93876410  1
  Zn  Zn125  1  0.18448746  0.93424342  0.43765407  1
  Zn  Zn126  1  0.19395537  0.93671437  0.93421554  1
  Zn  Zn127  1  0.68474169  0.44000878  0.43979120  1
  Zn  Zn128  1  0.68411150  0.44132841  0.93864112  1
  Zn  Zn129  1  0.69821491  0.94143016  0.43068394  1
  Zn  Zn130  1  0.68327998  0.94026185  0.93952642  1
  Zn  Zn131  1  0.31149269  0.06717710  0.06270096  1
  Zn  Zn132  1  0.30984126  0.06257637  0.56264204  1
  Zn  Zn133  1  0.31305654  0.56808185  0.06280625  1
  Zn  Zn134  1  0.31310732  0.56274267  0.56199946  1
  Zn  Zn135  1  0.81823269  0.06381425  0.05791201  1
  Zn  Zn136  1  0.81100915  0.05951302  0.56097152  1
  Zn  Zn137  1  0.81432272  0.56184688  0.06207269  1
  Zn  Zn138  1  0.78113032  0.56416916  0.58871448  1
  Zn  Zn139  1  0.43831573  0.43961883  0.19196812  1
  Zn  Zn140  1  0.43849511  0.43524056  0.69052631  1
  Zn  Zn141  1  0.43511558  0.93750593  0.18948760  1
  Zn  Zn142  1  0.43636417  0.93035324  0.68542212  1
  Zn  Zn143  1  0.93990432  0.44144004  0.18590420  1
  Zn  Zn144  1  0.91873462  0.44132959  0.68170593  1
  Zn  Zn145  1  0.93620932  0.94203955  0.17573118  1
  Zn  Zn146  1  0.93579549  0.93671871  0.69060438  1
  Zn  Zn147  1  0.06361057  0.06380486  0.30781914  1
  Zn  Zn148  1  0.06637399  0.06116209  0.80789739  1
  Zn  Zn149  1  0.06662814  0.56893256  0.31105135  1
  Zn  Zn150  1  0.05836936  0.56154211  0.81344060  1
  Zn  Zn151  1  0.56542323  0.06391184  0.31159689  1
  Zn  Zn152  1  0.56239978  0.06328071  0.81318184  1
  Zn  Zn153  1  0.56416502  0.56114175  0.31685216  1
  Zn  Zn154  1  0.56401568  0.56624796  0.81756018  1
  Zn  Zn155  1  0.43665753  0.18878464  0.43838977  1
  Zn  Zn156  1  0.43767279  0.18090131  0.93813821  1
  Zn  Zn157  1  0.44463523  0.69248485  0.43550791  1
  Zn  Zn158  1  0.44146731  0.68634282  0.93446339  1
  Zn  Zn159  1  0.93579058  0.18696849  0.43994620  1
  Zn  Zn160  1  0.93613331  0.18585298  0.93548617  1
  Zn  Zn161  1  0.82021876  0.68861945  0.43812264  1
  Zn  Zn162  1  0.93952725  0.68722552  0.93925243  1
  Zn  Zn163  1  0.06949504  0.31506325  0.06188921  1
  Zn  Zn164  1  0.05692637  0.31225184  0.56158917  1
  Zn  Zn165  1  0.06288050  0.81227840  0.05792602  1
  Zn  Zn166  1  0.05750115  0.81158795  0.55209213  1
  Zn  Zn167  1  0.56436714  0.31129623  0.06412502  1
  Zn  Zn168  1  0.56325827  0.31089510  0.56416994  1
  Zn  Zn169  1  0.56305395  0.81655061  0.06854076  1
  Zn  Zn170  1  0.56259799  0.80975141  0.55698328  1
  O  O171  1  0.11628293  0.11909075  0.12816587  1
  O  O172  1  0.11582137  0.11299113  0.62149810  1
  O  O173  1  0.11606737  0.62381569  0.11736579  1
  O  O174  1  0.11755161  0.61735237  0.61998678  1
  O  O175  1  0.61648297  0.13426592  0.11694311  1
  O  O176  1  0.61495141  0.11819503  0.61671440  1
  O  O177  1  0.61962441  0.61914320  0.12781099  1
  O  O178  1  0.67492151  0.60286916  0.61984188  1
  O  O179  1  0.38241378  0.37734465  0.38635086  1
  O  O180  1  0.38850642  0.38135521  0.87147542  1
  O  O181  1  0.37614301  0.88938127  0.37303273  1
  O  O182  1  0.36164265  0.87663939  0.88715805  1
  O  O183  1  0.88091385  0.38628193  0.38003711  1
  O  O184  1  0.88135251  0.38229127  0.86763974  1
  O  O185  1  0.85727280  0.87392959  0.39836556  1
  O  O186  1  0.87919096  0.88149536  0.87697174  1
  O  O187  1  0.25074854  0.00720485  0.36960746  1
  O  O188  1  0.24878482  0.00986045  0.86554071  1
  O  O189  1  0.25258212  0.51381834  0.37076252  1
  O  O190  1  0.25671870  0.50203502  0.87118039  1
  O  O191  1  0.77086070  0.00704084  0.35963812  1
  O  O192  1  0.75397992  0.00732879  0.86925052  1
  O  O193  1  0.76001703  0.48964287  0.36666812  1
  O  O194  1  0.75512972  0.50994734  0.87816609  1
  O  O195  1  0.25141754  0.50124151  0.13396921  1
  O  O196  1  0.24331671  0.49252368  0.62962927  1
  O  O197  1  0.23955406  1.00390156  0.13198011  1
  O  O198  1  0.24342224  0.99953117  0.63381604  1
  O  O199  1  0.74155263  0.49328874  0.12246989  1
  O  O200  1  0.81967129  0.45837014  0.60804813  1
  O  O201  1  0.75724388  0.99863263  0.13374800  1
  O  O202  1  0.73855209  1.00352132  0.63423290  1
  O  O203  1  0.00158851  0.37088696  0.25852297  1
  O  O204  1  0.00217834  0.36517817  0.75544874  1
  O  O205  1  -0.07300413  0.89320120  0.27696795  1
  O  O206  1  -0.00340572  0.86712690  0.76210227  1
  O  O207  1  0.50672114  0.37073626  0.25866453  1
  O  O208  1  0.50839368  0.36839739  0.75848951  1
  O  O209  1  0.51683890  0.87996273  0.25344241  1
  O  O210  1  0.51038940  0.86342912  0.74707410  1
  O  O211  1  0.49910209  0.13383181  0.24564669  1
  O  O212  1  0.50497531  0.13379792  0.73990783  1
  O  O213  1  0.49397266  0.62386001  0.24429713  1
  O  O214  1  0.50257695  0.63605010  0.74978322  1
  O  O215  1  0.99261010  0.13386287  0.24121878  1
  O  O216  1  1.00025375  0.12893549  0.73814934  1
  O  O217  1  0.99558202  0.62061143  0.23583568  1
  O  O218  1  0.99142009  0.63266797  0.74604526  1
  O  O219  1  0.38049015  0.24547910  0.01642664  1
  O  O220  1  0.36933770  0.26026380  0.50657030  1
  O  O221  1  0.36257217  0.74045788  -0.00026456  1
  O  O222  1  0.36992764  0.74772854  0.50978394  1
  O  O223  1  0.87462310  0.25072505  0.00985190  1
  O  O224  1  0.86272275  0.25450171  0.50517630  1
  O  O225  1  0.87632455  0.76474463  -0.00370775  1
  O  O226  1  0.87425638  0.76388853  0.51185878  1
  O  O227  1  0.13021808  0.24871989  0.49406510  1
  O  O228  1  0.12261859  0.24884576  0.98276090  1
  O  O229  1  0.13343332  0.74347358  0.49615346  1
  O  O230  1  0.13070658  0.74002483  0.99081188  1
  O  O231  1  0.63800263  0.24023228  0.50668155  1
  O  O232  1  0.62469911  0.24079456  0.99181722  1
  O  O233  1  0.63131570  0.74428759  0.48841493  1
  O  O234  1  0.61858317  0.75154491  0.98810488  1
  O  O235  1  0.49145687  0.24584661  0.13281578  1
  O  O236  1  0.49560666  0.24276360  0.63273099  1
  O  O237  1  0.50307243  0.73872204  0.13034621  1
  O  O238  1  0.48915994  0.74935201  0.63060313  1
  O  O239  1  0.99666452  0.24652923  0.12748876  1
  O  O240  1  1.00134349  0.23400008  0.63073384  1
  O  O241  1  0.99836323  0.73468669  0.11705987  1
  O  O242  1  0.99304777  0.74607955  0.63140139  1
  O  O243  1  0.00195585  0.26157504  0.37339064  1
  O  O244  1  0.00321341  0.25115272  0.86649709  1
  O  O245  1  0.01295858  0.74512088  0.37845390  1
  O  O246  1  0.00714812  0.75566265  0.86810275  1
  O  O247  1  0.49475201  0.26301553  0.36819944  1
  O  O248  1  0.50125343  0.25547305  0.87044909  1
  O  O249  1  0.51652869  0.75611435  0.37367114  1
  O  O250  1  0.51487809  0.74496082  0.86687611  1
  O  O251  1  0.24784919  0.13136544  0.48933706  1
  O  O252  1  0.25325923  0.12933850  0.98161838  1
  O  O253  1  0.24588450  0.63189428  0.49266157  1
  O  O254  1  0.24246686  0.63247639  0.99225264  1
  O  O255  1  0.74507576  0.12887285  0.49153059  1
  O  O256  1  0.74402660  0.12716447  0.99264278  1
  O  O257  1  0.76315356  0.60648674  0.48555959  1
  O  O258  1  0.75022908  0.62782847  0.99099937  1
  O  O259  1  0.25175591  0.36312503  -0.00435468  1
  O  O260  1  0.25718743  0.37168316  0.50505099  1
  O  O261  1  0.24222644  0.85778723  0.00215599  1
  O  O262  1  0.25510602  0.86169247  0.50004208  1
  O  O263  1  0.74174818  0.37238124  0.01354867  1
  O  O264  1  0.74976476  0.36476029  0.49998272  1
  O  O265  1  0.75632566  0.88527985  0.00880310  1
  O  O266  1  0.76083592  0.88655125  0.51293892  1
  O  O267  1  0.13748320  0.50110458  0.24888129  1
  O  O268  1  0.12704853  0.49268291  0.74530360  1
  O  O269  1  0.13248891  1.00545574  0.23778169  1
  O  O270  1  0.13365803  0.99981168  0.73793146  1
  O  O271  1  0.61831723  0.49060736  0.23938264  1
  O  O272  1  0.61887425  0.48611398  0.75682857  1
  O  O273  1  0.63836573  0.99416408  0.25696463  1
  O  O274  1  0.62673848  0.99283501  0.74398830  1
  O  O275  1  0.36502287  0.00857932  0.26157608  1
  O  O276  1  0.36224256  -0.00323849  0.74869001  1
  O  O277  1  0.37023326  0.51240311  0.25348758  1
  O  O278  1  0.36971717  0.49788777  0.76122489  1
  O  O279  1  0.86958170  0.02241064  0.24364747  1
  O  O280  1  0.86335754  -0.00436463  0.76122652  1
  O  O281  1  0.88090793  0.50693427  0.26189692  1
  O  O282  1  0.88135283  0.51276767  0.76475053  1
  O  O283  1  0.11768585  0.36850688  0.37406879  1
  O  O284  1  0.11479226  0.36661312  0.86495189  1
  O  O285  1  0.12341661  0.86026794  0.38005291  1
  O  O286  1  0.11770764  0.86290960  0.87952287  1
  O  O287  1  0.61832419  0.37756786  0.36630854  1
  O  O288  1  0.61453549  0.37078695  0.86952719  1
  O  O289  1  0.63345523  0.86916310  0.36898301  1
  O  O290  1  0.62814569  0.86481715  0.86872103  1
  O  O291  1  0.38302993  0.13397716  0.13369288  1
  O  O292  1  0.38768413  0.13003437  0.61599840  1
  O  O293  1  0.38500609  0.62898406  0.13313213  1
  O  O294  1  0.36799239  0.63833689  0.62917707  1
  O  O295  1  0.88159392  0.13697627  0.12981839  1
  O  O296  1  0.88225634  0.13266509  0.61965536  1
  O  O297  1  0.88529171  0.62248007  0.13268317  1
  O  O298  1  0.87743875  0.63261429  0.63712779  1
  O  O299  1  0.26641079  0.24730554  0.12687613  1
  O  O300  1  0.25179101  0.25234213  0.62215899  1
  O  O301  1  0.24921978  0.74714911  0.10893122  1
  O  O302  1  0.25513407  0.74823581  0.61677264  1
  O  O303  1  0.76093144  0.25854341  0.12230767  1
  O  O304  1  0.75864867  0.25095212  0.61966194  1
  O  O305  1  0.75500264  0.76406921  0.12617688  1
  O  O306  1  0.76456204  0.75502620  0.64017394  1
  O  O307  1  0.24651250  0.24369676  0.37938533  1
  O  O308  1  0.24185066  0.23653967  0.86689446  1
  O  O309  1  0.25072046  0.74087403  0.38235459  1
  O  O310  1  0.24244059  0.74323122  0.88015609  1
  O  O311  1  0.75488441  0.23754405  0.38183130  1
  O  O312  1  0.74574668  0.24271045  0.87465233  1
  O  O313  1  0.74512165  0.75215564  0.37126171  1
  O  O314  1  0.73466529  0.74530874  0.87188533  1
  O  O315  1  -0.00583002  0.12194330  0.01134140  1
  O  O316  1  -0.00282673  0.11348378  0.51007694  1
  O  O317  1  0.00750857  0.62270373  0.00652093  1
  O  O318  1  0.00685000  0.61594976  0.50799354  1
  O  O319  1  0.50814864  0.12175228  0.00942383  1
  O  O320  1  0.51265902  0.13199287  0.50554088  1
  O  O321  1  0.50244127  0.61529843  0.00954487  1
  O  O322  1  0.49779934  0.61073560  0.49893501  1
  O  O323  1  0.49534138  0.37779813  0.49568310  1
  O  O324  1  0.50570610  0.38707025  0.99438171  1
  O  O325  1  0.49661949  0.88003122  0.50153284  1
  O  O326  1  0.50764356  0.89694983  1.00992289  1
  O  O327  1  0.99489011  0.38407321  0.49190330  1
  O  O328  1  1.00362392  0.37411243  0.98510676  1
  O  O329  1  0.98553620  0.88817770  0.50370055  1
  O  O330  1  0.99297027  0.87794550  0.98605031  1
  O  O331  1  0.49786431  0.48836219  0.38334838  1
  O  O332  1  0.49453822  0.49477829  0.88408919  1
  O  O333  1  0.48513240  1.00318183  0.37089525  1
  O  O334  1  0.49783340  1.00798975  0.88990821  1
  O  O335  1  1.00710905  0.49110464  0.37841940  1
  O  O336  1  0.99270993  0.48862997  0.87627011  1
  O  O337  1  0.98909238  1.00887093  0.38123538  1
  O  O338  1  0.99347113  0.99401425  0.87056916  1
  O  O339  1  0.01205614  0.00810995  0.12238684  1
  O  O340  1  0.00494306  0.00216301  0.62175455  1
  O  O341  1  0.00380126  0.51118261  0.11971924  1
  O  O342  1  0.00105590  0.50312078  0.61484892  1
  O  O343  1  0.49708780  0.01544459  0.12258098  1
  O  O344  1  0.50748110  0.00757804  0.63205584  1
  O  O345  1  0.50444208  0.50675351  0.12062643  1
  O  O346  1  0.49516582  0.49602001  0.61143791  1
  O  O347  1  0.25455693  0.39116697  0.25596746  1
  O  O348  1  0.24084886  0.37822314  0.74553147  1
  O  O349  1  0.24845691  0.88806111  0.25165633  1
  O  O350  1  0.24538035  0.89025805  0.74990511  1
  O  O351  1  0.73812798  0.36657147  0.24193066  1
  O  O352  1  0.73150947  0.37144918  0.74963467  1
  O  O353  1  0.74701674  0.88667859  0.23983613  1
  O  O354  1  0.73748143  0.88761917  0.75031093  1
  O  O355  1  0.25367720  0.12100167  0.26240675  1
  O  O356  1  0.24678143  0.11087089  0.75929800  1
  O  O357  1  0.25729655  0.61958386  0.25624564  1
  O  O358  1  0.24861728  0.61467883  0.75764140  1
  O  O359  1  0.75357787  0.12479020  0.25435674  1
  O  O360  1  0.73969341  0.11376056  0.75767282  1
  O  O361  1  0.76329346  0.61987540  0.23945652  1
  O  O362  1  0.76536811  0.63319874  0.76705364  1
  O  O363  1  0.36757975  0.11897231  0.37234995  1
  O  O364  1  0.36335546  0.12259154  0.87041241  1
  O  O365  1  0.36940956  0.62561885  0.36938074  1
  O  O366  1  0.36995113  0.61519842  0.87066615  1
  O  O367  1  0.86995084  0.12963658  0.36252089  1
  O  O368  1  0.86169018  0.11851853  0.87717426  1
  O  O369  1  0.87533552  0.61366941  0.35849213  1
  O  O370  1  0.87023536  0.62075218  0.87310366  1
  O  O371  1  0.13422225  0.37853714  0.12863032  1
  O  O372  1  0.12625517  0.37881265  0.63057939  1
  O  O373  1  0.12539559  0.88864328  0.12353291  1
  O  O374  1  0.12541978  0.88447273  0.61601010  1
  O  O375  1  0.63096754  0.38190481  0.13299584  1
  O  O376  1  0.62244088  0.37419121  0.64069230  1
  O  O377  1  0.63551571  0.87386297  0.13686657  1
  O  O378  1  0.62448333  0.88166477  0.63197504  1
  O  O379  1  0.11896978  0.25221903  0.25809812  1
  O  O380  1  0.11206271  0.25272927  0.75446215  1
  O  O381  1  0.12518646  0.74482798  0.26267267  1
  O  O382  1  0.11318519  0.74384130  0.75636918  1
  O  O383  1  0.61160501  0.25963022  0.24536746  1
  O  O384  1  0.61322510  0.25509671  0.75618487  1
  O  O385  1  0.62882241  0.76020438  0.26236167  1
  O  O386  1  0.61962857  0.75661579  0.75539553  1
  O  O387  1  0.38629721  0.24572974  0.24548002  1
  O  O388  1  0.38790897  0.25654800  0.74444428  1
  O  O389  1  0.37852649  0.73858732  0.25134370  1
  O  O390  1  0.38269992  0.74596180  0.74092156  1
  O  O391  1  0.88074776  0.24734480  0.24162953  1
  O  O392  1  0.88558303  0.24860698  0.74309460  1
  O  O393  1  0.87452646  0.73092381  0.24443985  1
  O  O394  1  0.88672003  0.74634470  0.74824780  1
  O  O395  1  0.38063387  0.48907931  0.50067921  1
  O  O396  1  0.38151128  0.50447316  0.98970725  1
  O  O397  1  0.36498393  1.00000560  0.48286452  1
  O  O398  1  0.39047314  1.01049344  1.00075249  1
  O  O399  1  0.89160135  0.50045446  0.47615918  1
  O  O400  1  0.87691630  0.50212998  0.98491008  1
  O  O401  1  0.88062960  0.98988698  0.49848738  1
  O  O402  1  0.87823327  0.99255684  0.98479839  1
  O  O403  1  0.12691403  -0.00103866  0.01317587  1
  O  O404  1  0.11486989  0.00069714  0.50540457  1
  O  O405  1  0.12492780  0.51376842  -0.00445506  1
  O  O406  1  0.11728463  0.50445903  0.50359850  1
  O  O407  1  0.61605314  0.01567250  -0.00342023  1
  O  O408  1  0.63327088  0.00847486  0.50912774  1
  O  O409  1  0.61665182  0.50388771  0.01331182  1
  O  O410  1  0.61117185  0.50327324  0.49771942  1
  O  O411  1  0.37570062  0.36112026  0.13246673  1
  O  O412  1  0.36896510  0.36794757  0.61958510  1
  O  O413  1  0.36785353  0.87078820  0.13300096  1
  O  O414  1  0.36746858  0.85844442  0.62603029  1
  O  O415  1  0.86642424  0.36936509  0.13139639  1
  O  O416  1  0.90479056  0.34392746  0.61759099  1
  O  O417  1  0.86887995  0.87497103  0.11122700  1
  O  O418  1  0.87356042  0.86882890  0.62047740  1
  O  O419  1  0.13115606  0.13208853  0.37711671  1
  O  O420  1  0.13328572  0.13190688  0.86895469  1
  O  O421  1  0.13432617  0.63252302  0.38179238  1
  O  O422  1  0.12723369  0.63396280  0.87943540  1
  O  O423  1  0.63775431  0.11709786  0.38461448  1
  O  O424  1  0.63479300  0.13072785  0.88085428  1
  O  O425  1  0.62784633  0.63863788  0.37361513  1
  O  O426  1  0.63347495  0.63511399  0.87942343  1
