# generated using pymatgen
data_V85Zn86O256
_symmetry_space_group_name_H-M   'P 1'
_cell_length_a   16.96821969
_cell_length_b   16.96794279
_cell_length_c   16.98191291
_cell_angle_alpha   89.96247568
_cell_angle_beta   89.99563638
_cell_angle_gamma   90.02088766
_symmetry_Int_Tables_number   1
_chemical_formula_structural   V85Zn86O256
_chemical_formula_sum   'V85 Zn86 O256'
_cell_volume   4889.35933176
_cell_formula_units_Z   1
loop_
 _symmetry_equiv_pos_site_id
 _symmetry_equiv_pos_as_xyz
  1  'x, y, z'
loop_
 _atom_site_type_symbol
 _atom_site_label
 _atom_site_symmetry_multiplicity
 _atom_site_fract_x
 _atom_site_fract_y
 _atom_site_fract_z
 _atom_site_occupancy
  V  V0  1  0.12038832  0.37881371  0.25279104  1
  V  V1  1  0.00858040  0.75403368  0.74380215  1
  V  V2  1  -0.00218040  0.86888355  0.87731035  1
  V  V3  1  0.87845733  0.25174253  0.62755799  1
  V  V4  1  0.24813387  0.87450316  0.13141479  1
  V  V5  1  0.31489242  0.31682794  0.55812862  1
  V  V6  1  0.37227381  0.51816631  0.87390751  1
  V  V7  1  0.00095355  0.00293539  0.49835478  1
  V  V8  1  0.00058054  0.62563649  0.12318579  1
  V  V9  1  0.12334032  0.87547717  0.25340082  1
  V  V10  1  0.25275300  0.00088007  0.25841995  1
  V  V11  1  0.12733414  0.49591477  0.62239281  1
  V  V12  1  0.24856005  0.37458711  0.12798171  1
  V  V13  1  0.12808672  0.62887173  -0.00656342  1
  V  V14  1  0.50051409  0.37328314  0.87609659  1
  V  V15  1  0.12501316  0.25206015  0.87559355  1
  V  V16  1  0.37444019  0.37435802  0.00093794  1
  V  V17  1  -0.00294307  0.25601585  0.25640879  1
  V  V18  1  0.37918223  0.48720502  0.37548035  1
  V  V19  1  0.50070708  0.74874125  0.24988494  1
  V  V20  1  0.50053475  0.25715010  0.25489183  1
  V  V21  1  0.62218569  0.49477556  0.61882480  1
  V  V22  1  0.25405378  0.11566112  0.86039556  1
  V  V23  1  0.12816040  0.74909057  0.37416065  1
  V  V24  1  0.88045050  0.37796521  0.48581798  1
  V  V25  1  0.37706326  0.90273187  0.00674385  1
  V  V26  1  0.74938927  0.61690982  0.37428636  1
  V  V27  1  0.61823801  0.11722482  -0.00171693  1
  V  V28  1  0.75239209  0.37553241  0.62667100  1
  V  V29  1  0.37673249  0.62496063  0.24888469  1
  V  V30  1  -0.00758358  -0.00574462  -0.00005861  1
  V  V31  1  0.12425459  0.26003980  0.38054277  1
  V  V32  1  0.12643435  0.50317889  0.12508880  1
  V  V33  1  0.75731223  0.87445386  0.61845271  1
  V  V34  1  0.38149748  0.74451249  0.62907978  1
  V  V35  1  0.87556440  0.37181412  0.00205497  1
  V  V36  1  -0.00071788  0.38225727  0.87413513  1
  V  V37  1  0.37267624  0.88095275  0.49568636  1
  V  V38  1  0.87250425  0.00087203  0.37305951  1
  V  V39  1  0.00728999  0.11599635  0.63693486  1
  V  V40  1  0.74557111  -0.00043357  0.24634591  1
  V  V41  1  0.87228585  0.75334038  0.11882609  1
  V  V42  1  0.12030127  0.00035662  0.12893730  1
  V  V43  1  0.49848313  0.12029800  0.12640900  1
  V  V44  1  0.50091784  0.87895322  0.37574986  1
  V  V45  1  0.13322095  0.76213124  0.86888484  1
  V  V46  1  0.11999039  0.62807564  0.50911942  1
  V  V47  1  0.62893122  0.85333093  0.74712545  1
  V  V48  1  0.37899692  0.12433385  0.26566663  1
  V  V49  1  0.25543171  0.87627889  0.65072458  1
  V  V50  1  0.37645117  0.74875952  0.12105682  1
  V  V51  1  0.62106958  0.62346426  0.49993776  1
  V  V52  1  0.50817900  0.00530458  0.49956595  1
  V  V53  1  0.74388563  0.12646289  0.37603852  1
  V  V54  1  -0.00324772  0.75024772  0.25093894  1
  V  V55  1  -0.00254475  0.12799705  0.12737501  1
  V  V56  1  0.87974215  0.86927922  0.49607217  1
  V  V57  1  0.49712230  0.48377151  0.49547656  1
  V  V58  1  0.73753006  0.37989921  0.12011359  1
  V  V59  1  0.13120069  0.13084672  0.50494357  1
  V  V60  1  0.61735665  0.25691386  0.38101134  1
  V  V61  1  0.74933334  0.24421713  0.50197961  1
  V  V62  1  0.62164259  0.36582689  0.74726866  1
  V  V63  1  0.25540220  0.62589503  0.37966737  1
  V  V64  1  0.12526360  0.12497333  -0.00074620  1
  V  V65  1  0.49861648  0.62493055  0.63630191  1
  V  V66  1  0.25026251  0.50223277  0.24958263  1
  V  V67  1  0.89422710  0.61483550  0.74018422  1
  V  V68  1  0.50960741  0.50294539  0.00519672  1
  V  V69  1  0.74996331  -0.00059874  0.74847479  1
  V  V70  1  0.75002094  0.87438282  0.11456733  1
  V  V71  1  0.88744415  0.74186714  0.61551765  1
  V  V72  1  0.25371203  0.74937331  -0.00324875  1
  V  V73  1  0.47893206  0.24039368  0.74969569  1
  V  V74  1  0.74568905  0.24967657  -0.00146218  1
  V  V75  1  0.73932117  0.49872948  0.24659201  1
  V  V76  1  0.86208513  0.53352333  0.90186626  1
  V  V77  1  0.24271602  0.12815047  0.37543366  1
  V  V78  1  0.51521071  0.62324501  0.12148607  1
  V  V79  1  0.13654844  0.37872695  0.74641192  1
  V  V80  1  0.73185307  0.51347561  0.76293002  1
  V  V81  1  0.00613246  0.49999696  0.00098486  1
  V  V82  1  0.87559948  0.61453054  0.25205285  1
  V  V83  1  0.62609565  0.75000071  0.37481812  1
  V  V84  1  0.87188105  0.12983814  0.75642935  1
  Zn  Zn85  1  0.75696915  0.74469105  0.49585565  1
  Zn  Zn86  1  0.82327752  0.81003939  -0.04452239  1
  Zn  Zn87  1  -0.00064914  0.87288738  0.37549678  1
  Zn  Zn88  1  0.87291559  -0.00654839  0.87618470  1
  Zn  Zn89  1  0.87137475  0.25104499  0.12879610  1
  Zn  Zn90  1  0.62482369  0.87329916  0.24554617  1
  Zn  Zn91  1  0.50036739  0.12651908  0.63093830  1
  Zn  Zn92  1  0.37315440  0.25240629  0.13432396  1
  Zn  Zn93  1  -0.00031225  0.25581723  0.75062425  1
  Zn  Zn94  1  0.25144961  0.24823204  0.00208208  1
  Zn  Zn95  1  0.63430688  0.01371557  0.61418130  1
  Zn  Zn96  1  0.61942677  0.37856285  0.25001745  1
  Zn  Zn97  1  0.25486933  0.75445941  0.49946065  1
  Zn  Zn98  1  0.62072714  0.24594441  0.87618312  1
  Zn  Zn99  1  0.52330170  0.85912541  0.89264876  1
  Zn  Zn100  1  0.74872271  0.12402992  0.87738025  1
  Zn  Zn101  1  0.61752011  -0.00614592  0.12063485  1
  Zn  Zn102  1  0.87285696  0.12881448  0.25118205  1
  Zn  Zn103  1  0.40205515  0.00233580  0.85715516  1
  Zn  Zn104  1  0.26650910  0.51234454  0.73909815  1
  Zn  Zn105  1  -0.00213451  0.49583436  0.49088074  1
  Zn  Zn106  1  0.14050211  -0.00349361  0.63253552  1
  Zn  Zn107  1  0.18521133  0.19138617  0.19192700  1
  Zn  Zn108  1  0.19266273  0.19834098  0.68557058  1
  Zn  Zn109  1  0.18848586  0.68730455  0.18755390  1
  Zn  Zn110  1  0.20421239  0.69255846  0.68849217  1
  Zn  Zn111  1  0.68389849  0.18864090  0.18649911  1
  Zn  Zn112  1  0.68316904  0.18353055  0.68417207  1
  Zn  Zn113  1  0.69019326  0.69098648  0.18687875  1
  Zn  Zn114  1  0.69902517  0.68294166  0.67783689  1
  Zn  Zn115  1  0.34781349  0.27884787  0.37589150  1
  Zn  Zn116  1  0.30963166  0.31526430  0.81830376  1
  Zn  Zn117  1  0.31639544  0.81281732  0.31423498  1
  Zn  Zn118  1  0.34092204  0.81249326  0.82655599  1
  Zn  Zn119  1  0.80752904  0.31343564  0.31037288  1
  Zn  Zn120  1  0.80871591  0.32216987  0.81534233  1
  Zn  Zn121  1  0.81109717  0.81178787  0.30824455  1
  Zn  Zn122  1  0.81688140  0.80416896  0.79596243  1
  Zn  Zn123  1  0.19089826  0.44067760  0.43811575  1
  Zn  Zn124  1  0.19262229  0.44014499  0.93543155  1
  Zn  Zn125  1  0.18456680  0.94053397  0.44194311  1
  Zn  Zn126  1  0.19144062  0.93704097  0.94274687  1
  Zn  Zn127  1  0.69233392  0.43388269  0.43731481  1
  Zn  Zn128  1  0.69739686  0.47049441  0.93403471  1
  Zn  Zn129  1  0.68945261  0.93365470  0.43601897  1
  Zn  Zn130  1  0.68373699  0.93982106  0.92989781  1
  Zn  Zn131  1  0.30340870  0.07489023  0.08099097  1
  Zn  Zn132  1  0.32707946  0.06310780  0.68321260  1
  Zn  Zn133  1  0.31676604  0.56396375  0.05803037  1
  Zn  Zn134  1  0.31386309  0.55627097  0.56044871  1
  Zn  Zn135  1  0.81089472  0.06454279  0.06267130  1
  Zn  Zn136  1  0.82067664  0.06339447  0.56346728  1
  Zn  Zn137  1  0.81228219  0.56368938  0.06945584  1
  Zn  Zn138  1  0.81140573  0.55941015  0.56575708  1
  Zn  Zn139  1  0.43658035  0.43862203  0.18723262  1
  Zn  Zn140  1  0.43632704  0.43523804  0.68803514  1
  Zn  Zn141  1  0.43451519  0.93818450  0.19259610  1
  Zn  Zn142  1  0.44823898  0.93093713  0.68292247  1
  Zn  Zn143  1  0.93461704  0.43623420  0.18641142  1
  Zn  Zn144  1  0.95202355  0.43695495  0.67778959  1
  Zn  Zn145  1  0.93319984  0.93646959  0.18790749  1
  Zn  Zn146  1  0.95623122  0.94868356  0.69661125  1
  Zn  Zn147  1  0.06088916  0.06649770  0.31381667  1
  Zn  Zn148  1  0.05967543  0.06299063  0.81320523  1
  Zn  Zn149  1  0.06202254  0.56123005  0.31875501  1
  Zn  Zn150  1  0.10721031  0.59206006  0.78712077  1
  Zn  Zn151  1  0.56513130  0.06486765  0.31604859  1
  Zn  Zn152  1  0.56560149  0.05315623  0.81366688  1
  Zn  Zn153  1  0.56051998  0.56112041  0.31327423  1
  Zn  Zn154  1  0.55821575  0.55459137  0.81257106  1
  Zn  Zn155  1  0.37199002  0.13826341  0.50304446  1
  Zn  Zn156  1  0.43366208  0.18593137  0.93834327  1
  Zn  Zn157  1  0.43866835  0.68733561  0.44211476  1
  Zn  Zn158  1  0.46761445  0.70121562  0.93386280  1
  Zn  Zn159  1  0.93883364  0.18762374  0.43914206  1
  Zn  Zn160  1  0.93755748  0.19021315  0.93779513  1
  Zn  Zn161  1  0.94640105  0.66102921  0.42690650  1
  Zn  Zn162  1  0.71896611  0.65534003  0.89443925  1
  Zn  Zn163  1  0.06327656  0.31091418  0.06471200  1
  Zn  Zn164  1  0.06116706  0.31324154  0.56398926  1
  Zn  Zn165  1  0.06146752  0.81228973  0.06215387  1
  Zn  Zn166  1  0.07240306  0.81651931  0.56235073  1
  Zn  Zn167  1  0.55897059  0.30589962  0.06410772  1
  Zn  Zn168  1  0.55951158  0.30200450  0.56521836  1
  Zn  Zn169  1  0.56378285  0.80977640  0.05794852  1
  Zn  Zn170  1  0.56530590  0.81247959  0.56348598  1
  O  O171  1  0.11412100  0.12301208  0.12093594  1
  O  O172  1  0.12546280  0.13021993  0.61727477  1
  O  O173  1  0.12080111  0.62121889  0.11930626  1
  O  O174  1  0.13797358  0.62213038  0.61024970  1
  O  O175  1  0.61468568  0.12394016  0.11912577  1
  O  O176  1  0.61429943  0.12667843  0.62023027  1
  O  O177  1  0.61448065  0.63316112  0.12278670  1
  O  O178  1  0.62157833  0.61804153  0.61531792  1
  O  O179  1  0.37046598  0.38956417  0.36408052  1
  O  O180  1  0.38454769  0.37829627  0.88461421  1
  O  O181  1  0.38742453  0.86763639  0.38572378  1
  O  O182  1  0.34987682  0.90579105  0.90533639  1
  O  O183  1  0.86929156  0.37256875  0.38778044  1
  O  O184  1  0.88911777  0.36260226  0.89123491  1
  O  O185  1  0.87667516  0.88119937  0.37775361  1
  O  O186  1  0.88458992  0.87262067  0.87610140  1
  O  O187  1  0.23443586  0.01141604  0.36392447  1
  O  O188  1  0.22975602  0.02003643  0.87369778  1
  O  O189  1  0.25752169  0.50950332  0.36836599  1
  O  O190  1  0.27068767  0.50333624  0.88204288  1
  O  O191  1  0.75399557  0.00661280  0.36840882  1
  O  O192  1  0.75547220  0.00255132  0.86320808  1
  O  O193  1  0.74664318  0.50787695  0.36487157  1
  O  O194  1  0.78568191  0.46926151  0.85250765  1
  O  O195  1  0.24548310  0.49673318  0.12849690  1
  O  O196  1  0.23735131  0.50114441  0.62408946  1
  O  O197  1  0.23838198  0.99745710  0.14201509  1
  O  O198  1  0.25474119  0.98125212  0.63553821  1
  O  O199  1  0.75101692  0.49196214  0.13382541  1
  O  O200  1  0.73977339  0.49432801  0.63410672  1
  O  O201  1  0.75064000  0.99341242  0.13236754  1
  O  O202  1  0.75557757  0.99109669  0.62566811  1
  O  O203  1  0.00634395  0.36796391  0.24536406  1
  O  O204  1  0.00565226  0.37390804  0.76288189  1
  O  O205  1  0.00332532  0.86655366  0.25239130  1
  O  O206  1  -0.00415763  0.86288407  0.76041396  1
  O  O207  1  0.50079667  0.36164810  0.24328161  1
  O  O208  1  0.50245698  0.36507197  0.75831401  1
  O  O209  1  0.50052145  0.86707389  0.25803192  1
  O  O210  1  0.53188481  0.86626801  0.72643261  1
  O  O211  1  0.49330972  0.13218283  0.25272360  1
  O  O212  1  0.50225321  0.13932419  0.75791722  1
  O  O213  1  0.49619195  0.62878971  0.24154393  1
  O  O214  1  0.50827370  0.62024885  0.73538978  1
  O  O215  1  0.99781308  0.13313094  0.24220641  1
  O  O216  1  0.98355334  0.13879161  0.75555624  1
  O  O217  1  0.99194856  0.63097170  0.24318559  1
  O  O218  1  1.00462223  0.64191711  0.74871900  1
  O  O219  1  0.37255297  0.26282237  0.00376935  1
  O  O220  1  0.36770927  0.25493816  0.48758311  1
  O  O221  1  0.36874271  0.75618450  0.01450916  1
  O  O222  1  0.37553214  0.76083821  0.50414789  1
  O  O223  1  0.86723117  0.25579561  0.00567021  1
  O  O224  1  0.87020151  0.25728986  0.50693002  1
  O  O225  1  0.88742357  0.74242001  0.02072238  1
  O  O226  1  0.88219824  0.74985293  0.50054518  1
  O  O227  1  0.11741600  0.24434406  0.48920265  1
  O  O228  1  0.12610461  0.24298453  0.99349891  1
  O  O229  1  0.13449812  0.74398360  0.49276038  1
  O  O230  1  0.13479846  0.74671963  0.99876031  1
  O  O231  1  0.63387777  0.25356013  0.48891367  1
  O  O232  1  0.63002529  0.24159299  0.99874177  1
  O  O233  1  0.62873891  0.73948558  0.49211848  1
  O  O234  1  0.56492478  0.76085867  0.95984580  1
  O  O235  1  0.49634622  0.23952072  0.13865487  1
  O  O236  1  0.49911447  0.25227540  0.64737070  1
  O  O237  1  0.49238918  0.74279862  0.13064605  1
  O  O238  1  0.49089806  0.73899623  0.61505694  1
  O  O239  1  1.00029247  0.24310733  0.13619448  1
  O  O240  1  0.99286064  0.24129234  0.62894123  1
  O  O241  1  0.99702715  0.74633748  0.13673791  1
  O  O242  1  0.99729225  0.76247534  0.63161077  1
  O  O243  1  0.00741587  0.24487148  0.36309082  1
  O  O244  1  0.01315861  0.25976201  0.87851788  1
  O  O245  1  0.00709780  0.74580005  0.36201398  1
  O  O246  1  0.01460479  0.76333209  0.86835837  1
  O  O247  1  0.51697649  0.24859783  0.37191636  1
  O  O248  1  0.49864985  0.25686174  0.86753648  1
  O  O249  1  0.51051703  0.75344024  0.37142233  1
  O  O250  1  0.44432019  0.78296370  0.85974599  1
  O  O251  1  0.23703832  0.12002519  0.48851816  1
  O  O252  1  0.23409609  0.12672252  1.00324638  1
  O  O253  1  0.24856690  0.62661462  0.48746814  1
  O  O254  1  0.24161117  0.63809101  1.00970226  1
  O  O255  1  0.75914207  0.13743622  0.49319318  1
  O  O256  1  0.74146659  0.13515000  1.00209699  1
  O  O257  1  0.74032671  0.62094394  0.49128824  1
  O  O258  1  0.77339115  0.57493923  0.96411047  1
  O  O259  1  0.25630523  0.37550582  0.01059979  1
  O  O260  1  0.25541964  0.37180195  0.49743333  1
  O  O261  1  0.25330102  0.86977194  0.01653260  1
  O  O262  1  0.26634472  0.87793177  0.49248044  1
  O  O263  1  0.75766460  0.37612009  0.00394864  1
  O  O264  1  0.75861627  0.36355850  0.50669591  1
  O  O265  1  0.74996774  0.88292411  0.01009879  1
  O  O266  1  0.76143966  0.86914542  0.50083557  1
  O  O267  1  0.12803550  0.49888741  0.24804135  1
  O  O268  1  0.11359843  0.48908300  0.73600109  1
  O  O269  1  0.12557478  0.99426263  0.24713476  1
  O  O270  1  0.05981879  1.01899219  0.70882106  1
  O  O271  1  0.63449268  0.49806464  0.25133769  1
  O  O272  1  0.62104534  0.48341568  0.73607627  1
  O  O273  1  0.63713479  0.99915075  0.24870170  1
  O  O274  1  0.64390132  0.99931080  0.73882941  1
  O  O275  1  0.36268311  0.00825041  0.25268823  1
  O  O276  1  0.38158136  -0.01055848  0.74754758  1
  O  O277  1  0.37048281  0.50816426  0.25394633  1
  O  O278  1  0.38019488  0.49962422  0.76764995  1
  O  O279  1  0.86600123  0.00151636  0.25958973  1
  O  O280  1  0.86877782  0.01169715  0.75054789  1
  O  O281  1  0.86688684  0.51102013  0.24551508  1
  O  O282  1  0.88802542  0.51262600  0.73586869  1
  O  O283  1  0.12896651  0.36772440  0.36955626  1
  O  O284  1  0.11876378  0.37212627  0.87297447  1
  O  O285  1  0.12308003  0.86646716  0.37141869  1
  O  O286  1  0.12171548  0.86639895  0.88331144  1
  O  O287  1  0.63419873  0.35987456  0.36959338  1
  O  O288  1  0.61000198  0.37790192  0.86689704  1
  O  O289  1  0.62046790  0.86370369  0.37180032  1
  O  O290  1  0.63491284  0.87529676  0.84945002  1
  O  O291  1  0.37844415  0.13301915  0.14688852  1
  O  O292  1  0.38801417  0.12164747  0.61227705  1
  O  O293  1  0.38071130  0.63322539  0.12981326  1
  O  O294  1  0.38447816  0.63487943  0.61392171  1
  O  O295  1  0.88725561  0.12753411  0.12664279  1
  O  O296  1  0.88032605  0.13725509  0.63384656  1
  O  O297  1  0.87906731  0.63132160  0.13503253  1
  O  O298  1  0.87977268  0.63362990  0.62383849  1
  O  O299  1  0.25015572  0.26085750  0.12586752  1
  O  O300  1  0.25771691  0.25896065  0.61823276  1
  O  O301  1  0.25767299  0.75539304  0.12288195  1
  O  O302  1  0.26306108  0.75949118  0.61857076  1
  O  O303  1  0.74986162  0.25828761  0.11475119  1
  O  O304  1  0.75765609  0.25363145  0.61744888  1
  O  O305  1  0.75908436  0.75963200  0.12683157  1
  O  O306  1  0.76900885  0.75357411  0.61709414  1
  O  O307  1  0.23614348  0.23645603  0.36716219  1
  O  O308  1  0.23992161  0.23854685  0.87835316  1
  O  O309  1  0.24586586  0.74186008  0.37262757  1
  O  O310  1  0.24864262  0.75983183  0.89133882  1
  O  O311  1  0.74473275  0.24336005  0.38145091  1
  O  O312  1  0.74696582  0.25456420  0.89001922  1
  O  O313  1  0.73758621  0.74313598  0.37236030  1
  O  O314  1  0.76187509  0.75295917  0.88009967  1
  O  O315  1  0.00919537  0.12170378  0.00628698  1
  O  O316  1  0.01237352  0.12052722  0.50455050  1
  O  O317  1  0.01265645  0.61539952  0.01078214  1
  O  O318  1  0.02127491  0.64212881  0.51271858  1
  O  O319  1  0.50575518  0.13270661  0.01293055  1
  O  O320  1  0.49146338  0.10182348  0.48326763  1
  O  O321  1  0.49505643  0.60988685  0.00772325  1
  O  O322  1  0.51315630  0.61694057  0.50139435  1
  O  O323  1  0.50889253  0.38538357  0.50254103  1
  O  O324  1  0.49349009  0.37993523  0.99725257  1
  O  O325  1  0.49625845  0.87596759  0.49186606  1
  O  O326  1  0.47667591  0.88677368  1.01450724  1
  O  O327  1  0.98493666  0.37284047  0.49696628  1
  O  O328  1  0.99657506  0.37935136  0.99729866  1
  O  O329  1  0.99799559  0.88390628  0.49605058  1
  O  O330  1  1.00316515  0.88386336  0.99450813  1
  O  O331  1  0.49127122  0.50183880  0.38177184  1
  O  O332  1  0.49251544  0.49287113  0.88718384  1
  O  O333  1  0.50882382  0.98347474  0.37721856  1
  O  O334  1  0.51061899  0.97766819  0.87444705  1
  O  O335  1  0.98196168  0.54933163  0.39276839  1
  O  O336  1  0.98374542  0.49049314  0.88800368  1
  O  O337  1  0.99102252  1.00203961  0.38219871  1
  O  O338  1  1.00160755  0.98784765  0.88336304  1
  O  O339  1  0.00183225  0.00647402  0.12104439  1
  O  O340  1  -0.03421912  0.00970991  0.59757225  1
  O  O341  1  0.00781538  0.50403732  0.12082559  1
  O  O342  1  0.01934379  0.49767339  0.60761219  1
  O  O343  1  0.50080975  0.01624032  0.13994794  1
  O  O344  1  0.51033342  -0.00533798  0.60627929  1
  O  O345  1  0.49510079  0.50773095  0.11387265  1
  O  O346  1  0.50370082  0.50592787  0.61547585  1
  O  O347  1  0.23920819  0.38598613  0.23616258  1
  O  O348  1  0.23798144  0.38673837  0.76230522  1
  O  O349  1  0.24583696  0.88273864  0.25079922  1
  O  O350  1  0.26151686  0.86244016  0.74775730  1
  O  O351  1  0.74994227  0.38337324  0.23870175  1
  O  O352  1  0.73876083  0.38236612  0.74278301  1
  O  O353  1  0.74755835  0.88384395  0.24083386  1
  O  O354  1  0.75255360  0.88178582  0.73579510  1
  O  O355  1  0.25367878  0.11923672  0.25534947  1
  O  O356  1  0.24916383  0.12444653  0.75672236  1
  O  O357  1  0.25492841  0.62123093  0.25879467  1
  O  O358  1  0.21853782  0.61229492  0.76147389  1
  O  O359  1  0.75206036  0.11874761  0.25591526  1
  O  O360  1  0.75899528  0.12020250  0.74948867  1
  O  O361  1  0.75388658  0.61673872  0.25278600  1
  O  O362  1  0.76711771  0.61019179  0.74034196  1
  O  O363  1  0.35813866  0.12553973  0.37222369  1
  O  O364  1  0.35675186  0.11451009  0.88511338  1
  O  O365  1  0.37023087  0.62272665  0.36812639  1
  O  O366  1  0.38716110  0.61438658  0.88650131  1
  O  O367  1  0.86483963  0.11816158  0.37427873  1
  O  O368  1  0.87049651  0.12686597  0.86852500  1
  O  O369  1  0.85403691  0.63902276  0.36211207  1
  O  O370  1  0.88507945  0.62079247  0.85610612  1
  O  O371  1  0.13045986  0.38345665  0.12843278  1
  O  O372  1  0.12281885  0.37946332  0.63552189  1
  O  O373  1  0.12892826  0.87915039  0.13449922  1
  O  O374  1  0.15136445  0.87398003  0.62411136  1
  O  O375  1  0.63531765  0.36968991  0.12611339  1
  O  O376  1  0.63017117  0.37362414  0.63012953  1
  O  O377  1  0.63170063  0.87426435  0.12482712  1
  O  O378  1  0.64823297  0.86834957  0.62415376  1
  O  O379  1  0.11680570  0.25869669  0.25833549  1
  O  O380  1  0.12522235  0.26079950  0.75906879  1
  O  O381  1  0.11800696  0.75461098  0.25438684  1
  O  O382  1  0.12282451  0.75087223  0.75948231  1
  O  O383  1  0.61859547  0.25088939  0.26112334  1
  O  O384  1  0.62824475  0.26042201  0.75545119  1
  O  O385  1  0.61836278  0.74936376  0.25819969  1
  O  O386  1  0.64196259  0.75368795  0.74579661  1
  O  O387  1  0.38656650  0.24218300  0.26606033  1
  O  O388  1  0.38045097  0.24858118  0.75769975  1
  O  O389  1  0.38018694  0.74536818  0.24111749  1
  O  O390  1  0.37274636  0.74668000  0.72644874  1
  O  O391  1  0.88244184  0.25032101  0.24875626  1
  O  O392  1  0.86969962  0.24817159  0.74363965  1
  O  O393  1  0.88224300  0.74171180  0.24409648  1
  O  O394  1  0.88868540  0.73807406  0.73443638  1
  O  O395  1  0.38575401  0.50476371  0.48677490  1
  O  O396  1  0.38308673  0.48949738  0.99524014  1
  O  O397  1  0.39143948  0.98132731  0.49714212  1
  O  O398  1  0.36833110  1.00006697  1.02620676  1
  O  O399  1  0.87054695  0.47950457  0.50800040  1
  O  O400  1  0.88900477  0.49144904  1.00536930  1
  O  O401  1  0.87472449  0.99351656  0.48289140  1
  O  O402  1  0.88961534  1.00877892  0.99773566  1
  O  O403  1  0.11577296  0.00735417  0.00934656  1
  O  O404  1  0.11498374  0.00757934  0.50842946  1
  O  O405  1  0.12473046  0.50926780  0.00232701  1
  O  O406  1  0.12563272  0.51491188  0.49865978  1
  O  O407  1  0.63124885  0.01381321  0.00346732  1
  O  O408  1  0.61426456  -0.00590114  0.49586448  1
  O  O409  1  0.60791061  0.49270021  0.00136065  1
  O  O410  1  0.62105280  0.50398167  0.50085943  1
  O  O411  1  0.36562875  0.37416453  0.12033379  1
  O  O412  1  0.37405714  0.37783454  0.61423840  1
  O  O413  1  0.36612895  0.86884266  0.12610911  1
  O  O414  1  0.37088983  0.86506970  0.61343765  1
  O  O415  1  0.86819774  0.37301243  0.11387914  1
  O  O416  1  0.87323466  0.36340983  0.62486799  1
  O  O417  1  0.86521617  0.86564624  0.12934845  1
  O  O418  1  0.87124023  0.86573497  0.61400335  1
  O  O419  1  0.12610176  0.13501971  0.38097196  1
  O  O420  1  0.12627489  0.13382731  0.88072058  1
  O  O421  1  0.13688556  0.63295481  0.38269303  1
  O  O422  1  0.11886141  0.64377347  0.89132787  1
  O  O423  1  0.63834032  0.13624218  0.37334740  1
  O  O424  1  0.62795060  0.12696503  0.88429555  1
  O  O425  1  0.63130531  0.62973875  0.37952442  1
  O  O426  1  0.66532622  0.56490463  0.84997068  1
