# generated using pymatgen
data_V85Zn86O256
_symmetry_space_group_name_H-M   'P 1'
_cell_length_a   16.93144788
_cell_length_b   16.93300779
_cell_length_c   16.92168059
_cell_angle_alpha   90.03174653
_cell_angle_beta   89.98639278
_cell_angle_gamma   90.04477205
_symmetry_Int_Tables_number   1
_chemical_formula_structural   V85Zn86O256
_chemical_formula_sum   'V85 Zn86 O256'
_cell_volume   4851.44919839
_cell_formula_units_Z   1
loop_
 _symmetry_equiv_pos_site_id
 _symmetry_equiv_pos_as_xyz
  1  'x, y, z'
loop_
 _atom_site_type_symbol
 _atom_site_label
 _atom_site_symmetry_multiplicity
 _atom_site_fract_x
 _atom_site_fract_y
 _atom_site_fract_z
 _atom_site_occupancy
  V  V0  1  0.87924059  0.87274385  -0.00711208  1
  V  V1  1  0.24637069  0.63532837  0.37799889  1
  V  V2  1  0.63264625  0.87410889  0.24593280  1
  V  V3  1  0.12462138  0.36998721  0.75512237  1
  V  V4  1  0.50091883  0.87482446  0.37421420  1
  V  V5  1  0.50049485  0.75076378  0.75141899  1
  V  V6  1  0.87065508  0.74928352  0.62103030  1
  V  V7  1  0.24962609  0.49801475  0.75044526  1
  V  V8  1  0.18426012  0.44201126  0.18436271  1
  V  V9  1  0.62879061  0.88092508  0.75354271  1
  V  V10  1  0.37278210  0.74970296  0.62446207  1
  V  V11  1  0.86626508  0.12326800  0.74654236  1
  V  V12  1  -0.00119905  0.62431353  0.62700516  1
  V  V13  1  0.75108532  0.63061861  0.37827758  1
  V  V14  1  0.62716069  0.75051523  0.37883525  1
  V  V15  1  0.87510830  0.75604040  0.12854006  1
  V  V16  1  0.24865570  0.62516812  0.87818799  1
  V  V17  1  0.87713436  0.62783645  0.25097007  1
  V  V18  1  0.36854538  0.26068270  0.11949531  1
  V  V19  1  0.12381645  0.13047887  -0.00188616  1
  V  V20  1  0.12277399  -0.00574449  0.12824496  1
  V  V21  1  0.00748799  0.62289704  0.12848240  1
  V  V22  1  0.62534352  0.25210795  0.88461982  1
  V  V23  1  0.24724327  -0.00791971  0.25048108  1
  V  V24  1  0.62399266  0.25236672  0.37462351  1
  V  V25  1  -0.01389239  0.25430899  0.24466583  1
  V  V26  1  0.37757246  0.25195085  0.61880077  1
  V  V27  1  0.86797489  0.87724931  0.49602450  1
  V  V28  1  -0.00070116  0.37417752  0.37993317  1
  V  V29  1  0.12414810  0.49769754  0.62051874  1
  V  V30  1  0.37258670  0.88365112  -0.00306204  1
  V  V31  1  0.87325450  0.36140355  0.00074662  1
  V  V32  1  0.75025058  0.50049541  0.75092399  1
  V  V33  1  0.00179896  -0.00346886  -0.00977318  1
  V  V34  1  0.62416497  0.37603733  0.24936165  1
  V  V35  1  0.37570264  0.62485985  0.75253412  1
  V  V36  1  0.25505621  0.00153946  0.75543527  1
  V  V37  1  0.37811609  0.48505549  0.87662400  1
  V  V38  1  0.37080357  0.12438331  0.24913499  1
  V  V39  1  0.24928676  0.12765032  0.87768709  1
  V  V40  1  0.75615294  0.00449001  0.24456305  1
  V  V41  1  0.37944105  0.12588065  0.75575811  1
  V  V42  1  0.75527401  0.36059074  0.12293365  1
  V  V43  1  0.25338660  0.37456781  0.61411478  1
  V  V44  1  0.04661127  -0.05838742  0.44434443  1
  V  V45  1  0.62187629  0.62766699  0.49944452  1
  V  V46  1  0.37002585  0.61225010  0.24973493  1
  V  V47  1  0.50031465  0.74924209  0.24897255  1
  V  V48  1  0.49961749  0.12285323  0.12207824  1
  V  V49  1  -0.01243397  0.12449601  0.12986592  1
  V  V50  1  0.49929452  0.62233558  0.12144477  1
  V  V51  1  0.74895634  0.75549532  0.00585954  1
  V  V52  1  0.62845473  0.12638472  0.49784090  1
  V  V53  1  0.49744793  0.48564709  -0.00412757  1
  V  V54  1  0.37103392  0.49581984  0.39227803  1
  V  V55  1  0.87420355  0.49583762  0.38189996  1
  V  V56  1  0.74657450  0.87063476  0.62141784  1
  V  V57  1  0.24988363  0.87134059  0.62756174  1
  V  V58  1  0.62744875  -0.00489474  0.12118675  1
  V  V59  1  0.49903612  0.62213733  0.62199499  1
  V  V60  1  0.62755050  0.49958568  0.12268659  1
  V  V61  1  0.01440752  0.76195265  0.26178232  1
  V  V62  1  0.12110726  0.00148679  0.62928346  1
  V  V63  1  0.75194636  0.50091456  0.24724810  1
  V  V64  1  0.13078282  0.25525481  0.36481571  1
  V  V65  1  0.00133727  0.24777676  0.75733339  1
  V  V66  1  0.87364503  0.00456302  0.37528544  1
  V  V67  1  0.49731594  0.38117814  0.38850262  1
  V  V68  1  0.11671891  0.75507620  0.87700776  1
  V  V69  1  0.61777486  0.37536588  0.75491286  1
  V  V70  1  0.00053565  0.49914604  0.00276872  1
  V  V71  1  0.75794080  0.25518819  0.49789142  1
  V  V72  1  0.49997276  0.00233736  0.50064416  1
  V  V73  1  0.37043034  0.74954231  0.12403653  1
  V  V74  1  0.49751446  0.25199200  0.25025501  1
  V  V75  1  0.75767624  0.37703162  0.62166313  1
  V  V76  1  0.12763909  0.63959029  0.50041333  1
  V  V77  1  0.37580548  0.87053756  0.50131177  1
  V  V78  1  0.62394370  0.75158800  0.87609470  1
  V  V79  1  0.75104577  0.62636012  0.87657383  1
  V  V80  1  0.86582816  -0.00324506  0.86813895  1
  V  V81  1  0.63169295  0.00316654  0.62889769  1
  V  V82  1  0.00065202  0.12744027  0.61836020  1
  V  V83  1  0.24844600  0.26151298  -0.00070489  1
  V  V84  1  0.62156248  0.49839850  0.61782050  1
  Zn  Zn85  1  0.87513091  0.62626978  0.74969342  1
  Zn  Zn86  1  -0.00607795  0.75894562  0.75435244  1
  Zn  Zn87  1  0.75186283  0.13141602  0.88089693  1
  Zn  Zn88  1  0.00058535  0.37442248  0.87711852  1
  Zn  Zn89  1  0.24596617  0.75029535  0.00216318  1
  Zn  Zn90  1  0.87938481  0.25466354  0.62136022  1
  Zn  Zn91  1  0.12619029  0.62047983  0.00344500  1
  Zn  Zn92  1  0.62507331  0.62405644  -0.00040101  1
  Zn  Zn93  1  0.63344626  0.13003895  0.00374934  1
  Zn  Zn94  1  0.49760275  0.00487601  -0.00852813  1
  Zn  Zn95  1  0.49258830  0.88198255  0.87245898  1
  Zn  Zn96  1  0.75594873  0.13012276  0.36856559  1
  Zn  Zn97  1  0.87492557  0.49766087  0.87637288  1
  Zn  Zn98  1  0.24929262  0.12586321  0.37551902  1
  Zn  Zn99  1  0.24258905  0.86942077  0.12957045  1
  Zn  Zn100  1  0.12019281  0.87977775  0.75927721  1
  Zn  Zn101  1  0.50228145  0.12941082  0.62784713  1
  Zn  Zn102  1  0.37663856  0.00253269  0.37420364  1
  Zn  Zn103  1  0.12703637  0.12897512  0.49684430  1
  Zn  Zn104  1  0.49739217  0.25556735  0.75476429  1
  Zn  Zn105  1  -0.00376797  0.49648116  0.50125323  1
  Zn  Zn106  1  0.25236118  0.24957861  0.49533337  1
  Zn  Zn107  1  0.18405698  0.18642576  0.18545298  1
  Zn  Zn108  1  0.18902503  0.18881464  0.68647628  1
  Zn  Zn109  1  0.18741360  0.68220301  0.19392290  1
  Zn  Zn110  1  0.18474581  0.68773780  0.69243577  1
  Zn  Zn111  1  0.68636970  0.18348292  0.18782640  1
  Zn  Zn112  1  0.68725849  0.19309317  0.68841113  1
  Zn  Zn113  1  0.68847105  0.68731360  0.18746079  1
  Zn  Zn114  1  0.68730323  0.68887015  0.68801894  1
  Zn  Zn115  1  0.31146556  0.32090344  0.30526533  1
  Zn  Zn116  1  0.30740415  0.30750044  0.80920655  1
  Zn  Zn117  1  0.31472104  0.81055942  0.31140526  1
  Zn  Zn118  1  0.30721193  0.81107245  0.81407775  1
  Zn  Zn119  1  0.81338474  0.31463634  0.31108258  1
  Zn  Zn120  1  0.81196669  0.31184244  0.81224079  1
  Zn  Zn121  1  0.81562141  0.81509154  0.31352487  1
  Zn  Zn122  1  0.81112840  0.81309168  0.81025164  1
  Zn  Zn123  1  0.18560403  0.43977798  0.43021342  1
  Zn  Zn124  1  0.18465723  0.44074766  0.93948977  1
  Zn  Zn125  1  0.20596919  0.93722630  0.43868812  1
  Zn  Zn126  1  0.19143528  0.93906503  0.94102655  1
  Zn  Zn127  1  0.68699735  0.43934023  0.43705502  1
  Zn  Zn128  1  0.68862654  0.43440499  0.93910263  1
  Zn  Zn129  1  0.69045583  0.93886729  0.43577131  1
  Zn  Zn130  1  0.68920802  0.93784849  0.93911964  1
  Zn  Zn131  1  0.30824838  0.06517044  0.06632736  1
  Zn  Zn132  1  0.31082816  0.06594024  0.56463955  1
  Zn  Zn133  1  0.31313863  0.55685307  0.05968112  1
  Zn  Zn134  1  0.30883693  0.56431619  0.56151205  1
  Zn  Zn135  1  0.80957137  0.05943428  0.05866944  1
  Zn  Zn136  1  0.81216052  0.06246825  0.56105258  1
  Zn  Zn137  1  0.81828284  0.56237463  0.06173599  1
  Zn  Zn138  1  0.80830945  0.56492990  0.56015659  1
  Zn  Zn139  1  0.43743347  0.43681690  0.18853522  1
  Zn  Zn140  1  0.43565061  0.43879648  0.68455861  1
  Zn  Zn141  1  0.43746003  0.93685411  0.18476910  1
  Zn  Zn142  1  0.44076334  0.94120200  0.68888240  1
  Zn  Zn143  1  0.93963682  0.43679399  0.18734045  1
  Zn  Zn144  1  0.93775301  0.43769907  0.69018157  1
  Zn  Zn145  1  0.93774698  0.93554883  0.18516436  1
  Zn  Zn146  1  0.93783465  0.93744401  0.68745369  1
  Zn  Zn147  1  0.06597576  0.06978915  0.30723030  1
  Zn  Zn148  1  0.06205830  0.06599823  0.81198513  1
  Zn  Zn149  1  0.06329362  0.56383758  0.31230980  1
  Zn  Zn150  1  0.06153328  0.56129162  0.81341216  1
  Zn  Zn151  1  0.56399736  0.06313362  0.31012194  1
  Zn  Zn152  1  0.56208832  0.06489812  0.81743531  1
  Zn  Zn153  1  0.55905109  0.56017162  0.31240911  1
  Zn  Zn154  1  0.56333045  0.56142329  0.81294817  1
  Zn  Zn155  1  0.43850525  0.18909594  0.43743686  1
  Zn  Zn156  1  0.44058857  0.19247330  0.93626170  1
  Zn  Zn157  1  0.43718121  0.68543973  0.43715419  1
  Zn  Zn158  1  0.43562993  0.68738304  0.93869184  1
  Zn  Zn159  1  0.94054653  0.18731614  0.43383333  1
  Zn  Zn160  1  0.93711056  0.18276988  0.93554506  1
  Zn  Zn161  1  0.93968400  0.68874225  0.44101939  1
  Zn  Zn162  1  0.93643248  0.68334491  0.93977685  1
  Zn  Zn163  1  0.06203299  0.31275065  0.06553098  1
  Zn  Zn164  1  0.06534218  0.31023124  0.55930877  1
  Zn  Zn165  1  0.05962291  0.80957002  0.06303072  1
  Zn  Zn166  1  0.06043514  0.81182718  0.57664667  1
  Zn  Zn167  1  0.56104692  0.31196407  0.06544418  1
  Zn  Zn168  1  0.56563385  0.31184756  0.56617222  1
  Zn  Zn169  1  0.55851964  0.81326379  0.06153553  1
  Zn  Zn170  1  0.56189867  0.81092771  0.56327155  1
  O  O171  1  0.11740045  0.11470757  0.11562431  1
  O  O172  1  0.12126134  0.11790173  0.62147484  1
  O  O173  1  0.11102132  0.63107239  0.12374310  1
  O  O174  1  0.11954293  0.61860575  0.62096463  1
  O  O175  1  0.61590158  0.11559525  0.12565913  1
  O  O176  1  0.62627356  0.11881406  0.61819536  1
  O  O177  1  0.61594606  0.61845734  0.12528860  1
  O  O178  1  0.62179263  0.62004758  0.61760259  1
  O  O179  1  0.38055701  0.38815059  0.37330683  1
  O  O180  1  0.37120418  0.38644337  0.86512972  1
  O  O181  1  0.38222921  0.87573844  0.38438673  1
  O  O182  1  0.37170706  0.86687804  0.89305146  1
  O  O183  1  0.88229044  0.38549550  0.37015112  1
  O  O184  1  0.87456364  0.37568230  0.88732289  1
  O  O185  1  0.87105211  0.88200629  0.38851763  1
  O  O186  1  0.87334051  0.87940021  0.88301915  1
  O  O187  1  0.25665386  0.00528210  0.36549084  1
  O  O188  1  0.24757980  0.01201989  0.86742141  1
  O  O189  1  0.26541802  0.50805822  0.38050009  1
  O  O190  1  0.25642090  0.50655919  0.87057611  1
  O  O191  1  0.75737621  0.00251657  0.36595620  1
  O  O192  1  0.76307585  -0.00058724  0.87448867  1
  O  O193  1  0.75464645  0.50825763  0.36824439  1
  O  O194  1  0.74804597  0.50842904  0.86791251  1
  O  O195  1  0.24156068  0.50367172  0.12492907  1
  O  O196  1  0.24427126  0.49431491  0.63036558  1
  O  O197  1  0.23990967  0.99883158  0.13292537  1
  O  O198  1  0.24123654  0.99363036  0.63171227  1
  O  O199  1  0.74575890  0.49793586  0.13066084  1
  O  O200  1  0.74256399  0.49688850  0.63075302  1
  O  O201  1  0.74167333  0.99747073  0.13292306  1
  O  O202  1  0.73769508  0.98997305  0.61912906  1
  O  O203  1  -0.00629692  0.36008638  0.25575021  1
  O  O204  1  0.00632683  0.36649644  0.74956948  1
  O  O205  1  -0.00265970  0.86057481  0.24693288  1
  O  O206  1  0.00912603  0.87091483  0.73916994  1
  O  O207  1  0.50581076  0.36909963  0.25540686  1
  O  O208  1  0.51512212  0.38140171  0.74636521  1
  O  O209  1  0.50742886  0.87045106  0.25599619  1
  O  O210  1  0.51032033  0.86850945  0.74848242  1
  O  O211  1  0.49434605  0.13069365  0.24071085  1
  O  O212  1  0.49045905  0.12602446  0.74687506  1
  O  O213  1  0.49362702  0.62818394  0.23962071  1
  O  O214  1  0.49608004  0.63139423  0.74437976  1
  O  O215  1  0.99984525  0.13205621  0.23583729  1
  O  O216  1  0.99539844  0.13251212  0.74060658  1
  O  O217  1  0.99318162  0.63212375  0.24531705  1
  O  O218  1  0.99708178  0.62384689  0.73675489  1
  O  O219  1  0.36713149  0.24378064  0.01244529  1
  O  O220  1  0.37428092  0.24586698  0.51369982  1
  O  O221  1  0.37302843  0.75359922  0.01317394  1
  O  O222  1  0.38471367  0.75941583  0.51065452  1
  O  O223  1  0.88093848  0.26243322  -0.00186800  1
  O  O224  1  0.86131932  0.24535547  0.49874747  1
  O  O225  1  0.86995889  0.75512429  0.00475271  1
  O  O226  1  0.87962292  0.75952723  0.51255566  1
  O  O227  1  0.12771841  0.25120076  0.48221106  1
  O  O228  1  0.13334586  0.24002811  1.00812211  1
  O  O229  1  0.12042279  0.73849978  0.50892093  1
  O  O230  1  0.12500480  0.74421796  0.99056874  1
  O  O231  1  0.63219675  0.24284832  0.49566491  1
  O  O232  1  0.62311277  0.25348353  0.98861416  1
  O  O233  1  0.62086760  0.74277117  0.49017719  1
  O  O234  1  0.63227702  0.74980612  0.99598716  1
  O  O235  1  0.49060940  0.24302354  0.12935261  1
  O  O236  1  0.49251508  0.25054613  0.62987004  1
  O  O237  1  0.49403902  0.74060417  0.12998450  1
  O  O238  1  0.49569581  0.74276292  0.63351117  1
  O  O239  1  1.00174029  0.23922361  0.13650010  1
  O  O240  1  0.99876523  0.24490881  0.63193877  1
  O  O241  1  0.99193952  0.74287163  0.13329965  1
  O  O242  1  0.98969884  0.73913620  0.62889883  1
  O  O243  1  0.00513134  0.25532184  0.36425746  1
  O  O244  1  -0.00110189  0.24974112  0.86126255  1
  O  O245  1  -0.00544918  0.74631789  0.36033739  1
  O  O246  1  0.01280225  0.74052687  0.87358614  1
  O  O247  1  0.50375311  0.25908138  0.36968259  1
  O  O248  1  0.51593679  0.25013957  0.87118056  1
  O  O249  1  0.50551895  0.75343643  0.36714779  1
  O  O250  1  0.50578973  0.75231652  0.86833162  1
  O  O251  1  0.24725020  0.12844286  0.49437565  1
  O  O252  1  0.24296402  0.12888051  0.99432279  1
  O  O253  1  0.24219919  0.62458206  0.49025264  1
  O  O254  1  0.24904304  0.62531860  0.98821557  1
  O  O255  1  0.73990215  0.13238769  0.49747273  1
  O  O256  1  0.74619861  0.12183991  0.99520428  1
  O  O257  1  0.73590971  0.62277530  0.49002937  1
  O  O258  1  0.74992661  0.63439263  0.99284946  1
  O  O259  1  0.24631844  0.36086796  -0.00889086  1
  O  O260  1  0.24546193  0.37613939  0.51153013  1
  O  O261  1  0.26011947  0.87145141  0.00669487  1
  O  O262  1  0.26739531  0.87801334  0.51155717  1
  O  O263  1  0.76379995  0.37882879  0.00882811  1
  O  O264  1  0.74225583  0.36718997  0.50831144  1
  O  O265  1  0.75883369  0.86170507  -0.00360677  1
  O  O266  1  0.75536676  0.87464222  0.50802385  1
  O  O267  1  0.12516163  0.49934021  0.24538512  1
  O  O268  1  0.12925025  0.49514378  0.73828464  1
  O  O269  1  0.13376313  1.00434529  0.24134627  1
  O  O270  1  0.13640625  1.00257500  0.74466251  1
  O  O271  1  0.63057766  0.49544717  0.24371432  1
  O  O272  1  0.63406141  0.49674273  0.74248003  1
  O  O273  1  0.62981415  0.99256686  0.24174257  1
  O  O274  1  0.62063304  0.99327744  0.73978429  1
  O  O275  1  0.36883374  0.00802622  0.24839933  1
  O  O276  1  0.36303661  0.00915642  0.74235505  1
  O  O277  1  0.37906506  0.51058068  0.25516248  1
  O  O278  1  0.37002844  0.50715182  0.75576346  1
  O  O279  1  0.86490669  -0.01237959  0.25834634  1
  O  O280  1  0.88056197  0.00936617  0.75719235  1
  O  O281  1  0.87046157  0.50821878  0.25858144  1
  O  O282  1  0.86128934  0.50203930  0.75141490  1
  O  O283  1  0.11672944  0.36509669  0.37232084  1
  O  O284  1  0.12355953  0.38123982  0.85838053  1
  O  O285  1  0.11052718  0.88544880  0.39391576  1
  O  O286  1  0.13181934  0.85885209  0.87902597  1
  O  O287  1  0.61827768  0.37377989  0.36777825  1
  O  O288  1  0.62990075  0.36692436  0.86641177  1
  O  O289  1  0.61989428  0.86982157  0.36977188  1
  O  O290  1  0.62613986  0.86883421  0.86738616  1
  O  O291  1  0.38146962  0.13010020  0.13375054  1
  O  O292  1  0.37515564  0.13386403  0.63618540  1
  O  O293  1  0.37971812  0.62843764  0.13156523  1
  O  O294  1  0.37820581  0.62979347  0.63046260  1
  O  O295  1  0.88985858  0.11761218  0.12123932  1
  O  O296  1  0.88309495  0.12441940  0.62978085  1
  O  O297  1  0.88161080  0.63590787  0.13112909  1
  O  O298  1  0.87963767  0.63202642  0.62246001  1
  O  O299  1  0.26195611  0.24276979  0.11739288  1
  O  O300  1  0.25721172  0.25923856  0.62326204  1
  O  O301  1  0.25695214  0.74844552  0.12613341  1
  O  O302  1  0.25420320  0.76398810  0.63438239  1
  O  O303  1  0.74684414  0.26180552  0.13178502  1
  O  O304  1  0.75061466  0.26095816  0.61615639  1
  O  O305  1  0.75920922  0.74410166  0.11606196  1
  O  O306  1  0.75356887  0.76101023  0.62528335  1
  O  O307  1  0.24074446  0.25306989  0.37021591  1
  O  O308  1  0.25188785  0.23683421  0.88316414  1
  O  O309  1  0.25896627  0.73443024  0.37715812  1
  O  O310  1  0.24044096  0.73987585  0.87699639  1
  O  O311  1  0.74281760  0.25137015  0.37977044  1
  O  O312  1  0.73208256  0.24994979  0.86519916  1
  O  O313  1  0.74437195  0.73751375  0.36859499  1
  O  O314  1  0.74417336  0.74404354  0.88094752  1
  O  O315  1  0.00581762  0.12034678  0.00845924  1
  O  O316  1  0.00258183  0.13165787  0.51430794  1
  O  O317  1  -0.00211763  0.61739787  0.01083382  1
  O  O318  1  0.00736159  0.62072246  0.51051773  1
  O  O319  1  0.50305351  0.12567395  0.01251504  1
  O  O320  1  0.51082279  0.11940220  0.50174015  1
  O  O321  1  0.50045297  0.62188303  0.01238086  1
  O  O322  1  0.51268707  0.62762315  0.50529608  1
  O  O323  1  0.50865474  0.37366432  0.48725139  1
  O  O324  1  0.50051429  0.38667759  1.00358825  1
  O  O325  1  0.49435357  0.88256699  0.49700697  1
  O  O326  1  0.48303157  0.87408785  1.00046478  1
  O  O327  1  1.00079379  0.37519434  0.48509153  1
  O  O328  1  0.98969280  0.37918965  1.00050732  1
  O  O329  1  0.99125538  0.88196472  0.50911274  1
  O  O330  1  0.99132818  0.88396717  1.00230052  1
  O  O331  1  0.48619638  0.49316365  0.37127264  1
  O  O332  1  0.49099136  0.50665281  0.88406613  1
  O  O333  1  0.50132006  0.99564202  0.38581743  1
  O  O334  1  0.50183977  0.99482880  0.87882664  1
  O  O335  1  0.99193809  0.49249901  0.37479638  1
  O  O336  1  0.99424083  0.49805748  0.88231421  1
  O  O337  1  0.99549643  1.00145028  0.37562163  1
  O  O338  1  0.99256548  1.00709859  0.88659166  1
  O  O339  1  0.00370394  0.00907055  0.11881590  1
  O  O340  1  0.01467192  0.01068066  0.63215953  1
  O  O341  1  -0.00927487  0.51237805  0.11860334  1
  O  O342  1  0.00650834  0.50411282  0.62289620  1
  O  O343  1  0.50715772  0.00797596  0.12375462  1
  O  O344  1  0.51175206  0.00084704  0.61363572  1
  O  O345  1  0.50413879  0.50555584  0.11848333  1
  O  O346  1  0.50992851  0.50973540  0.63001793  1
  O  O347  1  0.24572061  0.38341806  0.24154788  1
  O  O348  1  0.24130800  0.37948506  0.74137340  1
  O  O349  1  0.25572872  0.88720112  0.24962660  1
  O  O350  1  0.24811857  0.88511616  0.74542742  1
  O  O351  1  0.74598594  0.38243819  0.24293068  1
  O  O352  1  0.74268216  0.38367469  0.74212214  1
  O  O353  1  0.73685358  0.88149301  0.25570037  1
  O  O354  1  0.73562718  0.87160691  0.74096153  1
  O  O355  1  0.25742930  0.11659606  0.24906451  1
  O  O356  1  0.25450388  0.12098531  0.75791481  1
  O  O357  1  0.25846208  0.62585592  0.26484292  1
  O  O358  1  0.25454967  0.61782647  0.75765093  1
  O  O359  1  0.74617582  0.10963452  0.25176748  1
  O  O360  1  0.76394820  0.12857330  0.74633445  1
  O  O361  1  0.75545134  0.61957470  0.25710144  1
  O  O362  1  0.74865818  0.61778794  0.75696171  1
  O  O363  1  0.37815631  0.12658728  0.35967668  1
  O  O364  1  0.36807861  0.13088509  0.86369752  1
  O  O365  1  0.37014497  0.61562392  0.37079074  1
  O  O366  1  0.36631569  0.62309544  0.86861268  1
  O  O367  1  0.87477610  0.10961904  0.37985580  1
  O  O368  1  0.87404196  0.11626792  0.86468495  1
  O  O369  1  0.86664991  0.62157400  0.37218900  1
  O  O370  1  0.86144898  0.62572719  0.87152031  1
  O  O371  1  0.12507876  0.38201686  0.12623155  1
  O  O372  1  0.13040540  0.38202473  0.63029465  1
  O  O373  1  0.12355058  0.88946832  0.11763233  1
  O  O374  1  0.13614992  0.88448355  0.62408228  1
  O  O375  1  0.63263182  0.38082718  0.12969427  1
  O  O376  1  0.63331237  0.38401742  0.63100124  1
  O  O377  1  0.61787450  0.88083859  0.13536073  1
  O  O378  1  0.62969891  0.88079749  0.62940870  1
  O  O379  1  0.11383079  0.24448406  0.26028419  1
  O  O380  1  0.11658275  0.25928454  0.74331620  1
  O  O381  1  0.11394766  0.75002350  0.25119010  1
  O  O382  1  0.12376267  0.75141298  0.76571561  1
  O  O383  1  0.61855411  0.25488524  0.25568289  1
  O  O384  1  0.62113672  0.26192911  0.75268857  1
  O  O385  1  0.62100520  0.75643920  0.25553830  1
  O  O386  1  0.61891531  0.75710518  0.75520546  1
  O  O387  1  0.37706309  0.24423366  0.23990608  1
  O  O388  1  0.37629501  0.24269974  0.74158501  1
  O  O389  1  0.38090120  0.74217634  0.24039943  1
  O  O390  1  0.38061710  0.74628484  0.74526283  1
  O  O391  1  0.88764766  0.24430845  0.25556558  1
  O  O392  1  0.88290465  0.24260244  0.74558097  1
  O  O393  1  0.87502914  0.74595958  0.24218889  1
  O  O394  1  0.87293272  0.74843244  0.73622543  1
  O  O395  1  0.37837146  0.50356912  0.49094888  1
  O  O396  1  0.38491483  0.50312766  0.98860221  1
  O  O397  1  0.38570127  0.99478128  0.50151420  1
  O  O398  1  0.37369809  0.98625491  1.00963757  1
  O  O399  1  0.87411166  0.50562130  0.48597052  1
  O  O400  1  0.88441745  0.49250826  0.99745597  1
  O  O401  1  0.87016111  0.99047033  0.49138886  1
  O  O402  1  0.88158770  0.98950863  0.99289425  1
  O  O403  1  0.11735401  0.00603871  0.00475806  1
  O  O404  1  0.11698646  -0.00201764  0.50287751  1
  O  O405  1  0.10696885  0.50205952  -0.00503062  1
  O  O406  1  0.12498947  0.50521598  0.51172682  1
  O  O407  1  0.62273321  -0.00471514  0.01328963  1
  O  O408  1  0.62080921  0.00801919  0.50388770  1
  O  O409  1  0.61790599  0.50229268  0.00523227  1
  O  O410  1  0.62793178  0.50745089  0.51161432  1
  O  O411  1  0.37888299  0.35903654  0.12708819  1
  O  O412  1  0.36486012  0.36667048  0.63103499  1
  O  O413  1  0.37287892  0.86428933  0.11908993  1
  O  O414  1  0.37122616  0.87122643  0.62115588  1
  O  O415  1  0.86770208  0.37700866  0.11363772  1
  O  O416  1  0.86163321  0.37690385  0.62638403  1
  O  O417  1  0.87831561  0.86220858  0.11282372  1
  O  O418  1  0.86445126  0.87214515  0.61754238  1
  O  O419  1  0.12523067  0.14008225  0.37612330  1
  O  O420  1  0.13117713  0.12134379  0.88899803  1
  O  O421  1  0.13889164  0.61932060  0.38418527  1
  O  O422  1  0.13388017  0.63122790  0.87507991  1
  O  O423  1  0.62584551  0.13245215  0.38214840  1
  O  O424  1  0.62907561  0.13957863  0.87474876  1
  O  O425  1  0.62945178  0.62794218  0.37994760  1
  O  O426  1  0.63466457  0.63273982  0.87603213  1
