# generated using pymatgen
data_V85Zn86O256
_symmetry_space_group_name_H-M   'P 1'
_cell_length_a   16.96560242
_cell_length_b   16.97926189
_cell_length_c   16.98149157
_cell_angle_alpha   89.89767805
_cell_angle_beta   90.03805076
_cell_angle_gamma   89.94211155
_symmetry_Int_Tables_number   1
_chemical_formula_structural   V85Zn86O256
_chemical_formula_sum   'V85 Zn86 O256'
_cell_volume   4891.73493160
_cell_formula_units_Z   1
loop_
 _symmetry_equiv_pos_site_id
 _symmetry_equiv_pos_as_xyz
  1  'x, y, z'
loop_
 _atom_site_type_symbol
 _atom_site_label
 _atom_site_symmetry_multiplicity
 _atom_site_fract_x
 _atom_site_fract_y
 _atom_site_fract_z
 _atom_site_occupancy
  V  V0  1  0.60127268  0.86884147  0.25599648  1
  V  V1  1  0.00018072  0.87682567  0.37600379  1
  V  V2  1  0.12836718  0.74825396  0.37231753  1
  V  V3  1  0.37127949  0.25057692  0.63016313  1
  V  V4  1  0.62727768  0.86742251  0.74712385  1
  V  V5  1  0.31440200  0.45239075  0.81130641  1
  V  V6  1  0.00155935  0.62564272  0.62859927  1
  V  V7  1  -0.00495561  0.87854208  0.87522786  1
  V  V8  1  0.00651806  0.37591669  0.87138046  1
  V  V9  1  0.62746103  0.37466297  0.74859325  1
  V  V10  1  -0.00327007  0.37667227  0.37658180  1
  V  V11  1  0.25523861  0.36518950  0.12522159  1
  V  V12  1  0.76084818  0.76417875  0.49709399  1
  V  V13  1  0.49931168  0.50119382  0.02217083  1
  V  V14  1  0.25035443  0.50016057  0.24669436  1
  V  V15  1  0.50135672  0.00377323  -0.00316708  1
  V  V16  1  0.87590390  0.37313956  0.00854713  1
  V  V17  1  0.12722762  0.62073884  0.50058464  1
  V  V18  1  0.50056467  0.24646671  0.75383466  1
  V  V19  1  0.37398922  -0.00197744  0.37421556  1
  V  V20  1  0.38530907  0.62971843  0.75257781  1
  V  V21  1  0.75166198  0.87511864  0.13016645  1
  V  V22  1  0.62594803  0.12512675  0.00109068  1
  V  V23  1  0.25056985  0.74618758  0.00145158  1
  V  V24  1  0.38608238  0.75452117  0.62685832  1
  V  V25  1  0.86477579  0.62873301  0.25765695  1
  V  V26  1  0.87529363  0.62731175  0.74715932  1
  V  V27  1  0.36925127  0.37270490  0.50048011  1
  V  V28  1  0.12210557  0.23893541  0.88247708  1
  V  V29  1  0.25389479  0.62455138  0.86888219  1
  V  V30  1  -0.05748911  0.79549911  0.69003818  1
  V  V31  1  0.75816925  0.37060370  0.62534937  1
  V  V32  1  0.74539871  0.12954547  0.37423499  1
  V  V33  1  0.37614711  0.87180966  -0.00140776  1
  V  V34  1  0.62399050  0.36750578  0.24819902  1
  V  V35  1  0.00004311  0.75016316  0.25163960  1
  V  V36  1  0.63276018  0.63261591  0.48058773  1
  V  V37  1  0.75963576  0.12384170  0.87571385  1
  V  V38  1  0.12294726  0.87297924  0.74698609  1
  V  V39  1  0.12322172  0.37527047  0.24910392  1
  V  V40  1  0.87385431  0.49985496  0.87810787  1
  V  V41  1  0.12482365  0.24876370  0.38357577  1
  V  V42  1  0.62826741  0.50369517  0.62085920  1
  V  V43  1  0.49743124  0.23792862  0.23318770  1
  V  V44  1  0.24937532  0.00054803  0.74745120  1
  V  V45  1  0.62290725  0.12853213  0.49770542  1
  V  V46  1  0.01337648  0.12160454  0.12309391  1
  V  V47  1  0.11884853  0.74988343  0.86902833  1
  V  V48  1  0.13018730  0.88572554  0.24792479  1
  V  V49  1  0.62313496  0.00311185  0.12515326  1
  V  V50  1  0.75086024  0.49975811  0.75062045  1
  V  V51  1  0.86831201  0.50198835  0.37825458  1
  V  V52  1  0.50348250  0.35600231  0.37801779  1
  V  V53  1  0.50068310  0.49801056  0.49659211  1
  V  V54  1  0.87463170  0.13265799  0.74325760  1
  V  V55  1  0.24565360  0.12104584  0.37777376  1
  V  V56  1  0.74887686  0.74974182  -0.00092699  1
  V  V57  1  0.75416551  0.24869152  0.50268667  1
  V  V58  1  0.38839211  0.62275103  0.24256884  1
  V  V59  1  0.50395880  0.38774417  0.87609256  1
  V  V60  1  0.87294448  0.12832913  0.24099432  1
  V  V61  1  0.62601586  0.25000330  0.87648766  1
  V  V62  1  0.12303749  0.62563496  0.00023344  1
  V  V63  1  0.38955950  0.74376503  0.12343630  1
  V  V64  1  0.49415094  -0.00278648  0.50323757  1
  V  V65  1  -0.00370507  0.50263892  0.00042336  1
  V  V66  1  0.37670606  0.00057338  0.87154762  1
  V  V67  1  0.00122521  0.13426172  0.61362745  1
  V  V68  1  0.75462693  0.24927896  0.00862111  1
  V  V69  1  -0.00521122  0.62584185  0.12697220  1
  V  V70  1  0.74805262  -0.00140953  0.25143140  1
  V  V71  1  0.13130505  0.49656422  0.64075310  1
  V  V72  1  0.24797726  0.87822560  0.13152646  1
  V  V73  1  0.87431636  -0.00055492  0.37739026  1
  V  V74  1  0.12662369  0.00906035  0.61584583  1
  V  V75  1  -0.00621409  0.25268124  0.24134899  1
  V  V76  1  0.00231293  0.25388876  0.74574406  1
  V  V77  1  0.25255747  0.87233070  0.61834174  1
  V  V78  1  0.74221882  0.50097478  0.24992928  1
  V  V79  1  0.01342207  0.00286026  0.00220101  1
  V  V80  1  0.63056567  -0.00170857  0.62444866  1
  V  V81  1  0.50181690  0.86484833  0.86922259  1
  V  V82  1  0.87476715  0.88481010  -0.00104971  1
  V  V83  1  0.25241695  0.62284125  0.37231633  1
  V  V84  1  0.75328393  -0.00135440  0.75073984  1
  Zn  Zn85  1  0.87514074  0.37385194  0.50310354  1
  Zn  Zn86  1  0.24679994  0.37693768  0.64007583  1
  Zn  Zn87  1  0.49950774  0.12577578  0.62651678  1
  Zn  Zn88  1  0.23450948  0.11101481  0.88569580  1
  Zn  Zn89  1  0.37614829  0.37166714  0.00393525  1
  Zn  Zn90  1  0.24321780  0.24927151  0.50771042  1
  Zn  Zn91  1  0.00371632  0.00825419  0.49548548  1
  Zn  Zn92  1  0.87648728  0.87859007  0.51604271  1
  Zn  Zn93  1  0.37302811  0.12288873  0.75034003  1
  Zn  Zn94  1  0.74702374  0.62742393  0.87510269  1
  Zn  Zn95  1  0.37505528  0.49260601  0.37234402  1
  Zn  Zn96  1  0.25677914  0.74706720  0.49975930  1
  Zn  Zn97  1  -0.00255998  0.49989037  0.50300903  1
  Zn  Zn98  1  0.25040700  0.23302315  0.01229552  1
  Zn  Zn99  1  0.61470969  0.62201340  0.00772139  1
  Zn  Zn100  1  0.50355187  0.62822923  0.62448328  1
  Zn  Zn101  1  0.42753528  0.83820834  0.45247276  1
  Zn  Zn102  1  0.74811535  0.37196557  0.12732354  1
  Zn  Zn103  1  0.36848959  0.12472287  0.23751543  1
  Zn  Zn104  1  0.87574623  0.75457981  0.12736887  1
  Zn  Zn105  1  0.12407734  0.50052286  0.12436284  1
  Zn  Zn106  1  0.62390395  0.74578849  0.87377123  1
  Zn  Zn107  1  0.18530921  0.18715554  0.19849252  1
  Zn  Zn108  1  0.18471909  0.18912177  0.69430825  1
  Zn  Zn109  1  0.18771610  0.68925376  0.18685175  1
  Zn  Zn110  1  0.19176338  0.68633254  0.68887702  1
  Zn  Zn111  1  0.68170058  0.18829072  0.18836446  1
  Zn  Zn112  1  0.68645663  0.18611486  0.68505073  1
  Zn  Zn113  1  0.67591447  0.69219897  0.18873097  1
  Zn  Zn114  1  0.69370480  0.68749690  0.68045820  1
  Zn  Zn115  1  0.31489643  0.30532684  0.31223797  1
  Zn  Zn116  1  0.32915152  0.28243190  0.84778143  1
  Zn  Zn117  1  0.33698382  0.80306463  0.31654030  1
  Zn  Zn118  1  0.31205975  0.81192778  0.80898622  1
  Zn  Zn119  1  0.81046701  0.31096926  0.31615233  1
  Zn  Zn120  1  0.81586971  0.31155939  0.81734552  1
  Zn  Zn121  1  0.80593263  0.81036521  0.31925215  1
  Zn  Zn122  1  0.80780234  0.81857389  0.81810215  1
  Zn  Zn123  1  0.18626859  0.43853807  0.43803807  1
  Zn  Zn124  1  0.18013295  0.43351699  0.94337200  1
  Zn  Zn125  1  0.19051257  0.93566937  0.43573076  1
  Zn  Zn126  1  0.18883512  0.93250550  0.93768603  1
  Zn  Zn127  1  0.68484540  0.43390015  0.43388859  1
  Zn  Zn128  1  0.68587734  0.43971635  0.94190362  1
  Zn  Zn129  1  0.68318554  0.93550522  0.43507500  1
  Zn  Zn130  1  0.68887145  0.93689455  0.93362938  1
  Zn  Zn131  1  0.31091730  0.06211360  0.06421693  1
  Zn  Zn132  1  0.31045602  0.06906893  0.55964796  1
  Zn  Zn133  1  0.31747440  0.55681096  0.06036267  1
  Zn  Zn134  1  0.31415552  0.56236216  0.56682935  1
  Zn  Zn135  1  0.81618601  0.06084936  0.06243017  1
  Zn  Zn136  1  0.81433551  0.06256385  0.56311431  1
  Zn  Zn137  1  0.77826110  0.58313741  0.08617470  1
  Zn  Zn138  1  0.81077855  0.56680358  0.56160539  1
  Zn  Zn139  1  0.43541251  0.42931071  0.19234902  1
  Zn  Zn140  1  0.44409968  0.43361063  0.68181116  1
  Zn  Zn141  1  0.42529228  0.96166912  0.17516469  1
  Zn  Zn142  1  0.44191960  0.93622338  0.68577982  1
  Zn  Zn143  1  0.93217573  0.44328239  0.18938312  1
  Zn  Zn144  1  0.94005859  0.44065798  0.68836561  1
  Zn  Zn145  1  0.93979912  0.94207119  0.18835521  1
  Zn  Zn146  1  0.93920597  0.96156385  0.69124613  1
  Zn  Zn147  1  0.06328199  0.06567233  0.31085947  1
  Zn  Zn148  1  0.05742796  0.06045777  0.80729750  1
  Zn  Zn149  1  0.06006636  0.56095576  0.31236100  1
  Zn  Zn150  1  0.05897974  0.56729140  0.81245067  1
  Zn  Zn151  1  0.55956608  0.05609361  0.31559868  1
  Zn  Zn152  1  0.56709652  0.06105063  0.81358830  1
  Zn  Zn153  1  0.56123928  0.55189470  0.31265404  1
  Zn  Zn154  1  0.56828761  0.56660258  0.81494358  1
  Zn  Zn155  1  0.43083019  0.18154827  0.44094689  1
  Zn  Zn156  1  0.43600391  0.18561617  0.94282096  1
  Zn  Zn157  1  0.44069426  0.67520188  0.43106015  1
  Zn  Zn158  1  0.43873858  0.68076937  0.93984682  1
  Zn  Zn159  1  0.93294045  0.19076541  0.43203535  1
  Zn  Zn160  1  0.93862724  0.18678914  0.93996427  1
  Zn  Zn161  1  0.93625453  0.68957139  0.44025918  1
  Zn  Zn162  1  0.93072258  0.69290046  0.93863586  1
  Zn  Zn163  1  0.06315360  0.31236544  0.06268793  1
  Zn  Zn164  1  0.06102547  0.31917827  0.56489712  1
  Zn  Zn165  1  0.06283793  0.81242833  0.06142330  1
  Zn  Zn166  1  0.07239483  0.81545463  0.55339334  1
  Zn  Zn167  1  0.56379241  0.31511827  0.06307017  1
  Zn  Zn168  1  0.56420777  0.31063476  0.56434361  1
  Zn  Zn169  1  0.56692969  0.81906662  0.06270564  1
  Zn  Zn170  1  0.57324582  0.81128852  0.56591623  1
  O  O171  1  0.11228683  0.12785620  0.13446643  1
  O  O172  1  0.11653078  0.11960718  0.62974580  1
  O  O173  1  0.11459110  0.62533350  0.11797000  1
  O  O174  1  0.12178446  0.61887173  0.61994700  1
  O  O175  1  0.63345143  0.11402959  0.11426951  1
  O  O176  1  0.62339535  0.11496491  0.61813287  1
  O  O177  1  0.66907138  0.61915904  0.10721759  1
  O  O178  1  0.62272601  0.61203136  0.62269587  1
  O  O179  1  0.38147834  0.37318268  0.38391252  1
  O  O180  1  0.37976840  0.38930957  0.86482730  1
  O  O181  1  0.34707715  0.89743262  0.38987323  1
  O  O182  1  0.38198739  0.88070756  0.87578747  1
  O  O183  1  0.88159007  0.38260615  0.37599217  1
  O  O184  1  0.88382022  0.38338491  0.88203265  1
  O  O185  1  0.88375555  0.88862094  0.37001855  1
  O  O186  1  0.88494581  0.87338681  0.88363702  1
  O  O187  1  0.25235129  0.01563725  0.38337269  1
  O  O188  1  0.25769201  -0.00675424  0.86554682  1
  O  O189  1  0.24781583  0.50500473  0.36290906  1
  O  O190  1  0.25040752  0.50363109  0.87710143  1
  O  O191  1  0.75745066  0.00841822  0.37178301  1
  O  O192  1  0.74369939  0.01328336  0.86503719  1
  O  O193  1  0.76073156  0.49208436  0.36612783  1
  O  O194  1  0.75877313  0.50053676  0.86998931  1
  O  O195  1  0.24629085  0.49147522  0.13513425  1
  O  O196  1  0.23560506  0.49954277  0.62445494  1
  O  O197  1  0.24603216  0.97503400  0.11802925  1
  O  O198  1  0.24598144  0.99621676  0.62941597  1
  O  O199  1  0.76526672  0.48703064  0.14811635  1
  O  O200  1  0.74412596  0.49445074  0.62996332  1
  O  O201  1  0.74363015  0.99216648  0.12778604  1
  O  O202  1  0.74305516  1.00786165  0.63680980  1
  O  O203  1  0.00311402  0.37114077  0.25357501  1
  O  O204  1  -0.00908858  0.36637631  0.75957076  1
  O  O205  1  0.00691084  0.87090636  0.25825200  1
  O  O206  1  -0.00083099  0.87101206  0.75366553  1
  O  O207  1  0.50546681  0.36293995  0.25832557  1
  O  O208  1  0.50720490  0.36614442  0.75551152  1
  O  O209  1  0.50523772  0.88842898  0.23721241  1
  O  O210  1  0.51366595  0.88050222  0.75825255  1
  O  O211  1  0.50538586  0.13773603  0.25371358  1
  O  O212  1  0.50258045  0.13721573  0.75155519  1
  O  O213  1  0.48711306  0.61526820  0.25404520  1
  O  O214  1  0.48867656  0.61906993  0.74811722  1
  O  O215  1  0.99185215  0.13316159  0.24542249  1
  O  O216  1  0.99111592  0.13167890  0.74099374  1
  O  O217  1  0.99328224  0.62963633  0.24372432  1
  O  O218  1  0.99463914  0.62933047  0.73765857  1
  O  O219  1  0.35693876  0.26281474  -0.03444743  1
  O  O220  1  0.37443288  0.25726005  0.51315352  1
  O  O221  1  0.36752468  0.75194396  0.00304379  1
  O  O222  1  0.37376654  0.74743337  0.51845252  1
  O  O223  1  0.86622162  0.26126491  -0.00811744  1
  O  O224  1  0.85864528  0.25235851  0.49575850  1
  O  O225  1  0.87155577  0.76855678  0.00467119  1
  O  O226  1  0.86763950  0.75929360  0.49892649  1
  O  O227  1  0.12312812  0.26085993  0.48656406  1
  O  O228  1  0.12648173  0.25372930  0.98552927  1
  O  O229  1  0.13165259  0.73608118  0.49228894  1
  O  O230  1  0.13143893  0.74518283  0.98979252  1
  O  O231  1  0.63265315  0.23509086  0.50661007  1
  O  O232  1  0.63192820  0.24518440  0.99549354  1
  O  O233  1  0.62209087  0.73507906  0.49670012  1
  O  O234  1  0.63816538  0.75284764  1.00001688  1
  O  O235  1  0.50087122  0.24734270  0.13393109  1
  O  O236  1  0.49267471  0.25093413  0.63711757  1
  O  O237  1  0.48806347  0.75310182  0.11374457  1
  O  O238  1  0.48964124  0.75018440  0.62461470  1
  O  O239  1  1.00214517  0.24586628  0.13671235  1
  O  O240  1  1.00425596  0.24692255  0.63334672  1
  O  O241  1  0.99777254  0.74052671  0.13016182  1
  O  O242  1  1.00829172  0.74541860  0.62466639  1
  O  O243  1  0.00273914  0.26092011  0.36711970  1
  O  O244  1  0.00632594  0.25644189  0.87144464  1
  O  O245  1  0.00616630  0.75825235  0.37119751  1
  O  O246  1  0.00926590  0.76225700  0.88177162  1
  O  O247  1  0.49627814  0.25513278  0.37782203  1
  O  O248  1  0.50533201  0.25872960  0.86937227  1
  O  O249  1  0.43740394  0.76583090  0.36875129  1
  O  O250  1  0.50105677  0.76166026  0.88135145  1
  O  O251  1  0.25089062  0.13458154  0.48544137  1
  O  O252  1  0.25090386  0.12191475  0.99631015  1
  O  O253  1  0.24497379  0.62125335  0.49019703  1
  O  O254  1  0.24654299  0.62744620  0.98935259  1
  O  O255  1  0.74505276  0.12967546  0.49429878  1
  O  O256  1  0.75027274  0.13080068  0.99318362  1
  O  O257  1  0.73473719  0.62391020  0.49703730  1
  O  O258  1  0.77763896  0.64744032  0.99055709  1
  O  O259  1  0.24598137  0.37650696  0.01953617  1
  O  O260  1  0.26186662  0.37449927  0.49999734  1
  O  O261  1  0.25549192  0.86246397  0.00349871  1
  O  O262  1  0.24247641  0.87004025  0.51562622  1
  O  O263  1  0.75757449  0.36773781  0.00156279  1
  O  O264  1  0.74704894  0.36582314  0.50736036  1
  O  O265  1  0.75695973  0.87262289  0.00577380  1
  O  O266  1  0.75440515  0.87034591  0.49863578  1
  O  O267  1  0.12987271  0.49049001  0.24896016  1
  O  O268  1  0.12406777  0.50654813  0.73911732  1
  O  O269  1  0.12296100  0.98470995  0.25405312  1
  O  O270  1  0.13012345  0.99324920  0.73997316  1
  O  O271  1  0.63344428  0.48547112  0.25593001  1
  O  O272  1  0.63149330  0.49476711  0.74186071  1
  O  O273  1  0.63014398  0.99795975  0.23977591  1
  O  O274  1  0.63396432  0.99674495  0.74279399  1
  O  O275  1  0.37364426  -0.00368961  0.27421737  1
  O  O276  1  0.36733360  -0.00150264  0.75371247  1
  O  O277  1  0.36516512  0.50280591  0.24925510  1
  O  O278  1  0.37203129  0.50598207  0.74357967  1
  O  O279  1  0.86851004  0.00866201  0.25709622  1
  O  O280  1  0.86468561  0.01803861  0.75293094  1
  O  O281  1  0.86954605  0.50812218  0.26179170  1
  O  O282  1  0.87185778  0.50661893  0.75957306  1
  O  O283  1  0.11694577  0.37283869  0.36674069  1
  O  O284  1  0.11095085  0.36751953  0.87768084  1
  O  O285  1  0.12196011  0.86860094  0.36834206  1
  O  O286  1  0.11872824  0.86741382  0.86661076  1
  O  O287  1  0.61418165  0.37293843  0.36512330  1
  O  O288  1  0.62015199  0.36946644  0.86925854  1
  O  O289  1  0.61909073  0.88817389  0.35451307  1
  O  O290  1  0.61762960  0.87406070  0.86550617  1
  O  O291  1  0.38833227  0.06999140  0.14070380  1
  O  O292  1  0.37533641  0.13900736  0.62965041  1
  O  O293  1  0.37108995  0.63097908  0.13046587  1
  O  O294  1  0.37706254  0.63553970  0.63345129  1
  O  O295  1  0.87972272  0.12161222  0.13844959  1
  O  O296  1  0.88504643  0.12410049  0.63311947  1
  O  O297  1  0.87894661  0.62934235  0.13921116  1
  O  O298  1  0.88431201  0.61899769  0.63733294  1
  O  O299  1  0.24176085  0.26171816  0.12810506  1
  O  O300  1  0.25501830  0.25668566  0.62987217  1
  O  O301  1  0.25200246  0.74980353  0.10952323  1
  O  O302  1  0.25835472  0.75759004  0.62561599  1
  O  O303  1  0.74783220  0.24938412  0.11211617  1
  O  O304  1  0.74530969  0.25954141  0.61758028  1
  O  O305  1  0.75386685  0.76591850  0.12007132  1
  O  O306  1  0.74304447  0.74374643  0.59701683  1
  O  O307  1  0.23966617  0.24644870  0.37845372  1
  O  O308  1  0.22488346  0.24010011  0.86266330  1
  O  O309  1  0.24800338  0.73487038  0.37440165  1
  O  O310  1  0.24390733  0.74366722  0.88304062  1
  O  O311  1  0.75026453  0.23567912  0.38213020  1
  O  O312  1  0.74430504  0.24423065  0.88354716  1
  O  O313  1  0.74827653  0.74985010  0.39488311  1
  O  O314  1  0.74626669  0.75220838  0.88525030  1
  O  O315  1  -0.00660090  0.11593272  0.01103118  1
  O  O316  1  -0.00537615  0.13103926  0.51011170  1
  O  O317  1  -0.00116938  0.62244263  0.00748017  1
  O  O318  1  0.00707391  0.62562780  0.51249070  1
  O  O319  1  0.50672761  0.11114922  -0.00817697  1
  O  O320  1  0.50826416  0.11792086  0.50271513  1
  O  O321  1  0.49747108  0.60667749  0.00332933  1
  O  O322  1  0.50848288  0.61359133  0.49983222  1
  O  O323  1  0.49343588  0.37658394  0.49586602  1
  O  O324  1  0.49734433  0.37911583  0.99187256  1
  O  O325  1  0.50813895  0.89061724  0.50900122  1
  O  O326  1  0.49774217  0.88425090  0.98968485  1
  O  O327  1  0.99468378  0.37849949  0.49069185  1
  O  O328  1  0.99396454  0.38185327  0.99442652  1
  O  O329  1  1.00098086  0.87705513  0.48470090  1
  O  O330  1  0.99483769  0.88159689  0.99495634  1
  O  O331  1  0.49808135  0.48569168  0.38711950  1
  O  O332  1  0.50344776  0.48783821  0.87052842  1
  O  O333  1  0.48333729  1.00340206  0.38677695  1
  O  O334  1  0.49546876  0.99095840  0.87753341  1
  O  O335  1  0.99233591  0.48878898  0.37454489  1
  O  O336  1  0.99434918  0.49406719  0.87776345  1
  O  O337  1  0.99402818  0.99586527  0.37531868  1
  O  O338  1  1.00435930  0.98586391  0.87908189  1
  O  O339  1  -0.00045225  0.00906798  0.11613406  1
  O  O340  1  0.01035881  0.01486549  0.62080131  1
  O  O341  1  -0.00184316  0.51318656  0.12196020  1
  O  O342  1  0.01157806  0.50859837  0.62457055  1
  O  O343  1  0.51849298  -0.01147201  0.10824584  1
  O  O344  1  0.50767040  0.00605782  0.62059643  1
  O  O345  1  0.50088315  0.49113276  0.12069979  1
  O  O346  1  0.51025535  0.49715049  0.61191246  1
  O  O347  1  0.24320810  0.37822754  0.24371580  1
  O  O348  1  0.26143268  0.38508560  0.76156836  1
  O  O349  1  0.24598133  0.86301963  0.23704576  1
  O  O350  1  0.24449739  0.88392391  0.74087927  1
  O  O351  1  0.73846184  0.37411141  0.25256481  1
  O  O352  1  0.74717619  0.37813007  0.74435820  1
  O  O353  1  0.75178033  0.88265344  0.24323658  1
  O  O354  1  0.74425812  0.89153278  0.75615810  1
  O  O355  1  0.25492922  0.13444447  0.26993622  1
  O  O356  1  0.24816367  0.10916377  0.75504213  1
  O  O357  1  0.25017993  0.61458646  0.25421210  1
  O  O358  1  0.25791638  0.62605892  0.76351195  1
  O  O359  1  0.75418261  0.12180968  0.25654218  1
  O  O360  1  0.75587506  0.12410266  0.75612130  1
  O  O361  1  0.75813849  0.61745168  0.25209675  1
  O  O362  1  0.75877095  0.61890703  0.75100077  1
  O  O363  1  0.36324197  0.11547047  0.37539359  1
  O  O364  1  0.37747104  0.10707015  0.87130976  1
  O  O365  1  0.36387166  0.61224115  0.36518596  1
  O  O366  1  0.36713889  0.62826531  0.86590074  1
  O  O367  1  0.86915877  0.11541654  0.36697599  1
  O  O368  1  0.86386311  0.13083726  0.86850311  1
  O  O369  1  0.88439417  0.61525271  0.36717152  1
  O  O370  1  0.88109217  0.61811890  0.86139288  1
  O  O371  1  0.12920570  0.37710490  0.13600907  1
  O  O372  1  0.12677060  0.39211247  0.62537666  1
  O  O373  1  0.13753440  0.86169909  0.13439990  1
  O  O374  1  0.13135623  0.88115849  0.63088265  1
  O  O375  1  0.62667527  0.37068508  0.14244799  1
  O  O376  1  0.63391611  0.38484349  0.62818464  1
  O  O377  1  0.63540841  0.88387916  0.13260507  1
  O  O378  1  0.62432409  0.88910802  0.63344521  1
  O  O379  1  0.11444428  0.26064520  0.26086473  1
  O  O380  1  0.10766220  0.24742897  0.76080511  1
  O  O381  1  0.11814170  0.75342639  0.25700146  1
  O  O382  1  0.13066776  0.75447796  0.76195342  1
  O  O383  1  0.61314256  0.25658219  0.25068418  1
  O  O384  1  0.62000769  0.25577155  0.75444813  1
  O  O385  1  0.61856770  0.76886877  0.24484290  1
  O  O386  1  0.63692050  0.76445268  0.74793001  1
  O  O387  1  0.39229365  0.24481382  0.25100943  1
  O  O388  1  0.38359435  0.24666501  0.75024772  1
  O  O389  1  0.36443646  0.73349526  0.23001268  1
  O  O390  1  0.37209676  0.74131542  0.73962295  1
  O  O391  1  0.88281227  0.24118739  0.25760854  1
  O  O392  1  0.88494987  0.24069185  0.75631786  1
  O  O393  1  0.88028345  0.74370015  0.25373684  1
  O  O394  1  0.87116606  0.74457346  0.75032516  1
  O  O395  1  0.38386826  0.49066316  0.50251157  1
  O  O396  1  0.39128415  0.48937423  1.00455254  1
  O  O397  1  0.38586687  1.00689418  0.49915100  1
  O  O398  1  0.38448509  0.98902035  0.98888295  1
  O  O399  1  0.87568660  0.50040158  0.49090819  1
  O  O400  1  0.87846679  0.49447200  0.98729134  1
  O  O401  1  0.87933554  0.99716286  0.49185464  1
  O  O402  1  0.88334686  0.98963792  1.00159828  1
  O  O403  1  0.11249529  -0.00720544  -0.00340568  1
  O  O404  1  0.12420593  -0.00354018  0.51287384  1
  O  O405  1  0.11413573  0.50819393  0.00238725  1
  O  O406  1  0.12170725  0.51132940  0.50362495  1
  O  O407  1  0.62114496  0.00434584  0.00234083  1
  O  O408  1  0.62135858  0.00830477  0.50752097  1
  O  O409  1  0.60436388  0.49498910  -0.00231884  1
  O  O410  1  0.62082871  0.50556877  0.50400734  1
  O  O411  1  0.35808365  0.37068253  0.12780020  1
  O  O412  1  0.37178211  0.36571474  0.62059988  1
  O  O413  1  0.36396378  0.86500782  0.11833169  1
  O  O414  1  0.36846848  0.86270910  0.63332759  1
  O  O415  1  0.87818882  0.37734453  0.11112568  1
  O  O416  1  0.86158243  0.38370618  0.62362541  1
  O  O417  1  0.86834722  0.87803057  0.12055586  1
  O  O418  1  0.89461843  0.87110350  0.63353678  1
  O  O419  1  0.13299219  0.13508417  0.37106617  1
  O  O420  1  0.11401092  0.13519056  0.87467094  1
  O  O421  1  0.13025475  0.62615842  0.38132956  1
  O  O422  1  0.12941354  0.63216052  0.87950452  1
  O  O423  1  0.63506456  0.11428892  0.38519654  1
  O  O424  1  0.63504079  0.13142367  0.88134446  1
  O  O425  1  0.62132615  0.62066786  0.38308205  1
  O  O426  1  0.62957176  0.62877610  0.88583313  1
