# generated using pymatgen
data_V85Zn86O256
_symmetry_space_group_name_H-M   'P 1'
_cell_length_a   16.93427559
_cell_length_b   16.93762808
_cell_length_c   16.93925586
_cell_angle_alpha   89.93797554
_cell_angle_beta   90.01324428
_cell_angle_gamma   90.00158861
_symmetry_Int_Tables_number   1
_chemical_formula_structural   V85Zn86O256
_chemical_formula_sum   'V85 Zn86 O256'
_cell_volume   4858.62384386
_cell_formula_units_Z   1
loop_
 _symmetry_equiv_pos_site_id
 _symmetry_equiv_pos_as_xyz
  1  'x, y, z'
loop_
 _atom_site_type_symbol
 _atom_site_label
 _atom_site_symmetry_multiplicity
 _atom_site_fract_x
 _atom_site_fract_y
 _atom_site_fract_z
 _atom_site_occupancy
  V  V0  1  -0.00090532  0.87090763  0.87306004  1
  V  V1  1  0.00038718  0.49092798  0.00043758  1
  V  V2  1  0.25067784  0.37021230  0.12505044  1
  V  V3  1  0.62426077  0.87611965  0.25124155  1
  V  V4  1  0.13026045  0.24248214  0.37363899  1
  V  V5  1  0.76065385  0.75808439  0.50743914  1
  V  V6  1  0.87705727  0.12152123  0.25166315  1
  V  V7  1  0.62600492  0.38478284  0.25084516  1
  V  V8  1  0.75525504  0.24950749  0.50004102  1
  V  V9  1  0.87414816  0.49741913  0.37541115  1
  V  V10  1  0.12923807  0.87990496  0.23644119  1
  V  V11  1  0.87510314  0.75001821  0.12276595  1
  V  V12  1  0.50011608  0.00480870  0.00521634  1
  V  V13  1  0.24793682  0.00486523  0.75421873  1
  V  V14  1  0.37539782  0.12536381  0.75365339  1
  V  V15  1  0.87050381  0.10355569  0.76125999  1
  V  V16  1  0.24735758  0.24335338  -0.00528333  1
  V  V17  1  0.24977037  0.49845950  0.25175312  1
  V  V18  1  0.12402696  0.51222118  0.62735572  1
  V  V19  1  0.75640247  -0.00257839  0.25243810  1
  V  V20  1  0.12972113  0.12160054  0.49831861  1
  V  V21  1  0.25549413  0.25232087  0.49620140  1
  V  V22  1  0.74271221  0.11918280  0.88678051  1
  V  V23  1  0.36898616  0.00028777  0.87821800  1
  V  V24  1  0.63070451  0.87858808  0.74894338  1
  V  V25  1  0.00377029  0.11812345  0.12506262  1
  V  V26  1  0.23676435  0.37049107  0.62982077  1
  V  V27  1  0.12455924  -0.00218865  0.62274915  1
  V  V28  1  0.25251509  -0.00122174  0.25124346  1
  V  V29  1  0.37014488  0.87316320  0.01787124  1
  V  V30  1  0.88026270  0.24769049  0.63958673  1
  V  V31  1  0.74763143  0.38058307  0.11674623  1
  V  V32  1  0.87030161  0.24889849  0.11678244  1
  V  V33  1  0.37299750  0.49352237  0.37926356  1
  V  V34  1  0.50353945  0.24450932  0.24618899  1
  V  V35  1  -0.00864960  0.88102846  0.37677407  1
  V  V36  1  0.62262791  0.62701186  0.50124734  1
  V  V37  1  0.25255606  0.75008892  0.49992999  1
  V  V38  1  -0.01541131  -0.00002336  0.49870421  1
  V  V39  1  0.50230123  0.61737892  0.12781083  1
  V  V40  1  0.12558977  0.37112236  0.25027369  1
  V  V41  1  0.00142461  0.75223936  0.25050961  1
  V  V42  1  0.62625282  0.61662554  0.00469017  1
  V  V43  1  0.12373737  0.86997587  0.75153544  1
  V  V44  1  0.50472196  0.24891546  0.75329797  1
  V  V45  1  0.62378785  0.74685259  0.87819992  1
  V  V46  1  0.74903645  0.62549898  0.37646592  1
  V  V47  1  0.24451170  0.62518664  0.37942597  1
  V  V48  1  0.12438389  0.75322043  0.38221085  1
  V  V49  1  0.37808158  0.23663513  0.12215629  1
  V  V50  1  0.62649154  0.37339063  0.75313100  1
  V  V51  1  0.62384516  0.00473242  0.12383112  1
  V  V52  1  0.37138237  0.12257733  0.26836898  1
  V  V53  1  0.75675607  0.50761799  0.75040954  1
  V  V54  1  0.12696921  0.12048515  -0.00186645  1
  V  V55  1  0.49570743  0.87437405  0.87783637  1
  V  V56  1  0.37169411  0.62912710  0.24550810  1
  V  V57  1  0.49455658  0.75332685  0.24532240  1
  V  V58  1  0.12437384  0.24726828  0.86106906  1
  V  V59  1  0.37664503  0.89235011  0.49679314  1
  V  V60  1  0.12471906  0.49667809  0.12603778  1
  V  V61  1  0.75790368  0.11975378  0.37795699  1
  V  V62  1  0.00056709  0.37180883  0.37575339  1
  V  V63  1  0.49469523  0.74897394  0.75117658  1
  V  V64  1  0.49475340  0.62383931  0.62497918  1
  V  V65  1  0.49704653  0.49003140  0.50187329  1
  V  V66  1  0.94077230  0.68242241  0.69035692  1
  V  V67  1  0.49564693  0.89106780  0.37782902  1
  V  V68  1  0.62117174  0.75174100  0.37612416  1
  V  V69  1  0.87307638  0.87950412  -0.00568682  1
  V  V70  1  0.12559014  0.62396651  0.00052678  1
  V  V71  1  0.75156404  0.37629755  0.62594643  1
  V  V72  1  0.37771462  0.25855018  0.62378341  1
  V  V73  1  0.87499996  0.62517440  0.24889714  1
  V  V74  1  0.25229241  0.75257972  0.01382543  1
  V  V75  1  0.74941562  0.74991645  0.00041509  1
  V  V76  1  -0.00162859  0.00128401  -0.00446531  1
  V  V77  1  0.37216680  0.37863203  -0.00153665  1
  V  V78  1  0.00284527  0.37098168  0.85514085  1
  V  V79  1  0.00044564  0.24583507  0.24956139  1
  V  V80  1  0.25296958  0.62476794  0.87394186  1
  V  V81  1  0.00987603  0.51056574  0.49770459  1
  V  V82  1  0.62167069  0.11901095  0.50440214  1
  V  V83  1  0.62744669  0.25194055  0.37525627  1
  V  V84  1  0.25206544  0.87716135  0.62425511  1
  Zn  Zn85  1  0.87338129  0.37133371  -0.00628698  1
  Zn  Zn86  1  0.75888830  0.62829041  0.87022566  1
  Zn  Zn87  1  0.37573329  0.49730049  0.86854510  1
  Zn  Zn88  1  0.74931667  0.87648433  0.12420237  1
  Zn  Zn89  1  0.62094880  -0.00359466  0.62643384  1
  Zn  Zn90  1  0.76625311  0.88239959  0.63382194  1
  Zn  Zn91  1  0.88220275  0.50486630  0.87102340  1
  Zn  Zn92  1  0.12482435  0.74814167  0.87399991  1
  Zn  Zn93  1  0.49716819  0.37305883  0.37611150  1
  Zn  Zn94  1  0.37062736  0.62177119  0.74898527  1
  Zn  Zn95  1  0.50164279  0.37754822  0.87670687  1
  Zn  Zn96  1  0.87822882  0.37438146  0.50143939  1
  Zn  Zn97  1  0.49780571  0.50315952  -0.00234999  1
  Zn  Zn98  1  0.49515260  0.11798761  0.62153221  1
  Zn  Zn99  1  0.37380744  0.75204159  0.62318510  1
  Zn  Zn100  1  0.00149921  0.12839823  0.63495776  1
  Zn  Zn101  1  0.74685595  0.50257171  0.24693818  1
  Zn  Zn102  1  0.63869768  0.25098531  0.89754063  1
  Zn  Zn103  1  0.56687344  0.16816889  0.05877922  1
  Zn  Zn104  1  0.24658868  0.49401889  0.75368963  1
  Zn  Zn105  1  0.62493941  0.50059598  0.62618794  1
  Zn  Zn106  1  -0.00123923  0.62189829  0.12412660  1
  Zn  Zn107  1  0.19147864  0.17867607  0.18460568  1
  Zn  Zn108  1  0.19052984  0.18263140  0.68440228  1
  Zn  Zn109  1  0.18434310  0.68805494  0.18969224  1
  Zn  Zn110  1  0.18370474  0.68871581  0.68551978  1
  Zn  Zn111  1  0.69319852  0.19049313  0.18942647  1
  Zn  Zn112  1  0.69367620  0.18497944  0.69255315  1
  Zn  Zn113  1  0.68674696  0.68798304  0.18731445  1
  Zn  Zn114  1  0.68366875  0.69109766  0.68526411  1
  Zn  Zn115  1  0.31403406  0.30937612  0.31158492  1
  Zn  Zn116  1  0.30996214  0.31095412  0.81218383  1
  Zn  Zn117  1  0.31303129  0.81690581  0.31220317  1
  Zn  Zn118  1  0.30945081  0.81198832  0.81866709  1
  Zn  Zn119  1  0.81275668  0.31152262  0.30799532  1
  Zn  Zn120  1  0.81089839  0.31165110  0.81796617  1
  Zn  Zn121  1  0.81057521  0.81030000  0.31464356  1
  Zn  Zn122  1  0.81643985  0.80683348  0.81200240  1
  Zn  Zn123  1  0.18856695  0.43126795  0.44058238  1
  Zn  Zn124  1  0.18552180  0.43364301  0.93417957  1
  Zn  Zn125  1  0.18790091  0.93669126  0.43180542  1
  Zn  Zn126  1  0.18760288  0.93639298  0.94099356  1
  Zn  Zn127  1  0.68705500  0.43803591  0.43905609  1
  Zn  Zn128  1  0.68784439  0.43793682  0.93372692  1
  Zn  Zn129  1  0.68823543  0.93871214  0.43703925  1
  Zn  Zn130  1  0.68687466  0.94070198  0.93504756  1
  Zn  Zn131  1  0.30748150  0.05852235  0.06718135  1
  Zn  Zn132  1  0.31193453  0.06824988  0.56534422  1
  Zn  Zn133  1  0.31043473  0.56445828  0.06559439  1
  Zn  Zn134  1  0.31094940  0.55990084  0.56207316  1
  Zn  Zn135  1  0.81177183  0.06152049  0.06182664  1
  Zn  Zn136  1  0.80614929  0.05982497  0.57506023  1
  Zn  Zn137  1  0.81517888  0.56072379  0.05763668  1
  Zn  Zn138  1  0.81617227  0.56576998  0.56270572  1
  Zn  Zn139  1  0.43528104  0.43466097  0.18820855  1
  Zn  Zn140  1  0.43386863  0.43678078  0.68932109  1
  Zn  Zn141  1  0.43846889  0.94506875  0.19165846  1
  Zn  Zn142  1  0.44142234  0.93855576  0.68501137  1
  Zn  Zn143  1  0.93525964  0.43477658  0.18717255  1
  Zn  Zn144  1  0.93760093  0.44421711  0.68063081  1
  Zn  Zn145  1  0.93926561  0.93618697  0.18400163  1
  Zn  Zn146  1  0.94090164  0.93893516  0.68900271  1
  Zn  Zn147  1  0.06829182  0.05736641  0.31420233  1
  Zn  Zn148  1  0.05704807  0.06351014  0.81339104  1
  Zn  Zn149  1  0.06240229  0.56399642  0.31287767  1
  Zn  Zn150  1  0.06462040  0.55991615  0.81262715  1
  Zn  Zn151  1  0.56798547  0.06757489  0.31088979  1
  Zn  Zn152  1  0.56290658  0.06360421  0.81803422  1
  Zn  Zn153  1  0.55797662  0.56390989  0.31626989  1
  Zn  Zn154  1  0.56235128  0.56021788  0.81349392  1
  Zn  Zn155  1  0.44105341  0.19229022  0.43818082  1
  Zn  Zn156  1  0.43505857  0.18992896  0.93121810  1
  Zn  Zn157  1  0.43363777  0.68827280  0.43401982  1
  Zn  Zn158  1  0.43412480  0.68795323  0.94204544  1
  Zn  Zn159  1  0.93963852  0.18360512  0.44118983  1
  Zn  Zn160  1  0.93641854  0.18800255  0.93089513  1
  Zn  Zn161  1  0.93899125  0.68580956  0.43405350  1
  Zn  Zn162  1  0.93936733  0.68464601  0.93220632  1
  Zn  Zn163  1  0.06245841  0.30603061  0.06176025  1
  Zn  Zn164  1  0.06056635  0.31179824  0.55899139  1
  Zn  Zn165  1  0.05992073  0.80915601  0.05913207  1
  Zn  Zn166  1  -0.05728041  0.81323890  0.56354973  1
  Zn  Zn167  1  0.55996454  0.33110451  0.06762070  1
  Zn  Zn168  1  0.56703752  0.30791613  0.56675663  1
  Zn  Zn169  1  0.55938630  0.81462979  0.06554717  1
  Zn  Zn170  1  0.55803169  0.81333586  0.56286849  1
  O  O171  1  0.11375438  0.13320334  0.11305136  1
  O  O172  1  0.12222712  0.11574630  0.61904465  1
  O  O173  1  0.12409027  0.61693511  0.11644693  1
  O  O174  1  0.13509655  0.60991837  0.61725093  1
  O  O175  1  0.62846385  0.11088505  0.13509148  1
  O  O176  1  0.62909840  0.13002646  0.61048075  1
  O  O177  1  0.61563309  0.62978241  0.11736220  1
  O  O178  1  0.61220012  0.62425575  0.61745830  1
  O  O179  1  0.37586485  0.38886210  0.36859560  1
  O  O180  1  0.37343343  0.37346783  0.88575869  1
  O  O181  1  0.38381830  0.87523599  0.38289048  1
  O  O182  1  0.37921694  0.88363058  0.88149097  1
  O  O183  1  0.88092444  0.38166976  0.37445935  1
  O  O184  1  0.89131531  0.37576564  0.87543681  1
  O  O185  1  0.89209982  0.87132136  0.36593268  1
  O  O186  1  0.88188509  0.86969791  0.88650672  1
  O  O187  1  0.23574457  0.00499674  0.35415010  1
  O  O188  1  0.26122178  -0.00360206  0.86995171  1
  O  O189  1  0.25322597  0.50543332  0.37365357  1
  O  O190  1  0.24886476  0.50854610  0.87431941  1
  O  O191  1  0.74818059  0.00863546  0.36622213  1
  O  O192  1  0.74514728  0.01658242  0.87600755  1
  O  O193  1  0.75966518  0.50587368  0.37598627  1
  O  O194  1  0.75143076  0.50054535  0.86002892  1
  O  O195  1  0.24390412  0.49194975  0.13229326  1
  O  O196  1  0.23817625  0.48603882  0.61759755  1
  O  O197  1  0.24384397  1.01268438  0.14783514  1
  O  O198  1  0.24456018  0.99714930  0.63362677  1
  O  O199  1  0.76016866  0.48475020  0.12989932  1
  O  O200  1  0.74961195  0.49256013  0.63111284  1
  O  O201  1  0.74314469  0.99704648  0.13301799  1
  O  O202  1  0.73306750  0.99039919  0.61754031  1
  O  O203  1  0.00631428  0.36725340  0.25569775  1
  O  O204  1  0.00057737  0.37967863  0.75723221  1
  O  O205  1  0.00992285  0.87230267  0.25356837  1
  O  O206  1  0.01195768  0.88659695  0.76250105  1
  O  O207  1  0.50829457  0.36436338  0.24787835  1
  O  O208  1  0.50935976  0.36846487  0.74793984  1
  O  O209  1  0.50191784  0.86918987  0.25664357  1
  O  O210  1  0.50359013  0.86472190  0.75873475  1
  O  O211  1  0.49048528  0.13642098  0.25521858  1
  O  O212  1  0.49401683  0.13246637  0.74921410  1
  O  O213  1  0.49290712  0.63156440  0.24637444  1
  O  O214  1  0.49915745  0.63072054  0.74129712  1
  O  O215  1  0.99839342  0.12413306  0.24308509  1
  O  O216  1  0.98020199  0.11939983  0.74999219  1
  O  O217  1  0.99404081  0.63391909  0.24901410  1
  O  O218  1  1.00624479  0.63316388  0.75231399  1
  O  O219  1  0.36832934  0.25464410  0.00449497  1
  O  O220  1  0.36683738  0.24354222  0.50936493  1
  O  O221  1  0.36619032  0.76197672  -0.00112257  1
  O  O222  1  0.36334598  0.75712745  0.49719667  1
  O  O223  1  0.88486311  0.25236645  0.01375416  1
  O  O224  1  0.86446779  0.24820304  0.50497870  1
  O  O225  1  0.87097344  0.75516977  0.00748696  1
  O  O226  1  0.86439823  0.74787040  0.49573866  1
  O  O227  1  0.13023420  0.24247770  0.49217710  1
  O  O228  1  0.13155314  0.24091279  0.99361732  1
  O  O229  1  0.14097878  0.75559870  0.48397155  1
  O  O230  1  0.13159512  0.73930211  1.00117800  1
  O  O231  1  0.63860654  0.24556135  0.49586304  1
  O  O232  1  0.61213901  0.25343076  1.00648674  1
  O  O233  1  0.62611025  0.73990441  0.49594813  1
  O  O234  1  0.62800901  0.74636878  0.99518986  1
  O  O235  1  0.49403252  0.24805556  0.13116931  1
  O  O236  1  0.49246497  0.24778047  0.63391249  1
  O  O237  1  0.50327000  0.74214877  0.14007881  1
  O  O238  1  0.49661699  0.74177105  0.63389724  1
  O  O239  1  0.99395692  0.23965428  0.13195155  1
  O  O240  1  0.98318645  0.24734735  0.61582773  1
  O  O241  1  0.98860299  0.74678572  0.12889882  1
  O  O242  1  0.99822006  0.73685697  0.62425201  1
  O  O243  1  0.00695711  0.25268505  0.37008409  1
  O  O244  1  0.01032791  0.26216644  0.87679929  1
  O  O245  1  0.00803898  0.75678586  0.37123722  1
  O  O246  1  0.00755628  0.76661749  0.88743598  1
  O  O247  1  0.50795001  0.25505410  0.36703650  1
  O  O248  1  0.50095767  0.25389277  0.86090136  1
  O  O249  1  0.50570712  0.75200679  0.36419780  1
  O  O250  1  0.50451607  0.75231585  0.87106125  1
  O  O251  1  0.23762607  0.13661336  0.50685186  1
  O  O252  1  0.24334186  0.13476318  1.00298665  1
  O  O253  1  0.25688593  0.63333124  0.48798905  1
  O  O254  1  0.24407168  0.62976681  0.99564201  1
  O  O255  1  0.74534069  0.13172856  0.49391337  1
  O  O256  1  0.75437177  0.12434192  0.98773319  1
  O  O257  1  0.74221750  0.63250044  0.49725407  1
  O  O258  1  0.74131397  0.63259735  1.00259594  1
  O  O259  1  0.25264567  0.36236562  0.00478925  1
  O  O260  1  0.24761416  0.36041594  0.51092957  1
  O  O261  1  0.25731469  0.86608121  -0.00014865  1
  O  O262  1  0.25652847  0.87040500  0.50245949  1
  O  O263  1  0.75167363  0.37947947  0.01271824  1
  O  O264  1  0.75304797  0.36867229  0.50802647  1
  O  O265  1  0.75704441  0.86917781  -0.00007152  1
  O  O266  1  0.74372218  0.85808224  0.49627126  1
  O  O267  1  0.13039713  0.49305260  0.24666657  1
  O  O268  1  0.12771769  0.50146414  0.73163134  1
  O  O269  1  0.12708367  0.98536176  0.24694406  1
  O  O270  1  0.13240729  0.99946348  0.74570127  1
  O  O271  1  0.62341407  0.48834269  0.25819879  1
  O  O272  1  0.63230727  0.48829852  0.74734098  1
  O  O273  1  0.63450730  0.99525893  0.24545923  1
  O  O274  1  0.61780027  0.97961016  0.75826002  1
  O  O275  1  0.36934529  0.01425694  0.25190331  1
  O  O276  1  0.36929848  0.00528175  0.75775337  1
  O  O277  1  0.36776655  0.50584709  0.25623018  1
  O  O278  1  0.36521437  0.50341197  0.74958007  1
  O  O279  1  0.86381931  0.00410294  0.24263543  1
  O  O280  1  0.87036401  0.00534564  0.75304620  1
  O  O281  1  0.87814769  0.50466174  0.26278462  1
  O  O282  1  0.85978649  0.49382293  0.74911161  1
  O  O283  1  0.12080040  0.36283768  0.36991625  1
  O  O284  1  0.11443423  0.36108059  0.87562944  1
  O  O285  1  0.11597093  0.86780571  0.36576638  1
  O  O286  1  0.11923368  0.87621779  0.86828785  1
  O  O287  1  0.62538454  0.36876412  0.36827038  1
  O  O288  1  0.62478144  0.36931559  0.86610905  1
  O  O289  1  0.61640567  0.87013937  0.37083881  1
  O  O290  1  0.61802619  0.86347751  0.87033966  1
  O  O291  1  0.37350030  0.13506242  0.13061027  1
  O  O292  1  0.37398246  0.13675262  0.63683730  1
  O  O293  1  0.38042409  0.62262911  0.13912786  1
  O  O294  1  0.38411113  0.62820316  0.62392191  1
  O  O295  1  0.88065316  0.13137757  0.13092733  1
  O  O296  1  0.87250864  0.13521614  0.63744810  1
  O  O297  1  0.87573399  0.63184623  0.13031573  1
  O  O298  1  0.88528925  0.61645942  0.63390238  1
  O  O299  1  0.25707429  0.25205498  0.11713269  1
  O  O300  1  0.25340842  0.25742995  0.61983025  1
  O  O301  1  0.24981308  0.74210446  0.11325767  1
  O  O302  1  0.25000356  0.75719552  0.61536317  1
  O  O303  1  0.76061838  0.26292948  0.13166615  1
  O  O304  1  0.76059132  0.25616277  0.61939807  1
  O  O305  1  0.76031220  0.75330206  0.12125534  1
  O  O306  1  0.74489779  0.75294092  0.60950310  1
  O  O307  1  0.24249743  0.25459358  0.38337499  1
  O  O308  1  0.23523993  0.25388035  0.88216060  1
  O  O309  1  0.24612455  0.74311858  0.37698562  1
  O  O310  1  0.24592638  0.74058090  0.88584886  1
  O  O311  1  0.74823561  0.24444247  0.38202973  1
  O  O312  1  0.75073920  0.23512224  0.87175859  1
  O  O313  1  0.74228970  0.74389671  0.38418439  1
  O  O314  1  0.74027993  0.74785353  0.88215964  1
  O  O315  1  0.00399184  0.11892948  0.00450602  1
  O  O316  1  0.01269721  0.11540624  0.50124581  1
  O  O317  1  0.01041918  0.61142435  0.00035549  1
  O  O318  1  0.00483692  0.60904147  0.48813471  1
  O  O319  1  0.48930515  0.11009983  -0.00309975  1
  O  O320  1  0.51873931  0.13602315  0.50080217  1
  O  O321  1  0.50537078  0.62654452  0.01173624  1
  O  O322  1  0.50478636  0.62039372  0.50484481  1
  O  O323  1  0.50911596  0.38726051  0.50116011  1
  O  O324  1  0.48567198  0.38335234  1.00064962  1
  O  O325  1  0.48974089  0.86993647  0.48937550  1
  O  O326  1  0.49019214  0.88262495  0.99674705  1
  O  O327  1  0.99801552  0.38148671  0.48949909  1
  O  O328  1  1.00324415  0.38380617  0.99977249  1
  O  O329  1  0.99809235  0.89125287  0.49181022  1
  O  O330  1  0.99435663  0.88330158  0.99735200  1
  O  O331  1  0.49037243  0.49824664  0.38379759  1
  O  O332  1  0.49424988  0.49733934  0.87892467  1
  O  O333  1  0.50505113  0.98969382  0.36749227  1
  O  O334  1  0.48855986  0.99517820  0.88285022  1
  O  O335  1  0.99765942  0.49303899  0.38149679  1
  O  O336  1  1.00680909  0.48452640  0.88116673  1
  O  O337  1  1.00548662  0.99538442  0.38938168  1
  O  O338  1  1.00348390  0.99045885  0.88946314  1
  O  O339  1  -0.00214494  0.01141815  0.11572018  1
  O  O340  1  0.00906630  0.00362679  0.61232900  1
  O  O341  1  0.00671126  0.49860479  0.11944509  1
  O  O342  1  0.01415312  0.49378214  0.61009170  1
  O  O343  1  0.50903002  -0.00118224  0.11820825  1
  O  O344  1  0.50772502  0.00565500  0.62697937  1
  O  O345  1  0.49552798  0.51365835  0.12634867  1
  O  O346  1  0.49992182  0.50648757  0.61815205  1
  O  O347  1  0.24479253  0.37763073  0.24528393  1
  O  O348  1  0.24932362  0.37254846  0.73369361  1
  O  O349  1  0.23928303  0.88173325  0.25045973  1
  O  O350  1  0.24626537  0.88637337  0.74736356  1
  O  O351  1  0.74167349  0.37811199  0.24425724  1
  O  O352  1  0.74520934  0.38142636  0.74368508  1
  O  O353  1  0.74437368  0.88226562  0.25152767  1
  O  O354  1  0.73346641  0.86367828  0.75144804  1
  O  O355  1  0.26577187  0.12461459  0.25344196  1
  O  O356  1  0.25805363  0.11222287  0.74744846  1
  O  O357  1  0.25542553  0.61990846  0.25635291  1
  O  O358  1  0.24822087  0.62760156  0.76187018  1
  O  O359  1  0.75562016  0.11780729  0.25901614  1
  O  O360  1  0.76487739  0.12598855  0.75713275  1
  O  O361  1  0.75505348  0.62309884  0.25698476  1
  O  O362  1  0.73793354  0.60971939  0.74734681  1
  O  O363  1  0.37591864  0.12990419  0.36639094  1
  O  O364  1  0.37560599  0.11794007  0.86196021  1
  O  O365  1  0.36711835  0.61549026  0.36459773  1
  O  O366  1  0.36322193  0.62278507  0.87732453  1
  O  O367  1  0.86493548  0.13038252  0.36892594  1
  O  O368  1  0.86850124  0.12419644  0.86603076  1
  O  O369  1  0.86977432  0.61794778  0.36875672  1
  O  O370  1  0.87156557  0.61851271  0.87775478  1
  O  O371  1  0.13090521  0.37493915  0.13135223  1
  O  O372  1  0.13436701  0.37629905  0.62111950  1
  O  O373  1  0.12077099  0.86728749  0.13853240  1
  O  O374  1  0.13292415  0.89014273  0.63508274  1
  O  O375  1  0.64001682  0.37726998  0.13532288  1
  O  O376  1  0.63886037  0.37588228  0.62978932  1
  O  O377  1  0.62567910  0.88428278  0.13435758  1
  O  O378  1  0.61949591  0.86816924  0.64381729  1
  O  O379  1  0.12237208  0.24929706  0.25644348  1
  O  O380  1  0.12846230  0.24060151  0.76229758  1
  O  O381  1  0.12124701  0.75939365  0.25712712  1
  O  O382  1  0.13228344  0.76700753  0.75180425  1
  O  O383  1  0.61915671  0.25569192  0.25465796  1
  O  O384  1  0.61883946  0.26036098  0.74279931  1
  O  O385  1  0.61918859  0.75736266  0.25593792  1
  O  O386  1  0.61337197  0.75277706  0.75935228  1
  O  O387  1  0.38181577  0.24123309  0.24381421  1
  O  O388  1  0.38068889  0.24345352  0.74561109  1
  O  O389  1  0.38211728  0.74143752  0.25679084  1
  O  O390  1  0.38522859  0.74837601  0.75173341  1
  O  O391  1  0.88241330  0.24188852  0.24232131  1
  O  O392  1  0.87599357  0.25287569  0.73896025  1
  O  O393  1  0.87957045  0.74652253  0.24211760  1
  O  O394  1  0.87969287  0.74621253  0.74299140  1
  O  O395  1  0.38413659  0.50393433  0.49122353  1
  O  O396  1  0.36803460  0.48608779  1.00338756  1
  O  O397  1  0.36801925  0.99188474  0.50194713  1
  O  O398  1  0.37530360  0.99419579  0.99569850  1
  O  O399  1  0.88601888  0.49961396  0.48930109  1
  O  O400  1  0.88739658  0.49360064  0.99782590  1
  O  O401  1  0.88760452  1.01604145  0.50089903  1
  O  O402  1  0.88424875  0.98914424  1.00634481  1
  O  O403  1  0.12045300  0.01353197  -0.00394016  1
  O  O404  1  0.12709573  0.00611575  0.50711457  1
  O  O405  1  0.12215745  0.50359948  0.00698012  1
  O  O406  1  0.11557150  0.49508060  0.50372994  1
  O  O407  1  0.61284039  -0.00680808  0.01041395  1
  O  O408  1  0.62525891  0.01812764  0.49250462  1
  O  O409  1  0.62444070  0.51380997  -0.00385668  1
  O  O410  1  0.61808272  0.51241975  0.50024184  1
  O  O411  1  0.36888918  0.36293081  0.12012052  1
  O  O412  1  0.36463764  0.36232820  0.62729342  1
  O  O413  1  0.37810464  0.88065912  0.11685971  1
  O  O414  1  0.36919824  0.87324749  0.61689079  1
  O  O415  1  0.86523753  0.36572433  0.12606748  1
  O  O416  1  0.86776487  0.36611573  0.62315549  1
  O  O417  1  0.87458949  0.86630033  0.11475443  1
  O  O418  1  0.87719290  0.88238575  0.61951547  1
  O  O419  1  0.12213130  0.13554797  0.38161034  1
  O  O420  1  0.11571819  0.13884975  0.88347272  1
  O  O421  1  0.13713209  0.63471706  0.36648636  1
  O  O422  1  0.13265164  0.62334932  0.88755304  1
  O  O423  1  0.63692399  0.13314142  0.38200684  1
  O  O424  1  0.63634711  0.13176281  0.87167757  1
  O  O425  1  0.62834284  0.63041679  0.38206134  1
  O  O426  1  0.62459202  0.63595497  0.88349762  1
