# generated using pymatgen
data_V85Zn86O256
_symmetry_space_group_name_H-M   'P 1'
_cell_length_a   16.96612696
_cell_length_b   16.98689277
_cell_length_c   16.97891453
_cell_angle_alpha   90.01029642
_cell_angle_beta   89.97497034
_cell_angle_gamma   89.83934152
_symmetry_Int_Tables_number   1
_chemical_formula_structural   V85Zn86O256
_chemical_formula_sum   'V85 Zn86 O256'
_cell_volume   4893.33359574
_cell_formula_units_Z   1
loop_
 _symmetry_equiv_pos_site_id
 _symmetry_equiv_pos_as_xyz
  1  'x, y, z'
loop_
 _atom_site_type_symbol
 _atom_site_label
 _atom_site_symmetry_multiplicity
 _atom_site_fract_x
 _atom_site_fract_y
 _atom_site_fract_z
 _atom_site_occupancy
  V  V0  1  -0.00147861  0.50928617  0.50274870  1
  V  V1  1  0.49394610  0.00435347  0.00591106  1
  V  V2  1  0.37151874  0.87169858  -0.00054227  1
  V  V3  1  0.25431523  0.37032904  0.62623367  1
  V  V4  1  0.25351184  0.87844236  0.63445056  1
  V  V5  1  0.37516865  -0.00138463  0.37463006  1
  V  V6  1  0.37771674  0.87475347  0.50239876  1
  V  V7  1  -0.00358043  0.38207488  0.37578544  1
  V  V8  1  0.87383555  0.37441620  0.49836615  1
  V  V9  1  0.25259184  0.74847366  0.00353270  1
  V  V10  1  0.00355075  0.12735222  0.62647286  1
  V  V11  1  0.62869916  0.62776235  -0.00717754  1
  V  V12  1  0.50158281  0.62451822  0.12142156  1
  V  V13  1  0.13187269  0.00127425  0.63295576  1
  V  V14  1  -0.00385793  0.62691025  0.12711375  1
  V  V15  1  0.50501802  0.62289286  0.62556581  1
  V  V16  1  0.74015202  -0.00301391  0.75450431  1
  V  V17  1  0.50655611  0.49396314  0.00118497  1
  V  V18  1  0.25019288  0.36777446  0.12328358  1
  V  V19  1  0.63337710  0.37418834  0.23416894  1
  V  V20  1  0.37313936  0.14209119  0.74510508  1
  V  V21  1  0.50573169  0.87212095  0.36948196  1
  V  V22  1  0.25145150  0.12414001  0.37500095  1
  V  V23  1  0.50099858  0.24455428  0.23976251  1
  V  V24  1  0.50157069  0.37054669  0.36965992  1
  V  V25  1  0.12540264  0.25378319  0.37691484  1
  V  V26  1  0.87030783  0.62586462  0.26005625  1
  V  V27  1  -0.00084692  0.37559164  0.87671341  1
  V  V28  1  0.25373296  0.50071082  0.74915288  1
  V  V29  1  -0.00284240  0.24784225  0.24292292  1
  V  V30  1  0.25178393  0.49997132  0.24816352  1
  V  V31  1  0.12656008  0.75415944  0.36877480  1
  V  V32  1  -0.00256517  0.50168105  -0.00021226  1
  V  V33  1  0.87779375  0.87824594  0.50834137  1
  V  V34  1  0.74165829  0.25235541  -0.00021209  1
  V  V35  1  0.75003334  0.50159497  0.24258947  1
  V  V36  1  0.50791248  0.75434856  0.24352898  1
  V  V37  1  0.12843655  0.12684541  0.50302212  1
  V  V38  1  0.74571311  0.87436985  0.62974658  1
  V  V39  1  0.12506242  0.75175890  0.87366400  1
  V  V40  1  0.87376272  0.50703974  0.87142237  1
  V  V41  1  0.00443810  0.87502206  0.38160644  1
  V  V42  1  0.00042647  0.25062147  0.75190460  1
  V  V43  1  0.51519223  0.75135177  0.75446957  1
  V  V44  1  0.25292274  0.62582756  0.37654593  1
  V  V45  1  0.61966201  0.36258903  0.75861894  1
  V  V46  1  0.25071665  0.86919451  0.13017872  1
  V  V47  1  0.25194773  0.74859551  0.50218845  1
  V  V48  1  -0.00036491  0.74014193  0.74679594  1
  V  V49  1  0.74937392  0.50153390  0.75098290  1
  V  V50  1  0.37804289  0.36961534  0.50314748  1
  V  V51  1  0.85946183  0.74959862  0.12114640  1
  V  V52  1  0.37077604  0.37018260  -0.00130106  1
  V  V53  1  0.37697056  0.50038394  0.37189682  1
  V  V54  1  0.86115826  0.11914823  0.25571913  1
  V  V55  1  0.25366785  0.25057922  0.50166780  1
  V  V56  1  0.12445136  0.62400094  0.00155083  1
  V  V57  1  0.62767025  0.23904800  0.37390834  1
  V  V58  1  0.12951262  0.24791984  0.88605074  1
  V  V59  1  0.12336278  0.11719294  0.01358126  1
  V  V60  1  0.50234808  0.13997864  0.62659607  1
  V  V61  1  0.37620417  0.12340780  0.23977614  1
  V  V62  1  0.37870945  0.74802449  0.62686175  1
  V  V63  1  0.00068075  0.88124937  0.87456540  1
  V  V64  1  0.74792137  0.37097018  0.62616580  1
  V  V65  1  0.12196442  0.50656037  0.62479093  1
  V  V66  1  0.61738621  0.12793268  -0.00253116  1
  V  V67  1  0.74894935  0.23926529  0.49585051  1
  V  V68  1  0.86795015  0.87815224  0.00060526  1
  V  V69  1  0.50605793  0.49869075  0.49946351  1
  V  V70  1  -0.00033337  0.00389339  0.49918325  1
  V  V71  1  0.24796552  -0.00427960  0.24560772  1
  V  V72  1  0.87606721  0.12248854  0.75426693  1
  V  V73  1  0.51358471  0.87340056  0.87463681  1
  V  V74  1  0.12414920  0.37930932  0.25109514  1
  V  V75  1  0.37201484  -0.00364758  0.86416384  1
  V  V76  1  0.24847240  0.12000444  0.87500088  1
  V  V77  1  0.50488082  0.00300705  0.50509495  1
  V  V78  1  0.86991404  0.37419279  0.00808210  1
  V  V79  1  0.25264516  0.62416088  0.87628533  1
  V  V80  1  0.37581239  0.63303713  0.24348124  1
  V  V81  1  0.06748358  0.93331701  0.19404079  1
  V  V82  1  0.87559118  0.74188618  0.62935879  1
  V  V83  1  0.12594799  0.37327888  0.75132570  1
  V  V84  1  0.63749822  -0.00967847  0.12132443  1
  Zn  Zn85  1  0.11980930  0.62988741  0.50252654  1
  Zn  Zn86  1  0.12781620  0.87834926  0.75230728  1
  Zn  Zn87  1  -0.00075230  0.00239235  0.01530904  1
  Zn  Zn88  1  0.38000777  0.62465510  0.75285194  1
  Zn  Zn89  1  0.64804977  0.73476113  0.36431453  1
  Zn  Zn90  1  0.74751864  0.63337978  0.86396463  1
  Zn  Zn91  1  0.87640997  0.00420778  0.88067110  1
  Zn  Zn92  1  0.00129187  0.75078119  0.25035138  1
  Zn  Zn93  1  0.62353937  0.49619531  0.62733707  1
  Zn  Zn94  1  0.73819333  0.76291828  -0.01108887  1
  Zn  Zn95  1  0.65116764  0.62573387  0.49524391  1
  Zn  Zn96  1  0.82208545  0.54269725  0.41279479  1
  Zn  Zn97  1  0.68464606  0.06877220  0.44083989  1
  Zn  Zn98  1  0.37206583  0.24328435  0.11970060  1
  Zn  Zn99  1  0.37746499  0.49783038  0.87573071  1
  Zn  Zn100  1  0.87701245  0.25015897  0.62582411  1
  Zn  Zn101  1  0.49678314  0.36330379  0.87228126  1
  Zn  Zn102  1  0.74461917  0.13114412  0.87285780  1
  Zn  Zn103  1  0.62177182  0.00136272  0.62860791  1
  Zn  Zn104  1  0.12397143  0.50112222  0.12527689  1
  Zn  Zn105  1  0.73218033  -0.00580966  0.26764433  1
  Zn  Zn106  1  0.87201413  0.24764625  0.12452956  1
  Zn  Zn107  1  0.18531591  0.18879979  0.19229690  1
  Zn  Zn108  1  0.19164746  0.18832344  0.69311733  1
  Zn  Zn109  1  0.18651455  0.68668968  0.18705710  1
  Zn  Zn110  1  0.18761146  0.68827927  0.68933886  1
  Zn  Zn111  1  0.68870622  0.17958241  0.17798556  1
  Zn  Zn112  1  0.69021106  0.18455159  0.68267330  1
  Zn  Zn113  1  0.68375630  0.67960676  0.18026332  1
  Zn  Zn114  1  0.68920074  0.68551624  0.68228666  1
  Zn  Zn115  1  0.31461465  0.31080840  0.31079141  1
  Zn  Zn116  1  0.31050781  0.31077964  0.81914648  1
  Zn  Zn117  1  0.31838451  0.81094852  0.31412344  1
  Zn  Zn118  1  0.31642923  0.80828001  0.81234267  1
  Zn  Zn119  1  0.81170502  0.31258733  0.31450421  1
  Zn  Zn120  1  0.81292966  0.31372913  0.81732622  1
  Zn  Zn121  1  0.82424381  0.82236721  0.30433606  1
  Zn  Zn122  1  0.81370158  0.81320193  0.81463036  1
  Zn  Zn123  1  0.18730256  0.43991787  0.43857430  1
  Zn  Zn124  1  0.18755389  0.43827359  0.93877066  1
  Zn  Zn125  1  0.18911144  0.93735554  0.44256402  1
  Zn  Zn126  1  0.18609290  0.94045319  0.94000552  1
  Zn  Zn127  1  0.68382972  0.42842420  0.43235396  1
  Zn  Zn128  1  0.68814579  0.43701118  0.93703328  1
  Zn  Zn129  1  0.71212710  0.88656747  0.41709607  1
  Zn  Zn130  1  0.68704840  0.94734696  0.93696846  1
  Zn  Zn131  1  0.30314066  0.05761834  0.05934686  1
  Zn  Zn132  1  0.31761222  0.06200062  0.56543502  1
  Zn  Zn133  1  0.31678337  0.55663315  0.06291801  1
  Zn  Zn134  1  0.31871097  0.56144946  0.56178940  1
  Zn  Zn135  1  0.81520540  0.07326088  0.06572035  1
  Zn  Zn136  1  0.81805715  0.05964004  0.57189855  1
  Zn  Zn137  1  0.81023305  0.55869061  0.06623721  1
  Zn  Zn138  1  0.81805151  0.55966519  0.57813506  1
  Zn  Zn139  1  0.43882945  0.43670882  0.18290753  1
  Zn  Zn140  1  0.43815152  0.43423654  0.68730234  1
  Zn  Zn141  1  0.43358140  0.93429306  0.18349101  1
  Zn  Zn142  1  0.44303661  0.93739467  0.69200475  1
  Zn  Zn143  1  0.93380527  0.44262271  0.18945317  1
  Zn  Zn144  1  0.93660434  0.43746416  0.68689914  1
  Zn  Zn145  1  0.88598671  0.93995875  0.18884830  1
  Zn  Zn146  1  0.94089025  0.93776774  0.69106945  1
  Zn  Zn147  1  0.05766483  0.06870854  0.31918334  1
  Zn  Zn148  1  0.06332637  0.06336336  0.81458780  1
  Zn  Zn149  1  0.06235260  0.56684980  0.31626906  1
  Zn  Zn150  1  0.06555010  0.56186771  0.81403998  1
  Zn  Zn151  1  0.55795356  0.05752516  0.30381249  1
  Zn  Zn152  1  0.56122475  0.18413367  0.81537266  1
  Zn  Zn153  1  0.56576646  0.55710454  0.30586725  1
  Zn  Zn154  1  0.56344470  0.55446321  0.81383910  1
  Zn  Zn155  1  0.43966239  0.18487203  0.43506009  1
  Zn  Zn156  1  0.43102590  0.18671475  0.93860504  1
  Zn  Zn157  1  0.50911809  0.68477878  0.43387717  1
  Zn  Zn158  1  0.43817547  0.68832266  0.93775753  1
  Zn  Zn159  1  0.93807555  0.19209683  0.43479434  1
  Zn  Zn160  1  0.94012878  0.18833987  0.94098471  1
  Zn  Zn161  1  0.81755773  0.70877045  0.44687895  1
  Zn  Zn162  1  0.93334320  0.69161062  0.93502714  1
  Zn  Zn163  1  0.06452730  0.31581041  0.06257784  1
  Zn  Zn164  1  0.06403884  0.31684357  0.56403480  1
  Zn  Zn165  1  0.05581855  0.80788878  0.05651735  1
  Zn  Zn166  1  0.06542482  0.81163586  0.56437637  1
  Zn  Zn167  1  0.55848606  0.30835230  0.05851580  1
  Zn  Zn168  1  0.56823443  0.31060744  0.56042366  1
  Zn  Zn169  1  0.55833154  0.81035682  0.06215734  1
  Zn  Zn170  1  0.56752242  0.81076007  0.55877549  1
  O  O171  1  0.13076981  0.13050845  0.11150472  1
  O  O172  1  0.12476673  0.12085257  0.62182863  1
  O  O173  1  0.11702848  0.62253118  0.11917594  1
  O  O174  1  0.13316042  0.61021281  0.62341157  1
  O  O175  1  0.62474469  0.11393690  0.10652682  1
  O  O176  1  0.60626986  0.12371514  0.63081659  1
  O  O177  1  0.60939940  0.62095122  0.11261525  1
  O  O178  1  0.61570998  0.61984757  0.61632214  1
  O  O179  1  0.38643782  0.37784744  0.37735118  1
  O  O180  1  0.37251893  0.37838613  0.88444504  1
  O  O181  1  0.37911436  0.88204883  0.38345230  1
  O  O182  1  0.36729923  0.88207852  0.88491800  1
  O  O183  1  0.88267583  0.37145190  0.38826382  1
  O  O184  1  0.88207028  0.38375426  0.88510033  1
  O  O185  1  0.89670488  0.86888472  0.39249482  1
  O  O186  1  0.88625157  0.87846058  0.88301832  1
  O  O187  1  0.25307847  0.00177178  0.36531030  1
  O  O188  1  0.25611376  0.01071472  0.87787939  1
  O  O189  1  0.25486004  0.50270909  0.36518941  1
  O  O190  1  0.24902197  0.50737724  0.86596834  1
  O  O191  1  0.73276221  -0.01042735  0.38109536  1
  O  O192  1  0.75546937  0.00563912  0.86393325  1
  O  O193  1  0.74642836  0.48446115  0.35584436  1
  O  O194  1  0.75756379  0.50071515  0.86717541  1
  O  O195  1  0.24945866  0.49335376  0.13734451  1
  O  O196  1  0.24691819  0.49155059  0.63107121  1
  O  O197  1  0.24800766  0.98801887  0.13786698  1
  O  O198  1  0.24450688  0.98983104  0.61899726  1
  O  O199  1  0.75254341  0.49385514  0.14114000  1
  O  O200  1  0.74934209  0.48541757  0.63240829  1
  O  O201  1  0.73763718  1.00142207  0.11619285  1
  O  O202  1  0.74829495  0.99416769  0.63702606  1
  O  O203  1  0.00336596  0.37435465  0.25867620  1
  O  O204  1  0.00674196  0.37061599  0.75623010  1
  O  O205  1  0.00597081  0.87883832  0.25902687  1
  O  O206  1  0.00585767  0.86839059  0.75992175  1
  O  O207  1  0.50581205  0.36757118  0.25461891  1
  O  O208  1  0.51636041  0.37711677  0.74892446  1
  O  O209  1  0.48923156  0.86492462  0.25499857  1
  O  O210  1  0.49801016  0.86748367  0.76619629  1
  O  O211  1  0.48682614  0.13177122  0.25179070  1
  O  O212  1  0.48648526  0.12947604  0.73784192  1
  O  O213  1  0.49351158  0.62721912  0.23932538  1
  O  O214  1  0.50139196  0.62787721  0.74293530  1
  O  O215  1  1.00557878  0.14771545  0.25534216  1
  O  O216  1  0.99658935  0.13164420  0.74636176  1
  O  O217  1  0.99017376  0.62318496  0.24336921  1
  O  O218  1  1.00547632  0.64129821  0.75640828  1
  O  O219  1  0.37496043  0.26453405  0.00470222  1
  O  O220  1  0.37016828  0.26305322  0.49059306  1
  O  O221  1  0.36344231  0.75833117  -0.00607814  1
  O  O222  1  0.37230473  0.75801862  0.51649551  1
  O  O223  1  0.87075310  0.25817839  0.00300327  1
  O  O224  1  0.86794498  0.25702303  0.50278500  1
  O  O225  1  0.87412579  0.75784185  0.00679224  1
  O  O226  1  0.88593301  0.76206323  0.52187500  1
  O  O227  1  0.13238916  0.24700613  0.49666857  1
  O  O228  1  0.12039219  0.24355522  0.98974460  1
  O  O229  1  0.13444239  0.74766648  0.49497421  1
  O  O230  1  0.13141356  0.74286156  0.99242375  1
  O  O231  1  0.63595371  0.25335699  0.48748159  1
  O  O232  1  0.63305143  0.24456732  1.00191329  1
  O  O233  1  0.60547437  0.73540341  0.48609943  1
  O  O234  1  0.62299593  0.73206768  1.00298208  1
  O  O235  1  0.49469360  0.25098386  0.13687044  1
  O  O236  1  0.49849975  0.23834419  0.61650003  1
  O  O237  1  0.49780344  0.74059272  0.13190025  1
  O  O238  1  0.49566859  0.74277003  0.63139408  1
  O  O239  1  1.00238611  0.25915153  0.14117130  1
  O  O240  1  1.00360693  0.24503948  0.63350689  1
  O  O241  1  0.99815316  0.73590134  0.12733431  1
  O  O242  1  0.99602270  0.75531331  0.63983101  1
  O  O243  1  0.00753131  0.26504155  0.36984675  1
  O  O244  1  0.00824684  0.25653026  0.86975876  1
  O  O245  1  0.01468490  0.76207345  0.37121515  1
  O  O246  1  0.00474410  0.75781612  0.86636991  1
  O  O247  1  0.50455688  0.25415143  0.36471479  1
  O  O248  1  0.49488991  0.25086157  0.87481875  1
  O  O249  1  0.48161035  0.76104744  0.35683029  1
  O  O250  1  0.49318724  0.76287300  0.86785748  1
  O  O251  1  0.25005296  0.13183713  0.49607842  1
  O  O252  1  0.23561284  0.12198637  0.99025193  1
  O  O253  1  0.25459021  0.63179433  0.49405235  1
  O  O254  1  0.24664512  0.62664364  0.99543063  1
  O  O255  1  0.75325529  0.13459550  0.50818279  1
  O  O256  1  0.74383555  0.13622266  0.99561485  1
  O  O257  1  0.76563343  0.61533417  0.49157434  1
  O  O258  1  0.73183204  0.61582606  1.00180367  1
  O  O259  1  0.25686081  0.38374293  0.01220020  1
  O  O260  1  0.25812189  0.37235309  0.50680642  1
  O  O261  1  0.25167301  0.87021019  0.00828066  1
  O  O262  1  0.25896952  0.86778587  0.50997449  1
  O  O263  1  0.75666058  0.36526879  -0.00395146  1
  O  O264  1  0.75635028  0.36898572  0.50680438  1
  O  O265  1  0.76386378  0.87907514  -0.00786556  1
  O  O266  1  0.77083673  0.88130419  0.51693230  1
  O  O267  1  0.13401926  0.49645360  0.25109358  1
  O  O268  1  0.13494556  0.49444180  0.74513396  1
  O  O269  1  0.12606916  0.99958985  0.24978562  1
  O  O270  1  0.12336687  1.00043736  0.73649567  1
  O  O271  1  0.63023824  0.48176057  0.24887615  1
  O  O272  1  0.63355701  0.48586740  0.74836812  1
  O  O273  1  0.62006094  1.00211914  0.22636155  1
  O  O274  1  0.64218815  1.00134019  0.75006151  1
  O  O275  1  0.36638453  0.00553679  0.25333517  1
  O  O276  1  0.37898035  0.00420942  0.76286738  1
  O  O277  1  0.36872589  0.50288741  0.25278003  1
  O  O278  1  0.36361243  0.50017764  0.75095285  1
  O  O279  1  0.89576085  0.02521324  0.26353978  1
  O  O280  1  0.87278525  0.01069918  0.75168444  1
  O  O281  1  0.86467645  0.51092866  0.25076785  1
  O  O282  1  0.86432745  0.48964424  0.75944549  1
  O  O283  1  0.11967660  0.37214693  0.37093002  1
  O  O284  1  0.12260170  0.36685664  0.87162542  1
  O  O285  1  0.11788864  0.86743291  0.38517933  1
  O  O286  1  0.12039726  0.86931944  0.87506762  1
  O  O287  1  0.61188391  0.36262791  0.36653816  1
  O  O288  1  0.62470483  0.37477830  0.86043471  1
  O  O289  1  0.60585487  0.86248283  0.37554717  1
  O  O290  1  0.61125706  0.87634713  0.88407643  1
  O  O291  1  0.36112216  0.12414826  0.13654341  1
  O  O292  1  0.37932070  0.12251947  0.64023152  1
  O  O293  1  0.38591285  0.61741895  0.13219168  1
  O  O294  1  0.38506138  0.63157825  0.62914917  1
  O  O295  1  0.87537374  0.13190097  0.14563936  1
  O  O296  1  0.88522119  0.12917025  0.63789735  1
  O  O297  1  0.87995547  0.63167950  0.12885634  1
  O  O298  1  0.87626452  0.64290999  0.62926194  1
  O  O299  1  0.25066565  0.26497147  0.13515294  1
  O  O300  1  0.24419580  0.26415652  0.62036284  1
  O  O301  1  0.24267856  0.76176146  0.12007018  1
  O  O302  1  0.25798312  0.75445922  0.62204834  1
  O  O303  1  0.75284792  0.24736314  0.10708253  1
  O  O304  1  0.75177625  0.25828174  0.61694989  1
  O  O305  1  0.75730854  0.74462254  0.11629821  1
  O  O306  1  0.76665902  0.75907091  0.63734387  1
  O  O307  1  0.24438577  0.24619441  0.37985312  1
  O  O308  1  0.23957776  0.23677203  0.87159436  1
  O  O309  1  0.24838344  0.74649076  0.38281459  1
  O  O310  1  0.24460612  0.74112817  0.87869854  1
  O  O311  1  0.73928677  0.25454737  0.38346484  1
  O  O312  1  0.75701592  0.24813354  0.89244702  1
  O  O313  1  0.75246960  0.77764120  0.38148080  1
  O  O314  1  0.75800664  0.74342071  0.87847015  1
  O  O315  1  0.01693534  0.12206767  -0.00339022  1
  O  O316  1  0.00577479  0.12227144  0.50468289  1
  O  O317  1  0.00302853  0.62100806  0.00583986  1
  O  O318  1  0.00123900  0.60778509  0.49619401  1
  O  O319  1  0.50184212  0.11382842  -0.00429802  1
  O  O320  1  0.48380877  0.11602409  0.51672225  1
  O  O321  1  0.50381029  0.61528058  0.00190281  1
  O  O322  1  0.48462898  0.60723717  0.51172509  1
  O  O323  1  0.49541241  0.37819231  0.49317075  1
  O  O324  1  0.49352886  0.38298503  1.00039020  1
  O  O325  1  0.49267931  0.88257649  0.49492430  1
  O  O326  1  0.48765722  0.87377490  0.99093224  1
  O  O327  1  0.99219844  0.37915770  0.49457473  1
  O  O328  1  0.99567999  0.38282310  0.99462708  1
  O  O329  1  0.99956552  0.88506917  0.50019571  1
  O  O330  1  0.99505933  0.87778330  0.98920641  1
  O  O331  1  0.49579123  0.48939849  0.38006621  1
  O  O332  1  0.49639079  0.49336085  0.88706792  1
  O  O333  1  0.49379703  0.99245755  0.37963466  1
  O  O334  1  0.48669013  0.98057625  0.88646002  1
  O  O335  1  1.00668217  0.48819028  0.38372806  1
  O  O336  1  0.99482579  0.49499702  0.87853749  1
  O  O337  1  1.01258499  0.99410451  0.39261853  1
  O  O338  1  1.00076475  0.98889375  0.87433282  1
  O  O339  1  0.00086854  -0.01697023  0.13801503  1
  O  O340  1  0.01114007  0.00736504  0.61829528  1
  O  O341  1  -0.00097272  0.51192394  0.11939736  1
  O  O342  1  0.01047373  0.49243717  0.61735378  1
  O  O343  1  0.49640004  -0.00732854  0.10788452  1
  O  O344  1  0.50003917  0.00408329  0.61904774  1
  O  O345  1  0.49619061  0.50533994  0.10881032  1
  O  O346  1  0.50063769  0.50525098  0.61815554  1
  O  O347  1  0.24600725  0.38303628  0.24701154  1
  O  O348  1  0.24679323  0.38071875  0.74427184  1
  O  O349  1  0.25685862  0.88110925  0.24241576  1
  O  O350  1  0.24941028  0.86878674  0.73768319  1
  O  O351  1  0.73745459  0.37353641  0.24745724  1
  O  O352  1  0.74274862  0.37638885  0.74345447  1
  O  O353  1  0.78950480  0.90121139  0.23626290  1
  O  O354  1  0.76019502  0.89068116  0.74490668  1
  O  O355  1  0.25199837  0.11622860  0.25667048  1
  O  O356  1  0.26329930  0.12486467  0.75674402  1
  O  O357  1  0.25666291  0.61736290  0.25187172  1
  O  O358  1  0.25127432  0.61704606  0.75830197  1
  O  O359  1  0.75542261  0.11406839  0.24954681  1
  O  O360  1  0.75882632  0.11619619  0.74942818  1
  O  O361  1  0.75419282  0.61407158  0.24642988  1
  O  O362  1  0.74304104  0.60611500  0.74624393  1
  O  O363  1  0.36865755  0.11764522  0.36580589  1
  O  O364  1  0.36699035  0.11843445  0.86575769  1
  O  O365  1  0.36802043  0.61366675  0.36092291  1
  O  O366  1  0.36326668  0.62227519  0.87423810  1
  O  O367  1  0.87486533  0.14800254  0.35335328  1
  O  O368  1  0.87860107  0.12560631  0.86333954  1
  O  O369  1  0.87262134  0.63567704  0.36250230  1
  O  O370  1  0.87485956  0.60958354  0.87907288  1
  O  O371  1  0.13231525  0.38061732  0.13189712  1
  O  O372  1  0.13414124  0.38477826  0.63138030  1
  O  O373  1  0.12389753  0.87276430  0.13154544  1
  O  O374  1  0.13617885  0.88409280  0.62478270  1
  O  O375  1  0.61979093  0.36896449  0.13722219  1
  O  O376  1  0.63333111  0.37382193  0.63317009  1
  O  O377  1  0.62274830  0.89134697  0.10967229  1
  O  O378  1  0.64243214  0.87472917  0.61888399  1
  O  O379  1  0.11695609  0.26025835  0.25668772  1
  O  O380  1  0.11949070  0.25545520  0.75889722  1
  O  O381  1  0.12663503  0.74631534  0.26484279  1
  O  O382  1  0.11680595  0.75307517  0.75499148  1
  O  O383  1  0.62007445  0.25429043  0.25243362  1
  O  O384  1  0.63028851  0.25821257  0.75023751  1
  O  O385  1  0.61229224  0.74265485  0.24928108  1
  O  O386  1  0.61392732  0.74638120  0.74479397  1
  O  O387  1  0.38246097  0.23990617  0.24936746  1
  O  O388  1  0.36956262  0.24043361  0.74885427  1
  O  O389  1  0.37627957  0.73558608  0.24642588  1
  O  O390  1  0.38316579  0.74765376  0.73901411  1
  O  O391  1  0.88783049  0.25710282  0.24608548  1
  O  O392  1  0.88429433  0.24623587  0.74978492  1
  O  O393  1  0.87909195  0.74164393  0.23746473  1
  O  O394  1  0.89140140  0.75677344  0.74179392  1
  O  O395  1  0.38182597  0.48618452  0.49274059  1
  O  O396  1  0.38483719  0.48894977  0.99824168  1
  O  O397  1  0.38085731  0.99294512  0.49471422  1
  O  O398  1  0.37689217  0.99418150  0.99224096  1
  O  O399  1  0.88192881  0.49171319  0.50189607  1
  O  O400  1  0.87874908  0.49403019  0.99397978  1
  O  O401  1  0.89037975  0.99425243  0.50971641  1
  O  O402  1  0.88132676  0.99521897  1.00288684  1
  O  O403  1  0.12060815  0.01203737  0.00400419  1
  O  O404  1  0.12293967  0.00932140  0.51119618  1
  O  O405  1  0.11552721  0.50682590  0.00036991  1
  O  O406  1  0.11836716  0.49906770  0.50964096  1
  O  O407  1  0.61321983  0.00741191  0.00358820  1
  O  O408  1  0.60781161  0.00497448  0.50439647  1
  O  O409  1  0.61168901  0.50363242  -0.00258581  1
  O  O410  1  0.61353343  0.49577720  0.50023392  1
  O  O411  1  0.36603759  0.37353133  0.11916932  1
  O  O412  1  0.36737486  0.37821230  0.61501684  1
  O  O413  1  0.36251505  0.87774617  0.10979215  1
  O  O414  1  0.37181976  0.86971393  0.62349277  1
  O  O415  1  0.88186955  0.37613440  0.11022143  1
  O  O416  1  0.86863396  0.37194775  0.61471216  1
  O  O417  1  0.88877326  0.85884060  0.10942945  1
  O  O418  1  0.87319291  0.87088957  0.62366497  1
  O  O419  1  0.13234967  0.13283149  0.38378737  1
  O  O420  1  0.13247095  0.13079999  0.87752207  1
  O  O421  1  0.13489443  0.63347008  0.37941490  1
  O  O422  1  0.13577186  0.62903665  0.88090888  1
  O  O423  1  0.61544715  0.13505762  0.37218799  1
  O  O424  1  0.62661190  0.12319710  0.88980880  1
  O  O425  1  0.60532448  0.62758230  0.38246617  1
  O  O426  1  0.62458650  0.61879115  0.88946787  1
