# generated using pymatgen
data_V85Zn86O256
_symmetry_space_group_name_H-M   'P 1'
_cell_length_a   16.93853990
_cell_length_b   16.93263703
_cell_length_c   16.93462359
_cell_angle_alpha   90.01544102
_cell_angle_beta   89.97423698
_cell_angle_gamma   89.93478738
_symmetry_Int_Tables_number   1
_chemical_formula_structural   V85Zn86O256
_chemical_formula_sum   'V85 Zn86 O256'
_cell_volume   4857.08581880
_cell_formula_units_Z   1
loop_
 _symmetry_equiv_pos_site_id
 _symmetry_equiv_pos_as_xyz
  1  'x, y, z'
loop_
 _atom_site_type_symbol
 _atom_site_label
 _atom_site_symmetry_multiplicity
 _atom_site_fract_x
 _atom_site_fract_y
 _atom_site_fract_z
 _atom_site_occupancy
  V  V0  1  0.75082668  0.62848503  0.88016567  1
  V  V1  1  0.49644797  0.00320847  0.01148744  1
  V  V2  1  0.62755800  0.50004016  0.12660165  1
  V  V3  1  0.37404726  0.86959753  0.50759800  1
  V  V4  1  0.62755590  0.49985813  0.62691705  1
  V  V5  1  0.24763348  0.89085366  0.62702150  1
  V  V6  1  0.12255360  0.87592289  0.25374273  1
  V  V7  1  0.49797994  0.87517364  0.87450246  1
  V  V8  1  0.87525432  0.61807082  0.25628347  1
  V  V9  1  0.25010966  0.74592485  0.51271219  1
  V  V10  1  0.50271562  0.36866981  0.87324078  1
  V  V11  1  0.49937977  0.87449700  0.37782074  1
  V  V12  1  0.50114660  0.00174529  0.50498009  1
  V  V13  1  0.37276603  0.74986252  0.12454884  1
  V  V14  1  0.62343097  0.37134783  0.25237536  1
  V  V15  1  0.37287049  0.87363787  -0.00127512  1
  V  V16  1  0.37402873  0.36601075  0.00014430  1
  V  V17  1  0.85261056  0.00339101  0.87030365  1
  V  V18  1  0.49981262  0.49871772  0.00140750  1
  V  V19  1  0.62670072  0.23972770  0.87036884  1
  V  V20  1  0.63704106  -0.00204541  0.13116249  1
  V  V21  1  0.88570977  0.87310741  0.50460757  1
  V  V22  1  0.38178578  0.13897502  0.74445148  1
  V  V23  1  0.01048689  0.62776053  0.61934401  1
  V  V24  1  0.86702475  0.75507103  0.12647723  1
  V  V25  1  -0.00131369  0.75573929  0.25457136  1
  V  V26  1  0.24444718  0.62520106  0.38259288  1
  V  V27  1  0.87574060  0.37258528  0.00036638  1
  V  V28  1  0.24561406  0.00039196  0.25635270  1
  V  V29  1  0.62891933  0.88079296  0.75098593  1
  V  V30  1  0.62703470  0.74943123  0.37735970  1
  V  V31  1  0.24468090  0.62442651  0.87742650  1
  V  V32  1  0.37319965  0.62631153  0.25135825  1
  V  V33  1  0.75343062  0.24985145  0.49882007  1
  V  V34  1  0.23872215  0.74917281  -0.00005646  1
  V  V35  1  0.12269475  0.37602156  0.25190294  1
  V  V36  1  0.19201362  0.19547903  0.04912629  1
  V  V37  1  0.25291563  0.26090788  0.49062982  1
  V  V38  1  0.37113287  0.00276325  0.86584009  1
  V  V39  1  0.50108209  0.24234588  0.24417751  1
  V  V40  1  0.12928165  0.25447971  0.84858301  1
  V  V41  1  -0.00784170  0.38081734  0.37053635  1
  V  V42  1  0.62560188  0.37070901  0.75001452  1
  V  V43  1  0.75538266  0.88277733  0.62828528  1
  V  V44  1  0.75408778  0.24431712  -0.00381402  1
  V  V45  1  0.49905338  0.75133220  0.25222453  1
  V  V46  1  0.49818694  0.62834963  0.62610911  1
  V  V47  1  0.87302376  0.63156035  0.73989298  1
  V  V48  1  0.86866729  0.87693839  0.00183031  1
  V  V49  1  0.88114900  -0.00754744  0.36947998  1
  V  V50  1  0.87654843  0.50408631  0.87178196  1
  V  V51  1  0.24965940  0.50240961  0.24988554  1
  V  V52  1  0.62291094  0.12495031  0.00487753  1
  V  V53  1  0.75322990  0.11770546  0.36848590  1
  V  V54  1  0.00214952  0.63459892  0.12035499  1
  V  V55  1  0.36899348  0.00669055  0.38030465  1
  V  V56  1  0.85732417  0.12269332  0.74629797  1
  V  V57  1  0.49850560  0.49128108  0.50048985  1
  V  V58  1  0.37235080  0.63015019  0.74725091  1
  V  V59  1  0.37826537  0.11995852  0.24381039  1
  V  V60  1  0.49933318  0.62447103  0.12563727  1
  V  V61  1  0.24401432  0.48885813  0.74671346  1
  V  V62  1  0.49690557  0.75287161  0.74610311  1
  V  V63  1  0.12438720  0.50755004  0.12111589  1
  V  V64  1  0.00507366  0.37399947  0.86498990  1
  V  V65  1  0.37852139  0.27596575  0.61282224  1
  V  V66  1  0.00279293  0.01293153  0.51283188  1
  V  V67  1  0.62670475  0.12378744  0.50024731  1
  V  V68  1  -0.00255917  0.88298551  0.87350330  1
  V  V69  1  0.37478951  0.49535545  0.37952129  1
  V  V70  1  0.00945856  0.50413252  0.49569421  1
  V  V71  1  0.75505854  0.75096230  0.50932772  1
  V  V72  1  0.12788926  0.88918526  0.74621519  1
  V  V73  1  0.24915114  0.37817300  0.11873441  1
  V  V74  1  0.87311642  0.38416724  0.49635435  1
  V  V75  1  0.75296234  0.36991597  0.12430063  1
  V  V76  1  0.88382013  0.24759848  0.62608557  1
  V  V77  1  0.62469125  0.62641926  0.50179994  1
  V  V78  1  0.12196018  0.75022218  0.38269455  1
  V  V79  1  0.63741562  0.87640010  0.24816520  1
  V  V80  1  0.24609713  0.12808198  0.86755011  1
  V  V81  1  0.00546050  0.50752849  -0.00294657  1
  V  V82  1  0.12047549  0.74931746  0.87140326  1
  V  V83  1  -0.00875549  0.24175495  0.24393138  1
  V  V84  1  0.37516117  0.49905727  0.87533123  1
  Zn  Zn85  1  0.13545968  0.49149747  0.61928805  1
  Zn  Zn86  1  0.62552081  0.62755309  0.00118392  1
  Zn  Zn87  1  0.12162126  0.02167778  0.12449365  1
  Zn  Zn88  1  0.62975251  0.00503652  0.63227166  1
  Zn  Zn89  1  0.13624441  0.12289708  0.50238569  1
  Zn  Zn90  1  0.03607168  0.15456965  0.67335422  1
  Zn  Zn91  1  0.87145266  0.11734560  0.23972631  1
  Zn  Zn92  1  0.75734211  0.61933830  0.38162532  1
  Zn  Zn93  1  0.74965655  0.50105252  0.75131727  1
  Zn  Zn94  1  0.24809296  0.87890272  0.12584398  1
  Zn  Zn95  1  0.62331178  0.24659179  0.37421376  1
  Zn  Zn96  1  0.49541088  0.36869159  0.37598088  1
  Zn  Zn97  1  -0.00323165  0.75529300  0.74190602  1
  Zn  Zn98  1  0.74341518  0.75280117  0.00690054  1
  Zn  Zn99  1  0.93516573  0.18597586  0.07104068  1
  Zn  Zn100  1  0.75728858  0.49294805  0.25752341  1
  Zn  Zn101  1  0.37731088  0.24207362  0.12129106  1
  Zn  Zn102  1  0.50366253  0.13286047  0.63022360  1
  Zn  Zn103  1  0.00428567  0.02466421  0.00357146  1
  Zn  Zn104  1  0.75540655  0.37529077  0.62827000  1
  Zn  Zn105  1  0.62282467  0.74877829  0.87865715  1
  Zn  Zn106  1  0.12410136  0.24136384  0.37629130  1
  Zn  Zn107  1  0.18901912  0.18524873  0.21804358  1
  Zn  Zn108  1  0.20576060  0.18417089  0.67450803  1
  Zn  Zn109  1  0.18478421  0.69149184  0.18917524  1
  Zn  Zn110  1  0.18456433  0.68709948  0.69125137  1
  Zn  Zn111  1  0.69075482  0.18494638  0.18293573  1
  Zn  Zn112  1  0.69044426  0.19036660  0.68332652  1
  Zn  Zn113  1  0.68846870  0.68615529  0.19110637  1
  Zn  Zn114  1  0.68640223  0.69206252  0.69114938  1
  Zn  Zn115  1  0.31491420  0.31226615  0.30828890  1
  Zn  Zn116  1  0.31425450  0.30783157  0.81193325  1
  Zn  Zn117  1  0.31025361  0.81490806  0.31964266  1
  Zn  Zn118  1  0.30944406  0.81314257  0.80995282  1
  Zn  Zn119  1  0.81187175  0.30970337  0.31445106  1
  Zn  Zn120  1  0.81344753  0.31266950  0.81242906  1
  Zn  Zn121  1  0.81399748  0.80962536  0.31925744  1
  Zn  Zn122  1  0.81124244  0.81133822  0.81324759  1
  Zn  Zn123  1  0.18886399  0.43137320  0.43818779  1
  Zn  Zn124  1  0.18554243  0.43448821  0.93300318  1
  Zn  Zn125  1  0.18329683  0.93554184  0.43971189  1
  Zn  Zn126  1  0.18811054  0.94104328  0.93390056  1
  Zn  Zn127  1  0.68834989  0.43847860  0.43579838  1
  Zn  Zn128  1  0.68881783  0.43821514  0.93721446  1
  Zn  Zn129  1  0.69179038  0.93678235  0.43962386  1
  Zn  Zn130  1  0.68217284  0.93354717  0.94190494  1
  Zn  Zn131  1  0.31045623  0.05459581  0.06605202  1
  Zn  Zn132  1  0.31089578  0.06976516  0.55984870  1
  Zn  Zn133  1  0.31314470  0.56276249  0.05903408  1
  Zn  Zn134  1  0.31429435  0.55997339  0.56505427  1
  Zn  Zn135  1  0.80912240  0.05867954  0.05697613  1
  Zn  Zn136  1  0.81646972  0.06097185  0.56046902  1
  Zn  Zn137  1  0.81553649  0.56254246  0.06424538  1
  Zn  Zn138  1  0.81320212  0.56087105  0.56233293  1
  Zn  Zn139  1  0.43733416  0.43493115  0.18912246  1
  Zn  Zn140  1  0.44220364  0.44365100  0.69436705  1
  Zn  Zn141  1  0.43755885  0.93418573  0.18988454  1
  Zn  Zn142  1  0.43625392  0.93928100  0.68520193  1
  Zn  Zn143  1  0.93937404  0.43835199  0.18205964  1
  Zn  Zn144  1  0.97545700  0.41513424  0.66330819  1
  Zn  Zn145  1  0.93645956  0.93760306  0.18670763  1
  Zn  Zn146  1  0.93599092  0.94099137  0.68835624  1
  Zn  Zn147  1  0.06162909  0.06270809  0.32359296  1
  Zn  Zn148  1  0.06258647  0.06237011  0.81646023  1
  Zn  Zn149  1  0.06146678  0.56516591  0.31220898  1
  Zn  Zn150  1  0.06163436  0.56548676  0.80840672  1
  Zn  Zn151  1  0.56145893  0.06096480  0.31500395  1
  Zn  Zn152  1  0.55825526  0.06016492  0.81681472  1
  Zn  Zn153  1  0.56535815  0.56136252  0.31337375  1
  Zn  Zn154  1  0.56302314  0.56210667  0.81361738  1
  Zn  Zn155  1  0.43697577  0.18906181  0.43716423  1
  Zn  Zn156  1  0.44028824  0.18550889  0.93582798  1
  Zn  Zn157  1  0.43484312  0.68462318  0.43999637  1
  Zn  Zn158  1  0.43661747  0.68747496  0.93555368  1
  Zn  Zn159  1  0.93869755  0.18854896  0.43140840  1
  Zn  Zn160  1  0.95561685  0.17156858  0.89046932  1
  Zn  Zn161  1  0.93840368  0.68976480  0.43990965  1
  Zn  Zn162  1  0.93729320  0.69398083  0.93831585  1
  Zn  Zn163  1  0.05861593  0.32149437  0.06214629  1
  Zn  Zn164  1  0.07218851  0.31352713  0.56011224  1
  Zn  Zn165  1  0.06107887  0.88063316  0.06356005  1
  Zn  Zn166  1  0.06426316  0.81275324  0.56486625  1
  Zn  Zn167  1  0.56264525  0.31016668  0.06397633  1
  Zn  Zn168  1  0.56343714  0.31004079  0.56421629  1
  Zn  Zn169  1  0.56204477  0.81390371  0.06421988  1
  Zn  Zn170  1  0.56508676  0.81493139  0.56706740  1
  O  O171  1  0.13917290  0.13950026  0.11809861  1
  O  O172  1  0.12751494  0.12827992  0.61866434  1
  O  O173  1  0.11115340  0.62322560  0.13020383  1
  O  O174  1  0.11244712  0.61638213  0.63047079  1
  O  O175  1  0.62632775  0.11015013  0.11915849  1
  O  O176  1  0.62358649  0.12408341  0.61458043  1
  O  O177  1  0.61909754  0.61611384  0.12746013  1
  O  O178  1  0.61974594  0.61827516  0.62401762  1
  O  O179  1  0.37689381  0.39202092  0.36535112  1
  O  O180  1  0.38332935  0.37617148  0.88116858  1
  O  O181  1  0.37974518  0.88294374  0.38770985  1
  O  O182  1  0.37582001  0.88324793  0.87996664  1
  O  O183  1  0.88193152  0.37313763  0.38124336  1
  O  O184  1  0.87572856  0.38492019  0.88587886  1
  O  O185  1  0.86873674  0.88628095  0.38665210  1
  O  O186  1  0.87903033  0.88532271  0.87371512  1
  O  O187  1  0.25997419  -0.00822159  0.37231085  1
  O  O188  1  0.26011327  0.01410556  0.88223225  1
  O  O189  1  0.25471642  0.50668066  0.37248444  1
  O  O190  1  0.25511888  0.50763736  0.87073170  1
  O  O191  1  0.76490578  0.00764225  0.38516346  1
  O  O192  1  0.75493288  -0.00588140  0.87323641  1
  O  O193  1  0.73967164  0.50889800  0.36785904  1
  O  O194  1  0.75837173  0.51078827  0.87649770  1
  O  O195  1  0.24569313  0.49598504  0.12839245  1
  O  O196  1  0.25027452  0.50392612  0.64109301  1
  O  O197  1  0.24173003  0.99746373  0.13823733  1
  O  O198  1  0.25183607  0.98959139  0.61842422  1
  O  O199  1  0.74312891  0.48977737  0.12794426  1
  O  O200  1  0.73800519  0.49776844  0.62569550  1
  O  O201  1  0.73478091  0.99332755  0.12148532  1
  O  O202  1  0.74810353  0.98713215  0.61967935  1
  O  O203  1  0.00487404  0.37342382  0.25242023  1
  O  O204  1  -0.02328276  0.37871573  0.77042256  1
  O  O205  1  0.00555827  0.86230594  0.25153066  1
  O  O206  1  0.00905004  0.87496269  0.75362187  1
  O  O207  1  0.50828679  0.36716611  0.25080496  1
  O  O208  1  0.51359695  0.38075496  0.76137007  1
  O  O209  1  0.50536620  0.86811020  0.25911239  1
  O  O210  1  0.50197535  0.86872941  0.75297605  1
  O  O211  1  0.49215386  0.12943215  0.25325003  1
  O  O212  1  0.48621600  0.12440356  0.75257224  1
  O  O213  1  0.49398654  0.63118523  0.24575394  1
  O  O214  1  0.49303552  0.63221141  0.74842282  1
  O  O215  1  0.99940596  0.13936680  0.25214503  1
  O  O216  1  0.98116237  0.12887499  0.76826900  1
  O  O217  1  0.99152069  0.63351110  0.24453884  1
  O  O218  1  0.98953139  0.62501127  0.73734829  1
  O  O219  1  0.38070994  0.26165654  0.00197770  1
  O  O220  1  0.37237703  0.25766853  0.50499722  1
  O  O221  1  0.36786272  0.75739910  0.00213369  1
  O  O222  1  0.36516197  0.75965594  0.49521177  1
  O  O223  1  0.86609300  0.26016613  -0.00295312  1
  O  O224  1  0.86966338  0.25596117  0.50332972  1
  O  O225  1  0.87074185  0.75637811  0.01044683  1
  O  O226  1  0.86577606  0.75975839  0.49455076  1
  O  O227  1  0.13933164  0.25434930  0.49509262  1
  O  O228  1  0.13168621  0.25697593  0.99695279  1
  O  O229  1  0.13334413  0.75574370  0.49017381  1
  O  O230  1  0.13774898  0.76163085  0.98747816  1
  O  O231  1  0.63336953  0.24203155  0.49790742  1
  O  O232  1  0.62831754  0.24160981  0.99528685  1
  O  O233  1  0.62980971  0.74696926  0.49471879  1
  O  O234  1  0.62544491  0.74727810  0.99864402  1
  O  O235  1  0.49682244  0.25266643  0.13837576  1
  O  O236  1  0.48400659  0.24757901  0.61656377  1
  O  O237  1  0.49237190  0.74496424  0.13190251  1
  O  O238  1  0.50323870  0.74566160  0.63801629  1
  O  O239  1  0.99949056  0.25873232  0.13899162  1
  O  O240  1  0.98657442  0.24716402  0.61787157  1
  O  O241  1  0.98926804  0.74401091  0.13592565  1
  O  O242  1  1.00279598  0.73347856  0.62336448  1
  O  O243  1  0.00111539  0.26373236  0.36376800  1
  O  O244  1  0.01837549  0.26376780  0.87478784  1
  O  O245  1  0.01126618  0.74307186  0.36860226  1
  O  O246  1  0.00704512  0.75940236  0.87066910  1
  O  O247  1  0.50216680  0.25111318  0.36281268  1
  O  O248  1  0.50996614  0.26193474  0.88014871  1
  O  O249  1  0.50561513  0.75472349  0.37323325  1
  O  O250  1  0.49828290  0.75693111  0.86477909  1
  O  O251  1  0.25570183  0.14986964  0.50563975  1
  O  O252  1  0.25332663  0.13189311  0.99507590  1
  O  O253  1  0.25622337  0.63200720  0.49348891  1
  O  O254  1  0.25580181  0.63329723  0.98606818  1
  O  O255  1  0.74536551  0.13042852  0.49420773  1
  O  O256  1  0.73494588  0.13281729  0.99977392  1
  O  O257  1  0.74399230  0.63325489  0.50257259  1
  O  O258  1  0.74909386  0.62605795  0.99397392  1
  O  O259  1  0.25770667  0.38189254  0.01033544  1
  O  O260  1  0.25093214  0.36369841  0.50402994  1
  O  O261  1  0.26081651  0.86765607  -0.00073755  1
  O  O262  1  0.25511689  0.86772315  0.50841784  1
  O  O263  1  0.75614199  0.37056718  0.00551478  1
  O  O264  1  0.75631990  0.36748909  0.49989733  1
  O  O265  1  0.76300836  0.87058716  -0.00731306  1
  O  O266  1  0.75815016  0.86875749  0.50902220  1
  O  O267  1  0.13054303  0.49611052  0.24283998  1
  O  O268  1  0.14262681  0.50414619  0.75468272  1
  O  O269  1  0.12899322  0.99328865  0.25193301  1
  O  O270  1  0.12511704  0.98777699  0.75460844  1
  O  O271  1  0.62222553  0.49126740  0.23856956  1
  O  O272  1  0.62603965  0.49385196  0.74227407  1
  O  O273  1  0.61944343  0.99311527  0.23885179  1
  O  O274  1  0.61574512  0.98581228  0.75058901  1
  O  O275  1  0.36950219  0.00154337  0.25858585  1
  O  O276  1  0.38052544  0.00612456  0.76302392  1
  O  O277  1  0.36884694  0.50751291  0.25493233  1
  O  O278  1  0.36862620  0.50907214  0.75828656  1
  O  O279  1  0.87797722  -0.00276551  0.26500441  1
  O  O280  1  0.87367515  0.00776328  0.76150862  1
  O  O281  1  0.87762631  0.51502954  0.24370917  1
  O  O282  1  0.87263039  0.51475861  0.76460393  1
  O  O283  1  0.11808023  0.37819704  0.36040988  1
  O  O284  1  0.11773755  0.36870146  0.86984274  1
  O  O285  1  0.13044437  0.86327415  0.36409339  1
  O  O286  1  0.11916294  0.87054462  0.86365929  1
  O  O287  1  0.62426735  0.37226918  0.36049325  1
  O  O288  1  0.62018636  0.36844002  0.87059784  1
  O  O289  1  0.62085555  0.86601671  0.37281444  1
  O  O290  1  0.61552980  0.87309973  0.86941922  1
  O  O291  1  0.37098319  0.12210591  0.13881779  1
  O  O292  1  0.37887308  0.12124567  0.64053914  1
  O  O293  1  0.37943465  0.62968924  0.13028689  1
  O  O294  1  0.38240073  0.62045879  0.63946477  1
  O  O295  1  0.86037992  0.12624665  0.12814150  1
  O  O296  1  0.87146952  0.12882893  0.63721177  1
  O  O297  1  0.88414314  0.63172006  0.13366719  1
  O  O298  1  0.87552046  0.62473288  0.63758931  1
  O  O299  1  0.24744548  0.25423291  0.11996111  1
  O  O300  1  0.27341173  0.25750815  0.61753502  1
  O  O301  1  0.25611600  0.74630006  0.11488429  1
  O  O302  1  0.24335574  0.75240337  0.61513592  1
  O  O303  1  0.74229320  0.26280338  0.11193215  1
  O  O304  1  0.75917669  0.25252898  0.61174035  1
  O  O305  1  0.76293622  0.74605764  0.12764466  1
  O  O306  1  0.74281663  0.75885771  0.61405371  1
  O  O307  1  0.25057517  0.25889179  0.38469365  1
  O  O308  1  0.24156117  0.24413499  0.87325317  1
  O  O309  1  0.24442630  0.74214320  0.38503878  1
  O  O310  1  0.24364687  0.74328877  0.87903668  1
  O  O311  1  0.74932301  0.24129356  0.38590529  1
  O  O312  1  0.73973302  0.25791373  0.88864037  1
  O  O313  1  0.74154028  0.74604016  0.38752223  1
  O  O314  1  0.74874884  0.73733716  0.87733184  1
  O  O315  1  -0.00607941  0.13526916  -0.00967222  1
  O  O316  1  -0.00426380  0.11462788  0.50010463  1
  O  O317  1  -0.00477868  0.62011259  0.00822045  1
  O  O318  1  -0.00458394  0.61917515  0.50937548  1
  O  O319  1  0.51050277  0.11623481  -0.00274469  1
  O  O320  1  0.50903170  0.11744150  0.49913192  1
  O  O321  1  0.49892779  0.61726392  0.00696164  1
  O  O322  1  0.50586665  0.62013139  0.50730202  1
  O  O323  1  0.50978120  0.38841039  0.49473801  1
  O  O324  1  0.49416934  0.37978348  0.99569511  1
  O  O325  1  0.49263773  0.87960946  0.49935188  1
  O  O326  1  0.48785182  0.87902239  0.99603383  1
  O  O327  1  0.99234805  0.38342894  0.48766814  1
  O  O328  1  0.99179140  0.38549229  0.99210952  1
  O  O329  1  0.98861137  0.87868394  0.50726600  1
  O  O330  1  0.98175099  0.86528395  0.98434207  1
  O  O331  1  0.49238731  0.50254264  0.38356925  1
  O  O332  1  0.49618228  0.49016732  0.88123932  1
  O  O333  1  0.49458476  0.99254253  0.38699881  1
  O  O334  1  0.49104126  0.99334300  0.88814401  1
  O  O335  1  1.00185109  0.49157256  0.37862701  1
  O  O336  1  0.99565005  0.49937223  0.88052949  1
  O  O337  1  0.98423907  0.99916110  0.38460206  1
  O  O338  1  0.99608624  0.98934152  0.87967790  1
  O  O339  1  0.01054548  -0.01708985  0.11614686  1
  O  O340  1  -0.00573882  0.00514942  0.61315181  1
  O  O341  1  0.00414907  0.50992839  0.11546668  1
  O  O342  1  -0.01058857  0.51787320  0.61035105  1
  O  O343  1  0.50171510  -0.00512364  0.11396554  1
  O  O344  1  0.50237593  0.00222840  0.61312822  1
  O  O345  1  0.50609159  0.50351059  0.12151227  1
  O  O346  1  0.50990317  0.50587408  0.61946947  1
  O  O347  1  0.24321029  0.37957672  0.23831311  1
  O  O348  1  0.25766562  0.39119654  0.75649683  1
  O  O349  1  0.24579647  0.88540118  0.25260048  1
  O  O350  1  0.23774856  0.87270967  0.74251109  1
  O  O351  1  0.74472013  0.37175092  0.24108325  1
  O  O352  1  0.73943359  0.37997822  0.75046293  1
  O  O353  1  0.73615388  0.86886738  0.25695815  1
  O  O354  1  0.74061085  0.86694921  0.74148234  1
  O  O355  1  0.26059538  0.10920825  0.25716924  1
  O  O356  1  0.26852849  0.12797867  0.75838029  1
  O  O357  1  0.25445499  0.62119101  0.25761238  1
  O  O358  1  0.25690879  0.62299556  0.76014350  1
  O  O359  1  0.74878506  0.13051959  0.26564549  1
  O  O360  1  0.75744408  0.12062336  0.74691790  1
  O  O361  1  0.76725862  0.62512345  0.24973622  1
  O  O362  1  0.75952526  0.62505016  0.75586780  1
  O  O363  1  0.38202736  0.11040036  0.36823064  1
  O  O364  1  0.37033783  0.12343358  0.86703448  1
  O  O365  1  0.36530822  0.61737532  0.37035971  1
  O  O366  1  0.36849656  0.61943648  0.86703194  1
  O  O367  1  0.86918682  0.11305684  0.37169799  1
  O  O368  1  0.86092040  0.11178835  0.86542722  1
  O  O369  1  0.87719300  0.63050360  0.35943263  1
  O  O370  1  0.87047274  0.62157709  0.87060580  1
  O  O371  1  0.13051804  0.38445396  0.13252565  1
  O  O372  1  0.08493480  0.39223789  0.63470781  1
  O  O373  1  0.13333684  0.85700392  0.14760638  1
  O  O374  1  0.13076397  0.87237556  0.63912797  1
  O  O375  1  0.63136380  0.38012932  0.13282122  1
  O  O376  1  0.62575994  0.38101286  0.63367734  1
  O  O377  1  0.61800360  0.88691408  0.13497195  1
  O  O378  1  0.63344874  0.87891772  0.63384108  1
  O  O379  1  0.11402342  0.26097706  0.25329761  1
  O  O380  1  0.12973194  0.24540481  0.74902160  1
  O  O381  1  0.11806239  0.75247215  0.26236754  1
  O  O382  1  0.12205272  0.75747590  0.76037671  1
  O  O383  1  0.61927139  0.25442461  0.24890831  1
  O  O384  1  0.63095919  0.25713205  0.75816261  1
  O  O385  1  0.61980471  0.75510830  0.25778155  1
  O  O386  1  0.61483207  0.76056852  0.75410466  1
  O  O387  1  0.38032935  0.23794023  0.24755368  1
  O  O388  1  0.37765850  0.24400751  0.73762475  1
  O  O389  1  0.37753385  0.74632196  0.24749166  1
  O  O390  1  0.38195761  0.74145196  0.75497745  1
  O  O391  1  0.88874633  0.24888912  0.25256428  1
  O  O392  1  0.86410775  0.23724236  0.74074026  1
  O  O393  1  0.88155677  0.74559606  0.24698027  1
  O  O394  1  0.87895128  0.73504674  0.75600173  1
  O  O395  1  0.38597540  0.50662549  0.49184991  1
  O  O396  1  0.37966495  0.48897486  0.99443008  1
  O  O397  1  0.38094557  0.99560113  0.49597558  1
  O  O398  1  0.37929448  0.99304379  0.99541424  1
  O  O399  1  0.87874400  0.48823889  0.50049223  1
  O  O400  1  0.88459566  0.49757244  0.99094883  1
  O  O401  1  0.88485124  0.99264944  0.49467561  1
  O  O402  1  0.87381426  0.99425519  0.98411831  1
  O  O403  1  0.11651583  -0.02367463  0.01161682  1
  O  O404  1  0.10504010  -0.00421792  0.49604210  1
  O  O405  1  0.11284515  0.49660435  0.00334972  1
  O  O406  1  0.11322674  0.49838853  0.49834686  1
  O  O407  1  0.61708328  0.00335082  0.00995949  1
  O  O408  1  0.61780744  0.00610040  0.50103245  1
  O  O409  1  0.62005765  0.49854450  0.01301977  1
  O  O410  1  0.61852280  0.50685201  0.50758707  1
  O  O411  1  0.36544364  0.37233840  0.11899476  1
  O  O412  1  0.38536132  0.37376614  0.62450738  1
  O  O413  1  0.37125909  0.86835010  0.11701688  1
  O  O414  1  0.36692519  0.87764674  0.61502593  1
  O  O415  1  0.86690516  0.38289192  0.11091147  1
  O  O416  1  0.87675330  0.36671331  0.61501001  1
  O  O417  1  0.87692386  0.86714324  0.11524367  1
  O  O418  1  0.86769922  0.87584772  0.61952222  1
  O  O419  1  0.12502408  0.12800428  0.38558203  1
  O  O420  1  0.13818178  0.13506223  0.86882837  1
  O  O421  1  0.13777657  0.63197271  0.37093070  1
  O  O422  1  0.13206104  0.63580507  0.87123457  1
  O  O423  1  0.63301775  0.12194827  0.38565589  1
  O  O424  1  0.61944972  0.13545056  0.88087760  1
  O  O425  1  0.62163714  0.63876457  0.38029196  1
  O  O426  1  0.63556062  0.62421789  0.87718654  1
