# generated using pymatgen
data_V85Zn86O256
_symmetry_space_group_name_H-M   'P 1'
_cell_length_a   16.95902387
_cell_length_b   16.97200238
_cell_length_c   16.96400689
_cell_angle_alpha   90.10280490
_cell_angle_beta   90.05601128
_cell_angle_gamma   90.02189378
_symmetry_Int_Tables_number   1
_chemical_formula_structural   V85Zn86O256
_chemical_formula_sum   'V85 Zn86 O256'
_cell_volume   4882.71568927
_cell_formula_units_Z   1
loop_
 _symmetry_equiv_pos_site_id
 _symmetry_equiv_pos_as_xyz
  1  'x, y, z'
loop_
 _atom_site_type_symbol
 _atom_site_label
 _atom_site_symmetry_multiplicity
 _atom_site_fract_x
 _atom_site_fract_y
 _atom_site_fract_z
 _atom_site_occupancy
  V  V0  1  0.37231163  0.38523579  -0.00997883  1
  V  V1  1  0.74185863  0.13626577  0.37894208  1
  V  V2  1  0.62546670  0.25106046  0.87033793  1
  V  V3  1  0.37615019  0.01468844  0.37274022  1
  V  V4  1  0.37279201  0.87451431  0.48850501  1
  V  V5  1  0.38020806  -0.01496895  0.87957832  1
  V  V6  1  0.12280903  -0.00020445  0.62367000  1
  V  V7  1  0.49638325  0.38601492  0.86866872  1
  V  V8  1  0.75218059  0.86696291  0.62216825  1
  V  V9  1  0.37478603  0.62831422  0.25211905  1
  V  V10  1  0.75060625  -0.00078513  0.74978885  1
  V  V11  1  0.62159021  0.00843867  0.62656016  1
  V  V12  1  0.54433331  0.18186600  0.17809884  1
  V  V13  1  0.60745753  0.86728580  0.25431497  1
  V  V14  1  0.00057201  0.37634590  0.37266444  1
  V  V15  1  -0.00396779  0.62773669  0.62360716  1
  V  V16  1  0.37771680  0.61842342  0.74807946  1
  V  V17  1  0.87299492  0.86497594  0.50314361  1
  V  V18  1  0.26179945  0.87931523  0.12226467  1
  V  V19  1  -0.00906726  0.75083550  0.74728449  1
  V  V20  1  0.86999670  0.00053024  0.37388203  1
  V  V21  1  0.37584010  0.25490466  0.15683859  1
  V  V22  1  0.50026630  0.00081768  0.50175615  1
  V  V23  1  0.86857520  0.37171204  0.49088646  1
  V  V24  1  0.13322903  0.00244537  0.12376483  1
  V  V25  1  0.12280670  0.87419624  0.74900401  1
  V  V26  1  0.24706531  0.38114989  0.12022901  1
  V  V27  1  -0.00197058  -0.00063364  0.49762608  1
  V  V28  1  -0.05369456  -0.05401640  0.05652903  1
  V  V29  1  0.24806723  0.74593541  0.50074919  1
  V  V30  1  0.62743334  0.50107894  0.63413415  1
  V  V31  1  0.61302174  0.12674695  -0.00259912  1
  V  V32  1  0.12701220  0.62481587  -0.00129206  1
  V  V33  1  0.12737456  0.87057984  0.24839872  1
  V  V34  1  0.25082856  -0.00232968  0.75043978  1
  V  V35  1  0.86734309  0.49978757  0.87388455  1
  V  V36  1  0.49963821  0.62451797  0.62128818  1
  V  V37  1  0.50175655  0.62251609  0.13223286  1
  V  V38  1  -0.00096674  0.87910507  0.87718671  1
  V  V39  1  0.12767755  0.12371553  0.49166274  1
  V  V40  1  -0.00074983  0.25106741  0.74936636  1
  V  V41  1  0.74919963  -0.01259949  0.24860698  1
  V  V42  1  0.38107253  0.12070069  0.74902760  1
  V  V43  1  0.00276260  0.12629679  0.11908645  1
  V  V44  1  0.24850422  0.87328201  0.62419371  1
  V  V45  1  0.37207870  0.49972416  0.37767893  1
  V  V46  1  0.62271953  -0.00486133  0.12679231  1
  V  V47  1  -0.00539707  0.87396129  0.36264353  1
  V  V48  1  0.62833736  0.49484725  0.13971706  1
  V  V49  1  0.25356662  0.00812452  0.25567737  1
  V  V50  1  0.87770613  0.12111207  0.25058869  1
  V  V51  1  0.24851429  0.24685193  0.49345737  1
  V  V52  1  0.12746915  0.12258775  0.00058789  1
  V  V53  1  0.76017274  0.76037258  0.01655935  1
  V  V54  1  0.00442254  0.24980838  0.24886185  1
  V  V55  1  0.25997850  0.62261444  0.87488051  1
  V  V56  1  0.63431692  0.37863369  0.75134311  1
  V  V57  1  0.61728481  0.87050513  0.75006149  1
  V  V58  1  0.50084671  0.24926190  0.74363698  1
  V  V59  1  0.25645974  0.25149911  -0.00482070  1
  V  V60  1  0.74983457  0.12396616  0.87602271  1
  V  V61  1  0.26137440  0.75541375  -0.00151645  1
  V  V62  1  0.51947569  0.48361393  0.48231401  1
  V  V63  1  0.87758968  0.25542290  0.12132511  1
  V  V64  1  0.12388816  0.49801357  0.62495446  1
  V  V65  1  0.86779398  0.62181137  0.74709035  1
  V  V66  1  0.75223590  0.38282001  0.62346555  1
  V  V67  1  0.87830020  -0.00473563  0.87701103  1
  V  V68  1  -0.00356618  0.12560082  0.62287999  1
  V  V69  1  0.49866742  -0.01749113  -0.00059997  1
  V  V70  1  0.62636939  0.62376680  0.00347650  1
  V  V71  1  0.13036884  0.37841594  0.25003279  1
  V  V72  1  0.38594683  0.36298411  0.49141696  1
  V  V73  1  0.63794612  0.63307331  0.50186758  1
  V  V74  1  0.12261673  0.74916049  0.37187073  1
  V  V75  1  0.36763527  0.24881979  0.63347864  1
  V  V76  1  0.86632631  0.24946031  0.62061747  1
  V  V77  1  0.74917645  0.63161104  0.87675482  1
  V  V78  1  0.25089805  0.49841889  0.75212259  1
  V  V79  1  0.38586400  0.75447617  0.12909673  1
  V  V80  1  -0.00236577  0.49901056  0.49610920  1
  V  V81  1  -0.00768939  0.63603840  0.12621336  1
  V  V82  1  -0.00151808  0.49995424  -0.00261460  1
  V  V83  1  0.12633703  0.75087921  0.87276964  1
  V  V84  1  0.25141886  0.12404018  0.87335120  1
  Zn  Zn85  1  0.24909609  0.37587664  0.62399007  1
  Zn  Zn86  1  0.37375945  0.74875122  0.62472236  1
  Zn  Zn87  1  0.12486381  0.50443673  0.12426808  1
  Zn  Zn88  1  0.76238938  0.62815431  0.37842270  1
  Zn  Zn89  1  0.87379626  0.12506064  0.74992009  1
  Zn  Zn90  1  0.12341966  0.37439502  0.75078534  1
  Zn  Zn91  1  0.62221490  0.75323883  0.37368761  1
  Zn  Zn92  1  0.24484526  0.62529707  0.37201726  1
  Zn  Zn93  1  0.87618586  0.63160839  0.25941697  1
  Zn  Zn94  1  0.87165914  0.37485579  -0.00205282  1
  Zn  Zn95  1  0.61933424  0.76028898  0.88553100  1
  Zn  Zn96  1  0.62153909  0.12937406  0.49382583  1
  Zn  Zn97  1  0.49849241  0.50217849  -0.00057312  1
  Zn  Zn98  1  0.74842341  0.25335113  -0.00018015  1
  Zn  Zn99  1  0.25076542  0.50105931  0.25087871  1
  Zn  Zn100  1  0.13260172  0.24618656  0.37058885  1
  Zn  Zn101  1  -0.00181360  0.37430921  0.87361000  1
  Zn  Zn102  1  0.12482231  0.62124715  0.49599930  1
  Zn  Zn103  1  0.12157750  0.25125650  0.87343105  1
  Zn  Zn104  1  0.74249791  0.37378099  0.12992026  1
  Zn  Zn105  1  0.77645415  0.49468908  0.27070039  1
  Zn  Zn106  1  0.49486148  0.75065223  0.75688888  1
  Zn  Zn107  1  0.20264870  0.19736310  0.19185231  1
  Zn  Zn108  1  0.18452877  0.18352991  0.68578636  1
  Zn  Zn109  1  0.19210531  0.68931075  0.18407575  1
  Zn  Zn110  1  0.18372437  0.68448885  0.68652496  1
  Zn  Zn111  1  0.70479005  0.18521212  0.19220224  1
  Zn  Zn112  1  0.64914892  0.22704140  0.63295279  1
  Zn  Zn113  1  0.69546426  0.68662740  0.19561828  1
  Zn  Zn114  1  0.68919362  0.69063822  0.68383757  1
  Zn  Zn115  1  0.38963772  0.29739970  0.32173907  1
  Zn  Zn116  1  0.31017242  0.31454058  0.81272807  1
  Zn  Zn117  1  0.31157182  0.81307753  0.31050470  1
  Zn  Zn118  1  0.31407291  0.80757476  0.80815539  1
  Zn  Zn119  1  0.81221956  0.31419393  0.30529937  1
  Zn  Zn120  1  0.81418321  0.31121326  0.81096653  1
  Zn  Zn121  1  0.80219796  0.80053651  0.31889209  1
  Zn  Zn122  1  0.80969959  0.81285403  0.81682199  1
  Zn  Zn123  1  0.19263691  0.43338156  0.43734108  1
  Zn  Zn124  1  0.18256647  0.43793858  0.93045912  1
  Zn  Zn125  1  0.18883194  0.93800708  0.43508987  1
  Zn  Zn126  1  0.19042098  0.93783971  0.93767450  1
  Zn  Zn127  1  0.69009632  0.44570791  0.43463120  1
  Zn  Zn128  1  0.68988233  0.43959366  0.94424465  1
  Zn  Zn129  1  0.68677592  0.93495417  0.43762941  1
  Zn  Zn130  1  0.68706407  0.93727445  0.93866746  1
  Zn  Zn131  1  0.32397010  0.07051581  0.06490258  1
  Zn  Zn132  1  0.31150950  0.06233960  0.56349907  1
  Zn  Zn133  1  0.31518265  0.56509893  0.06278655  1
  Zn  Zn134  1  0.31465941  0.55834437  0.55964572  1
  Zn  Zn135  1  0.80462964  0.06848344  0.06478439  1
  Zn  Zn136  1  0.80910383  0.06136078  0.55976424  1
  Zn  Zn137  1  0.81118563  0.56432996  0.06553949  1
  Zn  Zn138  1  0.81728498  0.55696507  0.55871413  1
  Zn  Zn139  1  0.43559249  0.43179483  0.18824806  1
  Zn  Zn140  1  0.43998170  0.43494964  0.67868091  1
  Zn  Zn141  1  0.44045192  0.94760131  0.18777346  1
  Zn  Zn142  1  0.43740461  0.93632664  0.68114834  1
  Zn  Zn143  1  0.94126011  0.44181032  0.18536189  1
  Zn  Zn144  1  0.93631322  0.43833553  0.68717282  1
  Zn  Zn145  1  0.93397018  0.80440392  0.18434541  1
  Zn  Zn146  1  0.93477725  0.93836926  0.68835740  1
  Zn  Zn147  1  0.06353618  0.05834087  0.30864688  1
  Zn  Zn148  1  0.06094656  0.06410114  0.81151165  1
  Zn  Zn149  1  0.05510180  0.56155798  0.30908847  1
  Zn  Zn150  1  0.06149993  0.56377747  0.81289945  1
  Zn  Zn151  1  0.56033695  0.05676546  0.31565069  1
  Zn  Zn152  1  0.56083396  0.05885839  0.81421127  1
  Zn  Zn153  1  0.56413572  0.56812383  0.31487538  1
  Zn  Zn154  1  0.56448072  0.56734705  0.81309606  1
  Zn  Zn155  1  0.43568988  0.17965631  0.45151624  1
  Zn  Zn156  1  0.43797334  0.19058141  0.93095474  1
  Zn  Zn157  1  0.44229020  0.68083172  0.43330738  1
  Zn  Zn158  1  0.44372117  0.69089631  0.93952159  1
  Zn  Zn159  1  0.93819076  0.19011657  0.43563429  1
  Zn  Zn160  1  0.93750466  0.18466665  0.93759057  1
  Zn  Zn161  1  0.93833147  0.69108070  0.43482295  1
  Zn  Zn162  1  0.93572817  0.69092790  0.93849159  1
  Zn  Zn163  1  0.06448242  0.31284781  0.05766971  1
  Zn  Zn164  1  0.06059379  0.31225192  0.56295649  1
  Zn  Zn165  1  0.07732143  0.81091946  0.06040269  1
  Zn  Zn166  1  0.05876074  0.81157438  0.55877048  1
  Zn  Zn167  1  0.56064335  0.31843671  0.05522000  1
  Zn  Zn168  1  0.56164217  0.31012815  0.46657496  1
  Zn  Zn169  1  0.57242294  0.81057234  0.06859333  1
  Zn  Zn170  1  0.53618868  0.79273380  0.52636058  1
  O  O171  1  0.12242096  0.12238724  0.11947625  1
  O  O172  1  0.11597820  0.11710828  0.61621980  1
  O  O173  1  0.12561199  0.62822649  0.10904856  1
  O  O174  1  0.11335059  0.61409030  0.62445402  1
  O  O175  1  0.61676201  0.12393217  0.11875200  1
  O  O176  1  0.63502632  0.10848485  0.62896330  1
  O  O177  1  0.61734351  0.61815785  0.12346356  1
  O  O178  1  0.61930099  0.61793323  0.62840959  1
  O  O179  1  0.36224268  0.39179091  0.38351777  1
  O  O180  1  0.38394286  0.37525681  0.87679240  1
  O  O181  1  0.36955852  0.87929887  0.38640548  1
  O  O182  1  0.36744148  0.88653774  0.87078623  1
  O  O183  1  0.88653563  0.36525279  0.38298431  1
  O  O184  1  0.87586943  0.38596515  0.87477385  1
  O  O185  1  0.88042878  0.88155257  0.38167153  1
  O  O186  1  0.87996881  0.88724202  0.87393379  1
  O  O187  1  0.26359504  -0.00510320  0.36868120  1
  O  O188  1  0.25688733  0.00652180  0.86980569  1
  O  O189  1  0.25737350  0.50711170  0.37515816  1
  O  O190  1  0.24462992  0.50981238  0.86119013  1
  O  O191  1  0.75584084  0.00457146  0.36934423  1
  O  O192  1  0.75719800  0.00299868  0.87186441  1
  O  O193  1  0.75711555  0.51084936  0.38256895  1
  O  O194  1  0.76135616  0.51284327  0.88143538  1
  O  O195  1  0.24739783  0.49103829  0.12031056  1
  O  O196  1  0.24082603  0.50243596  0.63344737  1
  O  O197  1  0.25493580  0.99569940  0.13001995  1
  O  O198  1  0.24328389  0.99328137  0.63158694  1
  O  O199  1  0.73224821  0.50289810  0.12305506  1
  O  O200  1  0.74726346  0.48947609  0.62666303  1
  O  O201  1  0.73410834  1.01157579  0.13546133  1
  O  O202  1  0.74549123  0.99706171  0.63477538  1
  O  O203  1  0.00853409  0.37107640  0.25502308  1
  O  O204  1  -0.00073764  0.36428587  0.74951691  1
  O  O205  1  0.00918451  0.87273524  0.25851190  1
  O  O206  1  0.00363325  0.86817158  0.75311577  1
  O  O207  1  0.44288955  0.32331019  0.22406941  1
  O  O208  1  0.50801914  0.37038954  0.75266021  1
  O  O209  1  0.50896692  0.87778727  0.24937030  1
  O  O210  1  0.51412773  0.87250036  0.74046919  1
  O  O211  1  0.49610321  0.12390551  0.24408259  1
  O  O212  1  0.49037992  0.13411580  0.76056198  1
  O  O213  1  0.49080916  0.62591905  0.24038823  1
  O  O214  1  0.49146104  0.62254848  0.74230899  1
  O  O215  1  0.99964615  0.12670016  0.23747951  1
  O  O216  1  0.99629677  0.13015296  0.73996478  1
  O  O217  1  1.01079661  0.62776805  0.22638625  1
  O  O218  1  0.99228160  0.63252971  0.74468796  1
  O  O219  1  0.36217385  0.26054278  -0.01481800  1
  O  O220  1  0.36270995  0.24577670  0.51918131  1
  O  O221  1  0.36570331  0.74436715  0.00852263  1
  O  O222  1  0.36108287  0.75686082  0.50105677  1
  O  O223  1  0.87389850  0.24890099  0.00780551  1
  O  O224  1  0.88196287  0.26051413  0.50912519  1
  O  O225  1  0.85942390  0.75136761  -0.00457680  1
  O  O226  1  0.88704129  0.76699970  0.50475205  1
  O  O227  1  0.13126000  0.24143828  0.50217781  1
  O  O228  1  0.13740320  0.23933857  0.99826420  1
  O  O229  1  0.13430542  0.75067611  0.49215119  1
  O  O230  1  0.14075101  0.74398885  0.99172218  1
  O  O231  1  0.61812076  0.23797706  0.52503554  1
  O  O232  1  0.62466730  0.24309723  0.99011090  1
  O  O233  1  0.63293871  0.73134758  0.52452323  1
  O  O234  1  0.63323554  0.73688032  1.00356740  1
  O  O235  1  0.49119590  0.24227586  0.11069188  1
  O  O236  1  0.48159509  0.24813932  0.64223066  1
  O  O237  1  0.48923484  0.74386043  0.11948075  1
  O  O238  1  0.49479167  0.73394334  0.62332404  1
  O  O239  1  0.99929245  0.24225751  0.12840433  1
  O  O240  1  0.98924141  0.24522840  0.62956494  1
  O  O241  1  1.00555968  0.74184829  0.11567332  1
  O  O242  1  1.00663358  0.74002512  0.63467743  1
  O  O243  1  0.00659206  0.25895720  0.36719617  1
  O  O244  1  -0.00076179  0.24660966  0.86325419  1
  O  O245  1  0.01562033  0.76283962  0.38363524  1
  O  O246  1  0.00590173  0.75821383  0.86904177  1
  O  O247  1  0.45912575  0.28193351  0.41258623  1
  O  O248  1  0.50694000  0.26138648  0.86359733  1
  O  O249  1  0.51580117  0.76028268  0.41605452  1
  O  O250  1  0.50865186  0.74395852  0.86948836  1
  O  O251  1  0.23708336  0.13142431  0.50962486  1
  O  O252  1  0.24943199  0.13294959  0.99259556  1
  O  O253  1  0.24612449  0.63404442  0.49952816  1
  O  O254  1  0.24721143  0.63035089  0.99171529  1
  O  O255  1  0.74859933  0.12031486  0.48207309  1
  O  O256  1  0.73640443  0.12454536  0.98913681  1
  O  O257  1  0.73943330  0.62274088  0.51084271  1
  O  O258  1  0.74432040  0.63281184  0.99431881  1
  O  O259  1  0.25256132  0.37065144  -0.00230951  1
  O  O260  1  0.26133668  0.36448692  0.50423733  1
  O  O261  1  0.24789316  0.86700083  0.00956447  1
  O  O262  1  0.25363649  0.86920982  0.50594714  1
  O  O263  1  0.75336200  0.37143432  0.00971840  1
  O  O264  1  0.76216574  0.37855214  0.50744007  1
  O  O265  1  0.73987762  0.85865943  -0.00044599  1
  O  O266  1  0.75697369  0.88188308  0.51399597  1
  O  O267  1  0.12522765  0.49009115  0.24560423  1
  O  O268  1  0.13096869  0.50175381  0.74225049  1
  O  O269  1  0.13020619  0.98681137  0.24386352  1
  O  O270  1  0.12931594  0.99363689  0.74431961  1
  O  O271  1  0.61779071  0.50093118  0.23945379  1
  O  O272  1  0.62334225  0.49351472  0.74280441  1
  O  O273  1  0.62930604  0.99458698  0.24347558  1
  O  O274  1  0.63042005  0.99386631  0.74397856  1
  O  O275  1  0.36954168  -0.00199300  0.26474002  1
  O  O276  1  0.37288490  0.00455638  0.75607754  1
  O  O277  1  0.37561914  0.50764147  0.25836152  1
  O  O278  1  0.36613441  0.50996049  0.74251104  1
  O  O279  1  0.86774789  0.00489074  0.26373350  1
  O  O280  1  0.86770785  0.00229774  0.75981909  1
  O  O281  1  0.88517549  0.51730483  0.23918908  1
  O  O282  1  0.88143326  0.51173880  0.76006505  1
  O  O283  1  0.12201229  0.37143285  0.36549208  1
  O  O284  1  0.11753007  0.36942791  0.86885415  1
  O  O285  1  0.11875216  0.87271785  0.36594363  1
  O  O286  1  0.12014384  0.87149234  0.86964280  1
  O  O287  1  0.58434612  0.41210687  0.42123696  1
  O  O288  1  0.62226655  0.37117213  0.86789953  1
  O  O289  1  0.62617403  0.88065359  0.35734137  1
  O  O290  1  0.63243444  0.87816514  0.85350449  1
  O  O291  1  0.37125067  0.15861484  0.12135469  1
  O  O292  1  0.36726799  0.12852761  0.64272583  1
  O  O293  1  0.38165979  0.63194084  0.13184763  1
  O  O294  1  0.38266502  0.62226393  0.63024231  1
  O  O295  1  0.88520753  0.13046123  0.12769034  1
  O  O296  1  0.87725530  0.13291198  0.62317685  1
  O  O297  1  0.89216691  0.63029045  0.11636118  1
  O  O298  1  0.88724123  0.61759633  0.63278257  1
  O  O299  1  0.25475768  0.26467609  0.11120934  1
  O  O300  1  0.25625148  0.25075556  0.62656587  1
  O  O301  1  0.26098422  0.75924950  0.11703125  1
  O  O302  1  0.24622571  0.75517731  0.61740335  1
  O  O303  1  0.76450096  0.24824302  0.12165061  1
  O  O304  1  0.76219348  0.26359866  0.63021241  1
  O  O305  1  0.75158923  0.74786903  0.11552630  1
  O  O306  1  0.75596686  0.76910329  0.63233911  1
  O  O307  1  0.25089685  0.24826328  0.39369495  1
  O  O308  1  0.24504735  0.23991037  0.87638586  1
  O  O309  1  0.23840752  0.75136307  0.38191531  1
  O  O310  1  0.24786174  0.74334768  0.88052277  1
  O  O311  1  0.75460907  0.23425817  0.36759627  1
  O  O312  1  0.74427859  0.23968978  0.87294701  1
  O  O313  1  0.73521854  0.74241013  0.38342589  1
  O  O314  1  0.74381169  0.74022629  0.87843843  1
  O  O315  1  0.01224858  0.13026640  0.01047746  1
  O  O316  1  0.00497244  0.11938424  0.50470320  1
  O  O317  1  0.01029103  0.62384014  0.00164477  1
  O  O318  1  0.00274633  0.61608713  0.50841747  1
  O  O319  1  0.51071446  0.12000052  -0.01245363  1
  O  O320  1  0.50100711  0.10649167  0.50547340  1
  O  O321  1  0.50654405  0.62276036  0.01333805  1
  O  O322  1  0.50974331  0.61005683  0.50895008  1
  O  O323  1  0.48368507  0.38602235  0.52812834  1
  O  O324  1  0.48866367  0.37732797  0.98664725  1
  O  O325  1  0.48082134  0.89162506  0.51891644  1
  O  O326  1  0.50941219  0.88363332  1.00268499  1
  O  O327  1  0.99581138  0.37891874  0.49110118  1
  O  O328  1  0.99839103  0.38658122  0.99646415  1
  O  O329  1  0.99444234  0.88407012  0.49241324  1
  O  O330  1  1.00595394  0.88220460  0.99873561  1
  O  O331  1  0.48461668  0.51582542  0.38339511  1
  O  O332  1  0.50573370  0.48880599  0.87517938  1
  O  O333  1  0.48541706  0.99910918  0.38474538  1
  O  O334  1  0.49090798  0.99900855  0.88358833  1
  O  O335  1  1.00800337  0.48542077  0.38277578  1
  O  O336  1  0.99006450  0.50523814  0.88423678  1
  O  O337  1  0.99213642  0.99168797  0.37616104  1
  O  O338  1  0.99172489  0.99357360  0.87153048  1
  O  O339  1  0.00940442  0.00702975  0.11555405  1
  O  O340  1  0.00298431  0.00503865  0.61888541  1
  O  O341  1  0.00535921  0.51368253  0.10836377  1
  O  O342  1  0.00678887  0.50499422  0.61911067  1
  O  O343  1  0.51008648  0.00230681  0.11450507  1
  O  O344  1  0.51525631  -0.00004083  0.62404059  1
  O  O345  1  0.50477866  0.50597532  0.12504382  1
  O  O346  1  0.51126297  0.50733762  0.62196353  1
  O  O347  1  0.24093694  0.38154469  0.23413201  1
  O  O348  1  0.24707912  0.38581811  0.74773629  1
  O  O349  1  0.24513879  0.88370931  0.24181278  1
  O  O350  1  0.24249032  0.87761270  0.74390351  1
  O  O351  1  0.75678845  0.38414898  0.24224088  1
  O  O352  1  0.73974436  0.37209754  0.74494397  1
  O  O353  1  0.74905232  0.88670697  0.25218110  1
  O  O354  1  0.74920666  0.88461708  0.74348683  1
  O  O355  1  0.23210709  0.10481347  0.24979909  1
  O  O356  1  0.25322183  0.11700976  0.75769691  1
  O  O357  1  0.26116327  0.62131666  0.24738866  1
  O  O358  1  0.25519164  0.61985504  0.75583092  1
  O  O359  1  0.75870661  0.11398022  0.26188627  1
  O  O360  1  0.75175290  0.10988882  0.76590476  1
  O  O361  1  0.75399569  0.61555419  0.25575731  1
  O  O362  1  0.76198199  0.63292348  0.75595796  1
  O  O363  1  0.37265271  0.11290855  0.37960891  1
  O  O364  1  0.36477662  0.11922742  0.86685923  1
  O  O365  1  0.36972131  0.62291130  0.36715243  1
  O  O366  1  0.36453696  0.62637512  0.86882223  1
  O  O367  1  0.87121866  0.11783802  0.37141068  1
  O  O368  1  0.86757417  0.11234217  0.87810980  1
  O  O369  1  0.88030999  0.62208847  0.37668762  1
  O  O370  1  0.86860955  0.62122580  0.86765259  1
  O  O371  1  0.13139899  0.37739097  0.12783660  1
  O  O372  1  0.12522031  0.38702641  0.62714201  1
  O  O373  1  0.13850635  0.88162415  0.13033771  1
  O  O374  1  0.12931280  0.88048165  0.62774680  1
  O  O375  1  0.61901530  0.39196485  0.12081950  1
  O  O376  1  0.63679369  0.38360351  0.63406143  1
  O  O377  1  0.62391526  0.88547628  0.13953355  1
  O  O378  1  0.64146861  0.88829475  0.63701984  1
  O  O379  1  0.12316040  0.26155749  0.24911936  1
  O  O380  1  0.11006399  0.24773664  0.74641502  1
  O  O381  1  0.13430193  0.76248711  0.25558824  1
  O  O382  1  0.11633989  0.75407129  0.75535282  1
  O  O383  1  0.60905966  0.23805941  0.22931770  1
  O  O384  1  0.61619224  0.25925039  0.74468285  1
  O  O385  1  0.62316810  0.76434396  0.24774092  1
  O  O386  1  0.62557698  0.76551950  0.74615264  1
  O  O387  1  0.32373753  0.23788411  0.24260349  1
  O  O388  1  0.37769948  0.24115942  0.75149906  1
  O  O389  1  0.36994155  0.74152006  0.24129080  1
  O  O390  1  0.37390968  0.73428156  0.74428154  1
  O  O391  1  0.88601445  0.24034163  0.24138320  1
  O  O392  1  0.88350788  0.24622009  0.74163605  1
  O  O393  1  0.87897480  0.74769202  0.25800202  1
  O  O394  1  0.88673757  0.74420000  0.75670986  1
  O  O395  1  0.38304131  0.49080806  0.49278887  1
  O  O396  1  0.37527220  0.48891241  1.00003578  1
  O  O397  1  0.37567531  0.99543851  0.49206560  1
  O  O398  1  0.38654596  1.00482182  0.99252764  1
  O  O399  1  0.89171609  0.48643859  0.50608325  1
  O  O400  1  0.88193715  0.50167522  0.99290203  1
  O  O401  1  0.87928723  0.99592625  0.48869048  1
  O  O402  1  0.87812931  1.00130272  0.99956167  1
  O  O403  1  0.13785387  0.01514006  0.00722586  1
  O  O404  1  0.11975567  0.00516399  0.50311867  1
  O  O405  1  0.11833019  0.51047466  -0.00390154  1
  O  O406  1  0.11657648  0.49797646  0.50702462  1
  O  O407  1  0.61938829  0.00660545  0.00641727  1
  O  O408  1  0.61731789  -0.00212081  0.51077356  1
  O  O409  1  0.62195936  0.51317532  0.00674659  1
  O  O410  1  0.62527339  0.51312918  0.52033776  1
  O  O411  1  0.36288405  0.36604387  0.10755841  1
  O  O412  1  0.36858706  0.36280589  0.62209207  1
  O  O413  1  0.36873467  0.87011200  0.13232721  1
  O  O414  1  0.36095179  0.87346561  0.61992251  1
  O  O415  1  0.88662950  0.36031469  0.12269060  1
  O  O416  1  0.86982746  0.37016080  0.61833402  1
  O  O417  1  0.89389311  0.89078224  0.11860911  1
  O  O418  1  0.86222981  0.88632656  0.61663710  1
  O  O419  1  0.11720048  0.12472033  0.38767804  1
  O  O420  1  0.13545139  0.12294325  0.88176602  1
  O  O421  1  0.12275758  0.63510036  0.37368994  1
  O  O422  1  0.13371876  0.63132147  0.88222672  1
  O  O423  1  0.63705127  0.12158740  0.37413414  1
  O  O424  1  0.63115583  0.12937595  0.87852737  1
  O  O425  1  0.62325701  0.62479993  0.39610724  1
  O  O426  1  0.63510221  0.62301593  0.88483198  1
