# generated using pymatgen
data_V85Zn86O256
_symmetry_space_group_name_H-M   'P 1'
_cell_length_a   16.94518456
_cell_length_b   16.95534739
_cell_length_c   16.95151423
_cell_angle_alpha   89.90238355
_cell_angle_beta   90.09251316
_cell_angle_gamma   90.03568258
_symmetry_Int_Tables_number   1
_chemical_formula_structural   V85Zn86O256
_chemical_formula_sum   'V85 Zn86 O256'
_cell_volume   4870.35047274
_cell_formula_units_Z   1
loop_
 _symmetry_equiv_pos_site_id
 _symmetry_equiv_pos_as_xyz
  1  'x, y, z'
loop_
 _atom_site_type_symbol
 _atom_site_label
 _atom_site_symmetry_multiplicity
 _atom_site_fract_x
 _atom_site_fract_y
 _atom_site_fract_z
 _atom_site_occupancy
  V  V0  1  0.62235798  -0.00165087  0.63325347  1
  V  V1  1  0.12712832  0.37389447  0.24985505  1
  V  V2  1  0.87501955  0.24960470  0.12648752  1
  V  V3  1  0.74943245  0.12210690  0.37705401  1
  V  V4  1  0.12510900  0.36730589  0.75138460  1
  V  V5  1  0.87427658  0.87855498  0.00332991  1
  V  V6  1  0.25103820  0.86894770  0.61995032  1
  V  V7  1  0.00114733  0.62233915  0.62816888  1
  V  V8  1  0.00442538  0.74738172  0.75755214  1
  V  V9  1  0.75153058  0.12353779  0.87411269  1
  V  V10  1  0.74484948  0.37532763  0.13443664  1
  V  V11  1  0.37179971  0.50377175  0.37393383  1
  V  V12  1  0.25649749  0.36466795  0.11555142  1
  V  V13  1  0.50122910  0.88193733  0.36764890  1
  V  V14  1  0.62242021  0.12374197  0.50303290  1
  V  V15  1  0.37161383  0.10823707  0.24909636  1
  V  V16  1  0.50152925  -0.00056600  0.00209126  1
  V  V17  1  0.48910990  0.25176300  0.24917287  1
  V  V18  1  -0.00155676  0.62472786  0.12065758  1
  V  V19  1  0.13570956  0.12286998  0.00579706  1
  V  V20  1  0.62710331  0.12077126  0.00770174  1
  V  V21  1  0.25074976  0.63083638  0.86661927  1
  V  V22  1  0.62093533  0.62305920  0.49550485  1
  V  V23  1  0.87119483  0.87110867  0.50144670  1
  V  V24  1  0.74875089  0.74774342  0.49833265  1
  V  V25  1  0.62362175  0.37009963  0.75044064  1
  V  V26  1  0.00276326  0.11622997  0.12615837  1
  V  V27  1  0.48825150  0.12357508  0.62940605  1
  V  V28  1  0.75016593  0.24920447  0.00253928  1
  V  V29  1  0.49132761  0.75114596  0.75576880  1
  V  V30  1  0.61946210  0.49825058  0.12327460  1
  V  V31  1  0.74280360  0.87280633  0.62315139  1
  V  V32  1  0.12617302  0.87168908  0.75771881  1
  V  V33  1  0.12760138  0.50013254  0.62762625  1
  V  V34  1  0.39072374  0.37169293  -0.00114521  1
  V  V35  1  0.87390780  -0.00438191  0.37609611  1
  V  V36  1  0.63290146  0.63649898  -0.00629603  1
  V  V37  1  0.12617410  0.50074574  0.12095563  1
  V  V38  1  0.37251804  0.74574199  0.61617959  1
  V  V39  1  0.01591055  0.85516736  0.38932447  1
  V  V40  1  -0.00287096  0.13973721  0.62614625  1
  V  V41  1  0.13248467  0.12864887  0.50009375  1
  V  V42  1  0.87074507  0.37989986  -0.00327925  1
  V  V43  1  0.50685292  0.75632052  0.24934188  1
  V  V44  1  0.48986986  -0.00243126  0.49806865  1
  V  V45  1  0.75098255  0.49600059  0.76270115  1
  V  V46  1  0.00134320  0.24871624  0.25152455  1
  V  V47  1  0.87421301  0.12214273  0.25191153  1
  V  V48  1  0.12752605  0.89509280  0.24633635  1
  V  V49  1  0.74965109  0.24878247  0.50341176  1
  V  V50  1  0.87470042  0.50136125  0.37361450  1
  V  V51  1  0.75290393  0.37069810  0.62764475  1
  V  V52  1  0.00216048  0.37265402  0.37403529  1
  V  V53  1  0.87407796  0.62480617  0.24829642  1
  V  V54  1  0.36850024  0.75276333  0.11994953  1
  V  V55  1  0.88159297  0.13800944  0.74740338  1
  V  V56  1  0.24997572  0.50400873  0.25042185  1
  V  V57  1  0.49875369  0.49806248  0.50072017  1
  V  V58  1  -0.00310886  0.49916809  -0.00629623  1
  V  V59  1  0.87032051  0.75127105  0.11954717  1
  V  V60  1  0.48876751  0.24518901  0.75557468  1
  V  V61  1  0.37066608  0.62966521  0.24741016  1
  V  V62  1  0.49653480  0.62279524  0.62968806  1
  V  V63  1  0.13131742  0.25430807  0.88746739  1
  V  V64  1  0.67724753  0.81303543  0.80812507  1
  V  V65  1  0.89019074  0.00448228  0.87291963  1
  V  V66  1  0.87511089  0.36896518  0.50460750  1
  V  V67  1  0.25218909  0.36787604  0.61537020  1
  V  V68  1  0.49758104  0.62341533  0.11342084  1
  V  V69  1  0.87569015  0.61626752  0.75866417  1
  V  V70  1  -0.00337986  0.00215881  0.50144119  1
  V  V71  1  0.13959511  0.25190335  0.37577075  1
  V  V72  1  0.62485835  0.25326969  0.36895419  1
  V  V73  1  -0.00369360  0.37097277  0.87125145  1
  V  V74  1  0.00983918  0.75200393  0.24563986  1
  V  V75  1  0.24653995  0.89377733  0.12408090  1
  V  V76  1  0.50480596  0.37878942  0.36745696  1
  V  V77  1  0.00342165  0.49880499  0.50239425  1
  V  V78  1  0.12421244  -0.00204954  0.62670686  1
  V  V79  1  0.49960924  0.12721126  0.12573046  1
  V  V80  1  0.75145065  0.62377759  0.37570790  1
  V  V81  1  0.73815930  0.87448488  0.12815919  1
  V  V82  1  0.37219718  0.87763432  -0.01123277  1
  V  V83  1  0.73618067  -0.00481737  0.24896314  1
  V  V84  1  0.25542336  0.10893696  0.37269851  1
  Zn  Zn85  1  0.36774912  0.87088838  0.48722868  1
  Zn  Zn86  1  0.38402939  0.01928242  0.86221996  1
  Zn  Zn87  1  0.50306470  0.38251921  0.87604502  1
  Zn  Zn88  1  0.50625237  0.87639513  0.87095407  1
  Zn  Zn89  1  0.62334555  0.24781250  0.87624081  1
  Zn  Zn90  1  0.36678559  0.36783990  0.49189958  1
  Zn  Zn91  1  0.26433149  0.00764798  0.74879853  1
  Zn  Zn92  1  0.00618440  0.00112878  0.00401339  1
  Zn  Zn93  1  0.38294371  0.50591725  0.87653692  1
  Zn  Zn94  1  0.74906947  0.63091610  0.87706722  1
  Zn  Zn95  1  0.16455436  0.73005747  0.40007178  1
  Zn  Zn96  1  0.25898703  0.13064652  0.86855991  1
  Zn  Zn97  1  0.87465264  0.74627741  0.62553436  1
  Zn  Zn98  1  0.75096847  -0.00012168  0.75223317  1
  Zn  Zn99  1  0.62872322  0.75485133  0.36751731  1
  Zn  Zn100  1  0.26147929  0.49971987  0.75177997  1
  Zn  Zn101  1  0.00926965  0.87024451  0.88436520  1
  Zn  Zn102  1  0.12277800  0.63233607  -0.01064501  1
  Zn  Zn103  1  0.62636359  0.49734586  0.62492492  1
  Zn  Zn104  1  0.23665620  0.75386313  -0.00861196  1
  Zn  Zn105  1  0.74118019  0.49760020  0.25217617  1
  Zn  Zn106  1  0.36839641  0.24586166  0.61909847  1
  Zn  Zn107  1  0.18980600  0.18247576  0.18884272  1
  Zn  Zn108  1  0.18343404  0.19194170  0.69025047  1
  Zn  Zn109  1  0.18698033  0.69008090  0.17947517  1
  Zn  Zn110  1  0.18831926  0.68594826  0.68856119  1
  Zn  Zn111  1  0.68542659  0.18536654  0.18988362  1
  Zn  Zn112  1  0.68597929  0.18681390  0.68917390  1
  Zn  Zn113  1  0.68825223  0.68435214  0.18231316  1
  Zn  Zn114  1  0.68830374  0.67805354  0.68146129  1
  Zn  Zn115  1  0.31332942  0.31592137  0.30909403  1
  Zn  Zn116  1  0.31192701  0.31867390  0.81319286  1
  Zn  Zn117  1  0.31707704  0.82462213  0.30381868  1
  Zn  Zn118  1  0.31070246  0.81151467  0.80712935  1
  Zn  Zn119  1  0.81348247  0.31118682  0.31522514  1
  Zn  Zn120  1  0.81291414  0.30996440  0.81547387  1
  Zn  Zn121  1  0.81745140  0.81047086  0.31029652  1
  Zn  Zn122  1  0.83941577  0.81252009  0.81188276  1
  Zn  Zn123  1  0.18452859  0.55382407  0.43982411  1
  Zn  Zn124  1  0.19062770  0.44473737  0.93613984  1
  Zn  Zn125  1  0.18640989  0.93617275  0.44007859  1
  Zn  Zn126  1  0.19439370  0.94805862  0.93497391  1
  Zn  Zn127  1  0.68687868  0.43630100  0.43748506  1
  Zn  Zn128  1  0.67784319  0.44041102  0.94130988  1
  Zn  Zn129  1  0.67845143  0.93756228  0.43728343  1
  Zn  Zn130  1  0.69440922  0.94426694  0.94581994  1
  Zn  Zn131  1  0.32088002  0.06869201  0.05761946  1
  Zn  Zn132  1  0.30932888  0.05863614  0.56367448  1
  Zn  Zn133  1  0.30980520  0.56090510  0.05131221  1
  Zn  Zn134  1  0.31481946  0.55695410  0.56750909  1
  Zn  Zn135  1  0.81402420  0.05835700  0.06502159  1
  Zn  Zn136  1  0.81159510  0.06153517  0.56804525  1
  Zn  Zn137  1  0.80726305  0.56052276  0.06059335  1
  Zn  Zn138  1  0.81474136  0.55717084  0.56594062  1
  Zn  Zn139  1  0.43651592  0.43910013  0.18428837  1
  Zn  Zn140  1  0.43663515  0.43583255  0.69058349  1
  Zn  Zn141  1  0.44045356  0.93670014  0.17889263  1
  Zn  Zn142  1  0.43716665  0.92963427  0.68824404  1
  Zn  Zn143  1  0.93569837  0.43697195  0.18472898  1
  Zn  Zn144  1  0.93533359  0.43401211  0.68960637  1
  Zn  Zn145  1  0.93537118  0.93483036  0.19346405  1
  Zn  Zn146  1  0.93767841  0.93977259  0.68942568  1
  Zn  Zn147  1  0.06089732  0.06298430  0.31881238  1
  Zn  Zn148  1  0.08937105  0.08076046  0.79880947  1
  Zn  Zn149  1  0.06046764  0.56131469  0.30599415  1
  Zn  Zn150  1  0.06897271  0.55830714  0.81327207  1
  Zn  Zn151  1  0.56021488  0.06559104  0.31426893  1
  Zn  Zn152  1  0.56237646  0.06357100  0.81547907  1
  Zn  Zn153  1  0.55929695  0.56741879  0.30603679  1
  Zn  Zn154  1  0.55993982  0.56094434  0.81317691  1
  Zn  Zn155  1  0.43278343  0.18739776  0.43686727  1
  Zn  Zn156  1  0.43062834  0.19852451  0.94496934  1
  Zn  Zn157  1  0.33009274  0.68483260  0.43734093  1
  Zn  Zn158  1  0.43244937  0.68725158  0.93585474  1
  Zn  Zn159  1  0.93930017  0.18782992  0.43804204  1
  Zn  Zn160  1  0.94183602  0.18973329  0.93958511  1
  Zn  Zn161  1  1.01034127  0.67816124  0.43160360  1
  Zn  Zn162  1  0.93547392  0.68812338  0.93836595  1
  Zn  Zn163  1  0.06214094  0.31245209  0.06432710  1
  Zn  Zn164  1  0.06927049  0.31430782  0.55861424  1
  Zn  Zn165  1  0.06317917  0.81712451  0.06384667  1
  Zn  Zn166  1  0.06122975  0.81033099  0.56902723  1
  Zn  Zn167  1  0.56510464  0.30786420  0.06627958  1
  Zn  Zn168  1  0.55819018  0.31001923  0.56263650  1
  Zn  Zn169  1  0.55837748  0.81014728  0.05978665  1
  Zn  Zn170  1  0.55873764  0.80969798  0.55818451  1
  O  O171  1  0.11694159  0.13193751  0.11522230  1
  O  O172  1  0.11721838  0.11806140  0.61536335  1
  O  O173  1  0.11630206  0.61150880  0.12819165  1
  O  O174  1  0.11129115  0.61469906  0.63099865  1
  O  O175  1  0.61766874  0.12645038  0.11795866  1
  O  O176  1  0.61842760  0.11754635  0.62001479  1
  O  O177  1  0.61692467  0.62129043  0.11550958  1
  O  O178  1  0.61679263  0.62065059  0.61159197  1
  O  O179  1  0.38209567  0.38784944  0.37202993  1
  O  O180  1  0.37828042  0.37030451  0.89052739  1
  O  O181  1  0.39385793  0.87541137  0.37321164  1
  O  O182  1  0.37656130  0.87164337  0.88478607  1
  O  O183  1  0.88047863  0.38359702  0.37982481  1
  O  O184  1  0.88063863  0.36998134  0.88784105  1
  O  O185  1  0.88239408  0.87845181  0.38505873  1
  O  O186  1  0.87993039  0.88639071  0.88567795  1
  O  O187  1  0.24683293  0.00990480  0.37583290  1
  O  O188  1  0.26147846  0.00787951  0.86932325  1
  O  O189  1  0.25611216  0.50065090  0.35929670  1
  O  O190  1  0.25327810  0.51088099  0.87190589  1
  O  O191  1  0.75309503  0.00227989  0.37048285  1
  O  O192  1  0.76090427  0.01203715  0.87552329  1
  O  O193  1  0.75765673  0.50286915  0.37252684  1
  O  O194  1  0.74727202  0.49836076  0.86471339  1
  O  O195  1  0.24132293  0.49581489  0.13277630  1
  O  O196  1  0.24078444  0.49062800  0.62880690  1
  O  O197  1  0.25606728  0.99132599  0.12028522  1
  O  O198  1  0.23867218  0.99283416  0.62793780  1
  O  O199  1  0.74418667  0.49006436  0.12876513  1
  O  O200  1  0.74865629  0.48471676  0.63109864  1
  O  O201  1  0.75654980  0.98591840  0.13627379  1
  O  O202  1  0.74203763  0.99051372  0.62955315  1
  O  O203  1  0.00535201  0.36908002  0.25283881  1
  O  O204  1  0.00487774  0.38163055  0.76340662  1
  O  O205  1  0.00975436  0.86877232  0.25689543  1
  O  O206  1  0.00478389  0.86321336  0.74911870  1
  O  O207  1  0.49588088  0.36863341  0.25919782  1
  O  O208  1  0.50963266  0.35994196  0.74525139  1
  O  O209  1  0.49853806  0.86506806  0.24853721  1
  O  O210  1  0.50672473  0.85583129  0.74871887  1
  O  O211  1  0.49067166  0.12977165  0.24658810  1
  O  O212  1  0.50714419  0.13792943  0.74357121  1
  O  O213  1  0.48869936  0.63588578  0.23852568  1
  O  O214  1  0.51316068  0.63840928  0.73857455  1
  O  O215  1  0.99468884  0.13003538  0.24801322  1
  O  O216  1  0.99617575  0.12159067  0.73622422  1
  O  O217  1  0.99328211  0.63177144  0.24056420  1
  O  O218  1  0.99486896  0.62564613  0.74768038  1
  O  O219  1  0.37389194  0.27147684  0.01242585  1
  O  O220  1  0.38485273  0.25759545  0.50630536  1
  O  O221  1  0.37450962  0.76138941  0.00678760  1
  O  O222  1  0.38603346  0.75234534  0.51350646  1
  O  O223  1  0.86930139  0.25667125  0.00785169  1
  O  O224  1  0.86852463  0.26255628  0.49073190  1
  O  O225  1  0.87911654  0.75962455  0.01124242  1
  O  O226  1  0.86852587  0.76488472  0.50510664  1
  O  O227  1  0.12076528  0.23937901  0.48771178  1
  O  O228  1  0.12159485  0.24289556  0.99674534  1
  O  O229  1  0.07834794  0.77111598  0.46427065  1
  O  O230  1  0.12389407  0.74426873  1.00991657  1
  O  O231  1  0.62789490  0.24353527  0.49124559  1
  O  O232  1  0.63293182  0.23908716  0.99853697  1
  O  O233  1  0.63022659  0.73866340  0.49597267  1
  O  O234  1  0.62446750  0.73568131  1.00331526  1
  O  O235  1  0.50732621  0.23775812  0.13729731  1
  O  O236  1  0.50119070  0.23866035  0.63545381  1
  O  O237  1  0.48866715  0.74688926  0.13083534  1
  O  O238  1  0.49611982  0.74108533  0.63085187  1
  O  O239  1  0.99426751  0.24389321  0.13484447  1
  O  O240  1  1.00270055  0.23833112  0.61494339  1
  O  O241  1  0.99132262  0.74642244  0.13135730  1
  O  O242  1  0.99792713  0.73678350  0.63274254  1
  O  O243  1  0.00627097  0.25352686  0.36781635  1
  O  O244  1  0.00892436  0.26576851  0.88375782  1
  O  O245  1  -0.02308841  0.75702131  0.35441020  1
  O  O246  1  -0.00539946  0.75253224  0.86248207  1
  O  O247  1  0.50642769  0.25847948  0.36901602  1
  O  O248  1  0.50281029  0.25397884  0.86305833  1
  O  O249  1  0.50214716  0.75640650  0.35309856  1
  O  O250  1  0.49671574  0.74938731  0.85921918  1
  O  O251  1  0.23913404  0.11973661  0.49296873  1
  O  O252  1  0.23747083  0.12806522  1.00429746  1
  O  O253  1  0.25602893  0.62001906  0.49553738  1
  O  O254  1  0.24350599  0.62976503  0.99077320  1
  O  O255  1  0.74489123  0.12918394  0.49753437  1
  O  O256  1  0.74566071  0.12707308  0.99759283  1
  O  O257  1  0.74503109  0.62590924  0.49565961  1
  O  O258  1  0.73935985  0.62824159  0.99786403  1
  O  O259  1  0.24315169  0.37600062  0.01514198  1
  O  O260  1  0.24517465  0.37701277  0.51719956  1
  O  O261  1  0.25486613  0.87595470  0.00796693  1
  O  O262  1  0.25027310  0.87758284  0.51332666  1
  O  O263  1  0.75522891  0.37057052  0.00652365  1
  O  O264  1  0.75634429  0.37028574  0.50718520  1
  O  O265  1  0.76411715  0.88262559  0.01464990  1
  O  O266  1  0.75311367  0.87186665  0.50571680  1
  O  O267  1  0.13160430  0.49536568  0.24367068  1
  O  O268  1  0.12230004  0.48785312  0.73766097  1
  O  O269  1  0.11849014  0.99389538  0.24876323  1
  O  O270  1  0.10930062  0.98552161  0.73210370  1
  O  O271  1  0.62611163  0.50976613  0.23219311  1
  O  O272  1  0.63395098  0.48983474  0.74592098  1
  O  O273  1  0.63740435  1.00612574  0.25302252  1
  O  O274  1  0.62759873  1.00396347  0.73758129  1
  O  O275  1  0.38158339  0.01033509  0.24866877  1
  O  O276  1  0.37854074  0.00007073  0.74843979  1
  O  O277  1  0.36777021  0.50797287  0.25196494  1
  O  O278  1  0.37445602  0.49229327  0.76001842  1
  O  O279  1  0.86921818  0.00422125  0.25996544  1
  O  O280  1  0.87249137  0.00683468  0.75911628  1
  O  O281  1  0.87535552  0.50539080  0.25762830  1
  O  O282  1  0.86528625  0.50494448  0.74833634  1
  O  O283  1  0.11757271  0.36430927  0.36596493  1
  O  O284  1  0.11824886  0.37229885  0.87168832  1
  O  O285  1  0.11920448  0.88040579  0.36384757  1
  O  O286  1  0.12561663  0.88350234  0.86121415  1
  O  O287  1  0.61752537  0.36635256  0.37604685  1
  O  O288  1  0.62751296  0.37027073  0.86277228  1
  O  O289  1  0.61040952  0.86972265  0.37637618  1
  O  O290  1  0.62941297  0.87491672  0.87491319  1
  O  O291  1  0.38357524  0.12465315  0.13856756  1
  O  O292  1  0.38542100  0.12391377  0.62242596  1
  O  O293  1  0.37990497  0.63206785  0.12525826  1
  O  O294  1  0.38952062  0.62848440  0.62212014  1
  O  O295  1  0.88061468  0.13129285  0.13194137  1
  O  O296  1  0.88497863  0.12047314  0.63391626  1
  O  O297  1  0.87791323  0.63193723  0.12597497  1
  O  O298  1  0.88497354  0.62020019  0.63668387  1
  O  O299  1  0.24398158  0.26813294  0.13394233  1
  O  O300  1  0.24784749  0.26200531  0.62870162  1
  O  O301  1  0.26149223  0.75764107  0.12361470  1
  O  O302  1  0.25993281  0.75473156  0.62838732  1
  O  O303  1  0.75323607  0.25555107  0.12199249  1
  O  O304  1  0.74521837  0.26078876  0.61844208  1
  O  O305  1  0.75763738  0.76375669  0.13122250  1
  O  O306  1  0.75028392  0.75570328  0.61757926  1
  O  O307  1  0.24164467  0.24377082  0.36783593  1
  O  O308  1  0.23392347  0.25155294  0.86911436  1
  O  O309  1  0.26605248  0.75546038  0.37563984  1
  O  O310  1  0.25279636  0.73835082  0.87288624  1
  O  O311  1  0.74238229  0.24490184  0.38077092  1
  O  O312  1  0.75239631  0.23725968  0.88452203  1
  O  O313  1  0.75040286  0.74290440  0.37946856  1
  O  O314  1  0.74443839  0.75654687  0.85992438  1
  O  O315  1  0.00447398  0.12496913  0.01357452  1
  O  O316  1  0.00688284  0.11787969  0.50282178  1
  O  O317  1  -0.00218019  0.61528783  0.00351329  1
  O  O318  1  -0.01403698  0.60653776  0.51380133  1
  O  O319  1  0.50699738  0.12411861  0.00927290  1
  O  O320  1  0.50453167  0.11698260  0.50772972  1
  O  O321  1  0.50614911  0.63296731  0.01014867  1
  O  O322  1  0.50860692  0.60950423  0.50554021  1
  O  O323  1  0.50449710  0.38679319  0.48966620  1
  O  O324  1  0.49502081  0.37124734  1.00140870  1
  O  O325  1  0.49952599  0.88336401  0.49107529  1
  O  O326  1  0.49316837  0.88365761  0.99852467  1
  O  O327  1  0.99330445  0.38122965  0.49656681  1
  O  O328  1  0.99007484  0.38120379  0.99781117  1
  O  O329  1  0.98818159  0.88436775  0.50176425  1
  O  O330  1  0.99028885  0.88271477  1.00234593  1
  O  O331  1  0.49556027  0.49452984  0.37657101  1
  O  O332  1  0.49931313  0.49554113  0.87672041  1
  O  O333  1  0.50749620  0.99465538  0.38598824  1
  O  O334  1  0.50176240  0.99714183  0.88686804  1
  O  O335  1  0.99398278  0.49289898  0.38249913  1
  O  O336  1  1.00402317  0.49006122  0.88815411  1
  O  O337  1  0.99704773  0.99105044  0.38896576  1
  O  O338  1  0.99314888  1.00265576  0.87468936  1
  O  O339  1  -0.00684417  0.01391926  0.12970068  1
  O  O340  1  0.00276945  0.00404411  0.61315043  1
  O  O341  1  0.00546558  0.50253619  0.11616645  1
  O  O342  1  0.00469479  0.50104983  0.61995767  1
  O  O343  1  0.49949405  0.01143083  0.11257837  1
  O  O344  1  0.50660574  0.00430998  0.61966138  1
  O  O345  1  0.50531703  0.51238689  0.12878064  1
  O  O346  1  0.50169091  0.50342365  0.61693117  1
  O  O347  1  0.24571832  0.38527087  0.24175096  1
  O  O348  1  0.23861106  0.37723621  0.74328633  1
  O  O349  1  0.24244956  0.87775954  0.23364003  1
  O  O350  1  0.24019304  0.87575933  0.73812863  1
  O  O351  1  0.75470788  0.37364256  0.23779746  1
  O  O352  1  0.74707880  0.37651054  0.74520785  1
  O  O353  1  0.75388102  0.88127067  0.23915308  1
  O  O354  1  0.74578737  0.86946580  0.74763053  1
  O  O355  1  0.26413857  0.12454641  0.25490505  1
  O  O356  1  0.20410971  0.11030574  0.76257043  1
  O  O357  1  0.26227675  0.62021803  0.24001581  1
  O  O358  1  0.24695249  0.62063664  0.76035649  1
  O  O359  1  0.75615140  0.11771645  0.25661831  1
  O  O360  1  0.75861564  0.12510519  0.75889251  1
  O  O361  1  0.75749556  0.62471751  0.25736755  1
  O  O362  1  0.75651118  0.61324132  0.74976917  1
  O  O363  1  0.36832529  0.12595508  0.36160135  1
  O  O364  1  0.37213663  0.13216277  0.88035265  1
  O  O365  1  0.38209604  0.61110819  0.36125259  1
  O  O366  1  0.35806590  0.62247851  0.88274357  1
  O  O367  1  0.86875465  0.11736390  0.37317442  1
  O  O368  1  0.87359985  0.12134607  0.87025740  1
  O  O369  1  0.87350733  0.60966439  0.37132470  1
  O  O370  1  0.86897924  0.62989873  0.86304452  1
  O  O371  1  0.12854042  0.38551549  0.13089043  1
  O  O372  1  0.13059360  0.37883128  0.63183006  1
  O  O373  1  0.13843047  0.87911618  0.13043676  1
  O  O374  1  0.13029714  0.88001325  0.62781412  1
  O  O375  1  0.63380177  0.38334321  0.12051497  1
  O  O376  1  0.63227524  0.37307581  0.63476005  1
  O  O377  1  0.63997769  0.87153381  0.11766554  1
  O  O378  1  0.63532690  0.88131992  0.61770958  1
  O  O379  1  0.11938389  0.25139053  0.25693710  1
  O  O380  1  0.11738235  0.26381316  0.75898946  1
  O  O381  1  0.11418605  0.75380733  0.24662536  1
  O  O382  1  0.11536307  0.75993242  0.74171774  1
  O  O383  1  0.61523301  0.24059628  0.26476493  1
  O  O384  1  0.61904369  0.25590616  0.75309710  1
  O  O385  1  0.60944733  0.74270105  0.24459620  1
  O  O386  1  0.62205344  0.75061550  0.74869772  1
  O  O387  1  0.38685343  0.24414219  0.25470614  1
  O  O388  1  0.38717075  0.25576202  0.74432617  1
  O  O389  1  0.38232052  0.74486187  0.23952684  1
  O  O390  1  0.38743630  0.75100774  0.73856352  1
  O  O391  1  0.88057774  0.24253366  0.24783920  1
  O  O392  1  0.87658076  0.23745946  0.75357831  1
  O  O393  1  0.88086803  0.74458888  0.23584877  1
  O  O394  1  0.88614661  0.73805935  0.74249136  1
  O  O395  1  0.38299020  0.49418306  0.48944920  1
  O  O396  1  0.36798837  0.47845165  1.00021940  1
  O  O397  1  0.38716948  0.99621041  0.50439297  1
  O  O398  1  0.38543602  0.99292152  0.99836776  1
  O  O399  1  0.87915655  0.48726970  0.49333990  1
  O  O400  1  0.88157855  0.48902696  1.00635704  1
  O  O401  1  0.87817053  0.99246890  0.49708117  1
  O  O402  1  0.87993270  0.99578068  0.99265076  1
  O  O403  1  0.12312999  0.01816790  -0.00204900  1
  O  O404  1  0.11568043  0.00529079  0.50785576  1
  O  O405  1  0.11463766  0.50073178  0.00848301  1
  O  O406  1  0.11276502  0.49552053  0.51295073  1
  O  O407  1  0.61960631  0.01299520  -0.00135225  1
  O  O408  1  0.61902623  0.00701372  0.51168968  1
  O  O409  1  0.62940634  0.51261427  0.01554095  1
  O  O410  1  0.61924384  0.50584246  0.50029669  1
  O  O411  1  0.36234139  0.37998182  0.11954059  1
  O  O412  1  0.35914701  0.37587169  0.62269704  1
  O  O413  1  0.36488929  0.87114095  0.11645669  1
  O  O414  1  0.36642564  0.86386123  0.62109532  1
  O  O415  1  0.86725791  0.36858684  0.11731987  1
  O  O416  1  0.86787510  0.37520610  0.61550629  1
  O  O417  1  0.87172152  0.86843669  0.12093180  1
  O  O418  1  0.86071486  0.87730629  0.61990935  1
  O  O419  1  0.13271036  0.13075696  0.38086190  1
  O  O420  1  0.11562031  0.13963208  0.89534520  1
  O  O421  1  0.10940859  0.62648422  0.38481728  1
  O  O422  1  0.13954236  0.62029489  0.87452085  1
  O  O423  1  0.63078164  0.13127182  0.38385827  1
  O  O424  1  0.63668155  0.12577278  0.88308321  1
  O  O425  1  0.62936297  0.62530865  0.38266750  1
  O  O426  1  0.62812312  0.62215118  0.89011008  1
