# generated using pymatgen
data_V85Zn86O256
_symmetry_space_group_name_H-M   'P 1'
_cell_length_a   16.92430533
_cell_length_b   16.93086032
_cell_length_c   16.92418527
_cell_angle_alpha   89.92476955
_cell_angle_beta   89.91742064
_cell_angle_gamma   90.05356272
_symmetry_Int_Tables_number   1
_chemical_formula_structural   V85Zn86O256
_chemical_formula_sum   'V85 Zn86 O256'
_cell_volume   4849.49631404
_cell_formula_units_Z   1
loop_
 _symmetry_equiv_pos_site_id
 _symmetry_equiv_pos_as_xyz
  1  'x, y, z'
loop_
 _atom_site_type_symbol
 _atom_site_label
 _atom_site_symmetry_multiplicity
 _atom_site_fract_x
 _atom_site_fract_y
 _atom_site_fract_z
 _atom_site_occupancy
  V  V0  1  0.00537306  0.75817225  0.75188360  1
  V  V1  1  0.00561161  0.37766961  0.37015365  1
  V  V2  1  0.00320223  0.37224848  0.87572613  1
  V  V3  1  0.50464304  0.61727328  0.62685211  1
  V  V4  1  0.62725533  0.87114157  0.75208611  1
  V  V5  1  0.49257589  0.62311578  0.12889200  1
  V  V6  1  0.74628453  0.87449609  0.12510967  1
  V  V7  1  0.75240213  0.74694360  0.49365200  1
  V  V8  1  0.37783545  0.87247692  0.50051946  1
  V  V9  1  -0.01147575  0.12154565  0.62113633  1
  V  V10  1  0.87143714  0.00633995  0.87099779  1
  V  V11  1  0.00731756  0.49820065  -0.00115611  1
  V  V12  1  0.36838049  0.00471521  0.86412565  1
  V  V13  1  0.37672236  0.37274855  0.49625247  1
  V  V14  1  0.49336605  0.14176572  0.12785356  1
  V  V15  1  0.87132263  0.87146749  0.00100752  1
  V  V16  1  0.87589397  0.49639144  0.87556672  1
  V  V17  1  0.37366583  0.14451163  0.24909806  1
  V  V18  1  0.63361567  0.12745612  0.49593039  1
  V  V19  1  0.12812065  0.49419901  0.12960650  1
  V  V20  1  -0.00075567  0.62409802  0.62425281  1
  V  V21  1  0.50439184  -0.00065457  0.49795779  1
  V  V22  1  0.25000313  0.74820723  0.50057076  1
  V  V23  1  0.50051475  0.00251721  0.00122246  1
  V  V24  1  0.25233993  0.74905232  0.00208113  1
  V  V25  1  0.50163699  0.74159543  0.75279239  1
  V  V26  1  0.12956696  0.37806128  0.75132329  1
  V  V27  1  -0.01284121  0.24443146  0.75212112  1
  V  V28  1  0.12165475  0.24777445  0.37394727  1
  V  V29  1  0.61320531  0.25239519  0.37082965  1
  V  V30  1  0.38010599  0.50169950  0.37026593  1
  V  V31  1  0.13372974  0.24323027  0.87136713  1
  V  V32  1  0.24421297  0.12434618  0.38457210  1
  V  V33  1  0.74852232  0.00856435  0.75104905  1
  V  V34  1  0.62143020  0.13715300  -0.00492340  1
  V  V35  1  0.62414098  0.37357255  0.74238831  1
  V  V36  1  0.74431138  0.49986358  0.74826938  1
  V  V37  1  0.50209229  0.87304770  0.87678543  1
  V  V38  1  0.87679938  0.00881085  0.36646930  1
  V  V39  1  0.37455653  0.87628607  0.00401101  1
  V  V40  1  -0.00448609  0.49378554  0.50186694  1
  V  V41  1  0.63008802  0.75310228  0.36899787  1
  V  V42  1  0.00209559  0.62866151  0.12599200  1
  V  V43  1  0.75845106  0.25461826  -0.00068816  1
  V  V44  1  0.25469857  0.62249964  0.86268111  1
  V  V45  1  0.49493936  0.12451286  0.62712443  1
  V  V46  1  0.25355598  0.38078696  0.62556337  1
  V  V47  1  0.12530375  -0.00067608  0.12388783  1
  V  V48  1  0.49254558  0.74563682  0.25290712  1
  V  V49  1  0.62134581  -0.00093218  0.13161148  1
  V  V50  1  0.50361961  0.49483101  0.49823314  1
  V  V51  1  0.25349569  0.62564073  0.37037079  1
  V  V52  1  0.50581407  0.87745721  0.36615891  1
  V  V53  1  0.87067647  0.49888810  0.37984877  1
  V  V54  1  0.74555255  0.49957591  0.25749244  1
  V  V55  1  -0.01483358  0.25123307  0.24437241  1
  V  V56  1  0.13548918  0.11981908  -0.00301860  1
  V  V57  1  0.62368577  0.50261174  0.12269568  1
  V  V58  1  0.87129937  0.62718198  0.75209440  1
  V  V59  1  0.86871776  0.25869158  0.61762465  1
  V  V60  1  0.00290056  0.87725336  0.37871453  1
  V  V61  1  0.37303329  0.50134927  0.86316824  1
  V  V62  1  -0.01928886  0.01838699  0.01009787  1
  V  V63  1  0.50074478  0.50524497  -0.00153803  1
  V  V64  1  0.63161301  0.74172846  0.88999633  1
  V  V65  1  0.12722025  0.49997622  0.62779158  1
  V  V66  1  0.37048025  0.37045459  0.00584635  1
  V  V67  1  0.12742271  0.87632169  0.25364359  1
  V  V68  1  0.37931102  0.74256238  0.62908794  1
  V  V69  1  0.62718187  0.62316845  0.49727916  1
  V  V70  1  0.60907500  0.37122329  0.25306234  1
  V  V71  1  0.87420312  0.75048262  0.62374445  1
  V  V72  1  0.87757126  0.88388385  0.50014595  1
  V  V73  1  0.24851421  0.49835599  0.25092702  1
  V  V74  1  0.74938777  0.87473467  0.62536159  1
  V  V75  1  0.16084390  0.03694919  0.64881949  1
  V  V76  1  0.12984863  0.62788195  -0.00131188  1
  V  V77  1  0.86560145  0.63036046  0.25874019  1
  V  V78  1  -0.00241519  0.75043588  0.24712406  1
  V  V79  1  0.37419189  0.00207430  0.37114791  1
  V  V80  1  0.49825343  0.24449356  0.75281424  1
  V  V81  1  0.62507934  -0.00024357  0.62435920  1
  V  V82  1  0.81584502  0.69521520  0.06835536  1
  V  V83  1  0.50539378  0.37000505  0.87614082  1
  V  V84  1  0.24404428  0.87049588  0.64089159  1
  Zn  Zn85  1  0.75441495  0.36550491  0.13376881  1
  Zn  Zn86  1  0.13355787  0.75800057  0.86716150  1
  Zn  Zn87  1  0.24763378  0.00316055  0.25195704  1
  Zn  Zn88  1  -0.00291231  0.13038285  0.13673745  1
  Zn  Zn89  1  0.74908923  0.00152170  0.24671005  1
  Zn  Zn90  1  0.75620157  0.13581860  0.35425568  1
  Zn  Zn91  1  0.37280401  0.74538255  0.13017631  1
  Zn  Zn92  1  0.88752529  0.36408502  0.01045435  1
  Zn  Zn93  1  0.74875309  0.38512580  0.61656526  1
  Zn  Zn94  1  0.24066756  0.24980232  0.50218268  1
  Zn  Zn95  1  0.12433667  0.62398673  0.49864036  1
  Zn  Zn96  1  0.25042850  0.87397939  0.12762782  1
  Zn  Zn97  1  0.74567330  0.13275400  0.87077328  1
  Zn  Zn98  1  0.37184941  0.24527039  0.62667906  1
  Zn  Zn99  1  0.25781781  0.24037801  0.00547219  1
  Zn  Zn100  1  0.12569900  0.75006422  0.37733525  1
  Zn  Zn101  1  0.74913228  0.62414062  0.89067991  1
  Zn  Zn102  1  0.00508855  0.88111542  0.87911073  1
  Zn  Zn103  1  0.02563179  0.00785636  0.50334501  1
  Zn  Zn104  1  0.75101521  0.26322716  0.49060446  1
  Zn  Zn105  1  0.25023230  0.36045167  0.13865057  1
  Zn  Zn106  1  0.25099615  0.11666417  0.82937043  1
  Zn  Zn107  1  0.18298895  0.18821281  0.19346276  1
  Zn  Zn108  1  0.17871351  0.20176283  0.68037068  1
  Zn  Zn109  1  0.18795264  0.68577608  0.18946004  1
  Zn  Zn110  1  0.18725327  0.68621114  0.68452538  1
  Zn  Zn111  1  0.68726196  0.18592467  0.18470333  1
  Zn  Zn112  1  0.68106386  0.19107648  0.68647137  1
  Zn  Zn113  1  0.67693195  0.68199501  0.19256479  1
  Zn  Zn114  1  0.68641634  0.68552242  0.68651485  1
  Zn  Zn115  1  0.30839372  0.31608896  0.31930810  1
  Zn  Zn116  1  0.31641034  0.31373203  0.81146327  1
  Zn  Zn117  1  0.31345562  0.81483086  0.31504586  1
  Zn  Zn118  1  0.32024285  0.80823228  0.81767761  1
  Zn  Zn119  1  0.80904395  0.31878088  0.31767864  1
  Zn  Zn120  1  0.80840899  0.31363071  0.81760558  1
  Zn  Zn121  1  0.81399473  0.81915524  0.31007163  1
  Zn  Zn122  1  0.81219776  0.81342783  0.81645528  1
  Zn  Zn123  1  0.18613188  0.43706072  0.43918162  1
  Zn  Zn124  1  0.19153685  0.43853537  0.93587992  1
  Zn  Zn125  1  0.18805655  0.94268931  0.45424912  1
  Zn  Zn126  1  0.18674124  0.93661911  0.93353872  1
  Zn  Zn127  1  0.68442861  0.43520781  0.43558342  1
  Zn  Zn128  1  0.68655931  0.43526579  0.93651225  1
  Zn  Zn129  1  0.69238561  0.93813674  0.43415017  1
  Zn  Zn130  1  0.68746296  0.93562222  0.94239911  1
  Zn  Zn131  1  0.31303500  0.06120540  0.06588966  1
  Zn  Zn132  1  0.31574041  0.05801746  0.56148239  1
  Zn  Zn133  1  0.31429536  0.55812220  0.06006782  1
  Zn  Zn134  1  0.31540284  0.56203385  0.56185683  1
  Zn  Zn135  1  0.80583298  0.06388764  0.06223843  1
  Zn  Zn136  1  0.81443413  0.06728387  0.56443113  1
  Zn  Zn137  1  0.82838219  0.52054615  0.07898040  1
  Zn  Zn138  1  0.81045972  0.56298728  0.56214118  1
  Zn  Zn139  1  0.43264936  0.43827807  0.18717626  1
  Zn  Zn140  1  0.44077285  0.43497548  0.68600993  1
  Zn  Zn141  1  0.43785397  0.94052939  0.18822960  1
  Zn  Zn142  1  0.43974372  0.93030319  0.68626054  1
  Zn  Zn143  1  0.93967767  0.43697167  0.19247945  1
  Zn  Zn144  1  0.93857851  0.43548321  0.69128108  1
  Zn  Zn145  1  0.93783002  0.93109376  0.18393806  1
  Zn  Zn146  1  0.93485230  0.93864516  0.68940481  1
  Zn  Zn147  1  0.05893006  0.06699413  0.31286057  1
  Zn  Zn148  1  0.05816490  0.06217706  0.81099649  1
  Zn  Zn149  1  0.06417582  0.56536600  0.31339729  1
  Zn  Zn150  1  0.06411811  0.56645200  0.81126582  1
  Zn  Zn151  1  0.56081362  0.07067080  0.30955260  1
  Zn  Zn152  1  0.56100208  0.06105646  0.81364639  1
  Zn  Zn153  1  0.56282433  0.56573432  0.31505337  1
  Zn  Zn154  1  0.56497619  0.56158430  0.81612892  1
  Zn  Zn155  1  0.43681195  0.18646013  0.44077911  1
  Zn  Zn156  1  0.43360757  0.18547866  0.93178622  1
  Zn  Zn157  1  0.43828973  0.68486755  0.43814519  1
  Zn  Zn158  1  0.43769636  0.68447513  0.93918118  1
  Zn  Zn159  1  0.93878793  0.19045792  0.43937117  1
  Zn  Zn160  1  0.93670505  0.18334338  0.93962403  1
  Zn  Zn161  1  0.93973365  0.68664467  0.43594663  1
  Zn  Zn162  1  0.94405900  0.68145853  0.93129369  1
  Zn  Zn163  1  0.07305276  0.30634432  0.06354907  1
  Zn  Zn164  1  0.05818394  0.31193175  0.56083556  1
  Zn  Zn165  1  0.06064463  0.81813436  0.06030793  1
  Zn  Zn166  1  0.06376589  0.81290786  0.56343662  1
  Zn  Zn167  1  0.56369024  0.31837053  0.06376711  1
  Zn  Zn168  1  0.56398087  0.31060346  0.56217336  1
  Zn  Zn169  1  0.56150166  0.81260012  0.06707015  1
  Zn  Zn170  1  0.56402036  0.81071087  0.55993382  1
  O  O171  1  0.11894292  0.11616620  0.11491858  1
  O  O172  1  0.10521508  0.12769327  0.62510552  1
  O  O173  1  0.12245020  0.61846496  0.11691544  1
  O  O174  1  0.11882003  0.61574414  0.62407871  1
  O  O175  1  0.61244101  0.11880601  0.11327900  1
  O  O176  1  0.61769236  0.11863704  0.61642506  1
  O  O177  1  0.61076498  0.61092041  0.13004276  1
  O  O178  1  0.61711059  0.63196839  0.61000838  1
  O  O179  1  0.37135203  0.38524760  0.38857806  1
  O  O180  1  0.38283037  0.38520773  0.88030822  1
  O  O181  1  0.38317798  0.88224062  0.38123527  1
  O  O182  1  0.38262546  0.88022880  0.88697549  1
  O  O183  1  0.88574126  0.39257420  0.36974861  1
  O  O184  1  0.88339031  0.38249824  0.87870799  1
  O  O185  1  0.88351462  0.88390567  0.38217857  1
  O  O186  1  0.87758873  0.87739681  0.88610881  1
  O  O187  1  0.25741757  0.00574143  0.37974234  1
  O  O188  1  0.26426818  -0.00129399  0.87173873  1
  O  O189  1  0.25460024  0.50722776  0.37146419  1
  O  O190  1  0.26425398  0.50638011  0.87586110  1
  O  O191  1  0.76610442  -0.00252098  0.36900153  1
  O  O192  1  0.75265471  -0.00227622  0.86660709  1
  O  O193  1  0.75589530  0.50122902  0.36608134  1
  O  O194  1  0.75901635  0.50312776  0.87036063  1
  O  O195  1  0.24490120  0.50271122  0.13482097  1
  O  O196  1  0.24144242  0.49181489  0.62125561  1
  O  O197  1  0.23783710  0.99675513  0.12883378  1
  O  O198  1  0.25847766  0.97897226  0.62642404  1
  O  O199  1  0.73530670  0.50504877  0.14159077  1
  O  O200  1  0.75857759  0.50122628  0.64355733  1
  O  O201  1  0.73839662  0.99191762  0.12066915  1
  O  O202  1  0.74591147  0.99546131  0.63185410  1
  O  O203  1  0.00045087  0.36652382  0.25790059  1
  O  O204  1  0.01085950  0.36795945  0.75594041  1
  O  O205  1  0.00884877  0.86841562  0.25562537  1
  O  O206  1  -0.00683703  0.86000994  0.74915911  1
  O  O207  1  0.51043323  0.37948360  0.24729156  1
  O  O208  1  0.50658096  0.37024748  0.75638775  1
  O  O209  1  0.49802632  0.87029445  0.26158729  1
  O  O210  1  0.50855261  0.86499482  0.75741394  1
  O  O211  1  0.48677003  0.12335758  0.23948385  1
  O  O212  1  0.50843257  0.13212484  0.74093220  1
  O  O213  1  0.50093451  0.63370387  0.24394714  1
  O  O214  1  0.51001210  0.63030304  0.74032982  1
  O  O215  1  0.99535847  0.14315676  0.25260768  1
  O  O216  1  1.00054668  0.13578150  0.73916903  1
  O  O217  1  0.99113552  0.63171557  0.24537233  1
  O  O218  1  0.98820285  0.63124366  0.74512527  1
  O  O219  1  0.37467927  0.26577134  -0.00887463  1
  O  O220  1  0.37579593  0.26131519  0.50410083  1
  O  O221  1  0.37002793  0.75760082  0.00229500  1
  O  O222  1  0.37160344  0.75274421  0.50806433  1
  O  O223  1  0.86408857  0.24959722  0.00049154  1
  O  O224  1  0.87203780  0.25115614  0.51411482  1
  O  O225  1  0.87807429  0.74873299  0.00360627  1
  O  O226  1  0.86968587  0.75869107  0.50055075  1
  O  O227  1  0.12186391  0.25770094  0.48358885  1
  O  O228  1  0.12823017  0.24062798  0.98312497  1
  O  O229  1  0.13551235  0.74733964  0.49888471  1
  O  O230  1  0.13225969  0.74002185  1.00211694  1
  O  O231  1  0.62544914  0.24283949  0.49148327  1
  O  O232  1  0.62437435  0.23990373  0.99940159  1
  O  O233  1  0.63365750  0.74666181  0.49089522  1
  O  O234  1  0.61897883  0.75023550  0.98794240  1
  O  O235  1  0.49955054  0.24056585  0.11947221  1
  O  O236  1  0.50072172  0.23947908  0.63113988  1
  O  O237  1  0.50072474  0.74153790  0.13490171  1
  O  O238  1  0.49737678  0.74205578  0.63132806  1
  O  O239  1  1.00330584  0.25242002  0.13886554  1
  O  O240  1  0.98834678  0.24652093  0.63133036  1
  O  O241  1  1.00586267  0.74569296  0.13837639  1
  O  O242  1  0.99387126  0.74562244  0.63293941  1
  O  O243  1  -0.00042362  0.25988003  0.36994628  1
  O  O244  1  0.00581124  0.25216830  0.86795737  1
  O  O245  1  0.00358185  0.75669455  0.36602776  1
  O  O246  1  -0.00015691  0.74966729  0.85945049  1
  O  O247  1  0.51314663  0.24341669  0.37653896  1
  O  O248  1  0.49574328  0.25821764  0.86708568  1
  O  O249  1  0.50491708  0.75725050  0.37124503  1
  O  O250  1  0.50827679  0.74962693  0.86947536  1
  O  O251  1  0.25957607  0.12912450  0.48905479  1
  O  O252  1  0.24190477  0.12086088  0.99721855  1
  O  O253  1  0.25057706  0.63572814  0.49687614  1
  O  O254  1  0.24655244  0.63006313  0.99386864  1
  O  O255  1  0.73839643  0.12798815  0.50083824  1
  O  O256  1  0.73566413  0.13528585  1.00024979  1
  O  O257  1  0.74403312  0.63865907  0.50367367  1
  O  O258  1  0.76690133  0.62769908  1.01298906  1
  O  O259  1  0.26507723  0.37376429  -0.00437837  1
  O  O260  1  0.25895043  0.37626918  0.50740893  1
  O  O261  1  0.25837116  0.86630769  0.00149579  1
  O  O262  1  0.25858960  0.86176785  0.50662361  1
  O  O263  1  0.75055423  0.36292463  0.00019307  1
  O  O264  1  0.74651073  0.37620443  0.50456753  1
  O  O265  1  0.75754933  0.87041575  0.00991929  1
  O  O266  1  0.75728406  0.86622532  0.50517770  1
  O  O267  1  0.13347669  0.50740816  0.24025913  1
  O  O268  1  0.11772302  0.49266187  0.73776379  1
  O  O269  1  0.12238976  0.99299085  0.24451998  1
  O  O270  1  0.10965811  0.99615925  0.72359631  1
  O  O271  1  0.62803775  0.49334710  0.24969732  1
  O  O272  1  0.63454308  0.49192940  0.75691910  1
  O  O273  1  0.61923667  1.00242238  0.23463709  1
  O  O274  1  0.62927821  0.99025077  0.74628916  1
  O  O275  1  0.37183117  0.00043530  0.26306328  1
  O  O276  1  0.38544796  -0.00936585  0.76701994  1
  O  O277  1  0.37000824  0.49809415  0.26405721  1
  O  O278  1  0.38066859  0.49591928  0.76446103  1
  O  O279  1  0.88486094  -0.00379672  0.26512559  1
  O  O280  1  0.86123145  -0.00801793  0.75979313  1
  O  O281  1  0.86587145  0.51051300  0.25656846  1
  O  O282  1  0.87282455  0.50632180  0.76074055  1
  O  O283  1  0.11165898  0.37349939  0.37658461  1
  O  O284  1  0.12528008  0.36775229  0.86849477  1
  O  O285  1  0.12006288  0.87960251  0.37282467  1
  O  O286  1  0.11771264  0.86856027  0.88122891  1
  O  O287  1  0.62135842  0.36960694  0.36112032  1
  O  O288  1  0.60972591  0.38049127  0.86848190  1
  O  O289  1  0.61631339  0.86747554  0.38111589  1
  O  O290  1  0.62025401  0.86463743  0.87295432  1
  O  O291  1  0.38104755  0.12072694  0.13668400  1
  O  O292  1  0.39101928  0.12322612  0.61885891  1
  O  O293  1  0.38737834  0.62466291  0.12119890  1
  O  O294  1  0.38524278  0.63566835  0.62089897  1
  O  O295  1  0.91375834  0.09608782  0.06692484  1
  O  O296  1  0.88094668  0.13985999  0.62767686  1
  O  O297  1  0.87612080  0.62896698  0.12855452  1
  O  O298  1  0.87923938  0.63162273  0.63184975  1
  O  O299  1  0.23390175  0.25163625  0.11728514  1
  O  O300  1  0.25142393  0.26607597  0.62083888  1
  O  O301  1  0.25288416  0.74928188  0.11475444  1
  O  O302  1  0.26061991  0.75169174  0.62072659  1
  O  O303  1  0.74093073  0.25250495  0.10615194  1
  O  O304  1  0.76282656  0.25098311  0.62907540  1
  O  O305  1  0.74719893  0.74964508  0.12425940  1
  O  O306  1  0.75555099  0.75525196  0.61775269  1
  O  O307  1  0.23937872  0.24317894  0.37774917  1
  O  O308  1  0.24499920  0.23852754  0.86531440  1
  O  O309  1  0.25200500  0.74373671  0.38340337  1
  O  O310  1  0.25387164  0.74114780  0.88642257  1
  O  O311  1  0.73858203  0.24936180  0.37450217  1
  O  O312  1  0.74807104  0.24818366  0.89072979  1
  O  O313  1  0.74270247  0.75965970  0.38163321  1
  O  O314  1  0.73608073  0.74663653  0.87466806  1
  O  O315  1  0.02411122  0.11652644  -0.02169629  1
  O  O316  1  -0.00415152  0.12537856  0.51619874  1
  O  O317  1  0.01115884  0.62129635  0.00483165  1
  O  O318  1  0.00185107  0.61640873  0.50692225  1
  O  O319  1  0.50359836  0.12072823  0.00367912  1
  O  O320  1  0.51087158  0.11734088  0.50530010  1
  O  O321  1  0.49748311  0.61154530  0.00658343  1
  O  O322  1  0.50745864  0.61908708  0.50709243  1
  O  O323  1  0.49430353  0.38788282  0.50843090  1
  O  O324  1  0.49167287  0.38198325  0.99395257  1
  O  O325  1  0.49662796  0.87955610  0.49165258  1
  O  O326  1  0.49447501  0.88211503  0.99656591  1
  O  O327  1  0.99860651  0.38863614  0.49390686  1
  O  O328  1  1.00522081  0.37872997  0.99369614  1
  O  O329  1  0.99441653  0.88034565  0.49864762  1
  O  O330  1  0.98700829  0.88981151  1.00421782  1
  O  O331  1  0.49062788  0.50806469  0.38524806  1
  O  O332  1  0.49185053  0.49596748  0.88177098  1
  O  O333  1  0.49611743  0.99454199  0.37707247  1
  O  O334  1  0.49393720  0.99557441  0.88635516  1
  O  O335  1  0.99627210  0.49681486  0.38151080  1
  O  O336  1  0.99750096  0.49421245  0.87716737  1
  O  O337  1  0.99327391  0.99866305  0.38575332  1
  O  O338  1  0.98643670  1.00078675  0.88216298  1
  O  O339  1  0.01195223  -0.00249539  0.12135089  1
  O  O340  1  -0.01792255  0.01726485  0.62238340  1
  O  O341  1  0.00926020  0.50885365  0.12077619  1
  O  O342  1  0.00299299  0.50297155  0.61944698  1
  O  O343  1  0.50268900  0.00401134  0.11392295  1
  O  O344  1  0.50650243  0.00257040  0.61983765  1
  O  O345  1  0.50220387  0.50424621  0.11902661  1
  O  O346  1  0.49585650  0.51166567  0.61750319  1
  O  O347  1  0.25299182  0.39182592  0.25237475  1
  O  O348  1  0.23772926  0.37234497  0.74326032  1
  O  O349  1  0.23809150  0.87658487  0.25169527  1
  O  O350  1  0.25687756  0.86237838  0.73931641  1
  O  O351  1  0.74049364  0.38595571  0.24981338  1
  O  O352  1  0.74062831  0.38299286  0.75250522  1
  O  O353  1  0.75759187  0.88031580  0.23136877  1
  O  O354  1  0.74386690  0.87922897  0.74398454  1
  O  O355  1  0.25687468  0.12253107  0.26306259  1
  O  O356  1  0.22741308  0.10211148  0.71010657  1
  O  O357  1  0.25027018  0.61706661  0.26025450  1
  O  O358  1  0.24987528  0.63218348  0.76323309  1
  O  O359  1  0.75085984  0.11584610  0.24212317  1
  O  O360  1  0.73806266  0.11223264  0.75171437  1
  O  O361  1  0.75936557  0.62202895  0.24890473  1
  O  O362  1  0.75983203  0.62043374  0.75084333  1
  O  O363  1  0.37112586  0.11873902  0.36868066  1
  O  O364  1  0.36993821  0.10994684  0.87055452  1
  O  O365  1  0.36347154  0.61608720  0.38262948  1
  O  O366  1  0.37034791  0.61024988  0.87940992  1
  O  O367  1  0.87272432  0.11148813  0.38450369  1
  O  O368  1  0.86643101  0.11068400  0.87941728  1
  O  O369  1  0.88071781  0.61433213  0.36656038  1
  O  O370  1  0.87111636  0.61869059  0.86689083  1
  O  O371  1  0.13030763  0.39182930  0.11577847  1
  O  O372  1  0.12938034  0.38036433  0.63133730  1
  O  O373  1  0.12675013  0.88075910  0.13506700  1
  O  O374  1  0.14511616  0.86151864  0.62855885  1
  O  O375  1  0.62518604  0.38594568  0.13632739  1
  O  O376  1  0.62501643  0.37513665  0.63837599  1
  O  O377  1  0.63242453  0.88509303  0.11832702  1
  O  O378  1  0.62944468  0.87960178  0.62950496  1
  O  O379  1  0.11246695  0.24886144  0.26676605  1
  O  O380  1  0.11467767  0.25856984  0.75783181  1
  O  O381  1  0.11959732  0.75846449  0.25414974  1
  O  O382  1  0.10807711  0.74171911  0.74845846  1
  O  O383  1  0.62558718  0.26460473  0.25224775  1
  O  O384  1  0.61309729  0.25978702  0.74989614  1
  O  O385  1  0.61436368  0.74792213  0.26335712  1
  O  O386  1  0.61827018  0.75343364  0.75587340  1
  O  O387  1  0.37045911  0.24361652  0.25528449  1
  O  O388  1  0.39114497  0.25643030  0.74382107  1
  O  O389  1  0.38744095  0.75513857  0.24966542  1
  O  O390  1  0.39277779  0.75130133  0.74493772  1
  O  O391  1  0.88579386  0.25966305  0.25131593  1
  O  O392  1  0.88381133  0.25577849  0.74725137  1
  O  O393  1  0.88414719  0.74297856  0.25651969  1
  O  O394  1  0.87970932  0.74302420  0.74636829  1
  O  O395  1  0.38314555  0.49516617  0.49267066  1
  O  O396  1  0.38240389  0.48922788  0.99167907  1
  O  O397  1  0.38403397  0.99465456  0.48880814  1
  O  O398  1  0.38139203  0.99386553  0.99397016  1
  O  O399  1  0.88204511  0.50853843  0.49115505  1
  O  O400  1  0.88991075  0.50626996  0.98381459  1
  O  O401  1  0.86904928  0.98887611  0.49436564  1
  O  O402  1  0.86884197  0.98595342  0.98750517  1
  O  O403  1  0.11907224  0.00399435  0.00772690  1
  O  O404  1  0.13600234  0.00179628  0.54126177  1
  O  O405  1  0.12552061  0.51105605  0.00296515  1
  O  O406  1  0.11644795  0.50021534  0.51247489  1
  O  O407  1  0.61614767  0.00804886  0.00640532  1
  O  O408  1  0.62336846  0.00571139  0.50279897  1
  O  O409  1  0.61506751  0.49223757  0.01024071  1
  O  O410  1  0.61569332  0.51099927  0.49182455  1
  O  O411  1  0.37041999  0.38020609  0.10955495  1
  O  O412  1  0.36718917  0.37902696  0.61645516  1
  O  O413  1  0.37415770  0.87484026  0.11461342  1
  O  O414  1  0.37328996  0.86060780  0.62003131  1
  O  O415  1  0.86287220  0.40887046  0.11395122  1
  O  O416  1  0.87364233  0.36193500  0.63162327  1
  O  O417  1  0.86667574  0.87610217  0.11121294  1
  O  O418  1  0.87062266  0.86975102  0.61696165  1
  O  O419  1  0.13306225  0.13047132  0.37622959  1
  O  O420  1  0.13675041  0.12707229  0.87013016  1
  O  O421  1  0.13829386  0.62647390  0.37915694  1
  O  O422  1  0.13479989  0.62820776  0.88206244  1
  O  O423  1  0.62888897  0.13119340  0.37995345  1
  O  O424  1  0.62394131  0.11834885  0.89233733  1
  O  O425  1  0.62101647  0.63817519  0.38771456  1
  O  O426  1  0.62946832  0.63638176  0.87724544  1
