# generated using pymatgen
data_V85Zn86O256
_symmetry_space_group_name_H-M   'P 1'
_cell_length_a   16.95277803
_cell_length_b   16.94488595
_cell_length_c   16.96098950
_cell_angle_alpha   89.89418016
_cell_angle_beta   90.02517636
_cell_angle_gamma   90.01770688
_symmetry_Int_Tables_number   1
_chemical_formula_structural   V85Zn86O256
_chemical_formula_sum   'V85 Zn86 O256'
_cell_volume   4872.25385162
_cell_formula_units_Z   1
loop_
 _symmetry_equiv_pos_site_id
 _symmetry_equiv_pos_as_xyz
  1  'x, y, z'
loop_
 _atom_site_type_symbol
 _atom_site_label
 _atom_site_symmetry_multiplicity
 _atom_site_fract_x
 _atom_site_fract_y
 _atom_site_fract_z
 _atom_site_occupancy
  V  V0  1  0.11937005  0.61117187  0.49565702  1
  V  V1  1  0.50000701  0.49485247  -0.00425583  1
  V  V2  1  -0.00747438  0.50036089  -0.00896038  1
  V  V3  1  0.74725589  -0.00192048  0.74557055  1
  V  V4  1  0.50102886  0.62070452  0.60642564  1
  V  V5  1  0.12449405  0.50032163  0.12199299  1
  V  V6  1  0.62692721  0.25484783  0.36770482  1
  V  V7  1  0.25283434  0.62168237  0.36915137  1
  V  V8  1  0.63855487  0.37747927  0.75844679  1
  V  V9  1  0.74992556  0.88317343  0.13212033  1
  V  V10  1  0.12437682  0.25268781  0.87905116  1
  V  V11  1  0.74949891  0.74990623  0.00401225  1
  V  V12  1  0.49592124  0.75476837  0.25028146  1
  V  V13  1  0.37821705  -0.00574284  0.38777169  1
  V  V14  1  0.12197940  0.11728040  0.50784518  1
  V  V15  1  0.50832535  0.00153088  0.00152546  1
  V  V16  1  0.00202838  0.12475151  0.12463534  1
  V  V17  1  0.62019092  -0.00388147  0.62017473  1
  V  V18  1  0.73297957  0.12814261  0.88081538  1
  V  V19  1  0.62655132  0.62393985  -0.00126013  1
  V  V20  1  0.74951982  0.49788558  0.25447564  1
  V  V21  1  -0.00166942  0.12115585  0.62665624  1
  V  V22  1  0.24593614  0.36986872  0.11286375  1
  V  V23  1  0.87890812  0.37394083  0.51370838  1
  V  V24  1  0.86502748  0.87056486  0.51014682  1
  V  V25  1  0.12582387  0.37616650  0.74883170  1
  V  V26  1  0.75699496  0.24873686  0.51393295  1
  V  V27  1  0.24491412  -0.00018105  0.24638532  1
  V  V28  1  0.62586545  0.88347631  0.25401085  1
  V  V29  1  -0.00082148  -0.00672134  0.51139086  1
  V  V30  1  0.76646744  0.49998755  0.74638780  1
  V  V31  1  0.88457713  0.49563345  0.37753501  1
  V  V32  1  -0.00348032  0.62805023  0.63659252  1
  V  V33  1  0.87508478  0.87931363  0.00256748  1
  V  V34  1  0.49842156  0.87486183  0.87440953  1
  V  V35  1  0.25196285  0.37082898  0.62336118  1
  V  V36  1  0.49119327  0.73429810  0.75264570  1
  V  V37  1  0.37591875  0.12133658  0.25029770  1
  V  V38  1  -0.00594456  0.25044735  0.74669636  1
  V  V39  1  0.49751715  0.87419945  0.39254076  1
  V  V40  1  0.62339309  0.12633596  0.50136210  1
  V  V41  1  0.50579231  0.25983966  0.76891548  1
  V  V42  1  0.24052833  0.00084666  0.74556670  1
  V  V43  1  0.62942943  0.74547086  0.37933831  1
  V  V44  1  0.76525237  0.61875843  0.87596930  1
  V  V45  1  0.00466779  0.00462978  0.00437821  1
  V  V46  1  0.49634204  0.12186784  0.62479077  1
  V  V47  1  0.12971740  0.12744258  0.00554046  1
  V  V48  1  0.37517521  0.13250683  0.74880513  1
  V  V49  1  0.12179821  0.87936780  0.24345195  1
  V  V50  1  -0.00021040  0.62486759  0.12520466  1
  V  V51  1  0.62428437  0.74767706  0.87613047  1
  V  V52  1  -0.00076338  0.74980127  0.24942302  1
  V  V53  1  0.62502043  0.50144226  0.12877895  1
  V  V54  1  0.37472792  0.37078408  -0.00840232  1
  V  V55  1  0.87460529  0.75081148  0.12723311  1
  V  V56  1  0.74938391  0.74094141  0.51717671  1
  V  V57  1  0.25166935  0.13205129  0.88071434  1
  V  V58  1  0.37405162  0.50718395  0.87253260  1
  V  V59  1  0.87122808  0.12474305  0.74269186  1
  V  V60  1  0.62248534  0.87297472  0.74609195  1
  V  V61  1  0.24892665  0.74813234  -0.00014942  1
  V  V62  1  -0.00210784  0.24923056  0.24993655  1
  V  V63  1  0.86710180  0.11812535  0.25099816  1
  V  V64  1  0.42665243  0.30029693  0.57098531  1
  V  V65  1  0.12354707  0.74872804  0.37534091  1
  V  V66  1  0.25427817  0.50913616  0.74431577  1
  V  V67  1  0.49824110  0.63355141  0.12056787  1
  V  V68  1  0.25039943  0.24644920  0.50636086  1
  V  V69  1  0.72457958  0.25005317  -0.00050250  1
  V  V70  1  0.74809701  0.37697393  0.12739147  1
  V  V71  1  0.12321539  0.37231111  0.24732287  1
  V  V72  1  0.37452042  0.00192965  0.87580602  1
  V  V73  1  0.01038582  0.87464130  0.87383084  1
  V  V74  1  0.12322632  0.24819015  0.37737346  1
  V  V75  1  0.87364115  0.25137468  0.11992458  1
  V  V76  1  0.24786779  0.11951195  0.37689488  1
  V  V77  1  0.37439397  0.62537065  0.24281735  1
  V  V78  1  0.26038102  0.75172302  0.49673070  1
  V  V79  1  0.37661954  0.87095545  0.00563128  1
  V  V80  1  0.36766485  0.24480353  0.11804529  1
  V  V81  1  0.50663272  0.12306810  0.12460582  1
  V  V82  1  0.25293101  0.87236420  0.12720704  1
  V  V83  1  0.87237396  0.00414940  0.87569486  1
  V  V84  1  -0.00490096  0.87677598  0.37710830  1
  Zn  Zn85  1  0.56500060  0.41141981  0.30000027  1
  Zn  Zn86  1  0.86856609  0.37895225  -0.00799712  1
  Zn  Zn87  1  0.25075158  0.63227500  0.86358008  1
  Zn  Zn88  1  0.39044084  0.47731518  0.37080480  1
  Zn  Zn89  1  0.87678441  0.66465549  0.74267026  1
  Zn  Zn90  1  0.49706291  0.25391277  0.25346781  1
  Zn  Zn91  1  0.87339641  0.62424509  0.25546340  1
  Zn  Zn92  1  0.37660049  0.75370558  0.62396425  1
  Zn  Zn93  1  0.50519235  0.48947423  0.48885241  1
  Zn  Zn94  1  0.12630639  0.74739455  0.86304271  1
  Zn  Zn95  1  0.75172435  0.62297546  0.38223736  1
  Zn  Zn96  1  0.74514623  0.11861742  0.37319120  1
  Zn  Zn97  1  0.63020377  0.50096672  0.62443800  1
  Zn  Zn98  1  0.63113531  0.00513346  0.12724309  1
  Zn  Zn99  1  0.12645338  0.49655323  0.61407824  1
  Zn  Zn100  1  0.12567270  0.62827055  -0.00508057  1
  Zn  Zn101  1  0.86546980  -0.00502253  0.37311414  1
  Zn  Zn102  1  -0.00733848  0.38410458  0.86589600  1
  Zn  Zn103  1  0.25290027  0.88549016  0.60917752  1
  Zn  Zn104  1  0.00455499  0.37714924  0.38330847  1
  Zn  Zn105  1  0.11725656  0.87220877  0.72340708  1
  Zn  Zn106  1  0.25644485  0.49377226  0.24415116  1
  Zn  Zn107  1  0.18841626  0.18761313  0.18802515  1
  Zn  Zn108  1  0.18589034  0.18753567  0.68935311  1
  Zn  Zn109  1  0.18667032  0.69013897  0.18400469  1
  Zn  Zn110  1  0.18188826  0.69270969  0.68002521  1
  Zn  Zn111  1  0.68864373  0.18910697  0.18549281  1
  Zn  Zn112  1  0.68172173  0.18820208  0.69177517  1
  Zn  Zn113  1  0.68637724  0.68888223  0.19259665  1
  Zn  Zn114  1  0.68341079  0.67945137  0.69220572  1
  Zn  Zn115  1  0.30828134  0.30645483  0.30590999  1
  Zn  Zn116  1  0.31315770  0.31394055  0.81115780  1
  Zn  Zn117  1  0.31548417  0.81123106  0.31373308  1
  Zn  Zn118  1  0.31048653  0.81587323  0.81148659  1
  Zn  Zn119  1  0.81052605  0.31067992  0.31699485  1
  Zn  Zn120  1  0.81219082  0.30850323  0.81726256  1
  Zn  Zn121  1  0.81077304  0.81081692  0.31474135  1
  Zn  Zn122  1  0.80433838  0.81600483  0.82350864  1
  Zn  Zn123  1  0.22049838  0.42312222  0.42174194  1
  Zn  Zn124  1  0.18587551  0.44182185  0.93398795  1
  Zn  Zn125  1  0.18385789  0.93527492  0.43528499  1
  Zn  Zn126  1  0.19101816  0.94519192  0.94135620  1
  Zn  Zn127  1  0.69835785  0.43676021  0.44066257  1
  Zn  Zn128  1  0.68770756  0.43584789  0.93353072  1
  Zn  Zn129  1  0.68808487  0.93759634  0.43720354  1
  Zn  Zn130  1  0.68721741  0.93661715  0.93666573  1
  Zn  Zn131  1  0.31269423  0.05710101  0.06314412  1
  Zn  Zn132  1  0.31429267  0.06638721  0.56563849  1
  Zn  Zn133  1  0.31382600  0.56141975  0.06198305  1
  Zn  Zn134  1  0.32354986  0.56066868  0.55584756  1
  Zn  Zn135  1  0.81063586  0.06828832  0.06096054  1
  Zn  Zn136  1  0.80950029  0.05560944  0.56074770  1
  Zn  Zn137  1  0.81445028  0.56389569  0.06560908  1
  Zn  Zn138  1  0.81966873  0.55973670  0.56551219  1
  Zn  Zn139  1  0.43242373  0.44019670  0.17771703  1
  Zn  Zn140  1  0.44249414  0.44267013  0.69135786  1
  Zn  Zn141  1  0.43690131  0.93834414  0.19102719  1
  Zn  Zn142  1  0.43084049  0.93543639  0.68354866  1
  Zn  Zn143  1  0.93516606  0.43687737  0.18831316  1
  Zn  Zn144  1  0.94630306  0.44537723  0.68006171  1
  Zn  Zn145  1  0.93897986  0.93957813  0.18593548  1
  Zn  Zn146  1  0.91352019  0.87664281  0.71238841  1
  Zn  Zn147  1  0.05714923  0.06102851  0.31624257  1
  Zn  Zn148  1  0.06108698  0.06351474  0.81645373  1
  Zn  Zn149  1  0.06386479  0.56018688  0.30964702  1
  Zn  Zn150  1  0.06897261  0.56692364  0.80939919  1
  Zn  Zn151  1  0.55991590  0.06109634  0.31768550  1
  Zn  Zn152  1  0.55736151  0.06146095  0.80816889  1
  Zn  Zn153  1  0.56147965  0.57236094  0.31381798  1
  Zn  Zn154  1  0.56950304  0.55578243  0.81636754  1
  Zn  Zn155  1  0.44536031  0.18361346  0.43067858  1
  Zn  Zn156  1  0.44050150  0.18645112  0.94159207  1
  Zn  Zn157  1  0.43786394  0.67516646  0.43334116  1
  Zn  Zn158  1  0.43374739  0.68820921  0.93735466  1
  Zn  Zn159  1  0.93686154  0.18754166  0.43809426  1
  Zn  Zn160  1  0.93417243  0.19190943  0.93263791  1
  Zn  Zn161  1  0.93436050  0.68687680  0.44131639  1
  Zn  Zn162  1  0.94023205  0.69231336  0.93967779  1
  Zn  Zn163  1  0.05779859  0.31333913  0.05850618  1
  Zn  Zn164  1  0.06170871  0.30915234  0.56570883  1
  Zn  Zn165  1  0.06553552  0.81420119  0.05981172  1
  Zn  Zn166  1  0.07034120  0.80918336  0.56086461  1
  Zn  Zn167  1  0.55171798  0.32208664  0.08919311  1
  Zn  Zn168  1  0.60133494  0.34421708  0.54820581  1
  Zn  Zn169  1  0.56505987  0.81513186  0.06496046  1
  Zn  Zn170  1  0.56671498  0.80488871  0.56714258  1
  O  O171  1  0.12077617  0.13424935  0.11202044  1
  O  O172  1  0.11862540  0.12733509  0.61383272  1
  O  O173  1  0.11709288  0.61761750  0.12243787  1
  O  O174  1  0.12537217  0.62052393  0.60551888  1
  O  O175  1  0.61105720  0.12293739  0.13162986  1
  O  O176  1  0.61577685  0.11921974  0.62263013  1
  O  O177  1  0.61935810  0.62111548  0.11904160  1
  O  O178  1  0.60552111  0.61877037  0.63611050  1
  O  O179  1  0.32405769  0.38636216  0.37804843  1
  O  O180  1  0.36764263  0.38247747  0.88785679  1
  O  O181  1  0.38615408  0.88282701  0.36853269  1
  O  O182  1  0.38086906  0.88242137  0.88280642  1
  O  O183  1  0.87821208  0.37977083  0.38192431  1
  O  O184  1  0.88433699  0.36145378  0.88246620  1
  O  O185  1  0.88488384  0.87229174  0.38056623  1
  O  O186  1  0.88269205  0.88965667  0.88456953  1
  O  O187  1  0.25520873  0.00121426  0.36471536  1
  O  O188  1  0.25490138  0.01385490  0.86952695  1
  O  O189  1  0.23636457  0.51933517  0.35892867  1
  O  O190  1  0.25665049  0.50174252  0.86401053  1
  O  O191  1  0.75265887  0.00563047  0.37779133  1
  O  O192  1  0.75521612  0.00637727  0.87134503  1
  O  O193  1  0.75854105  0.50096399  0.36844936  1
  O  O194  1  0.75072896  0.51094491  0.86689081  1
  O  O195  1  0.24071591  0.49132536  0.12280802  1
  O  O196  1  0.25449326  0.49046840  0.62753612  1
  O  O197  1  0.25100916  0.99071935  0.13854597  1
  O  O198  1  0.25400083  1.00688808  0.64274621  1
  O  O199  1  0.74790536  0.49450714  0.13101108  1
  O  O200  1  0.74987043  0.50739783  0.64256534  1
  O  O201  1  0.74998862  0.98758031  0.11931847  1
  O  O202  1  0.73881614  1.00442521  0.63960109  1
  O  O203  1  0.00678107  0.36550114  0.24877763  1
  O  O204  1  0.00855536  0.36839756  0.74650022  1
  O  O205  1  0.00516684  0.87196010  0.25522344  1
  O  O206  1  0.00955983  0.89510425  0.77017517  1
  O  O207  1  0.50675979  0.36420322  0.21674373  1
  O  O208  1  0.49447933  0.36065849  0.75620415  1
  O  O209  1  0.50698509  0.86814686  0.25279713  1
  O  O210  1  0.50789288  0.87001591  0.75677326  1
  O  O211  1  0.48949332  0.12375823  0.24401029  1
  O  O212  1  0.49583332  0.13652225  0.74313938  1
  O  O213  1  0.49446731  0.63393487  0.24088787  1
  O  O214  1  0.50101970  0.63484906  0.75967712  1
  O  O215  1  0.99466584  0.13047528  0.24269618  1
  O  O216  1  0.99148060  0.12744387  0.74707394  1
  O  O217  1  1.00029580  0.63033204  0.23847924  1
  O  O218  1  0.99934810  0.62899869  0.74099926  1
  O  O219  1  0.37695960  0.25721188  0.00652992  1
  O  O220  1  0.37191882  0.24093085  0.50413291  1
  O  O221  1  0.36970485  0.76461173  -0.00192809  1
  O  O222  1  0.36167397  0.74360156  0.48871658  1
  O  O223  1  0.87206180  0.24549185  0.01430445  1
  O  O224  1  0.86409367  0.25342218  0.49812002  1
  O  O225  1  0.87044007  0.75843547  0.00824255  1
  O  O226  1  0.86256113  0.75999899  0.49793526  1
  O  O227  1  0.12758957  0.24030349  0.49357055  1
  O  O228  1  0.11814769  0.24544803  0.98624871  1
  O  O229  1  0.13392972  0.74040678  0.48365539  1
  O  O230  1  0.13608624  0.75080222  0.99665645  1
  O  O231  1  0.63805294  0.24740630  0.49291828  1
  O  O232  1  0.62754027  0.25752619  1.01554865  1
  O  O233  1  0.64211610  0.75684714  0.49387045  1
  O  O234  1  0.62977281  0.74431657  0.99689860  1
  O  O235  1  0.48353993  0.23601401  0.12598900  1
  O  O236  1  0.48947064  0.24474420  0.63191158  1
  O  O237  1  0.50643085  0.73995754  0.13157504  1
  O  O238  1  0.50238313  0.73853728  0.63877178  1
  O  O239  1  0.99186402  0.24574103  0.12883140  1
  O  O240  1  1.00475425  0.23907635  0.64010055  1
  O  O241  1  0.99719947  0.74401708  0.12779951  1
  O  O242  1  1.01003979  0.72602310  0.61116134  1
  O  O243  1  0.01132643  0.24799346  0.36966714  1
  O  O244  1  0.00949699  0.24592363  0.86143144  1
  O  O245  1  0.00578193  0.75576336  0.37060985  1
  O  O246  1  0.00337299  0.77166962  0.88394240  1
  O  O247  1  0.51775544  0.24984500  0.37169314  1
  O  O248  1  0.50375343  0.24453801  0.86648789  1
  O  O249  1  0.50640304  0.75482045  0.36805217  1
  O  O250  1  0.50348645  0.75312004  0.86794308  1
  O  O251  1  0.24028075  0.12626463  0.49714257  1
  O  O252  1  0.24255331  0.11963021  0.99318929  1
  O  O253  1  0.24412288  0.63238505  0.48522089  1
  O  O254  1  0.25204441  0.64175529  1.00822925  1
  O  O255  1  0.74103306  0.13276937  0.50255971  1
  O  O256  1  0.74700966  0.13584263  0.99362027  1
  O  O257  1  0.75632375  0.63737074  0.50290404  1
  O  O258  1  0.74794903  0.62860788  0.99462882  1
  O  O259  1  0.25420786  0.37847745  0.00684410  1
  O  O260  1  0.24205048  0.36337298  0.51788948  1
  O  O261  1  0.25579393  0.87299596  0.00863625  1
  O  O262  1  0.24801284  0.85552260  0.48632639  1
  O  O263  1  0.75030683  0.36753362  0.00622738  1
  O  O264  1  0.76343630  0.35722896  0.49927873  1
  O  O265  1  0.75564043  0.86990817  0.00706225  1
  O  O266  1  0.76078071  0.86594763  0.49758778  1
  O  O267  1  0.12250922  0.49149729  0.23441438  1
  O  O268  1  0.13445435  0.48738778  0.74881290  1
  O  O269  1  0.13205136  0.99133660  0.25777733  1
  O  O270  1  0.13901226  1.00548237  0.75483893  1
  O  O271  1  0.63169175  0.50051864  0.24498226  1
  O  O272  1  0.63897844  0.49199351  0.75267757  1
  O  O273  1  0.61928400  0.98695280  0.24957998  1
  O  O274  1  0.62674633  0.99342510  0.74229523  1
  O  O275  1  0.36665996  0.00879443  0.25544887  1
  O  O276  1  0.37210256  0.01436550  0.75942151  1
  O  O277  1  0.37441522  0.50940107  0.24983920  1
  O  O278  1  0.36692724  0.49196589  0.76187491  1
  O  O279  1  0.88143007  0.01519599  0.25006543  1
  O  O280  1  0.86244546  -0.00257584  0.75896664  1
  O  O281  1  0.86833211  0.50050303  0.25841564  1
  O  O282  1  0.86590860  0.49213807  0.74961884  1
  O  O283  1  0.12707421  0.36415791  0.36818480  1
  O  O284  1  0.12075173  0.36853817  0.86779147  1
  O  O285  1  0.11356077  0.86766825  0.36642321  1
  O  O286  1  0.11224942  0.88200250  0.88530021  1
  O  O287  1  0.63739859  0.35866673  0.37266857  1
  O  O288  1  0.62009445  0.38025509  0.85905965  1
  O  O289  1  0.61735386  0.86760582  0.37031914  1
  O  O290  1  0.61639058  0.86786013  0.87183378  1
  O  O291  1  0.37679159  0.12765445  0.13131294  1
  O  O292  1  0.38531988  0.12306478  0.63542985  1
  O  O293  1  0.38434283  0.62299476  0.13252021  1
  O  O294  1  0.39469316  0.63420831  0.61888749  1
  O  O295  1  0.87968205  0.13132818  0.13401810  1
  O  O296  1  0.87756887  0.11414082  0.63803892  1
  O  O297  1  0.88415008  0.63257647  0.12827386  1
  O  O298  1  0.89148657  0.62380552  0.62892071  1
  O  O299  1  0.25936732  0.25325071  0.12323334  1
  O  O300  1  0.24906955  0.25431141  0.61993742  1
  O  O301  1  0.24574708  0.76564258  0.11897083  1
  O  O302  1  0.25376265  0.74249957  0.60154786  1
  O  O303  1  0.75467906  0.25777202  0.11952381  1
  O  O304  1  0.74593656  0.24463449  0.61270728  1
  O  O305  1  0.75398089  0.75828964  0.12199844  1
  O  O306  1  0.74270134  0.74574999  0.61586197  1
  O  O307  1  0.23791363  0.23688599  0.38093957  1
  O  O308  1  0.24104403  0.23958224  0.86931282  1
  O  O309  1  0.24234426  0.74136936  0.37345102  1
  O  O310  1  0.25242614  0.75134479  0.88628138  1
  O  O311  1  0.74102876  0.23941781  0.38087110  1
  O  O312  1  0.74631528  0.24008389  0.88794581  1
  O  O313  1  0.74270416  0.74739814  0.38187749  1
  O  O314  1  0.74199058  0.74326857  0.88623616  1
  O  O315  1  0.00586484  0.12231701  0.00393318  1
  O  O316  1  0.00318650  0.11677198  0.50435551  1
  O  O317  1  0.00076869  0.61808389  0.00884757  1
  O  O318  1  0.01809527  0.62284695  0.49041572  1
  O  O319  1  0.49245333  0.11213178  0.01133072  1
  O  O320  1  0.51386445  0.13227555  0.51150527  1
  O  O321  1  0.50401080  0.62230074  0.00570491  1
  O  O322  1  0.51438485  0.62980933  0.50608525  1
  O  O323  1  0.48734020  0.35576984  0.51361860  1
  O  O324  1  0.48820405  0.38585910  1.01142867  1
  O  O325  1  0.50315214  0.86555630  0.49115663  1
  O  O326  1  0.49316302  0.87931427  0.99729721  1
  O  O327  1  0.98458968  0.36221150  0.49887666  1
  O  O328  1  0.99852366  0.39333166  1.00101308  1
  O  O329  1  0.99240185  0.87615173  0.49323608  1
  O  O330  1  0.99513005  0.88664798  0.99719845  1
  O  O331  1  0.50803737  0.48721683  0.36663637  1
  O  O332  1  0.49236194  0.50538019  0.88855094  1
  O  O333  1  0.49065656  0.98808476  0.37472544  1
  O  O334  1  0.49447645  0.99646509  0.88320653  1
  O  O335  1  0.98887166  0.49546126  0.36817907  1
  O  O336  1  1.00679182  0.50382960  0.88874996  1
  O  O337  1  0.99366884  0.98926101  0.38286030  1
  O  O338  1  0.99218295  0.99911798  0.88743735  1
  O  O339  1  -0.00346415  0.00748874  0.11234820  1
  O  O340  1  -0.00150495  0.00452043  0.61204706  1
  O  O341  1  0.00411391  0.50772392  0.11877398  1
  O  O342  1  0.01143239  0.51856121  0.62219908  1
  O  O343  1  0.49926310  0.00639247  0.11862531  1
  O  O344  1  0.50693899  0.01149806  0.63329924  1
  O  O345  1  0.50383445  0.51372882  0.11395258  1
  O  O346  1  0.49764724  0.51357609  0.62205680  1
  O  O347  1  0.23875470  0.37155470  0.22963725  1
  O  O348  1  0.24460784  0.37758848  0.74008820  1
  O  O349  1  0.24338471  0.87909089  0.24560069  1
  O  O350  1  0.25057372  0.89763823  0.75781828  1
  O  O351  1  0.75664323  0.38674048  0.24133225  1
  O  O352  1  0.74560292  0.38282956  0.75608107  1
  O  O353  1  0.74062085  0.86908665  0.24225402  1
  O  O354  1  0.73063313  0.88589216  0.76200714  1
  O  O355  1  0.25329273  0.11615340  0.25495294  1
  O  O356  1  0.25714217  0.12103763  0.75756972  1
  O  O357  1  0.25969730  0.62843222  0.24798474  1
  O  O358  1  0.24668088  0.61155533  0.74140862  1
  O  O359  1  0.76487046  0.12588301  0.24573594  1
  O  O360  1  0.75419017  0.11949933  0.75790159  1
  O  O361  1  0.75185340  0.61119210  0.24967238  1
  O  O362  1  0.75976987  0.61799476  0.75796492  1
  O  O363  1  0.37039343  0.11808387  0.36730100  1
  O  O364  1  0.36778569  0.12258742  0.87278465  1
  O  O365  1  0.36712253  0.62823055  0.35579502  1
  O  O366  1  0.36797557  0.61162821  0.88214901  1
  O  O367  1  0.87754350  0.12741542  0.35774208  1
  O  O368  1  0.86938431  0.11518018  0.86720481  1
  O  O369  1  0.87356944  0.61315983  0.37601240  1
  O  O370  1  0.86689126  0.63751330  0.87092477  1
  O  O371  1  0.12859353  0.37917053  0.12392244  1
  O  O372  1  0.13203839  0.37571313  0.63273324  1
  O  O373  1  0.12942553  0.87416767  0.13826434  1
  O  O374  1  0.13840382  0.87980917  0.61284857  1
  O  O375  1  0.64133598  0.38617494  0.12200065  1
  O  O376  1  0.61406100  0.38062966  0.65500383  1
  O  O377  1  0.63357934  0.87648530  0.13530071  1
  O  O378  1  0.61789693  0.88381439  0.63442598  1
  O  O379  1  0.11968199  0.25168794  0.25731482  1
  O  O380  1  0.12002277  0.25850574  0.75829964  1
  O  O381  1  0.11958829  0.75686511  0.25768431  1
  O  O382  1  0.13796893  0.76365189  0.75184868  1
  O  O383  1  0.62589014  0.24238566  0.26423936  1
  O  O384  1  0.61368283  0.25983204  0.75159828  1
  O  O385  1  0.61601932  0.75872113  0.25763975  1
  O  O386  1  0.61712481  0.75596980  0.75682502  1
  O  O387  1  0.37171071  0.23546327  0.24304637  1
  O  O388  1  0.38510209  0.23881610  0.75968041  1
  O  O389  1  0.38938950  0.74604340  0.24963012  1
  O  O390  1  0.38945899  0.75196366  0.75374328  1
  O  O391  1  0.87803736  0.24347896  0.23964329  1
  O  O392  1  0.88180295  0.23626764  0.75366739  1
  O  O393  1  0.88251069  0.74861144  0.24490564  1
  O  O394  1  0.87584622  0.77667394  0.75038576  1
  O  O395  1  0.39327174  0.51716771  0.48034314  1
  O  O396  1  0.38070179  0.49257041  0.99511325  1
  O  O397  1  0.36748874  1.00441809  0.48631261  1
  O  O398  1  0.38092500  0.98918370  0.99516538  1
  O  O399  1  0.86769958  0.48217098  0.49285519  1
  O  O400  1  0.88953031  0.50177308  1.00355336  1
  O  O401  1  0.88023632  0.98749084  0.49604388  1
  O  O402  1  0.88040655  1.00040639  0.99421061  1
  O  O403  1  0.11635937  0.01441519  -0.00280119  1
  O  O404  1  0.11392228  0.00846453  0.48990711  1
  O  O405  1  0.11629574  0.50266654  0.00956814  1
  O  O406  1  0.13697521  0.51141429  0.49021950  1
  O  O407  1  0.61137670  -0.00821138  0.00440751  1
  O  O408  1  0.62983742  0.00888567  0.51380189  1
  O  O409  1  0.61775120  0.50478630  0.00450173  1
  O  O410  1  0.61632843  0.46169685  0.51319273  1
  O  O411  1  0.36309031  0.36615869  0.11429365  1
  O  O412  1  0.37130091  0.36835641  0.62801280  1
  O  O413  1  0.36565571  0.88051423  0.11855892  1
  O  O414  1  0.36418986  0.86778537  0.62748655  1
  O  O415  1  0.86542786  0.36836363  0.12020505  1
  O  O416  1  0.87951301  0.37749743  0.61243664  1
  O  O417  1  0.86869014  0.87118357  0.12275614  1
  O  O418  1  0.87377705  0.88132710  0.60772594  1
  O  O419  1  0.12724695  0.12916249  0.38336000  1
  O  O420  1  0.13161195  0.13284228  0.88393923  1
  O  O421  1  0.12920297  0.63257715  0.37487315  1
  O  O422  1  0.13356353  0.62941700  0.87826204  1
  O  O423  1  0.62278014  0.13095686  0.38655368  1
  O  O424  1  0.63462957  0.11673170  0.87168477  1
  O  O425  1  0.62958115  0.64112071  0.37251123  1
  O  O426  1  0.63468078  0.62996281  0.88188063  1
