# generated using pymatgen
data_V85Zn86O256
_symmetry_space_group_name_H-M   'P 1'
_cell_length_a   16.94466987
_cell_length_b   16.96208176
_cell_length_c   16.96802241
_cell_angle_alpha   90.02724459
_cell_angle_beta   90.09338493
_cell_angle_gamma   90.04201154
_symmetry_Int_Tables_number   1
_chemical_formula_structural   V85Zn86O256
_chemical_formula_sum   'V85 Zn86 O256'
_cell_volume   4876.88764574
_cell_formula_units_Z   1
loop_
 _symmetry_equiv_pos_site_id
 _symmetry_equiv_pos_as_xyz
  1  'x, y, z'
loop_
 _atom_site_type_symbol
 _atom_site_label
 _atom_site_symmetry_multiplicity
 _atom_site_fract_x
 _atom_site_fract_y
 _atom_site_fract_z
 _atom_site_occupancy
  V  V0  1  0.75435652  0.88154233  0.62761305  1
  V  V1  1  0.25055407  0.00295269  0.27255282  1
  V  V2  1  0.62741482  0.62653918  0.50455737  1
  V  V3  1  -0.00935126  0.49514675  -0.00185216  1
  V  V4  1  0.25488684  0.75099386  0.00487567  1
  V  V5  1  0.87649119  0.75440789  0.12197747  1
  V  V6  1  0.75168951  0.75816412  0.49793322  1
  V  V7  1  0.00279047  0.74905626  0.74982795  1
  V  V8  1  -0.00540969  0.23987858  0.74582032  1
  V  V9  1  0.38002671  0.25081086  0.13013989  1
  V  V10  1  0.13657286  0.24665035  0.37575336  1
  V  V11  1  0.87534180  0.49368867  0.87423714  1
  V  V12  1  0.87115391  0.12693747  0.24909061  1
  V  V13  1  0.12383042  0.12664947  -0.00059442  1
  V  V14  1  0.12403928  0.37562184  0.75020481  1
  V  V15  1  0.13053229  0.76256385  0.38054543  1
  V  V16  1  0.12344181  0.62544891  0.49764983  1
  V  V17  1  0.89035458  0.50116161  0.38009418  1
  V  V18  1  0.37325213  0.50125551  0.37217903  1
  V  V19  1  0.49949522  0.12899282  0.13062628  1
  V  V20  1  -0.00290896  -0.00013425  0.00146279  1
  V  V21  1  0.12454633  0.62063416  -0.00204501  1
  V  V22  1  0.50033344  0.00261703  0.49191539  1
  V  V23  1  0.62870096  0.87177490  0.75272926  1
  V  V24  1  -0.00134474  0.36470817  0.87588548  1
  V  V25  1  0.77570455  0.36828935  0.11997609  1
  V  V26  1  0.87461462  0.37765908  0.50107160  1
  V  V27  1  0.49057227  0.62813336  0.62586965  1
  V  V28  1  0.50055919  0.24226278  0.75973758  1
  V  V29  1  0.25020399  0.37555592  0.12627030  1
  V  V30  1  0.74769082  0.37271398  0.62543703  1
  V  V31  1  0.12167782  0.37651722  0.24983117  1
  V  V32  1  0.12065304  0.49830350  0.62012757  1
  V  V33  1  0.74224920  0.12092593  0.37786269  1
  V  V34  1  0.13903088  0.88064139  0.74334530  1
  V  V35  1  0.37597290  0.37932325  -0.01018597  1
  V  V36  1  0.62508432  0.37079378  0.76293129  1
  V  V37  1  0.00014022  0.37128722  0.38231282  1
  V  V38  1  0.12338351  0.50018309  0.11926519  1
  V  V39  1  0.62349100  0.00415841  0.12294765  1
  V  V40  1  -0.01272448  0.87640776  0.38836820  1
  V  V41  1  0.26049064  0.74871428  0.51569806  1
  V  V42  1  0.12451234  0.87764454  0.25653758  1
  V  V43  1  0.49930354  0.49685673  0.50220064  1
  V  V44  1  0.36215448  0.01292116  0.85853504  1
  V  V45  1  0.87616683  0.62404119  0.74924643  1
  V  V46  1  0.62583989  0.37108974  0.24267441  1
  V  V47  1  0.12628045  0.00199850  0.12866014  1
  V  V48  1  0.37098053  0.12472750  0.26080405  1
  V  V49  1  0.62479326  0.00136500  0.62474998  1
  V  V50  1  0.24573348  0.24353013  0.00628799  1
  V  V51  1  0.25936472  0.49463423  0.75382728  1
  V  V52  1  0.50112113  0.12433961  0.62227163  1
  V  V53  1  0.37655941  0.24635946  0.61842905  1
  V  V54  1  0.25813837  0.61815130  0.87694767  1
  V  V55  1  0.74471366  -0.00465763  0.24980575  1
  V  V56  1  0.25441041  0.87624609  0.12869317  1
  V  V57  1  0.25252674  0.37199497  0.61573466  1
  V  V58  1  0.49920910  0.87543991  0.87192286  1
  V  V59  1  0.49536178  0.00506098  -0.00448913  1
  V  V60  1  0.14411133  0.12956284  0.49982118  1
  V  V61  1  0.12782946  0.74906369  0.87536325  1
  V  V62  1  0.75218019  0.88057560  0.11695409  1
  V  V63  1  -0.00555294  0.01663109  0.50284760  1
  V  V64  1  0.49342221  0.75212134  0.74658976  1
  V  V65  1  0.74455437  0.12350753  0.86425766  1
  V  V66  1  0.00208093  0.87597538  0.87371152  1
  V  V67  1  0.87641243  0.24133116  0.62171720  1
  V  V68  1  0.75180729  0.49731029  0.25255554  1
  V  V69  1  0.37615024  0.87780904  0.51473920  1
  V  V70  1  0.62050543  0.24649113  0.37091820  1
  V  V71  1  0.74127688  0.24494386  0.50107147  1
  V  V72  1  0.15786874  0.22407280  0.84411055  1
  V  V73  1  -0.00209116  0.75659166  0.25199068  1
  V  V74  1  0.74933564  0.49930558  0.75073496  1
  V  V75  1  0.75420014  0.62089517  0.38033012  1
  V  V76  1  -0.00681286  0.13165999  0.12543788  1
  V  V77  1  0.49541506  0.86593348  0.37119720  1
  V  V78  1  0.87625105  0.75409043  0.62030870  1
  V  V79  1  0.62453233  0.49804159  0.62742616  1
  V  V80  1  0.74339715  0.62830776  0.87475118  1
  V  V81  1  0.87853015  0.62614179  0.25155470  1
  V  V82  1  0.74505783  0.75555978  -0.01008398  1
  V  V83  1  0.50086634  0.37157941  0.36992028  1
  V  V84  1  0.00013676  0.62110425  0.62237963  1
  Zn  Zn85  1  0.13296936  0.01026865  0.63254235  1
  Zn  Zn86  1  0.49676320  0.51730483  -0.00336703  1
  Zn  Zn87  1  0.87122139  0.11089600  0.74180763  1
  Zn  Zn88  1  -0.00507791  0.62556327  0.12135601  1
  Zn  Zn89  1  -0.00627059  0.24960205  0.25066901  1
  Zn  Zn90  1  0.37598312  0.62415718  0.75102674  1
  Zn  Zn91  1  0.25809782  0.63233603  0.37325293  1
  Zn  Zn92  1  0.49935512  0.38080433  0.87596941  1
  Zn  Zn93  1  0.25628159  0.50513953  0.24625975  1
  Zn  Zn94  1  0.87782458  0.87643030  -0.00361694  1
  Zn  Zn95  1  0.37141579  0.87966195  -0.00308864  1
  Zn  Zn96  1  0.62265255  0.13912875  -0.01166006  1
  Zn  Zn97  1  0.61598680  0.74316958  0.36698941  1
  Zn  Zn98  1  0.61150416  0.50543422  0.12151980  1
  Zn  Zn99  1  0.58476936  0.83993504  0.21526007  1
  Zn  Zn100  1  0.37150848  0.37113164  0.49443569  1
  Zn  Zn101  1  0.75584462  0.24860969  -0.00153478  1
  Zn  Zn102  1  0.40695730  0.63015122  0.24846298  1
  Zn  Zn103  1  0.40740591  0.74658480  0.13406994  1
  Zn  Zn104  1  0.87028754  -0.00278457  0.86165527  1
  Zn  Zn105  1  0.61607859  0.62872548  0.00262655  1
  Zn  Zn106  1  0.86708685  -0.00539300  0.38005949  1
  Zn  Zn107  1  0.18732188  0.18639250  0.19193303  1
  Zn  Zn108  1  0.18961268  0.19124638  0.67554448  1
  Zn  Zn109  1  0.25907259  0.68869075  0.19450032  1
  Zn  Zn110  1  0.18867617  0.68381064  0.69082484  1
  Zn  Zn111  1  0.68765066  0.18990230  0.18491967  1
  Zn  Zn112  1  0.68305989  0.18550965  0.68951070  1
  Zn  Zn113  1  0.59039250  0.67944482  0.18398010  1
  Zn  Zn114  1  0.68518736  0.69179576  0.68940863  1
  Zn  Zn115  1  0.31384327  0.31399561  0.30871471  1
  Zn  Zn116  1  0.31052867  0.29142911  0.80429514  1
  Zn  Zn117  1  0.31704203  0.81679197  0.31974055  1
  Zn  Zn118  1  0.31801569  0.81317262  0.81514056  1
  Zn  Zn119  1  0.81058587  0.30995620  0.31328410  1
  Zn  Zn120  1  0.81130821  0.30689818  0.81353940  1
  Zn  Zn121  1  0.76460882  0.78262371  0.27849383  1
  Zn  Zn122  1  0.81707618  0.81586360  0.80741329  1
  Zn  Zn123  1  0.18530294  0.44002660  0.43601038  1
  Zn  Zn124  1  0.18653113  0.42858264  0.93546923  1
  Zn  Zn125  1  0.20575425  0.95519959  0.47590772  1
  Zn  Zn126  1  0.18712005  0.93918156  0.93740414  1
  Zn  Zn127  1  0.68789743  0.43531628  0.43688381  1
  Zn  Zn128  1  0.68887004  0.43905767  0.94549620  1
  Zn  Zn129  1  0.67908417  0.93351815  0.43793113  1
  Zn  Zn130  1  0.68500779  0.94885079  0.93393568  1
  Zn  Zn131  1  0.31262244  0.06290217  0.06506411  1
  Zn  Zn132  1  0.31568779  0.06139396  0.56914580  1
  Zn  Zn133  1  0.32011752  0.56225977  0.06533300  1
  Zn  Zn134  1  0.30966221  0.55787809  0.56052410  1
  Zn  Zn135  1  0.81426559  0.07282186  0.05412172  1
  Zn  Zn136  1  0.81066712  0.06088159  0.55910453  1
  Zn  Zn137  1  0.76783300  0.59206676  0.09259014  1
  Zn  Zn138  1  0.81390583  0.56132437  0.56391736  1
  Zn  Zn139  1  0.44013086  0.44174815  0.18643157  1
  Zn  Zn140  1  0.43928716  0.43215678  0.68903731  1
  Zn  Zn141  1  0.43105870  0.94494133  0.18771944  1
  Zn  Zn142  1  0.43613547  0.94233691  0.68898275  1
  Zn  Zn143  1  0.94258599  0.44115861  0.19373576  1
  Zn  Zn144  1  0.93741401  0.43247354  0.68710148  1
  Zn  Zn145  1  0.93482553  0.94210469  0.19250707  1
  Zn  Zn146  1  0.94804677  0.93650822  0.67944476  1
  Zn  Zn147  1  0.06013532  0.06240348  0.31786234  1
  Zn  Zn148  1  0.05754104  0.05832424  0.80909645  1
  Zn  Zn149  1  0.09776466  0.59218800  0.28619528  1
  Zn  Zn150  1  0.06517664  0.55995044  0.81220160  1
  Zn  Zn151  1  0.56064969  0.05841344  0.30897782  1
  Zn  Zn152  1  0.56349266  0.05852083  0.80896687  1
  Zn  Zn153  1  0.56726492  0.55472058  0.31902530  1
  Zn  Zn154  1  0.55746189  0.55911257  0.81815958  1
  Zn  Zn155  1  0.44055506  0.18686956  0.44093517  1
  Zn  Zn156  1  0.43275307  0.18756647  0.94130571  1
  Zn  Zn157  1  0.43674118  0.68541246  0.43833992  1
  Zn  Zn158  1  0.43917109  0.69295725  0.93571271  1
  Zn  Zn159  1  0.93079136  0.18952216  0.43158876  1
  Zn  Zn160  1  0.91917218  0.18921309  0.93406080  1
  Zn  Zn161  1  0.94041720  0.68949765  0.44003450  1
  Zn  Zn162  1  0.93477216  0.68392952  0.93813598  1
  Zn  Zn163  1  0.05532033  0.30996405  0.06029939  1
  Zn  Zn164  1  0.06232656  0.30813773  0.56067957  1
  Zn  Zn165  1  0.06770998  0.81361050  0.06397793  1
  Zn  Zn166  1  0.06408441  0.81331629  0.56287804  1
  Zn  Zn167  1  0.56439427  0.31157506  0.05951619  1
  Zn  Zn168  1  0.56202932  0.31177161  0.56242719  1
  Zn  Zn169  1  0.56485106  0.81555499  0.04709241  1
  Zn  Zn170  1  0.56371494  0.81270638  0.56254464  1
  O  O171  1  0.11848536  0.11485552  0.12487644  1
  O  O172  1  0.12772648  0.12906075  0.60522198  1
  O  O173  1  0.12072735  0.60642905  0.11610877  1
  O  O174  1  0.12133369  0.61735780  0.61888022  1
  O  O175  1  0.61641935  0.11681962  0.12901781  1
  O  O176  1  0.61378265  0.11478612  0.62756362  1
  O  O177  1  0.65579364  0.61638465  0.11780042  1
  O  O178  1  0.62168186  0.61872981  0.61815198  1
  O  O179  1  0.38435655  0.37819402  0.37378844  1
  O  O180  1  0.36693022  0.36436990  0.89010315  1
  O  O181  1  0.38919456  0.87325793  0.39001050  1
  O  O182  1  0.38302158  0.88804124  0.87574042  1
  O  O183  1  0.88163001  0.37861658  0.38061275  1
  O  O184  1  0.88318347  0.38615210  0.86562114  1
  O  O185  1  0.88881872  0.87408139  0.37708135  1
  O  O186  1  0.89125534  0.87475351  0.87529147  1
  O  O187  1  0.24471199  -0.00751776  0.37064463  1
  O  O188  1  0.26428929  -0.00151599  0.88048571  1
  O  O189  1  0.26517023  0.49686120  0.37583840  1
  O  O190  1  0.23968788  0.50590009  0.86615225  1
  O  O191  1  0.74328576  0.00284321  0.36824735  1
  O  O192  1  0.75504245  0.01345369  0.87463128  1
  O  O193  1  0.76108822  0.49994219  0.36999452  1
  O  O194  1  0.76006976  0.50534446  0.87025203  1
  O  O195  1  0.24043907  0.49064927  0.12455292  1
  O  O196  1  0.23914364  0.49471876  0.63375710  1
  O  O197  1  0.24172685  0.99248377  0.12991739  1
  O  O198  1  0.23262363  0.99031509  0.58456071  1
  O  O199  1  0.75867881  0.48588405  0.14464530  1
  O  O200  1  0.74514304  0.49410351  0.63237056  1
  O  O201  1  0.74421386  0.99686484  0.12529116  1
  O  O202  1  0.74252874  0.98816361  0.61642299  1
  O  O203  1  0.00577184  0.37089885  0.26173870  1
  O  O204  1  0.00671629  0.37091608  0.75875614  1
  O  O205  1  0.00452646  0.87583058  0.26315553  1
  O  O206  1  0.01174406  0.86521085  0.75790225  1
  O  O207  1  0.50923182  0.37898452  0.26339471  1
  O  O208  1  0.50942991  0.36614568  0.75312164  1
  O  O209  1  0.49322259  0.88668434  0.26705561  1
  O  O210  1  0.50468931  0.87004984  0.75248332  1
  O  O211  1  0.48651195  0.11600271  0.23835996  1
  O  O212  1  0.50509290  0.13743317  0.74300860  1
  O  O213  1  0.51863291  0.62910205  0.25477702  1
  O  O214  1  0.50186522  0.63314188  0.74313396  1
  O  O215  1  0.98987210  0.12162926  0.24428396  1
  O  O216  1  1.00119722  0.13773738  0.74712263  1
  O  O217  1  0.99710314  0.63748465  0.24546646  1
  O  O218  1  0.99834515  0.62976753  0.74352486  1
  O  O219  1  0.36488819  0.25422712  0.01319110  1
  O  O220  1  0.38367616  0.25504664  0.51269679  1
  O  O221  1  0.36165661  0.75541161  0.00619273  1
  O  O222  1  0.36611046  0.75252222  0.50222762  1
  O  O223  1  0.86880083  0.24102641  0.01422383  1
  O  O224  1  0.86357592  0.25683499  0.50319750  1
  O  O225  1  0.87408175  0.75311482  0.01053079  1
  O  O226  1  0.86740631  0.74343687  0.51317360  1
  O  O227  1  0.12083594  0.24003836  0.48706129  1
  O  O228  1  0.13031225  0.24066558  1.00373157  1
  O  O229  1  0.13656040  0.74652310  0.49932541  1
  O  O230  1  0.13068040  0.74476233  0.98973095  1
  O  O231  1  0.63598262  0.25447644  0.49192227  1
  O  O232  1  0.63980279  0.24906675  1.00977462  1
  O  O233  1  0.63451346  0.74044510  0.50062832  1
  O  O234  1  0.64242508  0.75130425  0.99299535  1
  O  O235  1  0.49010727  0.24215896  0.12486064  1
  O  O236  1  0.49831177  0.24120768  0.62818379  1
  O  O237  1  0.52030408  0.76712274  0.13851632  1
  O  O238  1  0.50649524  0.73803363  0.63157910  1
  O  O239  1  1.00691151  0.23466480  0.13178713  1
  O  O240  1  0.98697224  0.25910435  0.63208011  1
  O  O241  1  0.99237983  0.75310536  0.13045992  1
  O  O242  1  0.99340317  0.74510926  0.62898474  1
  O  O243  1  0.00624564  0.25763496  0.37186275  1
  O  O244  1  -0.00688897  0.25562861  0.86271190  1
  O  O245  1  0.00370632  0.76326338  0.37547297  1
  O  O246  1  0.00827362  0.75399756  0.87234606  1
  O  O247  1  0.51291776  0.25617468  0.38115728  1
  O  O248  1  0.49284517  0.25127313  0.86161877  1
  O  O249  1  0.49876313  0.76069827  0.37688833  1
  O  O250  1  0.49474854  0.76786921  0.86596209  1
  O  O251  1  0.24199058  0.12868665  0.49307615  1
  O  O252  1  0.24050712  0.13348792  1.00946535  1
  O  O253  1  0.24487960  0.63458931  0.49751532  1
  O  O254  1  0.24384910  0.63035656  0.99462530  1
  O  O255  1  0.74947664  0.13201891  0.48967578  1
  O  O256  1  0.74367985  0.12336380  0.98543280  1
  O  O257  1  0.74445767  0.63110696  0.50073568  1
  O  O258  1  0.75789209  0.64035749  0.98724804  1
  O  O259  1  0.25416093  0.36877656  0.01314844  1
  O  O260  1  0.24916756  0.38165330  0.51282396  1
  O  O261  1  0.24766975  0.86845353  0.00917846  1
  O  O262  1  0.26808618  0.85949472  0.49758064  1
  O  O263  1  0.75638841  0.37961708  0.01902465  1
  O  O264  1  0.75390817  0.36653481  0.50516377  1
  O  O265  1  0.75436464  0.87530217  -0.00036461  1
  O  O266  1  0.74610732  0.86301219  0.50678562  1
  O  O267  1  0.11757652  0.48590231  0.23806954  1
  O  O268  1  0.13017383  0.48817620  0.74385164  1
  O  O269  1  0.13101481  0.99840790  0.24709038  1
  O  O270  1  0.12407234  0.98678260  0.74779844  1
  O  O271  1  0.63872033  0.48797963  0.25498356  1
  O  O272  1  0.63116911  0.49177469  0.74564850  1
  O  O273  1  0.63105928  0.99822017  0.23796423  1
  O  O274  1  0.61664760  0.98565743  0.73354982  1
  O  O275  1  0.36295538  0.01459827  0.24902320  1
  O  O276  1  0.37077123  0.00358314  0.75806404  1
  O  O277  1  0.37422587  0.50430165  0.25868474  1
  O  O278  1  0.36190415  0.49813131  0.74657159  1
  O  O279  1  0.86449782  0.00898219  0.25719324  1
  O  O280  1  0.89216891  -0.00071673  0.74917893  1
  O  O281  1  0.87389597  0.50541457  0.26176968  1
  O  O282  1  0.86944350  0.50354253  0.75365066  1
  O  O283  1  0.11791583  0.37040023  0.37003740  1
  O  O284  1  0.12079006  0.35868508  0.86247551  1
  O  O285  1  0.11852986  0.86875918  0.37851516  1
  O  O286  1  0.11901471  0.86735517  0.86983180  1
  O  O287  1  0.62092352  0.36708980  0.36749015  1
  O  O288  1  0.62951688  0.37658289  0.86485778  1
  O  O289  1  0.60376435  0.86770919  0.38321892  1
  O  O290  1  0.61461818  0.88677175  0.86307920  1
  O  O291  1  0.38103849  0.13254065  0.13173271  1
  O  O292  1  0.38718055  0.13206272  0.62236095  1
  O  O293  1  0.35395081  0.63784914  0.13890922  1
  O  O294  1  0.38797813  0.61642162  0.62647709  1
  O  O295  1  0.88441173  0.11342185  0.13530735  1
  O  O296  1  0.86857837  0.13794654  0.62287209  1
  O  O297  1  0.87115147  0.63652398  0.13273183  1
  O  O298  1  0.88133380  0.62920137  0.63088050  1
  O  O299  1  0.25304774  0.25676719  0.12206857  1
  O  O300  1  0.26339561  0.26048168  0.62372159  1
  O  O301  1  0.22993368  0.76528499  0.11447654  1
  O  O302  1  0.24966603  0.74339354  0.61386466  1
  O  O303  1  0.75324197  0.26866861  0.13478722  1
  O  O304  1  0.75212197  0.25277665  0.61711532  1
  O  O305  1  0.76001780  0.77062061  0.11187157  1
  O  O306  1  0.75725228  0.75694690  0.61871337  1
  O  O307  1  0.23463467  0.26139922  0.37444682  1
  O  O308  1  0.24542900  0.26525804  0.90014460  1
  O  O309  1  0.24192230  0.75107645  0.38710656  1
  O  O310  1  0.24442695  0.74411992  0.88373684  1
  O  O311  1  0.74065600  0.24189017  0.38158587  1
  O  O312  1  0.75706785  0.23197155  0.87634814  1
  O  O313  1  0.75498793  0.73802003  0.38669482  1
  O  O314  1  0.76535896  0.74158204  0.88004030  1
  O  O315  1  0.00535304  0.11663741  0.00881652  1
  O  O316  1  -0.00290395  0.11825790  0.49497117  1
  O  O317  1  0.00679717  0.61457683  -0.00017493  1
  O  O318  1  0.01030793  0.63108773  0.51174818  1
  O  O319  1  0.50070856  0.12164557  0.01116954  1
  O  O320  1  0.49818872  0.11237991  0.50689775  1
  O  O321  1  0.50201790  0.63508509  0.00319247  1
  O  O322  1  0.50829207  0.61943048  0.50762412  1
  O  O323  1  0.50309849  0.38155322  0.48831159  1
  O  O324  1  0.48081211  0.36464121  0.99694241  1
  O  O325  1  0.49132323  0.87746795  0.49643904  1
  O  O326  1  0.49718577  0.88536206  0.98759216  1
  O  O327  1  0.99415863  0.37122416  0.48943129  1
  O  O328  1  1.00670731  0.37987651  0.98341652  1
  O  O329  1  1.00486759  0.88236482  0.49061805  1
  O  O330  1  1.00467316  0.88183811  0.99214025  1
  O  O331  1  0.49203237  0.49061741  0.38228116  1
  O  O332  1  0.49639582  0.49419691  0.88232931  1
  O  O333  1  0.50615980  0.99302230  0.38866013  1
  O  O334  1  0.49150556  0.99629419  0.87939180  1
  O  O335  1  0.99114914  0.49061419  0.37367143  1
  O  O336  1  0.99624975  0.49038300  0.87730020  1
  O  O337  1  0.99577612  0.99076121  0.38469587  1
  O  O338  1  1.00553621  0.98989015  0.88576826  1
  O  O339  1  0.00807446  0.00465924  0.12107366  1
  O  O340  1  0.01547052  -0.00674370  0.60279392  1
  O  O341  1  0.00488397  0.49712910  0.11361920  1
  O  O342  1  0.01341464  0.50209609  0.63044243  1
  O  O343  1  0.50536196  0.00550143  0.11813862  1
  O  O344  1  0.50447696  0.00668149  0.61833045  1
  O  O345  1  0.49828264  0.49562237  0.11145836  1
  O  O346  1  0.50678151  0.50450300  0.62211142  1
  O  O347  1  0.24156135  0.37881181  0.23992601  1
  O  O348  1  0.24187602  0.37711367  0.74272417  1
  O  O349  1  0.24368482  0.88454507  0.24638751  1
  O  O350  1  0.23653354  0.86824961  0.75677844  1
  O  O351  1  0.74596192  0.37975163  0.24803437  1
  O  O352  1  0.74333575  0.37689689  0.74480274  1
  O  O353  1  0.75671600  0.89008482  0.23533113  1
  O  O354  1  0.74197744  0.86935643  0.73923481  1
  O  O355  1  0.26047051  0.11716935  0.24908692  1
  O  O356  1  0.23670126  0.19016124  0.77833386  1
  O  O357  1  0.21473770  0.61308326  0.26553131  1
  O  O358  1  0.24985029  0.61304175  0.75856396  1
  O  O359  1  0.75237592  0.11366635  0.25301773  1
  O  O360  1  0.75127885  0.12656153  0.75760929  1
  O  O361  1  0.76332635  0.61231281  0.26469300  1
  O  O362  1  0.75655615  0.62162790  0.75415804  1
  O  O363  1  0.38053499  0.13445121  0.35883977  1
  O  O364  1  0.37708422  0.11127747  0.87802989  1
  O  O365  1  0.37557193  0.61528893  0.37096979  1
  O  O366  1  0.36028305  0.63051953  0.87313103  1
  O  O367  1  0.85776823  0.12051814  0.36954343  1
  O  O368  1  0.86672388  0.11730401  0.86436496  1
  O  O369  1  0.87606526  0.61695324  0.37490268  1
  O  O370  1  0.87383427  0.61251898  0.86625673  1
  O  O371  1  0.12751119  0.37899313  0.13042555  1
  O  O372  1  0.12991808  0.37963942  0.62803432  1
  O  O373  1  0.12888772  0.88785690  0.13324882  1
  O  O374  1  0.12475182  0.86730211  0.64338728  1
  O  O375  1  0.62386146  0.37732202  0.13924550  1
  O  O376  1  0.63030327  0.38038882  0.63149225  1
  O  O377  1  0.63498708  0.88917269  0.11813428  1
  O  O378  1  0.63469939  0.87840198  0.63041476  1
  O  O379  1  0.12363608  0.26023323  0.25923813  1
  O  O380  1  0.11087503  0.26092450  0.74235338  1
  O  O381  1  0.11458334  0.76215270  0.26478626  1
  O  O382  1  0.12321499  0.75184015  0.76188988  1
  O  O383  1  0.62962948  0.25789345  0.26041030  1
  O  O384  1  0.61048498  0.25888139  0.74337671  1
  O  O385  1  0.65117826  0.75660810  0.25688788  1
  O  O386  1  0.61431525  0.76430156  0.74624299  1
  O  O387  1  0.36668222  0.23913740  0.23871861  1
  O  O388  1  0.39487274  0.25782595  0.73412136  1
  O  O389  1  0.35380259  0.74180150  0.24473169  1
  O  O390  1  0.38824548  0.74730849  0.75040933  1
  O  O391  1  0.87404344  0.23192242  0.25821943  1
  O  O392  1  0.88080184  0.25089352  0.73703400  1
  O  O393  1  0.87365606  0.74790441  0.23859010  1
  O  O394  1  0.88284942  0.74389520  0.73939803  1
  O  O395  1  0.38269239  0.49642574  0.49286128  1
  O  O396  1  0.36657518  0.48105443  1.00070090  1
  O  O397  1  0.38568080  0.98546700  0.50527802  1
  O  O398  1  0.38663642  1.00006554  1.00220203  1
  O  O399  1  0.86972133  0.48966165  0.49284875  1
  O  O400  1  0.88919297  0.50263636  0.98801555  1
  O  O401  1  0.88929344  1.00267570  0.49792867  1
  O  O402  1  0.89055520  0.99825736  0.99910228  1
  O  O403  1  0.11806921  0.00533802  0.00915931  1
  O  O404  1  0.11226374  0.02632080  0.48060845  1
  O  O405  1  0.11688958  0.49817929  0.00250791  1
  O  O406  1  0.13051352  0.51279263  0.50788049  1
  O  O407  1  0.61041284  0.00672433  0.00621695  1
  O  O408  1  0.61255456  -0.00886120  0.51433782  1
  O  O409  1  0.62512344  0.50875421  0.00277551  1
  O  O410  1  0.62109691  0.50539594  0.50646726  1
  O  O411  1  0.36543019  0.36675678  0.12394308  1
  O  O412  1  0.36785719  0.37012224  0.62106929  1
  O  O413  1  0.36239226  0.87325587  0.12526194  1
  O  O414  1  0.38374583  0.87115343  0.61348607  1
  O  O415  1  0.87420109  0.37335137  0.13198878  1
  O  O416  1  0.86672421  0.36840279  0.61861962  1
  O  O417  1  0.87085669  0.87295421  0.12156876  1
  O  O418  1  0.86792633  0.86450067  0.62850227  1
  O  O419  1  0.12332055  0.14212974  0.37625589  1
  O  O420  1  0.11723289  0.13327525  0.87961479  1
  O  O421  1  0.11616130  0.64272012  0.39057557  1
  O  O422  1  0.13240381  0.63172707  0.87867490  1
  O  O423  1  0.63329896  0.13144355  0.36581389  1
  O  O424  1  0.63694075  0.11894173  0.87096900  1
  O  O425  1  0.63370062  0.62210104  0.39239985  1
  O  O426  1  0.64216035  0.62367862  0.87017450  1
