# generated using pymatgen
data_V85Zn86O256
_symmetry_space_group_name_H-M   'P 1'
_cell_length_a   16.91249360
_cell_length_b   16.92045688
_cell_length_c   16.91288631
_cell_angle_alpha   89.92187418
_cell_angle_beta   89.95535599
_cell_angle_gamma   90.03594180
_symmetry_Int_Tables_number   1
_chemical_formula_structural   V85Zn86O256
_chemical_formula_sum   'V85 Zn86 O256'
_cell_volume   4839.90502072
_cell_formula_units_Z   1
loop_
 _symmetry_equiv_pos_site_id
 _symmetry_equiv_pos_as_xyz
  1  'x, y, z'
loop_
 _atom_site_type_symbol
 _atom_site_label
 _atom_site_symmetry_multiplicity
 _atom_site_fract_x
 _atom_site_fract_y
 _atom_site_fract_z
 _atom_site_occupancy
  V  V0  1  0.38131739  0.75048947  0.62668483  1
  V  V1  1  0.49460485  0.13247146  0.12417576  1
  V  V2  1  0.00123637  0.25000514  0.75149814  1
  V  V3  1  0.25112527  0.75355367  0.48866544  1
  V  V4  1  0.62138378  0.25449195  0.87043895  1
  V  V5  1  0.24195856  -0.00706765  0.25504397  1
  V  V6  1  0.37771205  0.12578536  0.74842033  1
  V  V7  1  0.62757066  0.62069033  0.49634538  1
  V  V8  1  0.12134709  0.62423064  -0.00142568  1
  V  V9  1  0.37711449  0.61634582  0.25346602  1
  V  V10  1  0.01147360  0.87447133  0.37267370  1
  V  V11  1  0.74486340  0.50689010  0.25429748  1
  V  V12  1  0.12772800  0.12415439  0.49496180  1
  V  V13  1  0.37380272  0.01471514  0.37496077  1
  V  V14  1  0.50915521  0.12667977  0.62093049  1
  V  V15  1  0.87502838  0.74733410  0.62574567  1
  V  V16  1  0.37708092  0.87876623  0.49672473  1
  V  V17  1  0.74912484  0.87556269  0.62684828  1
  V  V18  1  0.10697251  0.47719202  0.59120615  1
  V  V19  1  0.12346494  0.63451958  0.49514603  1
  V  V20  1  0.00625460  0.87328481  0.86771511  1
  V  V21  1  0.62702667  0.12181962  0.00815048  1
  V  V22  1  0.74820525  0.12361755  0.87538367  1
  V  V23  1  0.36611635  0.13022377  0.24699751  1
  V  V24  1  0.61478752  0.87266794  0.74877759  1
  V  V25  1  0.24580064  0.87147139  0.62948391  1
  V  V26  1  0.00384570  0.62222707  0.62313107  1
  V  V27  1  0.51085951  0.00443727  0.49654001  1
  V  V28  1  0.12644014  0.38035061  0.75844009  1
  V  V29  1  0.37499157  0.49914932  0.87394508  1
  V  V30  1  0.24747430  -0.00148959  0.74988156  1
  V  V31  1  0.62156183  0.62176422  0.01374788  1
  V  V32  1  0.61594068  0.74685972  0.87100518  1
  V  V33  1  0.12463605  0.24569700  0.88439215  1
  V  V34  1  0.74760804  0.61799759  0.87183746  1
  V  V35  1  0.24801230  0.75015291  0.00176473  1
  V  V36  1  0.12378809  -0.00331796  0.62849309  1
  V  V37  1  0.87480854  0.25909661  0.12344316  1
  V  V38  1  0.37921719  0.62901488  0.74936912  1
  V  V39  1  0.37650923  0.36993357  0.00347558  1
  V  V40  1  0.62714661  0.88288541  0.24188292  1
  V  V41  1  0.24803593  0.62385166  0.87351430  1
  V  V42  1  0.75230348  0.25966898  0.00113150  1
  V  V43  1  0.62783527  0.49533458  0.63758587  1
  V  V44  1  0.87474679  0.87566698  0.49656764  1
  V  V45  1  -0.00171502  0.12529940  0.62167638  1
  V  V46  1  0.74853418  0.74887355  0.00113091  1
  V  V47  1  0.88865392  0.48334155  0.38175916  1
  V  V48  1  0.50084400  0.50267769  0.01395847  1
  V  V49  1  0.75035241  0.74466499  0.49608874  1
  V  V50  1  0.12109433  0.37593084  0.25170395  1
  V  V51  1  0.50296768  0.74262043  0.24461831  1
  V  V52  1  0.62495382  0.37629407  0.23986687  1
  V  V53  1  0.50245761  -0.00341246  0.00804001  1
  V  V54  1  0.25222074  0.37138092  0.12676969  1
  V  V55  1  0.74671930  0.89062206  0.12280523  1
  V  V56  1  0.49703961  0.50241316  0.49674855  1
  V  V57  1  0.74707599  0.25336689  0.48952383  1
  V  V58  1  -0.01001671  0.37368726  0.88241347  1
  V  V59  1  0.24576171  0.12327485  0.87733315  1
  V  V60  1  0.37594306  0.25131256  0.62367239  1
  V  V61  1  0.62875307  0.74717045  0.37155662  1
  V  V62  1  -0.00400460  0.25119713  0.25835835  1
  V  V63  1  0.37197973  0.37926001  0.48928978  1
  V  V64  1  0.37702646  0.74471357  0.12574601  1
  V  V65  1  0.86322360  0.12214143  0.24859512  1
  V  V66  1  -0.00331764  0.62671936  0.12807901  1
  V  V67  1  0.12467941  0.24620949  0.37349291  1
  V  V68  1  0.25197503  0.37422841  0.62724801  1
  V  V69  1  0.50226804  0.24717371  0.25731705  1
  V  V70  1  0.51108317  0.37403131  0.37767447  1
  V  V71  1  0.25268498  0.24205909  0.00475001  1
  V  V72  1  0.87279076  0.12558425  0.74733070  1
  V  V73  1  0.00565729  0.12583041  0.12300648  1
  V  V74  1  0.37592670  -0.00243352  0.87815240  1
  V  V75  1  0.25395356  0.24622359  0.49217155  1
  V  V76  1  0.01321958  0.75561705  0.25269832  1
  V  V77  1  0.75613840  0.37694544  0.63381647  1
  V  V78  1  0.87547587  0.87664028  -0.00283461  1
  V  V79  1  0.00800931  0.00331404  -0.00103045  1
  V  V80  1  -0.01104826  0.49716975  0.00299175  1
  V  V81  1  0.87408811  0.62782118  0.26488090  1
  V  V82  1  0.87148142  0.61868199  0.74942595  1
  V  V83  1  0.86687351  -0.00145339  0.36908795  1
  V  V84  1  0.25117328  0.61292675  0.37640861  1
  Zn  Zn85  1  0.87689265  0.25887574  0.61518833  1
  Zn  Zn86  1  0.87362196  0.75328603  0.12850599  1
  Zn  Zn87  1  0.73561082  0.12249029  0.37836878  1
  Zn  Zn88  1  0.12488670  0.49962712  0.12782698  1
  Zn  Zn89  1  -0.00175092  0.00010812  0.49653535  1
  Zn  Zn90  1  0.25258112  0.49478261  0.25340440  1
  Zn  Zn91  1  0.12520580  -0.00361795  0.12581123  1
  Zn  Zn92  1  0.87452485  -0.00026778  0.87328786  1
  Zn  Zn93  1  0.74778740  -0.00145937  0.74986065  1
  Zn  Zn94  1  0.75031798  0.38390216  0.12208074  1
  Zn  Zn95  1  0.49738289  0.87169609  0.87453584  1
  Zn  Zn96  1  0.50556800  0.25720770  0.74530743  1
  Zn  Zn97  1  0.12924788  0.75240770  0.86257861  1
  Zn  Zn98  1  0.50345206  0.62783794  0.62749888  1
  Zn  Zn99  1  0.86674730  0.49326149  0.87515167  1
  Zn  Zn100  1  0.62774162  0.00306834  0.62412691  1
  Zn  Zn101  1  0.24190082  0.86922913  0.13336982  1
  Zn  Zn102  1  0.37481791  0.87319766  0.00428494  1
  Zn  Zn103  1  0.24730552  0.50233248  0.74457584  1
  Zn  Zn104  1  0.00757952  0.75289014  0.74511129  1
  Zn  Zn105  1  0.50001044  0.87498999  0.37067733  1
  Zn  Zn106  1  0.50466810  0.38092892  0.86958289  1
  Zn  Zn107  1  0.18616277  0.18598808  0.18688852  1
  Zn  Zn108  1  0.18590559  0.18850373  0.68940449  1
  Zn  Zn109  1  0.18848983  0.68334496  0.18844378  1
  Zn  Zn110  1  0.18731573  0.68617322  0.68490194  1
  Zn  Zn111  1  0.68390413  0.19020311  0.18836843  1
  Zn  Zn112  1  0.69060781  0.19291049  0.68426776  1
  Zn  Zn113  1  0.69287168  0.68839106  0.18715484  1
  Zn  Zn114  1  0.68593621  0.68651355  0.68708826  1
  Zn  Zn115  1  0.31584307  0.30971738  0.31323520  1
  Zn  Zn116  1  0.31584052  0.31255750  0.81527175  1
  Zn  Zn117  1  0.31679984  0.81252246  0.31269956  1
  Zn  Zn118  1  0.31103166  0.81154402  0.81196444  1
  Zn  Zn119  1  0.81113902  0.31618030  0.31234593  1
  Zn  Zn120  1  0.80988445  0.30854869  0.80810658  1
  Zn  Zn121  1  0.81211950  0.81347306  0.30959363  1
  Zn  Zn122  1  0.81104860  0.80667374  0.81227171  1
  Zn  Zn123  1  0.17254109  0.43228123  0.43829960  1
  Zn  Zn124  1  0.18614297  0.43754002  0.94236027  1
  Zn  Zn125  1  0.19039609  0.94236319  0.43859284  1
  Zn  Zn126  1  0.18631795  0.93560334  0.94175590  1
  Zn  Zn127  1  0.69487655  0.43600494  0.43765070  1
  Zn  Zn128  1  0.68320207  0.43797060  0.93910905  1
  Zn  Zn129  1  0.68801226  0.93234358  0.43253658  1
  Zn  Zn130  1  0.68454519  0.93750697  0.93589537  1
  Zn  Zn131  1  0.31246195  0.05986427  0.06750226  1
  Zn  Zn132  1  0.31475147  0.06341218  0.56232325  1
  Zn  Zn133  1  0.31267376  0.56125047  0.06563139  1
  Zn  Zn134  1  0.30769949  0.56116264  0.56315473  1
  Zn  Zn135  1  0.81945449  0.06669472  0.05988179  1
  Zn  Zn136  1  0.80959896  0.06554605  0.55535229  1
  Zn  Zn137  1  0.81117508  0.56464708  0.06804437  1
  Zn  Zn138  1  0.81293188  0.55728462  0.55878647  1
  Zn  Zn139  1  0.43534962  0.43255307  0.18893649  1
  Zn  Zn140  1  0.44044350  0.43958120  0.68747149  1
  Zn  Zn141  1  0.43413746  0.93440259  0.18695720  1
  Zn  Zn142  1  0.43716016  0.94009562  0.68450899  1
  Zn  Zn143  1  0.93602932  0.44033890  0.19445629  1
  Zn  Zn144  1  0.93647918  0.43790067  0.69140128  1
  Zn  Zn145  1  0.93693161  0.93739476  0.18576225  1
  Zn  Zn146  1  0.93344393  0.94049083  0.68578091  1
  Zn  Zn147  1  0.05490866  0.06382229  0.31325348  1
  Zn  Zn148  1  0.06150776  0.06110029  0.81236079  1
  Zn  Zn149  1  0.06511453  0.56487371  0.31538447  1
  Zn  Zn150  1  0.05727382  0.56264745  0.81286482  1
  Zn  Zn151  1  0.55907230  0.05804559  0.30658566  1
  Zn  Zn152  1  0.56292240  0.06139135  0.81331932  1
  Zn  Zn153  1  0.56314131  0.56129051  0.31530082  1
  Zn  Zn154  1  0.55792469  0.56501143  0.81661983  1
  Zn  Zn155  1  0.56784749  0.18790339  0.43839748  1
  Zn  Zn156  1  0.43701904  0.18471490  0.93812497  1
  Zn  Zn157  1  0.43898456  0.68757260  0.43471473  1
  Zn  Zn158  1  0.43689736  0.68338666  0.94059472  1
  Zn  Zn159  1  0.92846585  0.18933558  0.43722162  1
  Zn  Zn160  1  0.93459483  0.18695469  0.93939845  1
  Zn  Zn161  1  0.94145116  0.68857119  0.43747118  1
  Zn  Zn162  1  0.93504530  0.68937289  0.93581644  1
  Zn  Zn163  1  0.06310000  0.31205254  0.06548034  1
  Zn  Zn164  1  0.06438073  0.30740938  0.56304622  1
  Zn  Zn165  1  0.06396221  0.81370819  0.06348577  1
  Zn  Zn166  1  0.06141442  0.81257648  0.56158407  1
  Zn  Zn167  1  0.56145927  0.31108581  0.06074084  1
  Zn  Zn168  1  0.56575849  0.31806693  0.56593039  1
  Zn  Zn169  1  0.56070303  0.80945720  0.06220669  1
  Zn  Zn170  1  0.56259836  0.81381973  0.55998037  1
  O  O171  1  0.10958560  0.12151702  0.12876552  1
  O  O172  1  0.11502893  0.12150020  0.61937761  1
  O  O173  1  0.11319731  0.62338617  0.11912088  1
  O  O174  1  0.11733325  0.61478418  0.61756733  1
  O  O175  1  0.61801363  0.12750048  0.11386536  1
  O  O176  1  0.61292900  0.12332998  0.63345605  1
  O  O177  1  0.62891268  0.62803569  0.11275499  1
  O  O178  1  0.62482246  0.61763462  0.61463180  1
  O  O179  1  0.38319619  0.37342177  0.38603835  1
  O  O180  1  0.37109894  0.38393009  0.88804369  1
  O  O181  1  0.37688088  0.88206818  0.38566746  1
  O  O182  1  0.37589781  0.88692696  0.87376069  1
  O  O183  1  0.88340741  0.38310552  0.36952417  1
  O  O184  1  0.88585107  0.37181880  0.87058802  1
  O  O185  1  0.87899171  0.88038053  0.37806740  1
  O  O186  1  0.87869942  0.87489129  0.88413540  1
  O  O187  1  0.25889971  0.00053033  0.36567276  1
  O  O188  1  0.25449194  0.00329813  0.87211475  1
  O  O189  1  0.24850812  0.50991213  0.37650401  1
  O  O190  1  0.26000978  0.50621771  0.87951184  1
  O  O191  1  0.76205851  0.00061104  0.37859834  1
  O  O192  1  0.75090772  0.01318290  0.87511862  1
  O  O193  1  0.76052914  0.49373048  0.35956090  1
  O  O194  1  0.74906808  0.51286503  0.88190052  1
  O  O195  1  0.24683087  0.48499628  0.12480647  1
  O  O196  1  0.23446509  0.48500942  0.62245807  1
  O  O197  1  0.24920580  0.99811302  0.14130047  1
  O  O198  1  0.24389300  0.99279157  0.62788160  1
  O  O199  1  0.75999518  0.49799251  0.14547505  1
  O  O200  1  0.73816436  0.49042381  0.62014990  1
  O  O201  1  0.75120847  0.98984678  0.11397023  1
  O  O202  1  0.74900500  0.98687671  0.62181553  1
  O  O203  1  0.00919352  0.36284055  0.24192629  1
  O  O204  1  0.00730078  0.36905223  0.75969254  1
  O  O205  1  -0.00504311  0.86252751  0.25501327  1
  O  O206  1  -0.00993680  0.87678630  0.76511564  1
  O  O207  1  0.50300750  0.36930303  0.25751864  1
  O  O208  1  0.48663536  0.36782284  0.75861979  1
  O  O209  1  0.50961165  0.86230449  0.24679249  1
  O  O210  1  0.51053131  0.87834984  0.75025499  1
  O  O211  1  0.49202648  0.13038906  0.24201294  1
  O  O212  1  0.49130257  0.12702640  0.74419181  1
  O  O213  1  0.49370463  0.63436574  0.25749756  1
  O  O214  1  0.48434344  0.62257321  0.74729355  1
  O  O215  1  0.99055710  0.13320131  0.24228456  1
  O  O216  1  0.99426050  0.13002886  0.74304864  1
  O  O217  1  0.99555337  0.63529923  0.24591696  1
  O  O218  1  0.99392656  0.62612119  0.73816274  1
  O  O219  1  0.36623953  0.25832959  -0.00701021  1
  O  O220  1  0.36468799  0.26183633  0.50950381  1
  O  O221  1  0.36690524  0.74642067  0.00789236  1
  O  O222  1  0.37045593  0.76002239  0.50315627  1
  O  O223  1  0.86371746  0.24486040  0.00956421  1
  O  O224  1  0.85964294  0.25204634  0.50143788  1
  O  O225  1  0.86613863  0.75784049  0.00124064  1
  O  O226  1  0.86703043  0.75359694  0.50366651  1
  O  O227  1  0.13284781  0.24199658  0.49451837  1
  O  O228  1  0.13359395  0.25344521  0.99090496  1
  O  O229  1  0.13683569  0.74260376  0.50735366  1
  O  O230  1  0.12988081  0.73761897  0.99678890  1
  O  O231  1  0.63601010  0.25269678  0.50461964  1
  O  O232  1  0.63209446  0.24202418  0.99277620  1
  O  O233  1  0.63012000  0.74472459  0.49261986  1
  O  O234  1  0.62985034  0.74213222  0.99360192  1
  O  O235  1  0.50162757  0.23850209  0.13056041  1
  O  O236  1  0.49412460  0.24389606  0.62450628  1
  O  O237  1  0.49140598  0.74797517  0.13255495  1
  O  O238  1  0.48558538  0.74891647  0.61782272  1
  O  O239  1  0.99336154  0.24343007  0.13006187  1
  O  O240  1  0.99839693  0.24339119  0.62974788  1
  O  O241  1  0.99715065  0.74496672  0.13497720  1
  O  O242  1  0.99194835  0.74178833  0.62398400  1
  O  O243  1  0.00369439  0.24330475  0.36425751  1
  O  O244  1  0.00674306  0.25463878  0.87489602  1
  O  O245  1  -0.00229286  0.75835995  0.36161868  1
  O  O246  1  0.00039538  0.76411177  0.87461963  1
  O  O247  1  0.50233674  0.26064558  0.36884071  1
  O  O248  1  0.51465153  0.24660777  0.87794747  1
  O  O249  1  0.51233349  0.75331888  0.36867822  1
  O  O250  1  0.51151572  0.75002946  0.88111207  1
  O  O251  1  0.24091609  0.13517400  0.50947069  1
  O  O252  1  0.25564673  0.13536320  0.99738528  1
  O  O253  1  0.25067741  0.63716547  0.49362258  1
  O  O254  1  0.24175539  0.63055980  0.99646494  1
  O  O255  1  0.74858773  0.14272578  0.49923457  1
  O  O256  1  0.74392093  0.13188723  0.99394111  1
  O  O257  1  0.74351509  0.63763775  0.50564149  1
  O  O258  1  0.74386152  0.63106644  0.99616098  1
  O  O259  1  0.25567103  0.36589616  0.00635982  1
  O  O260  1  0.25445817  0.36915099  0.50564701  1
  O  O261  1  0.25219029  0.85892423  -0.00297924  1
  O  O262  1  0.25728515  0.87214627  0.50699465  1
  O  O263  1  0.74612310  0.36464423  0.00271445  1
  O  O264  1  0.74379819  0.36363964  0.51175503  1
  O  O265  1  0.75399318  0.86893285  0.00210526  1
  O  O266  1  0.75286745  0.86354416  0.50572493  1
  O  O267  1  0.12788573  0.49034979  0.24923306  1
  O  O268  1  0.12672989  0.48623091  0.75775259  1
  O  O269  1  0.14030725  1.00981835  0.25525423  1
  O  O270  1  0.13021821  1.00497750  0.73636684  1
  O  O271  1  0.63694344  0.49671708  0.25368843  1
  O  O272  1  0.62032677  0.51019307  0.73552869  1
  O  O273  1  0.61756964  0.98098248  0.24405527  1
  O  O274  1  0.62808508  0.98969074  0.74821868  1
  O  O275  1  0.36813975  0.00564189  0.25662914  1
  O  O276  1  0.37024767  0.00905852  0.75513880  1
  O  O277  1  0.37505360  0.51233382  0.24691817  1
  O  O278  1  0.36952473  0.50665222  0.75797026  1
  O  O279  1  0.87818294  0.00943783  0.25541219  1
  O  O280  1  0.87096555  0.01322618  0.75143342  1
  O  O281  1  0.86975076  0.50927687  0.26023590  1
  O  O282  1  0.87849925  0.51374613  0.75578677  1
  O  O283  1  0.13047617  0.36260573  0.35871495  1
  O  O284  1  0.11862978  0.36681296  0.87403766  1
  O  O285  1  0.11077064  0.88214952  0.38227698  1
  O  O286  1  0.10956657  0.87433962  0.87816319  1
  O  O287  1  0.61474416  0.38240802  0.36501247  1
  O  O288  1  0.62453025  0.35868671  0.87912756  1
  O  O289  1  0.62428012  0.86690433  0.35944625  1
  O  O290  1  0.62428173  0.86556278  0.86612633  1
  O  O291  1  0.38320922  0.12388415  0.13367626  1
  O  O292  1  0.38360636  0.12936628  0.63165456  1
  O  O293  1  0.36721684  0.63566951  0.13658449  1
  O  O294  1  0.37257443  0.63280122  0.63134370  1
  O  O295  1  0.88201202  0.13400964  0.13222168  1
  O  O296  1  0.88573744  0.12345630  0.62900072  1
  O  O297  1  0.88676270  0.62752568  0.13358992  1
  O  O298  1  0.88041980  0.62531315  0.62925785  1
  O  O299  1  0.24462959  0.25894371  0.11662422  1
  O  O300  1  0.25120466  0.25973151  0.61919728  1
  O  O301  1  0.25440573  0.74787937  0.11787641  1
  O  O302  1  0.25937829  0.75730022  0.61449524  1
  O  O303  1  0.75663826  0.25207459  0.11728876  1
  O  O304  1  0.75212345  0.26361295  0.62028131  1
  O  O305  1  0.75118639  0.75659691  0.11140384  1
  O  O306  1  0.75400552  0.75876857  0.61782959  1
  O  O307  1  0.24632254  0.25050488  0.38661860  1
  O  O308  1  0.24320614  0.24438621  0.88280137  1
  O  O309  1  0.25374804  0.74770011  0.38575149  1
  O  O310  1  0.24990470  0.74154828  0.88308147  1
  O  O311  1  0.74947579  0.25192490  0.38547721  1
  O  O312  1  0.74268850  0.24225252  0.88107062  1
  O  O313  1  0.73821323  0.75476196  0.38159805  1
  O  O314  1  0.74104565  0.74206732  0.88557624  1
  O  O315  1  -0.00795834  0.11567430  0.00904610  1
  O  O316  1  0.00581417  0.12541714  0.50767846  1
  O  O317  1  0.00363792  0.62194230  0.00686192  1
  O  O318  1  0.00983284  0.63095490  0.51088682  1
  O  O319  1  0.50575092  0.12013308  0.00697915  1
  O  O320  1  0.50075256  0.11704152  0.50834465  1
  O  O321  1  0.50585616  0.61164796  -0.00026094  1
  O  O322  1  0.50662345  0.61827019  0.50203756  1
  O  O323  1  0.49392388  0.38097662  0.49457804  1
  O  O324  1  0.49332807  0.38379211  0.99647534  1
  O  O325  1  0.49154884  0.88380673  0.49883374  1
  O  O326  1  0.49727049  0.88259187  0.99792298  1
  O  O327  1  1.07121329  0.40846722  0.51448274  1
  O  O328  1  1.00532825  0.38415249  0.99411282  1
  O  O329  1  0.99135350  0.87374613  0.49101820  1
  O  O330  1  0.99181619  0.88058379  0.99135457  1
  O  O331  1  0.50123638  0.49331045  0.38893962  1
  O  O332  1  0.48674801  0.50086364  0.88349173  1
  O  O333  1  0.49067602  0.99568186  0.38086614  1
  O  O334  1  0.49093179  1.00118905  0.88597569  1
  O  O335  1  0.98804053  0.50278364  0.37078775  1
  O  O336  1  0.99689796  0.49020462  0.88431247  1
  O  O337  1  0.98856090  0.99112053  0.37487731  1
  O  O338  1  0.99721026  0.99102229  0.87976979  1
  O  O339  1  -0.00166844  0.00797461  0.11682515  1
  O  O340  1  0.00695911  0.00625429  0.62239735  1
  O  O341  1  0.00024353  0.50790382  0.12065558  1
  O  O342  1  0.00984550  0.50478642  0.62945999  1
  O  O343  1  0.49185168  0.00814503  0.11344959  1
  O  O344  1  0.49967168  0.00900512  0.61439683  1
  O  O345  1  0.49467539  0.49746334  0.11254165  1
  O  O346  1  0.51217160  0.50081643  0.61483683  1
  O  O347  1  0.24730595  0.37261508  0.24251738  1
  O  O348  1  0.24507779  0.37507850  0.74493632  1
  O  O349  1  0.25224692  0.88892114  0.25444490  1
  O  O350  1  0.25533332  0.88142488  0.73637736  1
  O  O351  1  0.73991496  0.38225646  0.24704582  1
  O  O352  1  0.74905002  0.37185867  0.73444117  1
  O  O353  1  0.73695709  0.86933127  0.23790180  1
  O  O354  1  0.74438924  0.87452154  0.74153620  1
  O  O355  1  0.26154344  0.11956656  0.24581752  1
  O  O356  1  0.25637850  0.11829952  0.75394137  1
  O  O357  1  0.25675765  0.62230069  0.25956012  1
  O  O358  1  0.25834876  0.62092024  0.75510098  1
  O  O359  1  0.76048226  0.13050356  0.25012851  1
  O  O360  1  0.75657255  0.12555519  0.75579776  1
  O  O361  1  0.75837715  0.61627552  0.24955641  1
  O  O362  1  0.75728796  0.63100906  0.75992106  1
  O  O363  1  0.37931866  0.11481788  0.36389124  1
  O  O364  1  0.36914242  0.11522157  0.86843935  1
  O  O365  1  0.36525857  0.63127622  0.36579983  1
  O  O366  1  0.36890426  0.61967622  0.86889568  1
  O  O367  1  0.87314275  0.11580060  0.36468778  1
  O  O368  1  0.86582546  0.12666983  0.86601002  1
  O  O369  1  0.87774851  0.62439412  0.36659024  1
  O  O370  1  0.86546519  0.62636977  0.86747005  1
  O  O371  1  0.13267729  0.37412180  0.13563957  1
  O  O372  1  0.13234407  0.37315567  0.64245754  1
  O  O373  1  0.12935547  0.88221574  0.11995907  1
  O  O374  1  0.13368288  0.88468115  0.61768410  1
  O  O375  1  0.62297580  0.37551024  0.13587464  1
  O  O376  1  0.63134277  0.38962556  0.62837000  1
  O  O377  1  0.63177566  0.86789296  0.13374417  1
  O  O378  1  0.63190933  0.87327685  0.63209110  1
  O  O379  1  0.11685604  0.25123715  0.25492480  1
  O  O380  1  0.12095250  0.25858019  0.76166117  1
  O  O381  1  0.11161973  0.74722425  0.24826201  1
  O  O382  1  0.12215276  0.74938825  0.74884836  1
  O  O383  1  0.61155436  0.25975294  0.24615703  1
  O  O384  1  0.62505529  0.24244793  0.76743007  1
  O  O385  1  0.62059296  0.74992203  0.25488057  1
  O  O386  1  0.62805521  0.75699910  0.75915639  1
  O  O387  1  0.38759644  0.24124808  0.25436004  1
  O  O388  1  0.37058252  0.23665513  0.74521763  1
  O  O389  1  0.38369378  0.74290029  0.24550491  1
  O  O390  1  0.36880428  0.74273478  0.73926470  1
  O  O391  1  0.88009459  0.24413927  0.24485955  1
  O  O392  1  0.88173037  0.23924531  0.74473952  1
  O  O393  1  0.87957064  0.74186405  0.24800931  1
  O  O394  1  0.87807731  0.73905757  0.74214637  1
  O  O395  1  0.38341260  0.49055098  0.50987534  1
  O  O396  1  0.38313343  0.49600340  0.99566578  1
  O  O397  1  0.38057195  0.99632820  0.49321192  1
  O  O398  1  0.37931117  0.99747790  0.99307136  1
  O  O399  1  0.87022852  0.50136222  0.48032110  1
  O  O400  1  0.88571631  0.50616863  0.99809212  1
  O  O401  1  0.87680624  0.99271483  0.49203769  1
  O  O402  1  0.88432444  0.99270646  0.99524492  1
  O  O403  1  0.11189937  0.00239279  -0.00136111  1
  O  O404  1  0.12489810  0.00891888  0.51064254  1
  O  O405  1  0.11534749  0.51126751  0.00209829  1
  O  O406  1  0.14643875  0.52710495  0.50024889  1
  O  O407  1  0.61464858  0.00919519  -0.00579312  1
  O  O408  1  0.61369055  -0.00913446  0.50040677  1
  O  O409  1  0.60931800  0.50579097  -0.00330681  1
  O  O410  1  0.62087367  0.50684285  0.50385899  1
  O  O411  1  0.36831400  0.37546708  0.11273789  1
  O  O412  1  0.36645252  0.37244000  0.61929275  1
  O  O413  1  0.36760140  0.85960328  0.12569741  1
  O  O414  1  0.36858833  0.87149145  0.61572162  1
  O  O415  1  0.87520598  0.36211992  0.13102366  1
  O  O416  1  0.86222226  0.37985163  0.62676818  1
  O  O417  1  0.86754546  0.87476075  0.11288457  1
  O  O418  1  0.86841143  0.86941887  0.61850846  1
  O  O419  1  0.11965726  0.12716915  0.38852749  1
  O  O420  1  0.13130073  0.13463209  0.86930805  1
  O  O421  1  0.13568360  0.62942393  0.38222977  1
  O  O422  1  0.12892111  0.62465897  0.88235626  1
  O  O423  1  0.62322343  0.12311610  0.36684088  1
  O  O424  1  0.63117291  0.13164015  0.88412793  1
  O  O425  1  0.62396169  0.63146191  0.38766031  1
  O  O426  1  0.63001000  0.63055770  0.88107280  1
