# generated using pymatgen
data_V85Zn86O256
_symmetry_space_group_name_H-M   'P 1'
_cell_length_a   16.89771218
_cell_length_b   16.90759723
_cell_length_c   16.90787051
_cell_angle_alpha   90.01091862
_cell_angle_beta   89.96658566
_cell_angle_gamma   90.09410140
_symmetry_Int_Tables_number   1
_chemical_formula_structural   V85Zn86O256
_chemical_formula_sum   'V85 Zn86 O256'
_cell_volume   4830.56630545
_cell_formula_units_Z   1
loop_
 _symmetry_equiv_pos_site_id
 _symmetry_equiv_pos_as_xyz
  1  'x, y, z'
loop_
 _atom_site_type_symbol
 _atom_site_label
 _atom_site_symmetry_multiplicity
 _atom_site_fract_x
 _atom_site_fract_y
 _atom_site_fract_z
 _atom_site_occupancy
  V  V0  1  0.49511892  0.11955733  0.62762480  1
  V  V1  1  0.62432191  0.37362240  0.24886275  1
  V  V2  1  -0.00378805  0.62481238  0.13248075  1
  V  V3  1  0.24676711  0.87734873  0.13130063  1
  V  V4  1  0.24965242  0.37795012  0.13079440  1
  V  V5  1  0.62249106  0.87987865  0.75001451  1
  V  V6  1  0.38354667  0.88033770  -0.00276593  1
  V  V7  1  0.12792217  0.00170297  0.63210976  1
  V  V8  1  0.24802000  0.24708313  0.00281869  1
  V  V9  1  0.11622754  0.37569290  0.75528274  1
  V  V10  1  -0.00513344  0.25039263  0.25851471  1
  V  V11  1  0.75706841  0.88303393  0.12018555  1
  V  V12  1  0.87495928  0.62829644  0.74526079  1
  V  V13  1  -0.01281341  0.24815594  0.75012246  1
  V  V14  1  0.12689769  0.62416885  0.00253991  1
  V  V15  1  -0.01728132  0.12811531  0.62917516  1
  V  V16  1  -0.00341929  0.12350862  0.13285879  1
  V  V17  1  0.25344228  0.75297205  -0.00013431  1
  V  V18  1  0.37270234  0.62344758  0.24718545  1
  V  V19  1  0.75201085  0.24515689  0.50123093  1
  V  V20  1  0.37575155  0.62683543  0.74978552  1
  V  V21  1  0.62643355  0.00150622  0.12500448  1
  V  V22  1  0.87676594  0.37195915  0.49225187  1
  V  V23  1  0.12769730  0.50027667  0.13039683  1
  V  V24  1  0.87486656  0.01245131  0.87161767  1
  V  V25  1  0.37548843  0.37381921  0.00055323  1
  V  V26  1  0.50346283  0.75236387  0.24936268  1
  V  V27  1  -0.01364484  -0.00495847  0.50313803  1
  V  V28  1  0.87897524  0.49828602  0.87433465  1
  V  V29  1  0.24823547  0.11553454  0.86257653  1
  V  V30  1  0.12394941  0.37735304  0.25636618  1
  V  V31  1  0.75919505  0.75545663  0.49865927  1
  V  V32  1  0.73579239  0.24372937  -0.00291287  1
  V  V33  1  -0.00351353  0.75217600  0.25025598  1
  V  V34  1  0.63170572  0.62831848  -0.00296081  1
  V  V35  1  0.24920986  0.62529223  0.37942425  1
  V  V36  1  0.13197313  0.76021085  0.37560192  1
  V  V37  1  0.38213243  0.24815588  0.64081761  1
  V  V38  1  0.62450932  -0.00110014  0.61362945  1
  V  V39  1  0.62563155  0.49866431  0.62584342  1
  V  V40  1  0.75642054  0.36909632  0.62573449  1
  V  V41  1  0.37084563  0.49903819  0.36947843  1
  V  V42  1  0.25131146  0.62607542  0.87677677  1
  V  V43  1  0.74921973  0.37419060  0.12304324  1
  V  V44  1  0.86913920  0.00004390  0.35758620  1
  V  V45  1  0.11896539  0.25176373  0.87624599  1
  V  V46  1  0.12171142  0.12352103  0.50354054  1
  V  V47  1  0.75036079  0.50036640  0.75040052  1
  V  V48  1  0.87787325  0.50657138  0.36656289  1
  V  V49  1  0.50252618  0.62748271  0.62391408  1
  V  V50  1  0.37941690  0.24995734  0.13247045  1
  V  V51  1  -0.00368438  0.87665230  0.37312316  1
  V  V52  1  -0.00903915  0.87259275  0.87960960  1
  V  V53  1  0.24938719  0.12345310  0.37602186  1
  V  V54  1  0.62700912  0.76161029  0.87925960  1
  V  V55  1  0.75228771  0.12305674  0.35918244  1
  V  V56  1  0.38021808  0.00195964  0.38189213  1
  V  V57  1  0.50436015  0.87778182  0.37974465  1
  V  V58  1  0.50282869  0.12465940  0.11680911  1
  V  V59  1  0.62159972  0.24804505  0.37224851  1
  V  V60  1  0.24886923  0.49965480  0.75095639  1
  V  V61  1  0.36949016  0.74872560  0.61933983  1
  V  V62  1  0.50179828  0.35790248  0.87092891  1
  V  V63  1  0.50009200  0.37296102  0.36966578  1
  V  V64  1  0.12462570  0.12105133  0.00560479  1
  V  V65  1  0.00250500  0.75292100  0.74786661  1
  V  V66  1  0.37977372  0.49886163  0.87477766  1
  V  V67  1  0.37799033  -0.00103998  0.86077387  1
  V  V68  1  0.24948520  0.24967812  0.50214039  1
  V  V69  1  -0.00784926  -0.00537613  0.00454955  1
  V  V70  1  0.62329853  0.50296585  0.12361642  1
  V  V71  1  0.38105239  0.12520275  0.25216869  1
  V  V72  1  0.00059887  0.49632477  -0.00027041  1
  V  V73  1  0.12021101  0.25335539  0.37839155  1
  V  V74  1  0.12328892  0.50115069  0.62374663  1
  V  V75  1  0.37842157  0.37279120  0.50112919  1
  V  V76  1  0.25080041  0.37394374  0.62647607  1
  V  V77  1  0.37070602  0.87322311  0.49861271  1
  V  V78  1  0.86719880  0.74832496  0.11180914  1
  V  V79  1  0.24959542  0.87749069  0.63009335  1
  V  V80  1  0.87863510  0.37134500  -0.00588039  1
  V  V81  1  0.00039868  0.49670878  0.49520062  1
  V  V82  1  0.62225434  0.36136092  0.75260009  1
  V  V83  1  0.73182690  0.12542069  0.87201942  1
  V  V84  1  0.87339473  0.24548928  0.12762838  1
  Zn  Zn85  1  0.74838995  0.62761804  0.37010420  1
  Zn  Zn86  1  0.50276809  0.50106267  -0.00347756  1
  Zn  Zn87  1  0.49960131  0.75756666  0.75271173  1
  Zn  Zn88  1  0.50715364  0.00126967  -0.00933198  1
  Zn  Zn89  1  0.37803969  0.75241125  0.12434402  1
  Zn  Zn90  1  0.11863324  -0.00862774  0.13566091  1
  Zn  Zn91  1  0.75396296  0.50534334  0.24788596  1
  Zn  Zn92  1  0.00106802  0.62719428  0.62223518  1
  Zn  Zn93  1  0.12803815  0.62898230  0.50029058  1
  Zn  Zn94  1  0.88233344  0.76659152  0.61796639  1
  Zn  Zn95  1  0.75350477  0.00435053  0.74495522  1
  Zn  Zn96  1  0.24520556  -0.00405822  0.25590379  1
  Zn  Zn97  1  0.63529429  0.87866537  0.25179937  1
  Zn  Zn98  1  0.50026262  0.62902631  0.12174861  1
  Zn  Zn99  1  0.62047539  0.11949423  0.49347570  1
  Zn  Zn100  1  0.75263722  0.63196660  0.87679338  1
  Zn  Zn101  1  0.62672193  0.74684027  0.37749604  1
  Zn  Zn102  1  0.12532374  0.75445638  0.87569765  1
  Zn  Zn103  1  0.75953279  0.87978241  0.62300660  1
  Zn  Zn104  1  0.12830102  0.88133593  0.75734888  1
  Zn  Zn105  1  0.62974103  0.62668693  0.49932082  1
  Zn  Zn106  1  0.50319989  0.50041251  0.49801824  1
  Zn  Zn107  1  0.18764058  0.18522557  0.19203236  1
  Zn  Zn108  1  0.18349574  0.19077894  0.68688515  1
  Zn  Zn109  1  0.18827998  0.69160610  0.19272461  1
  Zn  Zn110  1  0.18806429  0.68986479  0.68779538  1
  Zn  Zn111  1  0.68224884  0.18852920  0.18542442  1
  Zn  Zn112  1  0.68659115  0.18212173  0.68582901  1
  Zn  Zn113  1  0.69097542  0.68585448  0.19164254  1
  Zn  Zn114  1  0.69069284  0.69356671  0.68673007  1
  Zn  Zn115  1  0.30914505  0.31050838  0.31269083  1
  Zn  Zn116  1  0.30566686  0.31182020  0.81686717  1
  Zn  Zn117  1  0.31647842  0.80995266  0.31230743  1
  Zn  Zn118  1  0.31446113  0.81476648  0.81132365  1
  Zn  Zn119  1  0.80951667  0.31484054  0.31292086  1
  Zn  Zn120  1  0.80610650  0.31100107  0.81658249  1
  Zn  Zn121  1  0.81406900  0.81076285  0.30819255  1
  Zn  Zn122  1  0.80980758  0.81727012  0.81115015  1
  Zn  Zn123  1  0.18993745  0.43846671  0.43680009  1
  Zn  Zn124  1  0.18840791  0.43651267  0.93962826  1
  Zn  Zn125  1  0.18779852  0.93831138  0.44357872  1
  Zn  Zn126  1  0.18398572  0.93751504  0.94151642  1
  Zn  Zn127  1  0.69106773  0.43914779  0.43877745  1
  Zn  Zn128  1  0.68822710  0.43649823  0.93589808  1
  Zn  Zn129  1  0.69247759  0.93401703  0.43494827  1
  Zn  Zn130  1  0.69156041  0.93678257  0.94508858  1
  Zn  Zn131  1  0.31435850  0.05934324  0.06099093  1
  Zn  Zn132  1  0.31430070  0.06134425  0.56434027  1
  Zn  Zn133  1  0.31433679  0.56118812  0.06373172  1
  Zn  Zn134  1  0.31368236  0.56065271  0.55976999  1
  Zn  Zn135  1  0.81111236  0.06331328  0.06083401  1
  Zn  Zn136  1  0.80680161  0.06162641  0.55582337  1
  Zn  Zn137  1  0.81136400  0.56413818  0.06433021  1
  Zn  Zn138  1  0.81211492  0.56527463  0.55906015  1
  Zn  Zn139  1  0.44016895  0.43908445  0.18909443  1
  Zn  Zn140  1  0.44118866  0.43660870  0.68945199  1
  Zn  Zn141  1  0.43679500  0.93935855  0.18904042  1
  Zn  Zn142  1  0.44101432  0.93769703  0.68591238  1
  Zn  Zn143  1  0.94075599  0.43124010  0.18514258  1
  Zn  Zn144  1  0.93671403  0.43628128  0.68482261  1
  Zn  Zn145  1  0.93629821  0.92929955  0.18870641  1
  Zn  Zn146  1  0.93763230  0.93928381  0.69263727  1
  Zn  Zn147  1  0.06175494  0.06083874  0.31364129  1
  Zn  Zn148  1  0.05889692  0.06472112  0.81321761  1
  Zn  Zn149  1  0.06227914  0.56217213  0.31424971  1
  Zn  Zn150  1  0.06037735  0.56556893  0.81423990  1
  Zn  Zn151  1  0.56221580  0.06083926  0.30592787  1
  Zn  Zn152  1  0.55835218  0.06433537  0.80244854  1
  Zn  Zn153  1  0.56227395  0.56370835  0.31192020  1
  Zn  Zn154  1  0.56441589  0.56423581  0.81111455  1
  Zn  Zn155  1  0.44138637  0.18715305  0.44355643  1
  Zn  Zn156  1  0.43023063  0.18257342  0.93662607  1
  Zn  Zn157  1  0.44022781  0.68869201  0.43769085  1
  Zn  Zn158  1  0.44546755  0.69001099  0.93763667  1
  Zn  Zn159  1  0.93213949  0.18241183  0.43821696  1
  Zn  Zn160  1  0.93809534  0.18658023  0.94120012  1
  Zn  Zn161  1  0.94126737  0.68530021  0.43867229  1
  Zn  Zn162  1  0.93951211  0.68333684  0.93653038  1
  Zn  Zn163  1  0.06073419  0.31142608  0.06564569  1
  Zn  Zn164  1  0.05814356  0.31281303  0.56648535  1
  Zn  Zn165  1  0.06364415  0.81050290  0.06168054  1
  Zn  Zn166  1  0.06331173  0.81453808  0.55892087  1
  Zn  Zn167  1  0.55717841  0.31393250  0.06207505  1
  Zn  Zn168  1  0.56440417  0.30895733  0.56210781  1
  Zn  Zn169  1  0.56776730  0.81555166  0.06379839  1
  Zn  Zn170  1  0.56465463  0.81183074  0.55994385  1
  O  O171  1  0.11675093  0.12932975  0.11665240  1
  O  O172  1  0.12196865  0.12066448  0.61594915  1
  O  O173  1  0.12234617  0.61970327  0.12205912  1
  O  O174  1  0.12856835  0.61210987  0.62316980  1
  O  O175  1  0.61362247  0.11917773  0.12828099  1
  O  O176  1  0.61872328  0.11406290  0.62084495  1
  O  O177  1  0.62460283  0.61793242  0.11774092  1
  O  O178  1  0.61768759  0.61782441  0.62737816  1
  O  O179  1  0.37998839  0.37767076  0.37914567  1
  O  O180  1  0.37845402  0.38079975  0.87824394  1
  O  O181  1  0.37720561  0.88231664  0.38188253  1
  O  O182  1  0.36584490  0.89101854  0.88155543  1
  O  O183  1  0.87228490  0.38120919  0.38776811  1
  O  O184  1  0.87129722  0.38065379  0.88679836  1
  O  O185  1  0.88174527  0.88884184  0.37028361  1
  O  O186  1  0.88488027  0.88671884  0.87343976  1
  O  O187  1  0.25755047  0.00734367  0.37856140  1
  O  O188  1  0.25185676  0.01067178  0.87796075  1
  O  O189  1  0.26272483  0.50573297  0.37561793  1
  O  O190  1  0.26056352  0.50298848  0.87152915  1
  O  O191  1  0.76141151  0.00572750  0.37447725  1
  O  O192  1  0.75958350  0.01222268  0.88167384  1
  O  O193  1  0.76738585  0.49810674  0.37564993  1
  O  O194  1  0.76256221  0.49989057  0.86839903  1
  O  O195  1  0.24589740  0.48533616  0.12100497  1
  O  O196  1  0.24458003  0.49345845  0.62998135  1
  O  O197  1  0.24948597  0.98599980  0.12415436  1
  O  O198  1  0.24015019  0.99270552  0.61996343  1
  O  O199  1  0.73967463  0.49180204  0.12340022  1
  O  O200  1  0.74445163  0.49260090  0.62981610  1
  O  O201  1  0.74717231  0.99154358  0.12275878  1
  O  O202  1  0.73819253  1.00291693  0.62554905  1
  O  O203  1  0.01413780  0.36253322  0.24323795  1
  O  O204  1  0.01081346  0.36829653  0.74426487  1
  O  O205  1  0.00325356  0.86908290  0.26232256  1
  O  O206  1  0.00375464  0.86826064  0.75950724  1
  O  O207  1  0.50509737  0.37521915  0.26251016  1
  O  O208  1  0.50934114  0.37607206  0.75834342  1
  O  O209  1  0.49522911  0.86746136  0.26174701  1
  O  O210  1  0.51527858  0.87597147  0.74710637  1
  O  O211  1  0.48603500  0.12405110  0.24097168  1
  O  O212  1  0.50458906  0.13281236  0.72829680  1
  O  O213  1  0.48921514  0.63207579  0.24878092  1
  O  O214  1  0.49237584  0.62319508  0.73797242  1
  O  O215  1  1.00240599  0.13388478  0.23884724  1
  O  O216  1  1.00176580  0.13219212  0.73718992  1
  O  O217  1  1.00513707  0.63048645  0.23778871  1
  O  O218  1  0.99406252  0.63421511  0.74900537  1
  O  O219  1  0.36681239  0.25409338  0.01032704  1
  O  O220  1  0.36924868  0.26072520  0.50357973  1
  O  O221  1  0.36674749  0.75664178  -0.00282548  1
  O  O222  1  0.37711386  0.75843193  0.50797459  1
  O  O223  1  0.87074265  0.25637419  0.00642812  1
  O  O224  1  0.86260717  0.25644034  0.49407908  1
  O  O225  1  0.88239648  0.74773951  0.01340624  1
  O  O226  1  0.86531800  0.74381123  0.50096975  1
  O  O227  1  0.12699357  0.24482068  0.49891576  1
  O  O228  1  0.12581281  0.24330510  0.99419511  1
  O  O229  1  0.11810513  0.74582693  0.48086834  1
  O  O230  1  0.13756540  0.74315607  0.99887684  1
  O  O231  1  0.63676807  0.25251061  0.48921630  1
  O  O232  1  0.63772495  0.25363566  1.00456164  1
  O  O233  1  0.63780833  0.74749003  0.49995070  1
  O  O234  1  0.62197209  0.74513324  0.98749763  1
  O  O235  1  0.48807947  0.24374261  0.12254759  1
  O  O236  1  0.48901499  0.24580906  0.62210976  1
  O  O237  1  0.49773981  0.75125549  0.13359164  1
  O  O238  1  0.49049941  0.74301644  0.62675043  1
  O  O239  1  0.99203449  0.24293405  0.13283843  1
  O  O240  1  1.00260667  0.23610978  0.63344762  1
  O  O241  1  0.99675333  0.74410195  0.13051840  1
  O  O242  1  1.00081777  0.74787593  0.63188774  1
  O  O243  1  0.00010222  0.24360196  0.36494862  1
  O  O244  1  0.01235137  0.24016174  0.86847427  1
  O  O245  1  0.00403070  0.75755866  0.36952635  1
  O  O246  1  0.00046845  0.75759938  0.87004754  1
  O  O247  1  0.51343436  0.25611062  0.37887409  1
  O  O248  1  0.49129375  0.25868755  0.87768208  1
  O  O249  1  0.50063800  0.75894727  0.36833841  1
  O  O250  1  0.51954160  0.74504027  0.86845801  1
  O  O251  1  0.24146282  0.12955826  0.49708353  1
  O  O252  1  0.23988454  0.12855593  0.99851789  1
  O  O253  1  0.25078491  0.62137910  0.48491555  1
  O  O254  1  0.24831129  0.63266762  0.99715317  1
  O  O255  1  0.74467984  0.13239362  0.48786538  1
  O  O256  1  0.75169856  0.13753412  0.99205981  1
  O  O257  1  0.74982313  0.63536883  0.49490920  1
  O  O258  1  0.73709126  0.62130677  0.99745732  1
  O  O259  1  0.25515218  0.36699669  0.00774536  1
  O  O260  1  0.25751754  0.37053739  0.50723659  1
  O  O261  1  0.25647014  0.86832036  0.00625690  1
  O  O262  1  0.26265658  0.87706399  0.51016772  1
  O  O263  1  0.75606876  0.36280725  0.00237956  1
  O  O264  1  0.75674581  0.36799707  0.50686771  1
  O  O265  1  0.74806662  0.86889131  0.01940424  1
  O  O266  1  0.74929385  0.86032392  0.50163912  1
  O  O267  1  0.11997076  0.48957752  0.24334932  1
  O  O268  1  0.12721342  0.49414300  0.74606578  1
  O  O269  1  0.13302298  1.01053201  0.24632696  1
  O  O270  1  0.11782581  1.00110619  0.73611494  1
  O  O271  1  0.62312834  0.48887696  0.24216388  1
  O  O272  1  0.63060887  0.49400390  0.74043444  1
  O  O273  1  0.62151612  0.99632809  0.23332373  1
  O  O274  1  0.62736843  0.99549985  0.73964313  1
  O  O275  1  0.36902970  0.00789677  0.26179181  1
  O  O276  1  0.37241176  -0.00494201  0.76156779  1
  O  O277  1  0.37850880  0.50775263  0.25830440  1
  O  O278  1  0.36802696  0.50405721  0.75531484  1
  O  O279  1  0.87967667  0.00265000  0.25916533  1
  O  O280  1  0.87425388  0.00325365  0.76758867  1
  O  O281  1  0.87959063  0.48770352  0.26430149  1
  O  O282  1  0.87331541  0.50403786  0.75726687  1
  O  O283  1  0.12949801  0.36778893  0.36778000  1
  O  O284  1  0.12988010  0.36483535  0.86793823  1
  O  O285  1  0.12208028  0.86516676  0.37764469  1
  O  O286  1  0.11128969  0.87675021  0.87556642  1
  O  O287  1  0.61941047  0.37223100  0.36909890  1
  O  O288  1  0.61411722  0.37990632  0.86568660  1
  O  O289  1  0.61696526  0.87427821  0.37078120  1
  O  O290  1  0.62920043  0.86845564  0.87055930  1
  O  O291  1  0.37614233  0.13126785  0.13314146  1
  O  O292  1  0.38495782  0.13295432  0.62074695  1
  O  O293  1  0.37709034  0.62664198  0.13327473  1
  O  O294  1  0.37863397  0.63087898  0.62772979  1
  O  O295  1  0.88146276  0.13699399  0.12058458  1
  O  O296  1  0.88432430  0.12218382  0.62207213  1
  O  O297  1  0.88428158  0.63484297  0.12111873  1
  O  O298  1  0.87876249  0.62136547  0.63858089  1
  O  O299  1  0.25462560  0.25881531  0.12236048  1
  O  O300  1  0.25655975  0.25482103  0.62051869  1
  O  O301  1  0.25362474  0.75871551  0.11807560  1
  O  O302  1  0.26177743  0.75556046  0.62607553  1
  O  O303  1  0.75549621  0.25175823  0.11504115  1
  O  O304  1  0.74480035  0.25669245  0.61498844  1
  O  O305  1  0.76437874  0.75017017  0.12357120  1
  O  O306  1  0.75719273  0.75189945  0.61330434  1
  O  O307  1  0.24293246  0.24367936  0.38388722  1
  O  O308  1  0.23911910  0.23860374  0.88167417  1
  O  O309  1  0.23862774  0.74539978  0.37103373  1
  O  O310  1  0.24907357  0.74542262  0.88227462  1
  O  O311  1  0.74097822  0.24496487  0.37880041  1
  O  O312  1  0.75007362  0.23784379  0.88669693  1
  O  O313  1  0.75132461  0.75053550  0.38450413  1
  O  O314  1  0.73434440  0.74887247  0.86913585  1
  O  O315  1  0.00593147  0.11949866  0.01195287  1
  O  O316  1  0.00377346  0.12132630  0.51104771  1
  O  O317  1  0.00776269  0.61797657  0.00961582  1
  O  O318  1  0.00466786  0.61061983  0.50277770  1
  O  O319  1  0.49070948  0.12317921  0.01345886  1
  O  O320  1  0.50725150  0.13266883  0.51672245  1
  O  O321  1  0.51294646  0.62119819  0.00186042  1
  O  O322  1  0.49957580  0.62164374  0.51330005  1
  O  O323  1  0.49417813  0.37413112  0.48904289  1
  O  O324  1  0.49237838  0.37807108  0.99030303  1
  O  O325  1  0.48933672  0.87048967  0.48738100  1
  O  O326  1  0.48638319  0.87506139  1.00189068  1
  O  O327  1  0.98999199  0.38430047  0.50823922  1
  O  O328  1  0.99064658  0.38227513  1.00676311  1
  O  O329  1  1.00487444  0.88489227  0.48621721  1
  O  O330  1  1.00344428  0.88457705  0.99549318  1
  O  O331  1  0.48905137  0.49136969  0.37754267  1
  O  O332  1  0.48782311  0.49537439  0.87142923  1
  O  O333  1  0.49161130  0.99245131  0.37032603  1
  O  O334  1  0.48189160  1.01202617  0.87376886  1
  O  O335  1  0.99167937  0.49749397  0.38283129  1
  O  O336  1  0.98775721  0.50303013  0.88187112  1
  O  O337  1  0.99035882  0.99642334  0.38084152  1
  O  O338  1  0.99054998  0.99839343  0.88263539  1
  O  O339  1  -0.00304944  0.00544571  0.12126433  1
  O  O340  1  0.00451079  0.01136845  0.61969284  1
  O  O341  1  0.00454435  0.50716009  0.12091092  1
  O  O342  1  0.00938139  0.50093342  0.61931073  1
  O  O343  1  0.50448052  0.00819254  0.12256897  1
  O  O344  1  0.50668348  0.01075564  0.62403666  1
  O  O345  1  0.51277308  0.49951083  0.12187403  1
  O  O346  1  0.50818189  0.50595864  0.62360448  1
  O  O347  1  0.23733297  0.36866937  0.24235306  1
  O  O348  1  0.23813664  0.37996005  0.74620372  1
  O  O349  1  0.25751998  0.87308125  0.23435173  1
  O  O350  1  0.24621534  0.87050400  0.73564457  1
  O  O351  1  0.74179652  0.37980069  0.24130368  1
  O  O352  1  0.74559050  0.37966811  0.74345667  1
  O  O353  1  0.75007855  0.86447877  0.22982030  1
  O  O354  1  0.73851194  0.88220308  0.74619922  1
  O  O355  1  0.26212754  0.12806926  0.25997433  1
  O  O356  1  0.24012897  0.12666566  0.76457536  1
  O  O357  1  0.26450095  0.63178543  0.26062171  1
  O  O358  1  0.25510656  0.61913687  0.75646445  1
  O  O359  1  0.75019854  0.13388477  0.25996844  1
  O  O360  1  0.74698339  0.12508433  0.76758423  1
  O  O361  1  0.75077541  0.61787905  0.25515445  1
  O  O362  1  0.75823987  0.61849275  0.75048936  1
  O  O363  1  0.37425719  0.12080683  0.37207972  1
  O  O364  1  0.35679312  0.11433830  0.87757254  1
  O  O365  1  0.37160727  0.61704903  0.37095267  1
  O  O366  1  0.37193035  0.61782903  0.87161586  1
  O  O367  1  0.86688262  0.11110161  0.37533674  1
  O  O368  1  0.87133437  0.11507954  0.87919637  1
  O  O369  1  0.87993155  0.60859289  0.37503846  1
  O  O370  1  0.87394503  0.61765220  0.86501737  1
  O  O371  1  0.13257291  0.37821153  0.13144581  1
  O  O372  1  0.12957773  0.38394876  0.63248631  1
  O  O373  1  0.14185427  0.87386436  0.11955059  1
  O  O374  1  0.13282960  0.88412550  0.62273144  1
  O  O375  1  0.62722700  0.37943737  0.13082033  1
  O  O376  1  0.63278139  0.38057954  0.63036259  1
  O  O377  1  0.63600301  0.88173482  0.12859401  1
  O  O378  1  0.62451419  0.88640954  0.62937852  1
  O  O379  1  0.11673148  0.25366552  0.25846675  1
  O  O380  1  0.11783190  0.25779560  0.75726497  1
  O  O381  1  0.11405692  0.74572731  0.26525131  1
  O  O382  1  0.11361823  0.75055746  0.75321091  1
  O  O383  1  0.62817034  0.26477992  0.25640019  1
  O  O384  1  0.63119172  0.26251209  0.74724022  1
  O  O385  1  0.61205848  0.75149014  0.25058414  1
  O  O386  1  0.62409776  0.76026030  0.75651334  1
  O  O387  1  0.37079750  0.24407152  0.24042167  1
  O  O388  1  0.36773176  0.25551313  0.73896546  1
  O  O389  1  0.38607047  0.74230201  0.24945490  1
  O  O390  1  0.37811962  0.74374958  0.74320840  1
  O  O391  1  0.88253294  0.26049502  0.24006514  1
  O  O392  1  0.88820009  0.25906784  0.75669908  1
  O  O393  1  0.89115991  0.75174008  0.23970738  1
  O  O394  1  0.88530092  0.74395151  0.75054475  1
  O  O395  1  0.37641784  0.48563379  0.49415351  1
  O  O396  1  0.37585612  0.49259085  0.99117370  1
  O  O397  1  0.37432839  0.99358249  0.48930223  1
  O  O398  1  0.37647509  0.99308966  0.98996421  1
  O  O399  1  0.88246618  0.49324617  0.49288109  1
  O  O400  1  0.87836685  0.49311993  0.99424789  1
  O  O401  1  0.88467254  1.00420805  0.49136154  1
  O  O402  1  0.88541282  1.00411070  0.99165098  1
  O  O403  1  0.11347653  0.00848134  0.00640028  1
  O  O404  1  0.11401056  0.00824288  0.50688176  1
  O  O405  1  0.12107176  0.50294969  0.00839862  1
  O  O406  1  0.11874164  0.49701422  0.50756027  1
  O  O407  1  0.62074564  -0.00508850  0.01503377  1
  O  O408  1  0.62757088  -0.00242437  0.50970598  1
  O  O409  1  0.62474642  0.50517834  0.00628688  1
  O  O410  1  0.62520561  0.49893439  0.51419687  1
  O  O411  1  0.36990565  0.36892383  0.12428204  1
  O  O412  1  0.37333753  0.36897423  0.61879318  1
  O  O413  1  0.36542752  0.87586981  0.11492080  1
  O  O414  1  0.37116850  0.86985344  0.61878481  1
  O  O415  1  0.86943724  0.36659170  0.11495005  1
  O  O416  1  0.86183436  0.37996363  0.61569059  1
  O  O417  1  0.86817970  0.86298935  0.12416451  1
  O  O418  1  0.87488327  0.88068878  0.62386111  1
  O  O419  1  0.12538688  0.13142837  0.38896118  1
  O  O420  1  0.13104901  0.12713401  0.88520503  1
  O  O421  1  0.13451328  0.63078977  0.37455000  1
  O  O422  1  0.13371456  0.62374470  0.88452747  1
  O  O423  1  0.62901633  0.13216821  0.37165315  1
  O  O424  1  0.63348911  0.11713488  0.87721832  1
  O  O425  1  0.62506134  0.62591151  0.38096334  1
  O  O426  1  0.62913077  0.63052894  0.88075866  1
