# generated using pymatgen
data_V85Zn86O256
_symmetry_space_group_name_H-M   'P 1'
_cell_length_a   16.92339643
_cell_length_b   16.93429125
_cell_length_c   16.92719297
_cell_angle_alpha   89.96770010
_cell_angle_beta   90.03990917
_cell_angle_gamma   89.99129837
_symmetry_Int_Tables_number   1
_chemical_formula_structural   V85Zn86O256
_chemical_formula_sum   'V85 Zn86 O256'
_cell_volume   4851.08985336
_cell_formula_units_Z   1
loop_
 _symmetry_equiv_pos_site_id
 _symmetry_equiv_pos_as_xyz
  1  'x, y, z'
loop_
 _atom_site_type_symbol
 _atom_site_label
 _atom_site_symmetry_multiplicity
 _atom_site_fract_x
 _atom_site_fract_y
 _atom_site_fract_z
 _atom_site_occupancy
  V  V0  1  -0.00705885  0.12756539  0.12649348  1
  V  V1  1  0.86513555  0.37439290  0.01343543  1
  V  V2  1  0.24717119  0.74871171  -0.00168302  1
  V  V3  1  0.49247402  0.13231999  0.12898599  1
  V  V4  1  0.50156381  0.62432935  0.62494538  1
  V  V5  1  0.37536771  0.87408716  0.00070458  1
  V  V6  1  0.37440379  0.49725272  0.87289110  1
  V  V7  1  0.12718452  0.12307724  0.49214956  1
  V  V8  1  0.37562760  0.61828150  0.25103565  1
  V  V9  1  0.37300753  0.87385938  0.49653030  1
  V  V10  1  0.63356596  0.25174854  0.37558732  1
  V  V11  1  0.75152654  0.10879386  0.37395223  1
  V  V12  1  0.87618370  0.24956053  0.62308694  1
  V  V13  1  -0.00823952  0.38358404  0.87850629  1
  V  V14  1  -0.01381641  0.62702182  0.62911797  1
  V  V15  1  0.24797771  0.61599377  0.87177046  1
  V  V16  1  0.24280127  -0.00347957  0.75133409  1
  V  V17  1  0.62679652  0.74716339  0.37491312  1
  V  V18  1  0.87621316  0.12394649  0.74891961  1
  V  V19  1  0.50734721  0.87524046  0.86815821  1
  V  V20  1  0.37319595  0.37977019  0.49708440  1
  V  V21  1  0.11880369  0.49600076  0.12510021  1
  V  V22  1  0.75589318  0.75172831  -0.00015825  1
  V  V23  1  0.62948369  0.50888014  0.13243568  1
  V  V24  1  0.50108812  0.12545573  0.62535934  1
  V  V25  1  0.37141519  0.01080844  0.37447206  1
  V  V26  1  0.49824411  -0.00001947  0.50003750  1
  V  V27  1  0.24116455  0.74989825  0.49719035  1
  V  V28  1  0.11765099  0.62282823  -0.00042818  1
  V  V29  1  0.87145404  0.11272981  0.25322813  1
  V  V30  1  -0.00082115  0.50023748  0.50261051  1
  V  V31  1  0.87403589  -0.00690990  0.87715088  1
  V  V32  1  0.12477340  0.25649316  0.37125997  1
  V  V33  1  0.24803382  0.38138984  0.62902349  1
  V  V34  1  0.63146024  0.62264723  0.50003595  1
  V  V35  1  0.25387677  0.61912290  0.37846868  1
  V  V36  1  0.49838121  0.50139436  0.49591803  1
  V  V37  1  0.76065921  0.87536679  0.12292099  1
  V  V38  1  0.50010388  0.74550106  0.24426749  1
  V  V39  1  0.37417963  0.74918021  0.62343656  1
  V  V40  1  0.49971114  0.37703140  0.37184106  1
  V  V41  1  0.87470159  0.49698419  0.36172723  1
  V  V42  1  0.24715896  0.87414264  0.62793542  1
  V  V43  1  0.00481328  0.87559808  0.87217322  1
  V  V44  1  0.37364652  0.12679706  0.75065408  1
  V  V45  1  -0.00932100  0.00003281  0.49505212  1
  V  V46  1  0.62651966  0.12840879  0.00243240  1
  V  V47  1  0.50432845  0.37759479  0.87892424  1
  V  V48  1  0.50380226  0.25294062  0.75027791  1
  V  V49  1  0.75164513  0.12974388  0.87578045  1
  V  V50  1  0.12277806  -0.00266595  0.62377467  1
  V  V51  1  0.12846475  0.37826268  0.75951750  1
  V  V52  1  0.25169143  0.36957713  0.12808067  1
  V  V53  1  -0.01701965  0.74869921  0.74739985  1
  V  V54  1  -0.00383019  -0.00315398  0.00090246  1
  V  V55  1  0.37564095  0.36623645  0.00497882  1
  V  V56  1  0.11974308  0.13426720  -0.00293764  1
  V  V57  1  0.64345900  0.37712142  0.24524893  1
  V  V58  1  0.49902381  0.00008681  0.00202578  1
  V  V59  1  0.25164695  0.00634012  0.25234145  1
  V  V60  1  0.88650826  0.73078808  0.13155917  1
  V  V61  1  0.74869599  0.37607605  0.62511995  1
  V  V62  1  0.12329806  0.87811099  0.25075270  1
  V  V63  1  0.75665621  0.86656844  0.62706617  1
  V  V64  1  0.62215824  -0.00787672  0.62838900  1
  V  V65  1  0.76338520  0.62055242  0.87420029  1
  V  V66  1  0.24371402  0.13540853  0.87382420  1
  V  V67  1  -0.00431716  0.25682505  0.24813684  1
  V  V68  1  0.49819192  0.87415607  0.37270347  1
  V  V69  1  0.37154510  -0.00006296  0.87557592  1
  V  V70  1  0.75857321  0.62315974  0.36011526  1
  V  V71  1  0.74381105  -0.00414372  0.75052156  1
  V  V72  1  0.37427342  0.74177915  0.12516554  1
  V  V73  1  0.24717095  0.49450727  0.25205547  1
  V  V74  1  0.63266170  0.87556838  0.25030775  1
  V  V75  1  0.37402759  0.62212763  0.74974979  1
  V  V76  1  0.24929900  0.87477401  0.12492823  1
  V  V77  1  0.10793018  0.72829257  0.34383856  1
  V  V78  1  0.61742929  0.62594350  -0.00144398  1
  V  V79  1  0.00629238  0.24953242  0.75806115  1
  V  V80  1  0.25032526  0.24660673  0.49676964  1
  V  V81  1  0.76325314  0.50242865  0.75340775  1
  V  V82  1  -0.00493462  0.87414060  0.37267366  1
  V  V83  1  0.62912874  -0.00131873  0.12989050  1
  V  V84  1  0.12813523  0.75322462  0.86241508  1
  Zn  Zn85  1  0.49407446  0.25700972  0.24901264  1
  Zn  Zn86  1  0.87549379  0.87136633  0.49844008  1
  Zn  Zn87  1  0.62581365  0.12563241  0.49967352  1
  Zn  Zn88  1  0.62813699  0.38083200  0.75432202  1
  Zn  Zn89  1  0.00119846  0.12650248  0.62311630  1
  Zn  Zn90  1  0.62743774  0.50047714  0.62908282  1
  Zn  Zn91  1  0.87429640  0.37549471  0.49652474  1
  Zn  Zn92  1  0.49730876  0.50433976  0.00925203  1
  Zn  Zn93  1  -0.01243614  0.50768747  0.00076075  1
  Zn  Zn94  1  0.62983066  0.25422209  0.87769923  1
  Zn  Zn95  1  0.75114789  0.24894084  0.49971322  1
  Zn  Zn96  1  0.62930808  0.75046067  0.86942704  1
  Zn  Zn97  1  0.37554058  0.25175357  0.62339185  1
  Zn  Zn98  1  0.75636948  0.24755439  0.01890907  1
  Zn  Zn99  1  0.36565879  0.13673243  0.24834984  1
  Zn  Zn100  1  0.24725569  0.25091911  0.00275075  1
  Zn  Zn101  1  0.12376135  0.62431680  0.50862963  1
  Zn  Zn102  1  0.00100916  0.37758619  0.37473691  1
  Zn  Zn103  1  0.50390060  0.75331412  0.74662199  1
  Zn  Zn104  1  0.12395404  0.50213900  0.63181218  1
  Zn  Zn105  1  0.75945286  0.74379747  0.50498554  1
  Zn  Zn106  1  0.12453203  0.00123482  0.12282084  1
  Zn  Zn107  1  0.17930421  0.18776414  0.18582130  1
  Zn  Zn108  1  0.18515906  0.19000639  0.68221500  1
  Zn  Zn109  1  0.17246937  0.67782511  0.19136156  1
  Zn  Zn110  1  0.18681605  0.68262048  0.68613255  1
  Zn  Zn111  1  0.68009640  0.18311295  0.19694791  1
  Zn  Zn112  1  0.68640987  0.18610471  0.68774035  1
  Zn  Zn113  1  0.69030280  0.68955642  0.18316948  1
  Zn  Zn114  1  0.68422816  0.68615583  0.69584218  1
  Zn  Zn115  1  0.31406183  0.31237638  0.31536914  1
  Zn  Zn116  1  0.31531669  0.31360442  0.81150290  1
  Zn  Zn117  1  0.30649494  0.81114932  0.31214992  1
  Zn  Zn118  1  0.31539850  0.81106876  0.81124933  1
  Zn  Zn119  1  0.81615459  0.30343968  0.19169237  1
  Zn  Zn120  1  0.81700551  0.31447499  0.81025117  1
  Zn  Zn121  1  0.81577568  0.80493113  0.30948879  1
  Zn  Zn122  1  0.80811332  0.81502942  0.81472214  1
  Zn  Zn123  1  0.18491843  0.43731742  0.43917842  1
  Zn  Zn124  1  0.18386454  0.43379516  0.93876374  1
  Zn  Zn125  1  0.18294907  0.93396733  0.43409274  1
  Zn  Zn126  1  0.18283921  0.94036291  0.93801487  1
  Zn  Zn127  1  0.69161421  0.43886173  0.43630359  1
  Zn  Zn128  1  0.68976742  0.44335710  0.94258766  1
  Zn  Zn129  1  0.68423087  0.93400905  0.44377068  1
  Zn  Zn130  1  0.68832455  0.93978149  0.94288305  1
  Zn  Zn131  1  0.30940904  0.06325158  0.06084282  1
  Zn  Zn132  1  0.31204488  0.06430746  0.56307371  1
  Zn  Zn133  1  0.30814576  0.55820268  0.06044905  1
  Zn  Zn134  1  0.31331772  0.55988098  0.56296929  1
  Zn  Zn135  1  0.81324079  0.06237775  0.06515804  1
  Zn  Zn136  1  0.81047879  0.06246596  0.56165934  1
  Zn  Zn137  1  0.80765941  0.55910370  0.06192393  1
  Zn  Zn138  1  0.81536344  0.55976434  0.56139026  1
  Zn  Zn139  1  0.44019481  0.44158599  0.18425766  1
  Zn  Zn140  1  0.43722312  0.43839437  0.68647864  1
  Zn  Zn141  1  0.43832763  0.93789810  0.18872816  1
  Zn  Zn142  1  0.43088140  0.93927166  0.68748808  1
  Zn  Zn143  1  0.94000523  0.44154502  0.18736790  1
  Zn  Zn144  1  0.93804693  0.43542725  0.68735724  1
  Zn  Zn145  1  0.94022436  0.93564318  0.18894254  1
  Zn  Zn146  1  0.93905249  0.93653329  0.69056990  1
  Zn  Zn147  1  0.06209020  0.06345123  0.31359768  1
  Zn  Zn148  1  0.06315428  0.06404823  0.81187478  1
  Zn  Zn149  1  0.06435149  0.56035029  0.31278361  1
  Zn  Zn150  1  0.05868058  0.56226980  0.81045806  1
  Zn  Zn151  1  0.56327798  0.06151990  0.31227092  1
  Zn  Zn152  1  0.56302493  0.06285033  0.81429212  1
  Zn  Zn153  1  0.56389879  0.56095054  0.31197505  1
  Zn  Zn154  1  0.56783530  0.56306029  0.81273702  1
  Zn  Zn155  1  0.43998088  0.19251283  0.43617864  1
  Zn  Zn156  1  0.43771186  0.18889933  0.93728682  1
  Zn  Zn157  1  0.43668403  0.68704720  0.43547979  1
  Zn  Zn158  1  0.43667819  0.68898110  0.93603847  1
  Zn  Zn159  1  0.93569877  0.18618628  0.43436021  1
  Zn  Zn160  1  0.93402488  0.19121952  0.93839460  1
  Zn  Zn161  1  0.93477893  0.68747630  0.44326689  1
  Zn  Zn162  1  0.93674503  0.69530256  0.94132199  1
  Zn  Zn163  1  0.05969487  0.31496268  0.06300862  1
  Zn  Zn164  1  0.06207572  0.31493013  0.56401311  1
  Zn  Zn165  1  0.06145873  0.81305113  0.05887111  1
  Zn  Zn166  1  0.05801700  0.81395401  0.56528885  1
  Zn  Zn167  1  0.56857831  0.31423749  0.06433514  1
  Zn  Zn168  1  0.56520225  0.31305468  0.56125614  1
  Zn  Zn169  1  0.56466907  0.81070789  0.06105657  1
  Zn  Zn170  1  0.56591947  0.81037584  0.56265611  1
  O  O171  1  0.11198135  0.12053090  0.11622566  1
  O  O172  1  0.12410085  0.11439553  0.61398159  1
  O  O173  1  0.13634898  0.60937984  0.10948338  1
  O  O174  1  0.11490380  0.61983229  0.62649765  1
  O  O175  1  0.61661482  0.11557738  0.12102953  1
  O  O176  1  0.61695661  0.11412611  0.62510473  1
  O  O177  1  0.62767431  0.61695708  0.11872000  1
  O  O178  1  0.61904433  0.62526919  0.61586489  1
  O  O179  1  0.38436842  0.37353274  0.38966674  1
  O  O180  1  0.38069463  0.38173936  0.88118727  1
  O  O181  1  0.37875037  0.87940588  0.37878886  1
  O  O182  1  0.38005739  0.88127717  0.88228395  1
  O  O183  1  0.87798190  0.39414581  0.37555022  1
  O  O184  1  0.88787375  0.37351707  0.88028385  1
  O  O185  1  0.89136996  0.86961922  0.36872678  1
  O  O186  1  0.88053583  0.88800042  0.87220799  1
  O  O187  1  0.25904931  -0.00642012  0.36556487  1
  O  O188  1  0.25156016  0.00658066  0.86755235  1
  O  O189  1  0.24355400  0.50663010  0.36639447  1
  O  O190  1  0.25629087  0.50960687  0.87897850  1
  O  O191  1  0.74149024  0.01014598  0.37805530  1
  O  O192  1  0.75527078  0.00529876  0.87052748  1
  O  O193  1  0.76376988  0.51142317  0.37813191  1
  O  O194  1  0.74941290  0.51298884  0.87045087  1
  O  O195  1  0.24343454  0.49100980  0.13148193  1
  O  O196  1  0.24802890  0.48562741  0.62147270  1
  O  O197  1  0.24932683  0.98837056  0.12777161  1
  O  O198  1  0.24428211  0.99623413  0.63219807  1
  O  O199  1  0.72979045  0.49678133  0.12027336  1
  O  O200  1  0.75124524  0.49247406  0.63237697  1
  O  O201  1  0.73712152  0.99233763  0.11885378  1
  O  O202  1  0.74118192  0.99552580  0.63284785  1
  O  O203  1  -0.00246621  0.35992249  0.25056379  1
  O  O204  1  0.00391020  0.36936542  0.76108633  1
  O  O205  1  0.01381495  0.87775787  0.25559257  1
  O  O206  1  -0.00181188  0.86380934  0.76051405  1
  O  O207  1  0.49985683  0.38136151  0.26512240  1
  O  O208  1  0.50173745  0.36868125  0.75731020  1
  O  O209  1  0.50706790  0.86657677  0.25449699  1
  O  O210  1  0.49121898  0.87944367  0.76570268  1
  O  O211  1  0.50035445  0.12350844  0.23496465  1
  O  O212  1  0.49537635  0.13177098  0.74679911  1
  O  O213  1  0.48924456  0.63350619  0.25797305  1
  O  O214  1  0.48854190  0.62268102  0.74577532  1
  O  O215  1  0.99503969  0.12849947  0.24360053  1
  O  O216  1  0.99565543  0.13264146  0.74798692  1
  O  O217  1  1.07054258  0.66274549  0.26389565  1
  O  O218  1  1.00121307  0.64032041  0.74772460  1
  O  O219  1  0.37145120  0.26243514  -0.00294639  1
  O  O220  1  0.36696214  0.25716239  0.50111897  1
  O  O221  1  0.36859114  0.75289653  0.00751442  1
  O  O222  1  0.36443606  0.75396994  0.50270697  1
  O  O223  1  0.87363811  0.26641718  -0.00152926  1
  O  O224  1  0.87552774  0.24928958  0.51250145  1
  O  O225  1  0.86197105  0.74999455  0.00944217  1
  O  O226  1  0.87112147  0.75784203  0.50002550  1
  O  O227  1  0.12924315  0.24243970  0.49577622  1
  O  O228  1  0.12386096  0.23803887  1.00209392  1
  O  O229  1  0.13706769  0.75030063  0.50568057  1
  O  O230  1  0.13030367  0.74223996  0.99101794  1
  O  O231  1  0.62726356  0.24636594  0.49150969  1
  O  O232  1  0.62877643  0.23809756  0.99858388  1
  O  O233  1  0.62832133  0.73994694  0.49193078  1
  O  O234  1  0.63481351  0.74227459  0.99948381  1
  O  O235  1  0.50576336  0.23455223  0.12454602  1
  O  O236  1  0.50057811  0.24430831  0.63270731  1
  O  O237  1  0.49031568  0.75510061  0.13600847  1
  O  O238  1  0.49156250  0.74229985  0.62122335  1
  O  O239  1  1.00758197  0.24228539  0.13895113  1
  O  O240  1  0.99191839  0.25025133  0.63470439  1
  O  O241  1  0.98435426  0.75242650  0.11449506  1
  O  O242  1  1.00356038  0.74672258  0.64164169  1
  O  O243  1  0.00527384  0.25006489  0.36575539  1
  O  O244  1  -0.00579662  0.25715668  0.86237939  1
  O  O245  1  0.01312546  0.75485730  0.38220992  1
  O  O246  1  0.00605673  0.75662327  0.86702407  1
  O  O247  1  0.51247259  0.26116965  0.37757168  1
  O  O248  1  0.50067324  0.26120914  0.86903448  1
  O  O249  1  0.50498657  0.75438555  0.36564864  1
  O  O250  1  0.49689504  0.76796843  0.87690186  1
  O  O251  1  0.24220538  0.13496528  0.50482520  1
  O  O252  1  0.23968579  0.12590626  0.99279245  1
  O  O253  1  0.25313782  0.63179182  0.49467065  1
  O  O254  1  0.24399797  0.62963773  0.98908703  1
  O  O255  1  0.74800051  0.12603557  0.48787577  1
  O  O256  1  0.74416265  0.12458015  0.99278492  1
  O  O257  1  0.74052886  0.62323019  0.49641222  1
  O  O258  1  0.74217695  0.63079150  0.99099773  1
  O  O259  1  0.25784907  0.37356101  0.00713342  1
  O  O260  1  0.25709592  0.37078761  0.50530825  1
  O  O261  1  0.25368103  0.87122452  0.00589813  1
  O  O262  1  0.25365279  0.86771870  0.50378718  1
  O  O263  1  0.76222930  0.36968769  -0.00455585  1
  O  O264  1  0.75413501  0.37280197  0.50934311  1
  O  O265  1  0.74301553  0.86523785  0.01018668  1
  O  O266  1  0.75036568  0.87542727  0.51619659  1
  O  O267  1  0.13273328  0.50171765  0.23525487  1
  O  O268  1  0.12100643  0.48378714  0.75137713  1
  O  O269  1  0.13336604  0.99310137  0.24938509  1
  O  O270  1  0.13523716  1.00529232  0.74111365  1
  O  O271  1  0.62476015  0.49043146  0.24335957  1
  O  O272  1  0.63738281  0.49941929  0.74724426  1
  O  O273  1  0.61862855  0.98805418  0.24081845  1
  O  O274  1  0.63329079  1.00396665  0.74376974  1
  O  O275  1  0.36973764  0.00327093  0.25815566  1
  O  O276  1  0.36285869  0.00802879  0.75465698  1
  O  O277  1  0.36790698  0.51359437  0.24375552  1
  O  O278  1  0.37754466  0.50507131  0.76361458  1
  O  O279  1  0.88019584  0.01314782  0.24918753  1
  O  O280  1  0.86841090  0.00612617  0.75710964  1
  O  O281  1  0.88396277  0.50585568  0.26262335  1
  O  O282  1  0.86336368  0.49645982  0.74987446  1
  O  O283  1  0.12050505  0.36096619  0.37954510  1
  O  O284  1  0.11241138  0.37257586  0.87058247  1
  O  O285  1  0.11771747  0.86434635  0.36537348  1
  O  O286  1  0.11817605  0.86587621  0.87713672  1
  O  O287  1  0.62191874  0.37252785  0.36653757  1
  O  O288  1  0.61753191  0.37423864  0.87778920  1
  O  O289  1  0.62091639  0.86846935  0.36825936  1
  O  O290  1  0.60956487  0.87881363  0.88142104  1
  O  O291  1  0.38977172  0.11900796  0.12330510  1
  O  O292  1  0.38357652  0.12618443  0.63263427  1
  O  O293  1  0.36610894  0.63583679  0.13107389  1
  O  O294  1  0.37924420  0.62727760  0.63246779  1
  O  O295  1  0.88607162  0.12225638  0.13142865  1
  O  O296  1  0.87606155  0.13086582  0.63135155  1
  O  O297  1  0.87623030  0.63075991  0.11966862  1
  O  O298  1  0.88612417  0.62493868  0.62561570  1
  O  O299  1  0.24169413  0.26546181  0.12715155  1
  O  O300  1  0.25050688  0.26015848  0.61323723  1
  O  O301  1  0.25546047  0.75947138  0.12015811  1
  O  O302  1  0.25504913  0.75377154  0.61902213  1
  O  O303  1  0.74462127  0.24404375  0.13074660  1
  O  O304  1  0.75787686  0.25531034  0.62683720  1
  O  O305  1  0.75722212  0.75667941  0.11772437  1
  O  O306  1  0.74272876  0.76507358  0.62946335  1
  O  O307  1  0.24089187  0.25517340  0.38799057  1
  O  O308  1  0.25405589  0.23774280  0.87596959  1
  O  O309  1  0.23961752  0.74102705  0.38075890  1
  O  O310  1  0.24547129  0.74218741  0.87808877  1
  O  O311  1  0.73582298  0.24259683  0.37632532  1
  O  O312  1  0.75162076  0.23581056  0.87069903  1
  O  O313  1  0.74509584  0.73721873  0.37537612  1
  O  O314  1  0.75010569  0.74295890  0.88230078  1
  O  O315  1  0.00208886  0.12184373  0.00519953  1
  O  O316  1  0.00695331  0.11668743  0.50031002  1
  O  O317  1  0.01360923  0.62361966  -0.01146999  1
  O  O318  1  0.00170535  0.61943058  0.51129389  1
  O  O319  1  0.50620220  0.12138946  0.00775250  1
  O  O320  1  0.49876446  0.11842964  0.50862864  1
  O  O321  1  0.51269288  0.62746761  -0.00470138  1
  O  O322  1  0.50689986  0.61877106  0.50139484  1
  O  O323  1  0.49519939  0.38225916  0.49502640  1
  O  O324  1  0.49391811  0.37457303  0.99444658  1
  O  O325  1  0.49434431  0.87949723  0.49353109  1
  O  O326  1  0.49406240  0.88062850  0.99450926  1
  O  O327  1  0.99502969  0.38377620  0.49898922  1
  O  O328  1  0.99186162  0.37479500  0.99012055  1
  O  O329  1  1.00177984  0.88306566  0.49155291  1
  O  O330  1  1.00368940  0.88433152  0.98506088  1
  O  O331  1  0.50614239  0.49310633  0.38800883  1
  O  O332  1  0.49414923  0.48928944  0.87684644  1
  O  O333  1  0.49212740  0.99369708  0.37889541  1
  O  O334  1  0.49379419  0.99299114  0.88111313  1
  O  O335  1  0.99224232  0.50428082  0.38061450  1
  O  O336  1  1.00029817  0.48670491  0.87763041  1
  O  O337  1  1.00876893  0.98898548  0.38467740  1
  O  O338  1  0.99387538  0.99375414  0.87619028  1
  O  O339  1  0.00084845  0.00512266  0.11519135  1
  O  O340  1  0.00823311  -0.00033548  0.61888424  1
  O  O341  1  0.01507611  0.49877807  0.12180756  1
  O  O342  1  -0.00173868  0.50752653  0.62027119  1
  O  O343  1  0.50846694  0.00477817  0.11942347  1
  O  O344  1  0.50417264  0.00380676  0.62307520  1
  O  O345  1  0.51830450  0.49713090  0.12313990  1
  O  O346  1  0.50241197  0.50615740  0.61483103  1
  O  O347  1  0.25717086  0.38792628  0.24571150  1
  O  O348  1  0.24109167  0.36663357  0.74292625  1
  O  O349  1  0.25108260  0.88885624  0.24075157  1
  O  O350  1  0.25680377  0.88625777  0.74346443  1
  O  O351  1  0.74106167  0.37373105  0.25347854  1
  O  O352  1  0.74939660  0.38207439  0.74532923  1
  O  O353  1  0.73746355  0.86663699  0.24356318  1
  O  O354  1  0.75139091  0.88694216  0.74241385  1
  O  O355  1  0.24947472  0.11058842  0.23728503  1
  O  O356  1  0.25200830  0.12136248  0.75536132  1
  O  O357  1  0.25462948  0.61587481  0.25817558  1
  O  O358  1  0.26400254  0.62857543  0.75739346  1
  O  O359  1  0.75584690  0.12412230  0.26446606  1
  O  O360  1  0.75376180  0.11487665  0.75695005  1
  O  O361  1  0.74522504  0.62490213  0.26236529  1
  O  O362  1  0.75017747  0.61951837  0.76545199  1
  O  O363  1  0.37919117  0.11319647  0.37511601  1
  O  O364  1  0.36785690  0.11855355  0.87132464  1
  O  O365  1  0.36230727  0.63034298  0.36610110  1
  O  O366  1  0.36966203  0.61865428  0.86984194  1
  O  O367  1  0.85966684  0.12551013  0.37003091  1
  O  O368  1  0.86851787  0.11564732  0.87104486  1
  O  O369  1  0.86374179  0.61993815  0.37597768  1
  O  O370  1  0.86188830  0.62704868  0.88376088  1
  O  O371  1  0.13355482  0.38888610  0.11678821  1
  O  O372  1  0.13232774  0.37712812  0.63450958  1
  O  O373  1  0.13280350  0.87773125  0.12880079  1
  O  O374  1  0.13190571  0.88918524  0.61955618  1
  O  O375  1  0.62224547  0.38105160  0.14135575  1
  O  O376  1  0.63830304  0.37449336  0.62790546  1
  O  O377  1  0.63039645  0.88039005  0.13182902  1
  O  O378  1  0.63131095  0.88682708  0.62270685  1
  O  O379  1  0.11139299  0.24003152  0.26191903  1
  O  O380  1  0.11427272  0.25940163  0.74332538  1
  O  O381  1  0.15737251  0.77516934  0.25176438  1
  O  O382  1  0.12477390  0.74852484  0.76099172  1
  O  O383  1  0.61664169  0.26487153  0.25741756  1
  O  O384  1  0.61377990  0.25017209  0.75472440  1
  O  O385  1  0.61633053  0.75386954  0.25239572  1
  O  O386  1  0.61565743  0.74931180  0.75657833  1
  O  O387  1  0.38166750  0.24700388  0.25727337  1
  O  O388  1  0.38741080  0.24527646  0.74841978  1
  O  O389  1  0.37816620  0.74250579  0.24356506  1
  O  O390  1  0.38060371  0.74159088  0.74233732  1
  O  O391  1  0.89130841  0.23760307  0.25180104  1
  O  O392  1  0.88206613  0.24367749  0.74111163  1
  O  O393  1  0.87393792  0.74712443  0.23090492  1
  O  O394  1  0.88489235  0.75194534  0.75434630  1
  O  O395  1  0.38519516  0.49260545  0.50239424  1
  O  O396  1  0.37773449  0.49486198  0.98872641  1
  O  O397  1  0.37739916  0.99448066  0.49315904  1
  O  O398  1  0.37887391  0.99497955  0.99467405  1
  O  O399  1  0.88679640  0.50158250  0.49114472  1
  O  O400  1  0.87469749  0.48231473  1.00482019  1
  O  O401  1  0.88772950  0.99622152  0.50419172  1
  O  O402  1  0.88718101  1.00650910  0.99118984  1
  O  O403  1  0.11106340  0.01058248  -0.00176109  1
  O  O404  1  0.12124180  0.00624122  0.50457952  1
  O  O405  1  0.12364223  0.50655594  0.00732347  1
  O  O406  1  0.11070429  0.49946361  0.50263837  1
  O  O407  1  0.61933878  0.01087855  0.00723738  1
  O  O408  1  0.61449007  0.00207756  0.50941276  1
  O  O409  1  0.62169725  0.50985305  0.00892465  1
  O  O410  1  0.61923330  0.50779083  0.50264821  1
  O  O411  1  0.36683470  0.38315771  0.11495743  1
  O  O412  1  0.36929208  0.37351465  0.61606529  1
  O  O413  1  0.36882706  0.86653307  0.12087409  1
  O  O414  1  0.36809653  0.87038323  0.61663218  1
  O  O415  1  0.87651539  0.37374998  0.11882981  1
  O  O416  1  0.86524594  0.36595939  0.62563471  1
  O  O417  1  0.86183627  0.87755209  0.12906093  1
  O  O418  1  0.85880862  0.88164480  0.62721910  1
  O  O419  1  0.12301130  0.13292871  0.38686005  1
  O  O420  1  0.13264811  0.12174368  0.88270289  1
  O  O421  1  0.13793035  0.62735751  0.38958899  1
  O  O422  1  0.13342090  0.62925274  0.87698980  1
  O  O423  1  0.63269887  0.13108400  0.37305436  1
  O  O424  1  0.63329850  0.12417270  0.88540234  1
  O  O425  1  0.63540022  0.62583882  0.38115665  1
  O  O426  1  0.63285382  0.62709448  0.88546208  1
