# generated using pymatgen
data_V85Zn86O256
_symmetry_space_group_name_H-M   'P 1'
_cell_length_a   16.94138745
_cell_length_b   16.94068411
_cell_length_c   16.94083980
_cell_angle_alpha   89.94639848
_cell_angle_beta   89.98054585
_cell_angle_gamma   89.92038783
_symmetry_Int_Tables_number   1
_chemical_formula_structural   V85Zn86O256
_chemical_formula_sum   'V85 Zn86 O256'
_cell_volume   4861.99178539
_cell_formula_units_Z   1
loop_
 _symmetry_equiv_pos_site_id
 _symmetry_equiv_pos_as_xyz
  1  'x, y, z'
loop_
 _atom_site_type_symbol
 _atom_site_label
 _atom_site_symmetry_multiplicity
 _atom_site_fract_x
 _atom_site_fract_y
 _atom_site_fract_z
 _atom_site_occupancy
  V  V0  1  0.12611736  0.87716365  0.24923799  1
  V  V1  1  0.25196700  0.50214912  0.24754021  1
  V  V2  1  0.75711877  0.38156621  0.62587184  1
  V  V3  1  0.37671080  0.88054826  -0.00302382  1
  V  V4  1  0.50437524  0.50136553  0.52225676  1
  V  V5  1  0.87182794  0.87532690  0.50155051  1
  V  V6  1  0.37740350  0.74231341  0.62313481  1
  V  V7  1  0.00633203  -0.00265932  0.51809358  1
  V  V8  1  0.37555124  0.00064789  0.37368512  1
  V  V9  1  0.62694802  0.00715411  0.12235048  1
  V  V10  1  0.38246465  0.87316448  0.50295748  1
  V  V11  1  0.74946369  0.74727378  0.00292723  1
  V  V12  1  0.75186729  0.00353297  0.25573136  1
  V  V13  1  0.86615649  0.75031238  0.62980792  1
  V  V14  1  0.50610040  0.74518594  0.24491309  1
  V  V15  1  0.50346408  0.00549875  -0.00340064  1
  V  V16  1  -0.00295723  0.00555978  -0.00015684  1
  V  V17  1  0.50101305  0.87440271  0.37339059  1
  V  V18  1  0.24842068  0.37466262  0.12066234  1
  V  V19  1  0.24224798  0.87776169  0.62304592  1
  V  V20  1  0.24863516  0.12665210  0.37152409  1
  V  V21  1  0.25056609  0.87641429  0.12350397  1
  V  V22  1  0.50648105  0.25837146  0.24761665  1
  V  V23  1  0.12253066  0.61699474  0.50011732  1
  V  V24  1  0.12744507  0.87529041  0.75466916  1
  V  V25  1  0.49949564  0.87749220  0.87341594  1
  V  V26  1  0.38182254  0.49933487  0.37631609  1
  V  V27  1  0.12382739  0.11955265  0.51266536  1
  V  V28  1  0.37916726  0.23417005  0.62779916  1
  V  V29  1  0.76613761  0.50305461  0.25717207  1
  V  V30  1  0.00051354  0.74865066  0.24893947  1
  V  V31  1  0.87442836  0.87967343  -0.00038980  1
  V  V32  1  0.00537168  0.86787379  0.87801078  1
  V  V33  1  0.75548666  0.12119858  0.87083944  1
  V  V34  1  0.24680758  0.50044962  0.74636426  1
  V  V35  1  -0.00059992  0.38340327  0.38447698  1
  V  V36  1  0.49982415  0.74353735  0.74834271  1
  V  V37  1  0.87633253  0.62038439  0.75944138  1
  V  V38  1  0.37892344  0.62616066  0.24645592  1
  V  V39  1  0.74861082  0.74396996  0.47984754  1
  V  V40  1  0.75575419  0.25198177  0.50783913  1
  V  V41  1  0.12788447  0.74827453  0.37408217  1
  V  V42  1  -0.01701957  0.37411291  0.87747761  1
  V  V43  1  0.87646082  0.51578177  0.38917688  1
  V  V44  1  0.25003457  0.24749894  0.50072774  1
  V  V45  1  0.37602685  0.12619421  0.24882127  1
  V  V46  1  0.24351664  0.75055813  -0.00858723  1
  V  V47  1  0.74799615  0.49978598  0.75619759  1
  V  V48  1  0.88035109  0.13318567  0.24462259  1
  V  V49  1  0.37191769  0.50295500  0.87321922  1
  V  V50  1  -0.00076211  0.61964678  0.62387187  1
  V  V51  1  0.61971090  0.49699103  0.14290246  1
  V  V52  1  0.62544435  0.87380529  0.25315864  1
  V  V53  1  -0.00349077  0.62269012  0.12775870  1
  V  V54  1  0.11896559  0.24989755  0.37326039  1
  V  V55  1  0.25023303  0.00279675  0.24827451  1
  V  V56  1  0.62226906  0.37614673  0.74218410  1
  V  V57  1  0.50143273  0.37407257  0.87368077  1
  V  V58  1  0.12643600  0.12408383  -0.00932739  1
  V  V59  1  -0.00998870  0.24323886  0.73979233  1
  V  V60  1  0.37275497  0.25131161  0.12465974  1
  V  V61  1  0.63775655  0.87396636  0.74468313  1
  V  V62  1  0.50038590  0.23411581  0.74613570  1
  V  V63  1  0.26465810  0.00157579  0.74639942  1
  V  V64  1  0.50260293  0.12727836  0.12318087  1
  V  V65  1  0.75033286  0.87609086  0.12628289  1
  V  V66  1  0.37571977  0.37129578  0.50239566  1
  V  V67  1  0.00334092  0.87795540  0.37708752  1
  V  V68  1  0.37920414  0.74563282  0.12168494  1
  V  V69  1  0.12364382  0.50076205  0.11632817  1
  V  V70  1  0.62468487  0.24331022  0.88548736  1
  V  V71  1  0.12353460  0.37611662  0.25094232  1
  V  V72  1  0.25368454  0.74936682  0.49916450  1
  V  V73  1  0.76839707  0.25079036  0.00598808  1
  V  V74  1  0.37468386  0.37705989  -0.00174484  1
  V  V75  1  0.12327966  0.37179182  0.75283795  1
  V  V76  1  0.12103516  0.01063373  0.12577901  1
  V  V77  1  0.50491769  0.50861090  -0.00046129  1
  V  V78  1  0.62812050  0.25784314  0.37232612  1
  V  V79  1  0.26598131  0.11879796  0.87101957  1
  V  V80  1  0.62631058  0.74597777  0.87755802  1
  V  V81  1  0.87406269  0.74658090  0.13102835  1
  V  V82  1  0.25453648  0.62575514  0.37459702  1
  V  V83  1  0.61863448  0.12760452  0.50511129  1
  V  V84  1  -0.02039468  0.49534513  -0.00356546  1
  Zn  Zn85  1  -0.01398091  0.25706534  0.24290501  1
  Zn  Zn86  1  0.63028024  0.61662287  0.50355658  1
  Zn  Zn87  1  -0.07317835  0.09449591  0.67896259  1
  Zn  Zn88  1  0.24796343  0.37072266  0.62697595  1
  Zn  Zn89  1  0.11754334  0.63020327  -0.00865069  1
  Zn  Zn90  1  0.75380613  0.61582721  0.88301726  1
  Zn  Zn91  1  0.25170853  0.25043474  -0.00978850  1
  Zn  Zn92  1  0.49686155  0.00802567  0.50672051  1
  Zn  Zn93  1  0.12427148  0.24559353  0.87083909  1
  Zn  Zn94  1  0.75911082  0.37376310  0.12983773  1
  Zn  Zn95  1  0.62185460  -0.00091232  0.62497390  1
  Zn  Zn96  1  0.11871057  0.49430917  0.62119444  1
  Zn  Zn97  1  0.37749745  0.62113426  0.74607456  1
  Zn  Zn98  1  0.50434745  0.37812295  0.37318601  1
  Zn  Zn99  1  0.88320233  0.37943284  0.50640494  1
  Zn  Zn100  1  0.75903354  0.00272055  0.73593647  1
  Zn  Zn101  1  0.01186097  0.74329941  0.75580992  1
  Zn  Zn102  1  0.87917467  0.00367123  0.37586886  1
  Zn  Zn103  1  0.88096090  0.00269562  0.86027088  1
  Zn  Zn104  1  0.75230960  0.13136893  0.37436060  1
  Zn  Zn105  1  0.23865844  0.63185372  0.86616810  1
  Zn  Zn106  1  0.62261049  0.62383148  0.00766443  1
  Zn  Zn107  1  0.12927589  0.22922207  0.13664685  1
  Zn  Zn108  1  0.18917850  0.18761922  0.69123692  1
  Zn  Zn109  1  0.18834931  0.68736834  0.18187381  1
  Zn  Zn110  1  0.18820432  0.68765067  0.68643812  1
  Zn  Zn111  1  0.69009615  0.18777571  0.18749469  1
  Zn  Zn112  1  0.68707614  0.18929362  0.68767631  1
  Zn  Zn113  1  0.68639505  0.67884912  0.19159933  1
  Zn  Zn114  1  0.68809561  0.67794085  0.68649460  1
  Zn  Zn115  1  0.31197617  0.31322894  0.31168195  1
  Zn  Zn116  1  0.31329361  0.30961057  0.81000196  1
  Zn  Zn117  1  0.31587227  0.81282611  0.31067494  1
  Zn  Zn118  1  0.31692047  0.81681535  0.81033880  1
  Zn  Zn119  1  0.81174612  0.32073496  0.31660449  1
  Zn  Zn120  1  0.80911453  0.30631922  0.80831144  1
  Zn  Zn121  1  0.81687098  0.81672261  0.31177923  1
  Zn  Zn122  1  0.81716674  0.80903932  0.81779236  1
  Zn  Zn123  1  0.19358213  0.43724238  0.43696209  1
  Zn  Zn124  1  0.18274723  0.43808847  0.93314844  1
  Zn  Zn125  1  0.18867660  0.93854984  0.43884594  1
  Zn  Zn126  1  0.18842502  0.94083184  0.93321200  1
  Zn  Zn127  1  0.68821878  0.43829282  0.43714996  1
  Zn  Zn128  1  0.68860689  0.43046716  0.93661978  1
  Zn  Zn129  1  0.68498615  0.93450103  0.44099220  1
  Zn  Zn130  1  0.68633461  0.93710383  0.93543618  1
  Zn  Zn131  1  0.31325243  0.06315678  0.06060780  1
  Zn  Zn132  1  0.31051317  0.05926117  0.56108444  1
  Zn  Zn133  1  0.31284601  0.56572003  0.05837485  1
  Zn  Zn134  1  0.31336541  0.56046867  0.56200439  1
  Zn  Zn135  1  0.81121051  0.07065084  0.06101842  1
  Zn  Zn136  1  0.79965218  0.05606429  0.56265541  1
  Zn  Zn137  1  0.80710864  0.56242422  0.07283176  1
  Zn  Zn138  1  0.80750380  0.56492683  0.56797492  1
  Zn  Zn139  1  0.43899944  0.43999006  0.18459127  1
  Zn  Zn140  1  0.43231278  0.42597675  0.69072453  1
  Zn  Zn141  1  0.43899021  0.93695723  0.18411297  1
  Zn  Zn142  1  0.44455737  0.93329901  0.68343197  1
  Zn  Zn143  1  0.93499537  0.43996323  0.19421919  1
  Zn  Zn144  1  0.93643590  0.43888393  0.69181111  1
  Zn  Zn145  1  0.93718399  0.94164481  0.18722216  1
  Zn  Zn146  1  0.93670813  0.92489213  0.69143255  1
  Zn  Zn147  1  0.05960078  0.06653437  0.31502969  1
  Zn  Zn148  1  0.06886557  0.05534972  0.80906058  1
  Zn  Zn149  1  0.06008364  0.56139466  0.31220156  1
  Zn  Zn150  1  0.06240411  0.55917628  0.81578552  1
  Zn  Zn151  1  0.56538608  0.06733397  0.31559343  1
  Zn  Zn152  1  0.56839320  0.06031435  0.81459712  1
  Zn  Zn153  1  0.57544398  0.57050046  0.31988984  1
  Zn  Zn154  1  0.56496182  0.56169457  0.81342288  1
  Zn  Zn155  1  0.43928564  0.19066746  0.43367956  1
  Zn  Zn156  1  0.43937760  0.18871393  0.93810004  1
  Zn  Zn157  1  0.47401243  0.67214800  0.42250873  1
  Zn  Zn158  1  0.43394755  0.68757901  0.93426349  1
  Zn  Zn159  1  0.91345297  0.15948081  0.47778500  1
  Zn  Zn160  1  0.94037809  0.18514935  0.92745216  1
  Zn  Zn161  1  0.94083291  0.69204507  0.44240726  1
  Zn  Zn162  1  0.93692809  0.68739824  0.94290074  1
  Zn  Zn163  1  -0.05416745  0.30991480  0.07109165  1
  Zn  Zn164  1  0.06466837  0.30858821  0.56494543  1
  Zn  Zn165  1  0.06224217  0.81802605  0.06464787  1
  Zn  Zn166  1  0.06177396  0.80372126  0.56537659  1
  Zn  Zn167  1  0.56574372  0.32187638  0.06444026  1
  Zn  Zn168  1  0.56188106  0.31249026  0.56295037  1
  Zn  Zn169  1  0.56421635  0.81628048  0.06398565  1
  Zn  Zn170  1  0.58586050  0.77023929  0.58148026  1
  O  O171  1  0.13520678  0.11316825  0.11355294  1
  O  O172  1  0.12979658  0.12929155  0.61123476  1
  O  O173  1  0.11959179  0.61651061  0.11865521  1
  O  O174  1  0.11826859  0.62394925  0.61671448  1
  O  O175  1  0.61976060  0.11366961  0.12903652  1
  O  O176  1  0.62612294  0.13058124  0.60771659  1
  O  O177  1  0.62753669  0.60363734  0.12293645  1
  O  O178  1  0.61337129  0.66085791  0.60807751  1
  O  O179  1  0.37475772  0.38071354  0.38533786  1
  O  O180  1  0.37926420  0.38370457  0.87801015  1
  O  O181  1  0.37809238  0.88366142  0.37959938  1
  O  O182  1  0.39010237  0.87097414  0.88338806  1
  O  O183  1  0.88703540  0.38656518  0.37886506  1
  O  O184  1  0.88481909  0.37219217  0.86837370  1
  O  O185  1  0.88883646  0.87607424  0.38223036  1
  O  O186  1  0.88217698  0.88096601  0.88316120  1
  O  O187  1  0.25617585  0.00494452  0.36838106  1
  O  O188  1  0.25230775  0.00863216  0.86258699  1
  O  O189  1  0.26272755  0.50602490  0.36934867  1
  O  O190  1  0.25635027  0.49890653  0.86386202  1
  O  O191  1  0.74873121  -0.00318202  0.36164358  1
  O  O192  1  0.74961037  0.01349064  0.87691486  1
  O  O193  1  0.76685999  0.49646086  0.37216428  1
  O  O194  1  0.74614599  0.49898608  0.86297795  1
  O  O195  1  0.24428189  0.49487712  0.12507788  1
  O  O196  1  0.25061451  0.49567217  0.63685493  1
  O  O197  1  0.24506146  0.99472693  0.12912483  1
  O  O198  1  0.25344222  0.99286561  0.63621018  1
  O  O199  1  0.74265895  0.49916303  0.14226344  1
  O  O200  1  0.74704856  0.49339297  0.63814362  1
  O  O201  1  0.74351378  0.99778478  0.13241910  1
  O  O202  1  0.73513127  0.99380029  0.62482454  1
  O  O203  1  0.01082590  0.38056854  0.26343476  1
  O  O204  1  0.00430928  0.36908889  0.75842543  1
  O  O205  1  0.00705822  0.87063281  0.25642088  1
  O  O206  1  0.01064984  0.87123013  0.76064673  1
  O  O207  1  0.49190375  0.36095845  0.24953677  1
  O  O208  1  0.50684199  0.36735197  0.75763117  1
  O  O209  1  0.50773341  0.87065971  0.25199621  1
  O  O210  1  0.50756968  0.86472331  0.76062667  1
  O  O211  1  0.49459045  0.13367384  0.24307494  1
  O  O212  1  0.50539202  0.13511688  0.75495015  1
  O  O213  1  0.49588240  0.63973094  0.25078239  1
  O  O214  1  0.49887170  0.63921545  0.75708101  1
  O  O215  1  0.98428723  0.12741843  0.25502359  1
  O  O216  1  1.00466129  0.13637882  0.75331407  1
  O  O217  1  1.00894841  0.63276154  0.23562786  1
  O  O218  1  0.99246906  0.62554557  0.74538741  1
  O  O219  1  0.37207323  0.25725946  0.00639410  1
  O  O220  1  0.37166949  0.25440211  0.50358976  1
  O  O221  1  0.37017236  0.75925811  0.00530760  1
  O  O222  1  0.37119026  0.75751364  0.50569514  1
  O  O223  1  0.87219510  0.24478667  0.00185929  1
  O  O224  1  0.85696127  0.26125582  0.49179992  1
  O  O225  1  0.86788664  0.75733702  0.01148823  1
  O  O226  1  0.86857132  0.75442445  0.50861872  1
  O  O227  1  0.12960599  0.24197732  0.49104499  1
  O  O228  1  0.13253538  0.22903370  0.99941735  1
  O  O229  1  0.13427859  0.74131621  0.49334385  1
  O  O230  1  0.14142491  0.75489735  1.00731529  1
  O  O231  1  0.62854554  0.24508541  0.49289409  1
  O  O232  1  0.62059445  0.25305124  0.98598927  1
  O  O233  1  0.65250871  0.77629624  0.48916041  1
  O  O234  1  0.63195798  0.74869425  0.99809330  1
  O  O235  1  0.49762374  0.24715920  0.12861994  1
  O  O236  1  0.49340404  0.25298583  0.63575085  1
  O  O237  1  0.48994971  0.75830690  0.13143956  1
  O  O238  1  0.48582981  0.76433034  0.63739348  1
  O  O239  1  1.02024780  0.25668507  0.13543811  1
  O  O240  1  0.99945712  0.25279585  0.64036010  1
  O  O241  1  0.99370771  0.74419210  0.12629728  1
  O  O242  1  0.99139966  0.73718013  0.62895432  1
  O  O243  1  0.01610182  0.26113641  0.36652587  1
  O  O244  1  0.00352110  0.26115560  0.86795808  1
  O  O245  1  0.00747162  0.75931343  0.37083457  1
  O  O246  1  -0.00467428  0.76381202  0.87864088  1
  O  O247  1  0.50669930  0.25310174  0.36353178  1
  O  O248  1  0.50860924  0.25222736  0.86969515  1
  O  O249  1  0.48693420  0.76894576  0.35831327  1
  O  O250  1  0.50665301  0.75635347  0.87250613  1
  O  O251  1  0.24308288  0.12714261  0.49030115  1
  O  O252  1  0.24685434  0.11827602  0.98389653  1
  O  O253  1  0.24692343  0.63018866  0.49297673  1
  O  O254  1  0.25017815  0.64290071  0.99894371  1
  O  O255  1  0.73827268  0.14036152  0.49543587  1
  O  O256  1  0.75129794  0.13970275  0.98838763  1
  O  O257  1  0.74820769  0.64002486  0.50048660  1
  O  O258  1  0.75003391  0.63681910  1.00195501  1
  O  O259  1  0.25475692  0.37625565  0.00468314  1
  O  O260  1  0.25720229  0.36537395  0.50159063  1
  O  O261  1  0.25826487  0.87018190  0.00116874  1
  O  O262  1  0.25899013  0.87133643  0.50472952  1
  O  O263  1  0.75041192  0.35296227  -0.00499809  1
  O  O264  1  0.74602378  0.36836859  0.51097597  1
  O  O265  1  0.75247241  0.86598753  0.00679409  1
  O  O266  1  0.76915065  0.87079546  0.48989102  1
  O  O267  1  0.13228519  0.49500152  0.24317718  1
  O  O268  1  0.13159347  0.49111067  0.74743366  1
  O  O269  1  0.12827202  0.99883873  0.24242671  1
  O  O270  1  0.13875998  0.98368787  0.74911678  1
  O  O271  1  0.60831363  0.49409212  0.24333296  1
  O  O272  1  0.63035405  0.48794038  0.75493540  1
  O  O273  1  0.63116307  0.99556369  0.24356517  1
  O  O274  1  0.62642506  0.98115612  0.75418825  1
  O  O275  1  0.37181656  0.00452431  0.25344488  1
  O  O276  1  0.36303744  -0.01128615  0.74859174  1
  O  O277  1  0.37176289  0.50530729  0.25452460  1
  O  O278  1  0.36803729  0.49801665  0.75680706  1
  O  O279  1  0.86749821  0.00600901  0.25328366  1
  O  O280  1  0.87684988  0.00623115  0.74288465  1
  O  O281  1  0.87014001  0.51095644  0.26130476  1
  O  O282  1  0.86550154  0.51134423  0.74798870  1
  O  O283  1  0.12342633  0.37426636  0.36963001  1
  O  O284  1  0.11907457  0.37086860  0.86381861  1
  O  O285  1  0.12363374  0.86769117  0.36947895  1
  O  O286  1  0.11840349  0.87629775  0.86898736  1
  O  O287  1  0.62137886  0.36306987  0.37945636  1
  O  O288  1  0.62095880  0.36135285  0.86613259  1
  O  O289  1  0.61567757  0.88180444  0.36107578  1
  O  O290  1  0.61710972  0.86355699  0.87335863  1
  O  O291  1  0.37985661  0.13291425  0.12799180  1
  O  O292  1  0.37500277  0.13516280  0.61680171  1
  O  O293  1  0.37113519  0.63762366  0.12902425  1
  O  O294  1  0.36862417  0.63892727  0.62644774  1
  O  O295  1  0.87090871  0.12234836  0.14537820  1
  O  O296  1  0.87860223  0.12957511  0.58650567  1
  O  O297  1  0.88312164  0.63505739  0.12547165  1
  O  O298  1  0.88013614  0.63399702  0.63231193  1
  O  O299  1  0.24647384  0.26609709  0.12093375  1
  O  O300  1  0.25877490  0.24866362  0.61867550  1
  O  O301  1  0.25868522  0.75779282  0.11602509  1
  O  O302  1  0.25792719  0.75821913  0.61866215  1
  O  O303  1  0.74448890  0.24972947  0.10782161  1
  O  O304  1  0.74506744  0.25868077  0.61326628  1
  O  O305  1  0.75606865  0.75196089  0.12404182  1
  O  O306  1  0.76541961  0.74822525  0.62159052  1
  O  O307  1  0.24356713  0.24597033  0.38058646  1
  O  O308  1  0.24869502  0.23348652  0.87063286  1
  O  O309  1  0.24816535  0.74447345  0.37791422  1
  O  O310  1  0.25816138  0.75278030  0.88862830  1
  O  O311  1  0.74188476  0.25592768  0.38594035  1
  O  O312  1  0.74222904  0.24221646  0.88136538  1
  O  O313  1  0.76231152  0.74567275  0.38122018  1
  O  O314  1  0.74317093  0.74964234  0.88774566  1
  O  O315  1  0.00907370  0.11268896  -0.01016858  1
  O  O316  1  0.01509871  0.10690043  0.48801691  1
  O  O317  1  -0.00060961  0.61794335  0.01100064  1
  O  O318  1  0.01282131  0.63112459  0.50843943  1
  O  O319  1  0.49459721  0.11244007  0.00565875  1
  O  O320  1  0.51434997  0.12715504  0.49194270  1
  O  O321  1  0.49744181  0.61199126  -0.00381467  1
  O  O322  1  0.47925226  0.59942737  0.51191975  1
  O  O323  1  0.49131049  0.38304425  0.49821850  1
  O  O324  1  0.49318691  0.38341581  0.99246620  1
  O  O325  1  0.48841369  0.87331220  0.48820163  1
  O  O326  1  0.49473129  0.88247812  0.99521758  1
  O  O327  1  1.00458633  0.37139117  0.48861213  1
  O  O328  1  0.99468014  0.38020303  0.98575024  1
  O  O329  1  0.99923598  0.87743636  0.49462885  1
  O  O330  1  0.99641312  0.88462475  0.99606790  1
  O  O331  1  0.48731242  0.49723976  0.37504632  1
  O  O332  1  0.49205871  0.49464984  0.87957681  1
  O  O333  1  0.49246914  0.99107410  0.37306912  1
  O  O334  1  0.50850994  0.99094437  0.88548699  1
  O  O335  1  0.98858553  0.49662091  0.37447896  1
  O  O336  1  1.00028178  0.48451256  0.88318871  1
  O  O337  1  1.00611577  0.98488861  0.37807134  1
  O  O338  1  0.99987436  0.98982249  0.88292047  1
  O  O339  1  0.01112686  -0.00485202  0.11504105  1
  O  O340  1  -0.00081357  -0.00301476  0.61908977  1
  O  O341  1  0.00581501  0.50640127  0.12023511  1
  O  O342  1  -0.00039420  0.51392678  0.62853088  1
  O  O343  1  0.50783471  0.00511282  0.11882808  1
  O  O344  1  0.50919708  -0.00705117  0.61794630  1
  O  O345  1  0.51165879  0.49357641  0.11444659  1
  O  O346  1  0.49783273  0.48979214  0.62065346  1
  O  O347  1  0.24805590  0.38470464  0.24187735  1
  O  O348  1  0.24108873  0.37988893  0.74999229  1
  O  O349  1  0.24529237  0.88189290  0.24480715  1
  O  O350  1  0.24844226  0.88215141  0.74316282  1
  O  O351  1  0.75135624  0.39591430  0.25268846  1
  O  O352  1  0.74344168  0.37881633  0.74478835  1
  O  O353  1  0.74422905  0.88145200  0.24511446  1
  O  O354  1  0.73947537  0.87456718  0.76151119  1
  O  O355  1  0.25994675  0.11773085  0.25781733  1
  O  O356  1  0.24986002  0.11081315  0.75669011  1
  O  O357  1  0.25719907  0.62155749  0.25365904  1
  O  O358  1  0.25331106  0.61549169  0.74946359  1
  O  O359  1  0.75642527  0.11809310  0.25352039  1
  O  O360  1  0.74326581  0.12444194  0.76538093  1
  O  O361  1  0.72854171  0.59902980  0.26193955  1
  O  O362  1  0.75607310  0.61693657  0.75360418  1
  O  O363  1  0.37069699  0.11864935  0.37052219  1
  O  O364  1  0.36461761  0.12419959  0.87766946  1
  O  O365  1  0.37486409  0.61795813  0.36753903  1
  O  O366  1  0.36963535  0.61171323  0.87284718  1
  O  O367  1  0.87000936  0.11998908  0.37258892  1
  O  O368  1  0.86013903  0.12188195  0.87499679  1
  O  O369  1  0.88354172  0.61432658  0.38133945  1
  O  O370  1  0.87291670  0.63461081  0.86309258  1
  O  O371  1  0.13440275  0.38738954  0.13477611  1
  O  O372  1  0.12593734  0.37621909  0.63651057  1
  O  O373  1  0.13180143  0.88635529  0.13026740  1
  O  O374  1  0.13850681  0.87061109  0.62558452  1
  O  O375  1  0.63591865  0.39395158  0.11842415  1
  O  O376  1  0.63242293  0.36824670  0.63836073  1
  O  O377  1  0.63014678  0.88567088  0.13511324  1
  O  O378  1  0.62616404  0.86289967  0.64519119  1
  O  O379  1  0.13617020  0.26914217  0.25713926  1
  O  O380  1  0.11727531  0.25652312  0.75066311  1
  O  O381  1  0.12176100  0.75617392  0.25262717  1
  O  O382  1  0.12872626  0.76678553  0.74391774  1
  O  O383  1  0.61763123  0.24659935  0.25679375  1
  O  O384  1  0.61734080  0.25535394  0.75788556  1
  O  O385  1  0.61721053  0.76042616  0.24014787  1
  O  O386  1  0.62141358  0.75626564  0.76122265  1
  O  O387  1  0.37999377  0.24491768  0.24308367  1
  O  O388  1  0.38742309  0.25376180  0.74038036  1
  O  O389  1  0.38112302  0.74770263  0.23875131  1
  O  O390  1  0.38242916  0.74917133  0.74278563  1
  O  O391  1  0.87025384  0.23805991  0.25785300  1
  O  O392  1  0.88978674  0.24784950  0.75085455  1
  O  O393  1  0.88376367  0.75748745  0.23790993  1
  O  O394  1  0.87686263  0.74482652  0.74060109  1
  O  O395  1  0.37686046  0.48832412  0.49432572  1
  O  O396  1  0.37953973  0.49594067  0.99268865  1
  O  O397  1  0.37512103  0.99200157  0.49094207  1
  O  O398  1  0.38432676  0.98655287  1.00742578  1
  O  O399  1  0.87090317  0.50036607  0.49279622  1
  O  O400  1  0.88097925  0.50675209  1.00301111  1
  O  O401  1  0.88837670  0.98757415  0.49671938  1
  O  O402  1  0.88335863  0.99704944  1.00336470  1
  O  O403  1  0.12023787  0.00559374  0.00555097  1
  O  O404  1  0.11994036  0.00646544  0.49928676  1
  O  O405  1  0.11730542  0.49743383  0.00969672  1
  O  O406  1  0.13490875  0.51297528  0.50134127  1
  O  O407  1  0.61593964  -0.00751650  0.01094076  1
  O  O408  1  0.62449250  0.01825098  0.49190687  1
  O  O409  1  0.61601321  0.50093154  -0.00443034  1
  O  O410  1  0.60836626  0.49853489  0.49926281  1
  O  O411  1  0.36655160  0.37170720  0.11965206  1
  O  O412  1  0.37134334  0.36486571  0.61261470  1
  O  O413  1  0.36984979  0.86734838  0.11745494  1
  O  O414  1  0.36521486  0.86897322  0.61595796  1
  O  O415  1  0.87418503  0.37688892  0.12725317  1
  O  O416  1  0.86256936  0.37949766  0.62460389  1
  O  O417  1  0.86871353  0.87012800  0.12018935  1
  O  O418  1  0.88410504  0.85741828  0.61599075  1
  O  O419  1  0.13224435  0.13528459  0.37452008  1
  O  O420  1  0.13600528  0.12171362  0.87825535  1
  O  O421  1  0.13091377  0.62941715  0.38015419  1
  O  O422  1  0.12596369  0.62489588  0.87920033  1
  O  O423  1  0.62910544  0.13930089  0.38110696  1
  O  O424  1  0.63370020  0.13713090  0.87544983  1
  O  O425  1  0.58537763  0.64276489  0.40049671  1
  O  O426  1  0.62750213  0.63729707  0.88024245  1
