# generated using pymatgen
data_V85Zn86O256
_symmetry_space_group_name_H-M   'P 1'
_cell_length_a   16.94532791
_cell_length_b   16.94137078
_cell_length_c   16.94796188
_cell_angle_alpha   90.00903297
_cell_angle_beta   90.04843007
_cell_angle_gamma   89.95666033
_symmetry_Int_Tables_number   1
_chemical_formula_structural   V85Zn86O256
_chemical_formula_sum   'V85 Zn86 O256'
_cell_volume   4865.36827180
_cell_formula_units_Z   1
loop_
 _symmetry_equiv_pos_site_id
 _symmetry_equiv_pos_as_xyz
  1  'x, y, z'
loop_
 _atom_site_type_symbol
 _atom_site_label
 _atom_site_symmetry_multiplicity
 _atom_site_fract_x
 _atom_site_fract_y
 _atom_site_fract_z
 _atom_site_occupancy
  V  V0  1  0.37357365  0.11867249  0.24644349  1
  V  V1  1  0.00282290  0.61973899  0.11198457  1
  V  V2  1  0.87341755  0.87335398  0.50340721  1
  V  V3  1  0.13008536  0.37427624  0.24712189  1
  V  V4  1  0.25389500  0.62777855  0.37536887  1
  V  V5  1  0.88260712  0.62648710  0.74362506  1
  V  V6  1  0.50603649  0.12538801  0.12318886  1
  V  V7  1  0.12384721  0.10596147  0.00045663  1
  V  V8  1  0.12128390  0.62755046  0.50239802  1
  V  V9  1  0.24907123  0.25014112  0.50389311  1
  V  V10  1  0.62216631  0.25360941  0.87181248  1
  V  V11  1  0.62467249  0.62079672  0.50004075  1
  V  V12  1  0.24835116  0.37798452  0.62094201  1
  V  V13  1  0.24367034  0.25167958  -0.00093250  1
  V  V14  1  0.74683069  0.74432112  0.50277062  1
  V  V15  1  0.12477227  0.12204747  0.50182976  1
  V  V16  1  0.87810181  0.24778453  0.12275328  1
  V  V17  1  0.13820611  -0.00494463  0.63617438  1
  V  V18  1  0.75402007  0.24917993  0.49754869  1
  V  V19  1  0.00430259  0.85393268  0.87093514  1
  V  V20  1  0.12353022  0.37560396  0.74975549  1
  V  V21  1  0.87333175  0.50160961  0.87724477  1
  V  V22  1  0.73834127  0.50376102  0.74817566  1
  V  V23  1  0.36945133  0.75455024  0.62530898  1
  V  V24  1  0.37308917  0.63017844  0.75667129  1
  V  V25  1  0.87653320  0.74949047  0.12550605  1
  V  V26  1  0.38943403  0.88610840  -0.00913403  1
  V  V27  1  0.36917001  0.25370139  0.12484521  1
  V  V28  1  0.62046956  0.11902000  0.49850653  1
  V  V29  1  0.00364198  0.11023602  0.12106888  1
  V  V30  1  0.50129418  0.62899713  0.13456225  1
  V  V31  1  0.87455168  0.25088852  0.62384609  1
  V  V32  1  0.00052073  0.12287531  0.62585150  1
  V  V33  1  0.38368272  0.13105514  0.73695562  1
  V  V34  1  0.12330090  0.24869498  0.37544512  1
  V  V35  1  0.13045419  0.75561435  0.37370797  1
  V  V36  1  0.61745612  0.86938591  0.24962536  1
  V  V37  1  0.49756895  0.76341130  0.75663411  1
  V  V38  1  0.56977209  0.06774637  -0.04854331  1
  V  V39  1  0.74793472  0.38097956  0.62608659  1
  V  V40  1  0.37802398  0.75349924  0.12909917  1
  V  V41  1  0.49562137  0.50078805  0.50597625  1
  V  V42  1  0.61387450  -0.00262336  0.62236953  1
  V  V43  1  0.49918169  0.88431827  0.37991210  1
  V  V44  1  0.00112876  -0.00231726  0.50341672  1
  V  V45  1  0.24393810  0.74356591  -0.00066784  1
  V  V46  1  0.62363017  -0.00016255  0.12446381  1
  V  V47  1  0.75257799  0.12244450  0.37339152  1
  V  V48  1  0.00464467  0.74564750  0.24776025  1
  V  V49  1  0.88861206  0.74663115  0.62679404  1
  V  V50  1  0.25275564  0.49849243  0.24667219  1
  V  V51  1  0.41689812  0.31666740  0.55821546  1
  V  V52  1  0.50350901  0.25709618  0.24541547  1
  V  V53  1  0.74441450  0.37383176  0.12983869  1
  V  V54  1  0.11468433  0.50261592  0.62158138  1
  V  V55  1  -0.00138357  0.25157269  0.74982757  1
  V  V56  1  0.88765372  0.00093422  0.87935734  1
  V  V57  1  0.00030354  0.24825710  0.24763034  1
  V  V58  1  -0.00324019  0.38635357  0.37285742  1
  V  V59  1  0.12431302  0.50104552  0.12261348  1
  V  V60  1  0.50411028  0.62514695  0.62997561  1
  V  V61  1  0.87447309  0.12485148  0.75045572  1
  V  V62  1  0.50043461  0.50167172  0.00213007  1
  V  V63  1  0.75237312  -0.00220646  0.74812248  1
  V  V64  1  0.25706588  0.11056780  0.86812967  1
  V  V65  1  0.36273616  0.37767977  0.00250215  1
  V  V66  1  0.87475082  0.37881333  0.00020427  1
  V  V67  1  0.74505895  0.24427741  -0.00024649  1
  V  V68  1  0.62794124  0.25490951  0.36722479  1
  V  V69  1  0.37487571  0.49565578  0.37747979  1
  V  V70  1  -0.00211948  0.37656251  0.87984139  1
  V  V71  1  0.87349111  0.38483571  0.49440253  1
  V  V72  1  0.75091029  -0.00815980  0.25151119  1
  V  V73  1  0.49600779  0.37389804  0.37454253  1
  V  V74  1  0.24627437  0.88554280  0.12182951  1
  V  V75  1  0.61756741  0.74607649  0.37421072  1
  V  V76  1  0.62469668  0.49641343  0.13189924  1
  V  V77  1  0.62098168  0.75523488  0.87792419  1
  V  V78  1  0.75372999  0.50260484  0.26032498  1
  V  V79  1  0.37386348  0.88680892  0.50782373  1
  V  V80  1  0.00209065  0.87438606  0.37665884  1
  V  V81  1  0.75291994  0.74863250  -0.00035330  1
  V  V82  1  0.13347072  0.85968069  0.75217779  1
  V  V83  1  0.49794096  0.37425535  0.86956055  1
  V  V84  1  0.36950273  0.50438710  0.87683901  1
  Zn  Zn85  1  0.25007056  0.12241048  0.37303843  1
  Zn  Zn86  1  0.87688653  0.12017259  0.24810619  1
  Zn  Zn87  1  0.25215015  0.75630659  0.50199820  1
  Zn  Zn88  1  0.87703307  0.61526723  0.26241355  1
  Zn  Zn89  1  0.49744271  0.13920395  0.61813338  1
  Zn  Zn90  1  0.87511830  -0.00379729  0.37571185  1
  Zn  Zn91  1  0.74692912  0.87226928  0.62799464  1
  Zn  Zn92  1  0.37480984  0.00176809  0.37624577  1
  Zn  Zn93  1  0.22054238  0.64639461  0.86982175  1
  Zn  Zn94  1  0.74952422  0.12254047  0.87865274  1
  Zn  Zn95  1  0.24742175  0.50541819  0.74794882  1
  Zn  Zn96  1  0.88530339  0.87937352  0.00233928  1
  Zn  Zn97  1  0.62336717  0.87708117  0.75311202  1
  Zn  Zn98  1  0.12573980  0.24923506  0.87673110  1
  Zn  Zn99  1  0.61892502  0.37474476  0.74419090  1
  Zn  Zn100  1  0.12123066  0.88279879  0.23833188  1
  Zn  Zn101  1  0.23835332  0.00332024  0.24931044  1
  Zn  Zn102  1  -0.00656584  0.50756791  0.49794449  1
  Zn  Zn103  1  0.74875180  0.62727531  0.87321758  1
  Zn  Zn104  1  0.38068054  0.63111732  0.25445909  1
  Zn  Zn105  1  0.62757058  0.62433355  0.00081955  1
  Zn  Zn106  1  0.75266771  0.87319773  0.12466323  1
  Zn  Zn107  1  0.18648483  0.18439242  0.18282633  1
  Zn  Zn108  1  0.19039544  0.18789523  0.68919803  1
  Zn  Zn109  1  0.18982968  0.68904436  0.18469682  1
  Zn  Zn110  1  0.18881341  0.68616792  0.68465730  1
  Zn  Zn111  1  0.68930519  0.18398242  0.18760145  1
  Zn  Zn112  1  0.68818082  0.18690769  0.68759925  1
  Zn  Zn113  1  0.68797579  0.68486039  0.18852458  1
  Zn  Zn114  1  0.68650271  0.68907294  0.68863683  1
  Zn  Zn115  1  0.31238197  0.31073390  0.31327673  1
  Zn  Zn116  1  0.30875948  0.31185702  0.81407483  1
  Zn  Zn117  1  0.31538514  0.81772797  0.30883457  1
  Zn  Zn118  1  0.31289128  0.81933630  0.81818773  1
  Zn  Zn119  1  0.81425719  0.31438897  0.30818380  1
  Zn  Zn120  1  0.80835618  0.31306303  0.81199592  1
  Zn  Zn121  1  0.82732002  0.77336856  0.33391379  1
  Zn  Zn122  1  0.81450503  0.81280112  0.81336663  1
  Zn  Zn123  1  0.18733391  0.43826233  0.43700428  1
  Zn  Zn124  1  0.16263878  0.47696381  0.91884660  1
  Zn  Zn125  1  0.19323346  0.94096357  0.43690429  1
  Zn  Zn126  1  0.19027627  0.92689598  0.93514737  1
  Zn  Zn127  1  0.68208764  0.43790716  0.43964743  1
  Zn  Zn128  1  0.68777186  0.43619944  0.93986023  1
  Zn  Zn129  1  0.68836330  0.93329427  0.43823368  1
  Zn  Zn130  1  0.69822017  0.92958534  0.93297610  1
  Zn  Zn131  1  0.31523603  0.06398685  0.05627710  1
  Zn  Zn132  1  0.31240531  0.06513220  0.56446177  1
  Zn  Zn133  1  0.31216411  0.56681509  0.06570667  1
  Zn  Zn134  1  0.31207918  0.56486018  0.56387637  1
  Zn  Zn135  1  0.81274376  0.06122643  0.06254410  1
  Zn  Zn136  1  0.81045067  0.06005097  0.56314443  1
  Zn  Zn137  1  0.81456715  0.56410527  0.06608576  1
  Zn  Zn138  1  0.80939350  0.56340794  0.56403435  1
  Zn  Zn139  1  0.43506442  0.43754968  0.18778791  1
  Zn  Zn140  1  0.43826188  0.44539138  0.69320495  1
  Zn  Zn141  1  0.43999398  0.93576427  0.18000566  1
  Zn  Zn142  1  0.42877118  0.94631145  0.69335620  1
  Zn  Zn143  1  0.93595108  0.43726075  0.18789555  1
  Zn  Zn144  1  0.93304690  0.44061605  0.68854175  1
  Zn  Zn145  1  0.93651778  0.93230812  0.19080271  1
  Zn  Zn146  1  0.94251038  0.93319635  0.69094403  1
  Zn  Zn147  1  0.06234056  0.06047612  0.31180066  1
  Zn  Zn148  1  0.06751839  0.06389649  0.81380711  1
  Zn  Zn149  1  0.06762999  0.56586591  0.31095926  1
  Zn  Zn150  1  0.05598131  0.56370539  0.80880432  1
  Zn  Zn151  1  0.56292347  0.06344531  0.30916268  1
  Zn  Zn152  1  0.55414914  0.06412730  0.78847614  1
  Zn  Zn153  1  0.56635306  0.55809090  0.31415817  1
  Zn  Zn154  1  0.56077759  0.56910381  0.81753995  1
  Zn  Zn155  1  0.44078387  0.18176281  0.42937488  1
  Zn  Zn156  1  0.43053173  0.19384163  0.93143829  1
  Zn  Zn157  1  0.43920136  0.69199441  0.43907115  1
  Zn  Zn158  1  0.43452145  0.69268042  0.94331900  1
  Zn  Zn159  1  0.93854919  0.18935559  0.43701722  1
  Zn  Zn160  1  0.94008942  0.18715076  0.93844097  1
  Zn  Zn161  1  0.93963982  0.68628560  0.43728837  1
  Zn  Zn162  1  0.93571748  0.68374081  0.93684595  1
  Zn  Zn163  1  0.06216199  0.31548354  0.06290565  1
  Zn  Zn164  1  0.06009753  0.31485903  0.56060380  1
  Zn  Zn165  1  0.06398933  0.81276435  0.05495524  1
  Zn  Zn166  1  0.06757270  0.81405477  0.56575181  1
  Zn  Zn167  1  0.56114882  0.31483153  0.05639483  1
  Zn  Zn168  1  0.58087653  0.31418403  0.55412299  1
  Zn  Zn169  1  0.56367862  0.81140746  0.06307164  1
  Zn  Zn170  1  0.55652468  0.81347811  0.56450396  1
  O  O171  1  0.11803441  0.12759818  0.10935853  1
  O  O172  1  0.12044494  0.11566449  0.62214677  1
  O  O173  1  0.11206342  0.61691897  0.13215607  1
  O  O174  1  0.13165276  0.61546991  0.61442471  1
  O  O175  1  0.61463665  0.11916774  0.12619887  1
  O  O176  1  0.62433278  0.12176935  0.61443459  1
  O  O177  1  0.61798585  0.61666566  0.12214546  1
  O  O178  1  0.60994576  0.63080820  0.61971501  1
  O  O179  1  0.38158645  0.38253705  0.37241791  1
  O  O180  1  0.38159454  0.38057944  0.88151993  1
  O  O181  1  0.38364495  0.87617804  0.38353013  1
  O  O182  1  0.37938976  0.87349064  0.89091989  1
  O  O183  1  0.88460168  0.36768186  0.38286098  1
  O  O184  1  0.87840989  0.38004002  0.87922147  1
  O  O185  1  0.88140232  0.86755714  0.38973158  1
  O  O186  1  0.88906125  0.88320893  0.87201225  1
  O  O187  1  0.25648714  0.00448978  0.36827417  1
  O  O188  1  0.24601261  0.01295736  0.88023535  1
  O  O189  1  0.25474422  0.50702578  0.36891689  1
  O  O190  1  0.26739297  0.48929353  0.86995037  1
  O  O191  1  0.75085725  0.00615483  0.36927884  1
  O  O192  1  0.75851070  0.00127755  0.86251666  1
  O  O193  1  0.74157607  0.49061804  0.35836746  1
  O  O194  1  0.75814686  0.49863415  0.86726032  1
  O  O195  1  0.24422690  0.50849005  0.14051007  1
  O  O196  1  0.24116955  0.49299209  0.62524407  1
  O  O197  1  0.25450607  0.98776578  0.12310233  1
  O  O198  1  0.23593499  1.00153505  0.62319749  1
  O  O199  1  0.74261452  0.49146133  0.12811628  1
  O  O200  1  0.75309825  0.49179895  0.63448713  1
  O  O201  1  0.74134721  1.00035507  0.13253039  1
  O  O202  1  0.74541441  0.99992133  0.63711304  1
  O  O203  1  0.00395726  0.36814574  0.25736563  1
  O  O204  1  0.00301577  0.37068754  0.75553430  1
  O  O205  1  0.00227626  0.86278543  0.25678842  1
  O  O206  1  0.01015868  0.87698073  0.76385849  1
  O  O207  1  0.49704986  0.36253552  0.25261700  1
  O  O208  1  0.50109733  0.38172346  0.76419794  1
  O  O209  1  0.51233879  0.87808753  0.25529119  1
  O  O210  1  0.49769503  0.86601462  0.74787539  1
  O  O211  1  0.49506598  0.13568261  0.24145824  1
  O  O212  1  0.49078869  0.14059100  0.73897510  1
  O  O213  1  0.50045874  0.61655045  0.23837551  1
  O  O214  1  0.49158318  0.63223943  0.74513085  1
  O  O215  1  0.99853681  0.13226550  0.24072016  1
  O  O216  1  0.99539142  0.13216822  0.74556667  1
  O  O217  1  0.99901473  0.63677776  0.24971272  1
  O  O218  1  0.98196402  0.61982481  0.74567876  1
  O  O219  1  0.36613188  0.25699671  0.00647102  1
  O  O220  1  0.36608082  0.24991681  0.49209162  1
  O  O221  1  0.37012877  0.75848259  0.01254302  1
  O  O222  1  0.37626174  0.75915408  0.51031674  1
  O  O223  1  0.86975113  0.25690718  0.00635669  1
  O  O224  1  0.87075982  0.25949265  0.50384312  1
  O  O225  1  0.87165249  0.74773469  0.01039398  1
  O  O226  1  0.86553070  0.75298612  0.50948962  1
  O  O227  1  0.12886012  0.24588914  0.49354446  1
  O  O228  1  0.13675008  0.25355772  1.00127635  1
  O  O229  1  0.13094559  0.74527974  0.49476370  1
  O  O230  1  0.14446363  0.74725437  1.00633715  1
  O  O231  1  0.63665139  0.23975695  0.48742962  1
  O  O232  1  0.63418907  0.25605348  0.98821104  1
  O  O233  1  0.62581278  0.74114642  0.49873309  1
  O  O234  1  0.63400635  0.74841868  0.99576756  1
  O  O235  1  0.49588766  0.24538614  0.12800047  1
  O  O236  1  0.49192504  0.26165025  0.60741391  1
  O  O237  1  0.49419832  0.73883665  0.12154814  1
  O  O238  1  0.48975288  0.74392074  0.63533335  1
  O  O239  1  0.99230924  0.24545912  0.12797245  1
  O  O240  1  0.99402982  0.24527338  0.62909923  1
  O  O241  1  0.99926461  0.74035871  0.12882024  1
  O  O242  1  0.98767702  0.74997655  0.61848290  1
  O  O243  1  0.01000979  0.25628166  0.37023259  1
  O  O244  1  0.00231388  0.25851771  0.86769342  1
  O  O245  1  0.01233283  0.75552776  0.36786154  1
  O  O246  1  -0.00405640  0.75525845  0.87011655  1
  O  O247  1  0.50749504  0.25368739  0.36505396  1
  O  O248  1  0.50802785  0.26301848  0.88354700  1
  O  O249  1  0.51135070  0.76163445  0.37867735  1
  O  O250  1  0.50717540  0.74307848  0.86744027  1
  O  O251  1  0.24305419  0.13399317  0.49809254  1
  O  O252  1  0.23937205  0.13128907  0.99605100  1
  O  O253  1  0.24286125  0.62641586  0.48831766  1
  O  O254  1  0.25895411  0.64005402  0.99690382  1
  O  O255  1  0.74540639  0.12928523  0.49142458  1
  O  O256  1  0.75546378  0.14024598  0.99958033  1
  O  O257  1  0.73371711  0.62874943  0.50633282  1
  O  O258  1  0.75128942  0.63601395  0.99982069  1
  O  O259  1  0.26168208  0.36852015  -0.00430506  1
  O  O260  1  0.24639389  0.36944334  0.51176234  1
  O  O261  1  0.25860051  0.86739461  0.00911034  1
  O  O262  1  0.26949236  0.87377379  0.49637973  1
  O  O263  1  0.75527527  0.36610231  0.01027475  1
  O  O264  1  0.75536088  0.37127798  0.50435008  1
  O  O265  1  0.75784273  0.86054367  0.00302003  1
  O  O266  1  0.75895511  0.86854260  0.50544715  1
  O  O267  1  0.13305956  0.49252205  0.24734468  1
  O  O268  1  0.12427538  0.48915645  0.73885127  1
  O  O269  1  0.12417596  0.99544546  0.24822993  1
  O  O270  1  0.12244621  0.99754993  0.73813307  1
  O  O271  1  0.63348996  0.49896143  0.23844065  1
  O  O272  1  0.63520812  0.50036951  0.75703230  1
  O  O273  1  0.63049159  0.99464503  0.24179652  1
  O  O274  1  0.63423911  0.99923320  0.74089767  1
  O  O275  1  0.37844356  0.01338979  0.24312477  1
  O  O276  1  0.37914907  0.02722367  0.75310253  1
  O  O277  1  0.36757077  0.50260210  0.25708118  1
  O  O278  1  0.37337085  0.51358596  0.75894934  1
  O  O279  1  0.86564314  -0.00083509  0.25494203  1
  O  O280  1  0.87091201  0.00464596  0.75599804  1
  O  O281  1  0.86011264  0.49795726  0.24967912  1
  O  O282  1  0.86453231  0.50978105  0.75357539  1
  O  O283  1  0.11748293  0.36891964  0.36827236  1
  O  O284  1  0.11445912  0.38080880  0.86531123  1
  O  O285  1  0.12373194  0.86415929  0.37933226  1
  O  O286  1  0.11423015  0.87602001  0.86387384  1
  O  O287  1  0.61626607  0.36010566  0.38265476  1
  O  O288  1  0.61668048  0.37022122  0.87390063  1
  O  O289  1  0.61701360  0.87065074  0.36999747  1
  O  O290  1  0.62798719  0.86070000  0.87303014  1
  O  O291  1  0.38693642  0.13327941  0.12580394  1
  O  O292  1  0.37714046  0.13112827  0.63032889  1
  O  O293  1  0.38429977  0.63296886  0.12860377  1
  O  O294  1  0.38166786  0.63268638  0.63507881  1
  O  O295  1  0.88239492  0.13438572  0.12230286  1
  O  O296  1  0.88057569  0.13012264  0.62921608  1
  O  O297  1  0.88932588  0.62914896  0.13167378  1
  O  O298  1  0.87127387  0.63044853  0.63515659  1
  O  O299  1  0.26188312  0.24563078  0.11700403  1
  O  O300  1  0.24381331  0.25771666  0.61133305  1
  O  O301  1  0.25935136  0.75495072  0.11779071  1
  O  O302  1  0.26577972  0.74688069  0.62337388  1
  O  O303  1  0.75533255  0.25460304  0.12092167  1
  O  O304  1  0.75644248  0.25628103  0.61817908  1
  O  O305  1  0.76010005  0.74813872  0.12082211  1
  O  O306  1  0.75251311  0.75126454  0.61479415  1
  O  O307  1  0.23793273  0.25187569  0.38469361  1
  O  O308  1  0.24566905  0.24396661  0.88634009  1
  O  O309  1  0.24670876  0.74473086  0.37443933  1
  O  O310  1  0.25394637  0.75302410  0.89245803  1
  O  O311  1  0.74443844  0.24424129  0.37407490  1
  O  O312  1  0.74358363  0.24873079  0.88390980  1
  O  O313  1  0.72989824  0.75989990  0.39594614  1
  O  O314  1  0.74577079  0.74868348  0.88313517  1
  O  O315  1  0.01601915  0.12889084  0.00472384  1
  O  O316  1  0.00483794  0.11887659  0.50536085  1
  O  O317  1  -0.00209742  0.62296873  0.01358187  1
  O  O318  1  0.01535067  0.62386495  0.49304154  1
  O  O319  1  0.50265136  0.12851093  0.00439915  1
  O  O320  1  0.51605197  0.12841105  0.49706296  1
  O  O321  1  0.49772986  0.61194548  0.00955042  1
  O  O322  1  0.50452800  0.61994161  0.50893309  1
  O  O323  1  0.49218643  0.37929553  0.50050983  1
  O  O324  1  0.49093670  0.38704323  0.99272875  1
  O  O325  1  0.48750494  0.87348820  0.49205284  1
  O  O326  1  0.48878208  0.87464330  1.00757408  1
  O  O327  1  0.99090904  0.37696463  0.49018990  1
  O  O328  1  0.99343476  0.37028650  0.98658470  1
  O  O329  1  0.99466929  0.87864843  0.49725151  1
  O  O330  1  1.00154933  0.87064582  0.97914283  1
  O  O331  1  0.49551535  0.49187611  0.38138338  1
  O  O332  1  0.49087932  0.49725184  0.88377274  1
  O  O333  1  0.49913742  0.98906017  0.37042387  1
  O  O334  1  0.51791569  1.01347108  0.88788650  1
  O  O335  1  1.00435988  0.48959892  0.37361039  1
  O  O336  1  0.98107357  0.48910543  0.86624628  1
  O  O337  1  0.99700034  0.99291414  0.38536859  1
  O  O338  1  0.98836818  1.00128913  0.87097600  1
  O  O339  1  -0.01082077  0.01193351  0.12545720  1
  O  O340  1  0.00479813  0.00491040  0.61910740  1
  O  O341  1  0.00654705  0.51297380  0.13468720  1
  O  O342  1  0.01100126  0.49274424  0.61968878  1
  O  O343  1  0.51502782  0.00863246  0.12673610  1
  O  O344  1  0.51238790  0.00688356  0.63104979  1
  O  O345  1  0.50654915  0.50223684  0.12039729  1
  O  O346  1  0.49420715  0.51096246  0.61798668  1
  O  O347  1  0.24148164  0.38417968  0.25672945  1
  O  O348  1  0.24047335  0.37492590  0.73884577  1
  O  O349  1  0.25074293  0.87667499  0.23264439  1
  O  O350  1  0.23310115  0.87409142  0.75702718  1
  O  O351  1  0.75304248  0.38143895  0.23602642  1
  O  O352  1  0.75056796  0.38484927  0.74130670  1
  O  O353  1  0.73901334  0.88631785  0.25150289  1
  O  O354  1  0.74916821  0.88355343  0.74765716  1
  O  O355  1  0.25995374  0.12614335  0.24825536  1
  O  O356  1  0.24894650  0.12572939  0.76454705  1
  O  O357  1  0.25009253  0.61883161  0.26250778  1
  O  O358  1  0.25864330  0.62614666  0.75652911  1
  O  O359  1  0.75112756  0.11301752  0.25721088  1
  O  O360  1  0.75893618  0.11861890  0.75283509  1
  O  O361  1  0.75112918  0.60582646  0.24433084  1
  O  O362  1  0.75501491  0.61694659  0.75037234  1
  O  O363  1  0.37380318  0.12326029  0.36083513  1
  O  O364  1  0.35956839  0.12414062  0.87835331  1
  O  O365  1  0.36963012  0.62042451  0.37474398  1
  O  O366  1  0.37879808  0.61962903  0.86816755  1
  O  O367  1  0.86271616  0.12554124  0.37481707  1
  O  O368  1  0.87582549  0.11613139  0.86962364  1
  O  O369  1  0.86152152  0.66493334  0.36337892  1
  O  O370  1  0.87202006  0.61761308  0.86444640  1
  O  O371  1  0.11646798  0.37854117  0.14339466  1
  O  O372  1  0.12978815  0.38102635  0.62869315  1
  O  O373  1  0.14220658  0.86950976  0.12050797  1
  O  O374  1  0.12067072  0.88541275  0.63898407  1
  O  O375  1  0.63283865  0.38211635  0.11983271  1
  O  O376  1  0.64116957  0.37345102  0.62737193  1
  O  O377  1  0.62834585  0.88135200  0.13271146  1
  O  O378  1  0.62501260  0.88374327  0.62670740  1
  O  O379  1  0.12308257  0.25509956  0.25660929  1
  O  O380  1  0.11962655  0.26243267  0.74996112  1
  O  O381  1  0.12095320  0.75418218  0.25656030  1
  O  O382  1  0.12547329  0.76007043  0.74399192  1
  O  O383  1  0.61753656  0.24418988  0.25680294  1
  O  O384  1  0.63389222  0.25226923  0.76655321  1
  O  O385  1  0.63305797  0.75789214  0.26071833  1
  O  O386  1  0.61485442  0.75144770  0.75760035  1
  O  O387  1  0.38096333  0.24317457  0.24147651  1
  O  O388  1  0.36425429  0.23000820  0.75921472  1
  O  O389  1  0.37286371  0.74909018  0.23536361  1
  O  O390  1  0.37912247  0.74735136  0.74794990  1
  O  O391  1  0.87989046  0.24654452  0.23845167  1
  O  O392  1  0.87774243  0.24514573  0.74411073  1
  O  O393  1  0.88637592  0.75533717  0.23429651  1
  O  O394  1  0.86656158  0.73525739  0.74171731  1
  O  O395  1  0.38601321  0.50679305  0.49319492  1
  O  O396  1  0.37880041  0.49514485  0.99707037  1
  O  O397  1  0.37567873  0.99054462  0.50097039  1
  O  O398  1  0.37751452  0.98592715  1.00514146  1
  O  O399  1  0.87420365  0.48987614  0.50086120  1
  O  O400  1  0.86687482  0.49192150  0.99054725  1
  O  O401  1  0.88024866  0.98958618  0.50049493  1
  O  O402  1  0.86642887  0.99756835  0.98249430  1
  O  O403  1  0.12778253  0.00821316  -0.00155452  1
  O  O404  1  0.11980651  0.00112929  0.51023024  1
  O  O405  1  0.12969297  0.47882979  0.02638662  1
  O  O406  1  0.12309550  0.50824675  0.50437051  1
  O  O407  1  0.63507184  0.00372937  0.00381560  1
  O  O408  1  0.63539246  0.00835044  0.50941366  1
  O  O409  1  0.61685569  0.50027732  0.00917646  1
  O  O410  1  0.60880971  0.50708365  0.49599037  1
  O  O411  1  0.38103682  0.36473119  0.11572626  1
  O  O412  1  0.36624146  0.37898155  0.62794915  1
  O  O413  1  0.36766015  0.86885756  0.12015596  1
  O  O414  1  0.38255738  0.87205109  0.61488698  1
  O  O415  1  0.87037512  0.36592883  0.11969159  1
  O  O416  1  0.86713942  0.37104403  0.61685972  1
  O  O417  1  0.87478294  0.86572226  0.11988902  1
  O  O418  1  0.87567240  0.86742041  0.61747787  1
  O  O419  1  0.12334934  0.13445492  0.38298618  1
  O  O420  1  0.13120177  0.12770607  0.88720230  1
  O  O421  1  0.13349552  0.63645183  0.37972414  1
  O  O422  1  0.13208391  0.58242533  0.88424348  1
  O  O423  1  0.63504629  0.12996628  0.37808202  1
  O  O424  1  0.62258286  0.12869637  0.88152307  1
  O  O425  1  0.61584298  0.63324544  0.38664152  1
  O  O426  1  0.62854982  0.63682860  0.88077579  1
