# generated using pymatgen
data_V85Zn86O256
_symmetry_space_group_name_H-M   'P 1'
_cell_length_a   16.94883185
_cell_length_b   16.93830107
_cell_length_c   16.92985365
_cell_angle_alpha   90.09851733
_cell_angle_beta   89.97876678
_cell_angle_gamma   89.99434458
_symmetry_Int_Tables_number   1
_chemical_formula_structural   V85Zn86O256
_chemical_formula_sum   'V85 Zn86 O256'
_cell_volume   4860.28961960
_cell_formula_units_Z   1
loop_
 _symmetry_equiv_pos_site_id
 _symmetry_equiv_pos_as_xyz
  1  'x, y, z'
loop_
 _atom_site_type_symbol
 _atom_site_label
 _atom_site_symmetry_multiplicity
 _atom_site_fract_x
 _atom_site_fract_y
 _atom_site_fract_z
 _atom_site_occupancy
  V  V0  1  0.62817661  0.23436376  0.87504308  1
  V  V1  1  0.75136909  0.24860303  0.50864153  1
  V  V2  1  0.24857620  0.62517611  0.87595373  1
  V  V3  1  0.51333925  0.87049385  0.86702560  1
  V  V4  1  0.87944247  0.75230049  0.12083548  1
  V  V5  1  0.87297295  0.00631052  0.87653056  1
  V  V6  1  0.62742751  0.00559953  0.12052570  1
  V  V7  1  0.12504098  0.62179443  0.00789255  1
  V  V8  1  0.61675558  0.12535303  0.50605598  1
  V  V9  1  0.37405084  0.75365970  0.62560995  1
  V  V10  1  0.49545830  0.75361952  0.24848830  1
  V  V11  1  0.74846186  0.01242893  0.74799300  1
  V  V12  1  0.49602129  0.37485053  0.37712408  1
  V  V13  1  0.61597731  0.50148314  0.11453603  1
  V  V14  1  0.38292654  0.24090505  0.61930765  1
  V  V15  1  0.00298514  0.87845814  0.86942211  1
  V  V16  1  0.87931342  0.87674177  0.01111160  1
  V  V17  1  0.88741461  0.24736539  0.62911861  1
  V  V18  1  0.11704021  0.75046825  0.37901505  1
  V  V19  1  0.38073584  0.49886464  0.88190604  1
  V  V20  1  0.06067313  0.06406185  0.55372626  1
  V  V21  1  0.38358784  -0.00462574  0.37336358  1
  V  V22  1  0.00137216  0.25177958  0.24212985  1
  V  V23  1  0.87453806  0.49935592  0.37434045  1
  V  V24  1  0.24888911  0.62566311  0.37708675  1
  V  V25  1  0.24995360  0.75199159  0.00666720  1
  V  V26  1  0.00274877  0.00280906  0.01180779  1
  V  V27  1  0.62390871  0.37587979  0.24955138  1
  V  V28  1  0.36962847  0.12161092  0.24708308  1
  V  V29  1  0.12019576  0.24756787  0.87097287  1
  V  V30  1  0.12552947  0.24618352  0.37576615  1
  V  V31  1  0.62309566  0.87524096  0.25771225  1
  V  V32  1  0.00135456  0.49978802  0.50254371  1
  V  V33  1  0.37434355  -0.00258158  0.87025798  1
  V  V34  1  0.25120921  0.49749783  0.74956206  1
  V  V35  1  0.75113485  0.12604673  0.37413030  1
  V  V36  1  0.50319504  0.00127737  -0.00164043  1
  V  V37  1  0.87700843  0.24357240  0.12389392  1
  V  V38  1  0.12501996  0.75471785  0.87103741  1
  V  V39  1  0.50132644  0.12549724  0.12089140  1
  V  V40  1  0.74968458  0.37368868  0.12103977  1
  V  V41  1  0.74846355  0.49901328  0.24827731  1
  V  V42  1  0.74827110  0.76194829  0.50163851  1
  V  V43  1  0.00184377  0.49866671  0.00347042  1
  V  V44  1  0.50008909  0.25075068  0.24842493  1
  V  V45  1  0.50406005  0.37581920  0.88076689  1
  V  V46  1  0.49818430  0.49500362  0.50258964  1
  V  V47  1  0.37659389  0.62585534  0.75007921  1
  V  V48  1  0.12631244  0.36761667  0.74579436  1
  V  V49  1  0.24903030  0.11592225  0.37201229  1
  V  V50  1  0.12411326  0.38414244  0.24426783  1
  V  V51  1  0.37294047  0.87260801  0.00131981  1
  V  V52  1  0.74472714  0.64340757  0.87871149  1
  V  V53  1  0.74677853  0.23292126  -0.00218552  1
  V  V54  1  0.89523612  0.11425906  0.25605780  1
  V  V55  1  0.74955658  0.62533802  0.37830081  1
  V  V56  1  0.37542304  0.62819854  0.24648627  1
  V  V57  1  0.89015073  0.12933193  0.74996630  1
  V  V58  1  -0.00073063  0.37481386  0.86922130  1
  V  V59  1  0.12306890  0.12591417  0.00589978  1
  V  V60  1  -0.00102861  0.37465118  0.37480703  1
  V  V61  1  0.12961387  0.00539903  0.14092505  1
  V  V62  1  0.70143371  0.82525223  0.07298845  1
  V  V63  1  0.89185273  0.87753289  0.50202574  1
  V  V64  1  0.62515776  0.25129526  0.37641891  1
  V  V65  1  0.37449314  0.25232379  0.11991210  1
  V  V66  1  0.37216106  0.49531946  0.37679259  1
  V  V67  1  0.23841633  -0.00763991  0.74211336  1
  V  V68  1  0.00136059  0.62525537  0.63172320  1
  V  V69  1  0.24644431  0.38135867  0.12056639  1
  V  V70  1  0.25036471  0.12470824  0.87102184  1
  V  V71  1  0.62203456  0.00551903  0.63095056  1
  V  V72  1  0.12517486  0.87485475  0.25963570  1
  V  V73  1  0.86506876  0.50015263  0.87115857  1
  V  V74  1  0.74840812  -0.00209196  0.24759903  1
  V  V75  1  0.25348795  0.88016206  0.13211525  1
  V  V76  1  0.74922811  0.38821816  0.62966303  1
  V  V77  1  0.62787314  0.61701712  0.50400869  1
  V  V78  1  0.26053339  0.37384269  0.61945977  1
  V  V79  1  0.50244373  0.61844350  0.62795048  1
  V  V80  1  0.62851607  0.38693695  0.74962239  1
  V  V81  1  0.87481075  0.62731469  0.24706638  1
  V  V82  1  0.61709528  0.75300594  0.37999735  1
  V  V83  1  0.69240070  0.82514713  0.68578877  1
  V  V84  1  0.25092096  0.24951326  0.49715223  1
  Zn  Zn85  1  0.37847778  0.12211894  0.74227964  1
  Zn  Zn86  1  0.87467887  0.37470762  0.50419389  1
  Zn  Zn87  1  0.62562770  0.63230217  -0.00326625  1
  Zn  Zn88  1  0.50146682  -0.00628824  0.50210230  1
  Zn  Zn89  1  0.37946806  0.87017717  0.49185735  1
  Zn  Zn90  1  0.37866276  0.37909619  0.00083572  1
  Zn  Zn91  1  0.51449910  0.75035990  0.75138646  1
  Zn  Zn92  1  0.23929002  0.87231833  0.62480134  1
  Zn  Zn93  1  0.25149952  0.25244332  -0.00392349  1
  Zn  Zn94  1  0.87282914  0.62597431  0.75166213  1
  Zn  Zn95  1  0.12632141  0.62416674  0.50314369  1
  Zn  Zn96  1  0.87568164  0.75418201  0.63174129  1
  Zn  Zn97  1  0.50433935  0.24473206  0.74590426  1
  Zn  Zn98  1  0.24615653  0.50298134  0.24660620  1
  Zn  Zn99  1  0.49213087  0.62375352  0.11929788  1
  Zn  Zn100  1  0.87514249  0.37133272  -0.00276954  1
  Zn  Zn101  1  -0.00227510  0.75294472  0.25290281  1
  Zn  Zn102  1  0.00424127  0.62155464  0.12693916  1
  Zn  Zn103  1  0.00180303  0.75533557  0.74954133  1
  Zn  Zn104  1  0.25066173  0.75251903  0.50175614  1
  Zn  Zn105  1  0.12674710  0.49741229  0.62500355  1
  Zn  Zn106  1  0.87790220  -0.00699153  0.38630628  1
  Zn  Zn107  1  0.18834395  0.19341299  0.18761011  1
  Zn  Zn108  1  0.18606126  0.18099689  0.68236060  1
  Zn  Zn109  1  0.18986246  0.69104449  0.18973210  1
  Zn  Zn110  1  0.18605359  0.68563321  0.68773087  1
  Zn  Zn111  1  0.68915523  0.18545456  0.18741068  1
  Zn  Zn112  1  0.69089805  0.18862092  0.69081833  1
  Zn  Zn113  1  0.68433151  0.68372232  0.19183735  1
  Zn  Zn114  1  0.68946442  0.65652614  0.69276311  1
  Zn  Zn115  1  0.31094404  0.31297413  0.30821768  1
  Zn  Zn116  1  0.31422786  0.30989063  0.80840330  1
  Zn  Zn117  1  0.30720440  0.81162976  0.31445196  1
  Zn  Zn118  1  0.31204259  0.81351995  0.81155224  1
  Zn  Zn119  1  0.81321002  0.31028178  0.31177999  1
  Zn  Zn120  1  0.80931032  0.31002683  0.81194360  1
  Zn  Zn121  1  0.81037510  0.81392630  0.31496156  1
  Zn  Zn122  1  0.82376430  0.81404772  0.81831882  1
  Zn  Zn123  1  0.18663462  0.43422551  0.43601873  1
  Zn  Zn124  1  0.18831707  0.43742012  0.93685506  1
  Zn  Zn125  1  0.16583483  0.92009867  0.47647425  1
  Zn  Zn126  1  0.18673672  0.93986814  0.93912252  1
  Zn  Zn127  1  0.68831366  0.43528130  0.44004599  1
  Zn  Zn128  1  0.68671059  0.43158253  0.93944934  1
  Zn  Zn129  1  0.68736533  0.94118270  0.43795713  1
  Zn  Zn130  1  0.68821343  0.94763348  0.93241326  1
  Zn  Zn131  1  0.31082012  0.06150321  0.05869226  1
  Zn  Zn132  1  0.30598923  0.06297588  0.55523968  1
  Zn  Zn133  1  0.31152158  0.56283952  0.06294994  1
  Zn  Zn134  1  0.31488201  0.56194066  0.56157153  1
  Zn  Zn135  1  0.81645180  0.06125247  0.07020535  1
  Zn  Zn136  1  0.81407702  0.05899054  0.56788890  1
  Zn  Zn137  1  0.81160121  0.56260096  0.05653305  1
  Zn  Zn138  1  0.81897482  0.56594686  0.56293648  1
  Zn  Zn139  1  0.43515648  0.43867410  0.18956390  1
  Zn  Zn140  1  0.44021150  0.43363449  0.69291987  1
  Zn  Zn141  1  0.43936413  0.93657787  0.18887474  1
  Zn  Zn142  1  0.44021250  0.93952494  0.68842791  1
  Zn  Zn143  1  0.93514060  0.43658678  0.18444402  1
  Zn  Zn144  1  0.93680178  0.43570136  0.68923992  1
  Zn  Zn145  1  0.95467154  0.95389177  0.21218546  1
  Zn  Zn146  1  0.93945379  0.94187046  0.68097529  1
  Zn  Zn147  1  0.06875729  0.04380579  0.35641904  1
  Zn  Zn148  1  0.06145269  0.05959051  0.81424338  1
  Zn  Zn149  1  0.06028143  0.56481770  0.31408753  1
  Zn  Zn150  1  0.06443098  0.55850558  0.81568560  1
  Zn  Zn151  1  0.56160849  0.06659966  0.31046812  1
  Zn  Zn152  1  0.55859820  0.06286801  0.80761628  1
  Zn  Zn153  1  0.56079341  0.56376816  0.31227054  1
  Zn  Zn154  1  0.56525678  0.56322168  0.81756702  1
  Zn  Zn155  1  0.43411592  0.18766021  0.43811850  1
  Zn  Zn156  1  0.44124402  0.18556457  0.93231372  1
  Zn  Zn157  1  0.43737837  0.68343483  0.43793986  1
  Zn  Zn158  1  0.43607763  0.68862097  0.93200831  1
  Zn  Zn159  1  0.93682333  0.19128467  0.43766181  1
  Zn  Zn160  1  0.93952996  0.18661026  0.93755348  1
  Zn  Zn161  1  0.93605409  0.68868639  0.44322141  1
  Zn  Zn162  1  0.93749025  0.68723753  0.93802144  1
  Zn  Zn163  1  0.06351714  0.31348688  0.05821703  1
  Zn  Zn164  1  0.06637695  0.31102252  0.55965527  1
  Zn  Zn165  1  0.06409388  0.81432521  0.06631259  1
  Zn  Zn166  1  0.06434329  0.81020710  0.56674417  1
  Zn  Zn167  1  0.56425046  0.31124122  0.05774009  1
  Zn  Zn168  1  0.56601279  0.31572171  0.56480089  1
  Zn  Zn169  1  0.52816482  0.77981743  0.03911589  1
  Zn  Zn170  1  0.55096027  0.80996874  0.55965920  1
  O  O171  1  0.13480187  0.11841034  0.11791949  1
  O  O172  1  0.12812571  0.11914371  0.60786130  1
  O  O173  1  0.12703448  0.62886453  0.11259213  1
  O  O174  1  0.11828044  0.61725227  0.62357981  1
  O  O175  1  0.61420401  0.11726792  0.13119820  1
  O  O176  1  0.63167360  0.11952849  0.61712022  1
  O  O177  1  0.62690476  0.61036118  0.12428923  1
  O  O178  1  0.61549596  0.62128945  0.61684271  1
  O  O179  1  0.38261268  0.38310120  0.36774625  1
  O  O180  1  0.38395045  0.38120300  0.87250904  1
  O  O181  1  0.37038713  0.89392208  0.36583313  1
  O  O182  1  0.37876551  0.88263196  0.88106741  1
  O  O183  1  0.88052419  0.38104244  0.37524246  1
  O  O184  1  0.88293311  0.38038664  0.87383564  1
  O  O185  1  0.86549490  0.87453980  0.39385223  1
  O  O186  1  0.88432418  0.88358083  0.89121290  1
  O  O187  1  0.26054547  0.01596976  0.37406146  1
  O  O188  1  0.25615502  0.00461095  0.86875437  1
  O  O189  1  0.25680354  0.50367275  0.37247951  1
  O  O190  1  0.25825224  0.50443490  0.86865035  1
  O  O191  1  0.75372675  0.00979360  0.36603179  1
  O  O192  1  0.76656919  -0.00408075  0.86735926  1
  O  O193  1  0.75491663  0.50395016  0.36975799  1
  O  O194  1  0.76483026  0.49312652  0.88132231  1
  O  O195  1  0.25525861  0.48616996  0.12750588  1
  O  O196  1  0.25134384  0.49108113  0.62903637  1
  O  O197  1  0.24141153  0.99195156  0.12093063  1
  O  O198  1  0.25943076  1.00155520  0.64067351  1
  O  O199  1  0.74353569  0.49123586  0.12828619  1
  O  O200  1  0.75483144  0.48747719  0.61758290  1
  O  O201  1  0.73370996  1.00734042  0.12999347  1
  O  O202  1  0.73959542  0.99914984  0.63650742  1
  O  O203  1  0.00369569  0.37012898  0.25337746  1
  O  O204  1  0.01092600  0.37927655  0.76128580  1
  O  O205  1  0.01948200  0.86947921  0.24897936  1
  O  O206  1  -0.00517111  0.88081498  0.76614880  1
  O  O207  1  0.50597476  0.36971071  0.25469113  1
  O  O208  1  0.51241691  0.36754798  0.75711361  1
  O  O209  1  0.51413835  0.87092800  0.24945619  1
  O  O210  1  0.50049876  0.87379251  0.76366735  1
  O  O211  1  0.49084066  0.13339386  0.24304327  1
  O  O212  1  0.49016097  0.13270226  0.75733753  1
  O  O213  1  0.49193047  0.63324519  0.24980023  1
  O  O214  1  0.49544738  0.62546403  0.74502484  1
  O  O215  1  0.99688223  0.14475928  0.24221343  1
  O  O216  1  0.98928894  0.12346509  0.75178871  1
  O  O217  1  0.98528744  0.62278182  0.24663980  1
  O  O218  1  1.00292517  0.62063891  0.73995615  1
  O  O219  1  0.37560108  0.24891836  0.01026302  1
  O  O220  1  0.36786179  0.25170427  0.50919320  1
  O  O221  1  0.36526253  0.76370937  -0.00590217  1
  O  O222  1  0.37536353  0.74376387  0.51204888  1
  O  O223  1  0.86912493  0.24957410  0.00732320  1
  O  O224  1  0.86617759  0.25231893  0.50893351  1
  O  O225  1  0.87827745  0.75760362  0.01268851  1
  O  O226  1  0.86409380  0.75716074  0.50490136  1
  O  O227  1  0.13261897  0.25477805  0.48408184  1
  O  O228  1  0.12799644  0.24182655  0.99175443  1
  O  O229  1  0.12863928  0.74289045  0.49112988  1
  O  O230  1  0.13157364  0.74434058  0.99382198  1
  O  O231  1  0.63278357  0.24441130  0.49793411  1
  O  O232  1  0.63334442  0.25188860  0.98698821  1
  O  O233  1  0.62801791  0.73954929  0.49646567  1
  O  O234  1  0.64241334  0.76732663  1.01613647  1
  O  O235  1  0.49464251  0.24686205  0.12684324  1
  O  O236  1  0.48521409  0.25627907  0.62091190  1
  O  O237  1  0.50141841  0.75039623  0.14598806  1
  O  O238  1  0.49450981  0.73485940  0.63145502  1
  O  O239  1  0.98882648  0.26138264  0.13008360  1
  O  O240  1  0.98623217  0.26002256  0.62271294  1
  O  O241  1  0.99237117  0.74466926  0.12894746  1
  O  O242  1  1.00286849  0.73914003  0.62989190  1
  O  O243  1  0.00671128  0.25503793  0.36597029  1
  O  O244  1  0.01240962  0.25798406  0.87865737  1
  O  O245  1  0.01292202  0.73889315  0.37242195  1
  O  O246  1  0.00771782  0.76030864  0.87868810  1
  O  O247  1  0.50493758  0.25528440  0.37061760  1
  O  O248  1  0.51401114  0.25648611  0.87647727  1
  O  O249  1  0.51240249  0.74233822  0.36946502  1
  O  O250  1  0.49942953  0.76525822  0.87039940  1
  O  O251  1  0.25335535  0.13980496  0.48563462  1
  O  O252  1  0.23971771  0.12399445  0.98781890  1
  O  O253  1  0.24953130  0.62223123  0.48703486  1
  O  O254  1  0.24614160  0.63311884  0.99619013  1
  O  O255  1  0.74678039  0.13232307  0.49374787  1
  O  O256  1  0.75334630  0.13386213  1.00606888  1
  O  O257  1  0.74357457  0.63269242  0.49948584  1
  O  O258  1  0.74516062  0.62209786  0.98512972  1
  O  O259  1  0.25439042  0.37260167  0.00552662  1
  O  O260  1  0.24618278  0.36404096  0.50689036  1
  O  O261  1  0.25422012  0.87074936  0.00739104  1
  O  O262  1  0.26647601  0.87026384  0.50409848  1
  O  O263  1  0.75110783  0.36624253  0.01202630  1
  O  O264  1  0.74930409  0.36494284  0.50892986  1
  O  O265  1  0.75777979  0.88331481  0.00705521  1
  O  O266  1  0.74439740  0.86276746  0.50184801  1
  O  O267  1  0.12274937  0.48804326  0.25265824  1
  O  O268  1  0.13383069  0.48572702  0.75188809  1
  O  O269  1  0.12244932  0.99457010  0.24479903  1
  O  O270  1  0.14019619  1.00237416  0.75485202  1
  O  O271  1  0.63061040  0.49479222  0.24349661  1
  O  O272  1  0.62257582  0.48591975  0.75112428  1
  O  O273  1  0.62979520  0.99518636  0.24507957  1
  O  O274  1  0.63609433  1.00443172  0.74589400  1
  O  O275  1  0.38080117  0.01200502  0.25738876  1
  O  O276  1  0.36951549  0.00012962  0.76107714  1
  O  O277  1  0.37479126  0.50792976  0.26176213  1
  O  O278  1  0.37196405  0.50892702  0.75742598  1
  O  O279  1  0.85390802  0.00943237  0.22392482  1
  O  O280  1  0.87278672  0.00983160  0.75634497  1
  O  O281  1  0.86739843  0.50669806  0.25223825  1
  O  O282  1  0.88299470  0.50223636  0.76839488  1
  O  O283  1  0.11938360  0.36651015  0.36442950  1
  O  O284  1  0.12136065  0.36615790  0.86819948  1
  O  O285  1  0.13567661  0.86380499  0.36988838  1
  O  O286  1  0.11528379  0.86742030  0.88551015  1
  O  O287  1  0.61888386  0.36953879  0.37010793  1
  O  O288  1  0.62057372  0.37163631  0.86614426  1
  O  O289  1  0.62839894  0.86583403  0.36986615  1
  O  O290  1  0.61108067  0.88003676  0.87955642  1
  O  O291  1  0.37833869  0.13013504  0.12875219  1
  O  O292  1  0.37098656  0.13804721  0.62016055  1
  O  O293  1  0.37377025  0.61971386  0.14096414  1
  O  O294  1  0.38092216  0.62942217  0.63333592  1
  O  O295  1  0.87342306  0.13739728  0.13822230  1
  O  O296  1  0.87104945  0.13255215  0.63992561  1
  O  O297  1  0.87187853  0.63348077  0.13091396  1
  O  O298  1  0.88482802  0.62939714  0.63015972  1
  O  O299  1  0.25940867  0.26061843  0.12200110  1
  O  O300  1  0.25609969  0.25381969  0.61498710  1
  O  O301  1  0.24587772  0.75994079  0.11276074  1
  O  O302  1  0.25917690  0.74837132  0.62626695  1
  O  O303  1  0.75421260  0.25525088  0.11985427  1
  O  O304  1  0.75614545  0.25552836  0.61820851  1
  O  O305  1  0.75520499  0.75821313  0.13103759  1
  O  O306  1  0.74523941  0.75376175  0.62572416  1
  O  O307  1  0.24447088  0.24789534  0.37833123  1
  O  O308  1  0.24223303  0.24160629  0.87432046  1
  O  O309  1  0.24183873  0.73933912  0.37671249  1
  O  O310  1  0.24403968  0.74769511  0.88512547  1
  O  O311  1  0.74465425  0.24643746  0.38422642  1
  O  O312  1  0.73796199  0.25369823  0.88454123  1
  O  O313  1  0.73941606  0.74370576  0.38428584  1
  O  O314  1  0.75552348  0.74176644  0.87853855  1
  O  O315  1  0.01393795  0.11815922  -0.00222246  1
  O  O316  1  -0.00260930  0.12773488  0.50591358  1
  O  O317  1  0.00876592  0.61720952  0.00046968  1
  O  O318  1  -0.00073246  0.61634635  0.51205685  1
  O  O319  1  0.49279353  0.10811399  0.00370166  1
  O  O320  1  0.51509946  0.12468579  0.49368670  1
  O  O321  1  0.51236029  0.66135931  0.01076735  1
  O  O322  1  0.50744826  0.61478534  0.50673685  1
  O  O323  1  0.50823859  0.38904354  0.49654354  1
  O  O324  1  0.49883955  0.37349408  0.98568874  1
  O  O325  1  0.49154771  0.87932677  0.49895229  1
  O  O326  1  0.49017211  0.87956963  0.99243702  1
  O  O327  1  0.99831848  0.38162610  0.49271171  1
  O  O328  1  1.00085318  0.38092510  0.98692396  1
  O  O329  1  0.98889849  0.86664391  0.49215881  1
  O  O330  1  0.99602873  0.88484231  0.99776855  1
  O  O331  1  0.49347634  0.49563953  0.38156930  1
  O  O332  1  0.49201738  0.49074478  0.86910707  1
  O  O333  1  0.48696508  1.00763557  0.37402630  1
  O  O334  1  0.49338606  0.99059572  0.88096294  1
  O  O335  1  0.99313721  0.49605227  0.38135664  1
  O  O336  1  0.99335190  0.49294021  0.88379607  1
  O  O337  1  0.96442476  1.02210442  0.31704315  1
  O  O338  1  0.99332250  0.99605349  0.88773153  1
  O  O339  1  0.01080214  -0.00070920  0.11790649  1
  O  O340  1  0.00599899  0.00678467  0.61624448  1
  O  O341  1  -0.00616074  0.49966746  0.10875109  1
  O  O342  1  0.00052871  0.50285149  0.61755674  1
  O  O343  1  0.50861111  0.00213123  0.11786324  1
  O  O344  1  0.51657355  -0.00219939  0.62667576  1
  O  O345  1  0.51249609  0.50211039  0.12866749  1
  O  O346  1  0.48946746  0.50879935  0.61757788  1
  O  O347  1  0.23985307  0.37640104  0.24120661  1
  O  O348  1  0.24506552  0.37826303  0.74195048  1
  O  O349  1  0.24290596  0.87001973  0.23776594  1
  O  O350  1  0.25016708  0.88761655  0.74791484  1
  O  O351  1  0.74413574  0.37640984  0.23969022  1
  O  O352  1  0.73803977  0.37334336  0.74479711  1
  O  O353  1  0.73810309  0.88610315  0.25512918  1
  O  O354  1  0.75267956  0.88031742  0.74893434  1
  O  O355  1  0.26373493  0.13576866  0.25479408  1
  O  O356  1  0.25303899  0.11667034  0.75908875  1
  O  O357  1  0.25599307  0.62347140  0.25926257  1
  O  O358  1  0.25726335  0.61826318  0.75659455  1
  O  O359  1  0.75484717  0.11990334  0.25929116  1
  O  O360  1  0.76070025  0.11533195  0.75186570  1
  O  O361  1  0.75875316  0.62020093  0.25614732  1
  O  O362  1  0.75622994  0.61888947  0.77191343  1
  O  O363  1  0.37000640  0.12322326  0.36403794  1
  O  O364  1  0.36427339  0.11581003  0.87856224  1
  O  O365  1  0.36839940  0.61742845  0.36734712  1
  O  O366  1  0.37078693  0.61866994  0.86891019  1
  O  O367  1  0.86327547  0.13124602  0.36756933  1
  O  O368  1  0.88062940  0.11849312  0.86480577  1
  O  O369  1  0.86866877  0.62140853  0.36881393  1
  O  O370  1  0.86680381  0.61401399  0.87970955  1
  O  O371  1  0.13429668  0.36946189  0.13081117  1
  O  O372  1  0.13534821  0.37391615  0.63185554  1
  O  O373  1  0.13398560  0.88447639  0.13235877  1
  O  O374  1  0.13342509  0.89277471  0.58731588  1
  O  O375  1  0.62907120  0.38380558  0.12793179  1
  O  O376  1  0.63336164  0.36900695  0.64096174  1
  O  O377  1  0.63456248  0.88080853  0.13192167  1
  O  O378  1  0.62728585  0.87819545  0.62740125  1
  O  O379  1  0.11705798  0.26169359  0.25190074  1
  O  O380  1  0.13204840  0.25840188  0.75540708  1
  O  O381  1  0.12494643  0.75745344  0.25848898  1
  O  O382  1  0.12400226  0.74590698  0.76694046  1
  O  O383  1  0.62046475  0.25594530  0.25488348  1
  O  O384  1  0.62789855  0.25496006  0.76379742  1
  O  O385  1  0.62174036  0.75704771  0.26006123  1
  O  O386  1  0.63613748  0.75783625  0.73851197  1
  O  O387  1  0.38087386  0.24575049  0.23705744  1
  O  O388  1  0.37313163  0.24790570  0.73141374  1
  O  O389  1  0.38401879  0.74180857  0.26198411  1
  O  O390  1  0.37477031  0.73557692  0.74846211  1
  O  O391  1  0.88282302  0.24256336  0.24544983  1
  O  O392  1  0.87175224  0.23672359  0.74643808  1
  O  O393  1  0.87382981  0.74500555  0.24160068  1
  O  O394  1  0.88364807  0.74613928  0.75043790  1
  O  O395  1  0.38446924  0.50425031  0.48648288  1
  O  O396  1  0.37373888  0.50191387  0.98609461  1
  O  O397  1  0.37874810  1.00773455  0.48228403  1
  O  O398  1  0.37898704  0.99099456  0.99009489  1
  O  O399  1  0.88546205  0.49751900  0.49351706  1
  O  O400  1  0.88291187  0.49464894  0.98978040  1
  O  O401  1  0.87129698  0.98458891  0.50148581  1
  O  O402  1  0.88325443  0.99811920  0.99878689  1
  O  O403  1  0.11985894  0.00720053  0.00992087  1
  O  O404  1  0.10248324  0.01496440  0.46524975  1
  O  O405  1  0.11676974  0.50987330  -0.00767193  1
  O  O406  1  0.11179139  0.49961569  0.49826104  1
  O  O407  1  0.61534498  -0.00441703  0.00822369  1
  O  O408  1  0.62722655  0.00984907  0.50886873  1
  O  O409  1  0.62501642  0.49877938  0.01280812  1
  O  O410  1  0.61826860  0.51126596  0.49313374  1
  O  O411  1  0.37054554  0.36823292  0.12310633  1
  O  O412  1  0.36429153  0.36749016  0.62904501  1
  O  O413  1  0.36640452  0.88383173  0.11522550  1
  O  O414  1  0.37928464  0.85759702  0.63454013  1
  O  O415  1  0.86449406  0.36377766  0.12530008  1
  O  O416  1  0.86524097  0.36671573  0.62944942  1
  O  O417  1  0.88231260  0.87058218  0.11637437  1
  O  O418  1  0.88037339  0.87094054  0.61029294  1
  O  O419  1  0.13545526  0.13966744  0.35645920  1
  O  O420  1  0.12970002  0.13108465  0.87998088  1
  O  O421  1  0.13359957  0.63001152  0.37432627  1
  O  O422  1  0.13145756  0.63147706  0.88488443  1
  O  O423  1  0.63545400  0.13087963  0.37967727  1
  O  O424  1  0.62449897  0.13588729  0.87516506  1
  O  O425  1  0.63085830  0.63077248  0.38176491  1
  O  O426  1  0.63807572  0.62697678  0.87748163  1
