# generated using pymatgen
data_V85Zn86O256
_symmetry_space_group_name_H-M   'P 1'
_cell_length_a   16.94056838
_cell_length_b   16.94762687
_cell_length_c   16.94261140
_cell_angle_alpha   89.94012667
_cell_angle_beta   89.92416808
_cell_angle_gamma   89.95832640
_symmetry_Int_Tables_number   1
_chemical_formula_structural   V85Zn86O256
_chemical_formula_sum   'V85 Zn86 O256'
_cell_volume   4864.25673879
_cell_formula_units_Z   1
loop_
 _symmetry_equiv_pos_site_id
 _symmetry_equiv_pos_as_xyz
  1  'x, y, z'
loop_
 _atom_site_type_symbol
 _atom_site_label
 _atom_site_symmetry_multiplicity
 _atom_site_fract_x
 _atom_site_fract_y
 _atom_site_fract_z
 _atom_site_occupancy
  V  V0  1  0.25069983  0.74606499  0.49561555  1
  V  V1  1  0.38164454  0.37192449  0.49665366  1
  V  V2  1  0.25129671  0.37643744  0.62391053  1
  V  V3  1  0.37232330  0.37797757  -0.00249259  1
  V  V4  1  0.37385041  -0.00478032  0.87956964  1
  V  V5  1  0.74909863  0.50021537  0.74972999  1
  V  V6  1  0.50013282  0.26533808  0.25769109  1
  V  V7  1  0.50246063  0.12543654  0.12973680  1
  V  V8  1  0.12626292  0.75007180  0.37199751  1
  V  V9  1  0.87343744  0.49099737  0.37507295  1
  V  V10  1  0.75551519  0.86850131  0.62573371  1
  V  V11  1  0.74426140  0.13118418  0.87367114  1
  V  V12  1  0.37706171  0.87438961  0.49923529  1
  V  V13  1  0.37633988  0.24794055  0.62703744  1
  V  V14  1  0.50284067  0.12354854  0.62716421  1
  V  V15  1  0.75362663  0.01440197  0.24581795  1
  V  V16  1  0.50552335  0.50170212  0.49634127  1
  V  V17  1  -0.00261188  0.74798765  0.24517929  1
  V  V18  1  0.37433141  0.25210970  0.12781672  1
  V  V19  1  0.00618114  0.12380912  0.61789654  1
  V  V20  1  0.62667193  -0.00093951  0.62419813  1
  V  V21  1  -0.00018752  0.74981973  0.74880541  1
  V  V22  1  0.50280039  0.87777621  0.37321556  1
  V  V23  1  0.62496923  0.74829981  0.38243906  1
  V  V24  1  0.24825465  0.23765317  -0.00334177  1
  V  V25  1  0.50608078  0.24528133  0.75691723  1
  V  V26  1  0.74679023  0.63167728  0.87421040  1
  V  V27  1  0.50554395  0.74941858  0.76245018  1
  V  V28  1  0.12794645  0.00140674  0.61628284  1
  V  V29  1  0.62958172  0.26520001  0.37092996  1
  V  V30  1  0.62266416  0.12983823  -0.00210264  1
  V  V31  1  0.25742392  0.50147891  0.75828394  1
  V  V32  1  0.49993544  0.50010150  -0.00683520  1
  V  V33  1  0.87554015  0.12506743  0.74756280  1
  V  V34  1  0.62371895  0.49402054  0.12881671  1
  V  V35  1  0.75288792  0.25727175  -0.00138742  1
  V  V36  1  0.12469872  0.87735752  0.23590099  1
  V  V37  1  0.37750659  0.74399335  0.62839613  1
  V  V38  1  0.86510666  0.75823525  0.12503431  1
  V  V39  1  0.12708175  0.50178356  0.62411388  1
  V  V40  1  0.86519374  0.62532389  0.24999204  1
  V  V41  1  0.87749866  0.86644370  0.50165491  1
  V  V42  1  0.12722697  0.23631188  0.87646572  1
  V  V43  1  0.62282727  0.63019869  -0.00239931  1
  V  V44  1  0.36743703  0.63329402  0.27087794  1
  V  V45  1  0.11845690  0.61094492  0.00745498  1
  V  V46  1  0.00106257  0.49424667  0.49463690  1
  V  V47  1  0.88006445  0.50062944  0.87444296  1
  V  V48  1  -0.00040393  0.87583673  0.88018124  1
  V  V49  1  0.11653075  0.25527500  0.37861157  1
  V  V50  1  0.75126784  0.00015844  0.74940795  1
  V  V51  1  0.24076476  0.49561717  0.25022517  1
  V  V52  1  -0.00193977  0.37576540  0.87269508  1
  V  V53  1  0.12930032  0.74878385  0.87900489  1
  V  V54  1  0.25022800  0.00108812  0.24851184  1
  V  V55  1  0.23396917  0.37534068  0.12642987  1
  V  V56  1  0.86871377  0.01182387  0.37500763  1
  V  V57  1  0.12655431  0.87361225  0.75126413  1
  V  V58  1  0.24461366  0.75588804  0.02080582  1
  V  V59  1  0.74497137  0.62434869  0.38453796  1
  V  V60  1  0.00530336  0.24801099  0.23989669  1
  V  V61  1  0.37316581  0.12450273  0.75945625  1
  V  V62  1  0.62675054  0.37144964  0.75426775  1
  V  V63  1  0.24914628  0.00198883  0.75646540  1
  V  V64  1  0.49665845  0.37413370  0.87306039  1
  V  V65  1  0.24828369  0.23953908  0.49912401  1
  V  V66  1  0.87644975  0.24898783  0.62270887  1
  V  V67  1  0.87569706  0.63076292  0.74576080  1
  V  V68  1  0.25110023  0.87175791  0.62688469  1
  V  V69  1  0.93466589  0.43838903  0.04838653  1
  V  V70  1  0.00344602  0.25065330  0.74840736  1
  V  V71  1  0.00199035  0.01527862  0.00338606  1
  V  V72  1  0.74296202  0.76185112  -0.00080641  1
  V  V73  1  0.87618808  0.00150139  0.87601226  1
  V  V74  1  0.13003223  0.62433484  0.49232132  1
  V  V75  1  0.37461142  0.49341986  0.37362222  1
  V  V76  1  0.62966969  0.12509559  0.48884882  1
  V  V77  1  0.12367042  0.02101749  0.12152495  1
  V  V78  1  -0.00199567  0.87873551  0.37072204  1
  V  V79  1  0.87442828  0.22360932  0.12744441  1
  V  V80  1  0.50954327  0.62577375  0.62108024  1
  V  V81  1  0.63700974  0.87278256  0.24349002  1
  V  V82  1  -0.00244605  0.63073570  0.62104323  1
  V  V83  1  0.36878143  0.87378287  0.01805341  1
  V  V84  1  0.75127118  0.37271316  0.62202057  1
  Zn  Zn85  1  0.48925211  0.75719488  0.24416069  1
  Zn  Zn86  1  0.48991243  0.62764918  0.12613141  1
  Zn  Zn87  1  0.75093214  0.74492252  0.50643748  1
  Zn  Zn88  1  0.50288708  0.86767541  0.88498333  1
  Zn  Zn89  1  0.37272965  0.00166773  0.37515878  1
  Zn  Zn90  1  0.24685812  0.12239683  0.37820777  1
  Zn  Zn91  1  0.63015543  -0.00086120  0.12394809  1
  Zn  Zn92  1  0.37585516  0.12597037  0.25740743  1
  Zn  Zn93  1  0.12777318  0.37619312  0.75258044  1
  Zn  Zn94  1  0.24988130  0.62036639  0.88288977  1
  Zn  Zn95  1  0.62805496  0.86867522  0.75569795  1
  Zn  Zn96  1  0.73750075  0.49279531  0.25573839  1
  Zn  Zn97  1  0.00406528  0.00086945  0.49490259  1
  Zn  Zn98  1  0.49958277  0.00141193  0.49967344  1
  Zn  Zn99  1  0.88086118  0.37009759  0.49650533  1
  Zn  Zn100  1  0.62652386  0.50075468  0.62098345  1
  Zn  Zn101  1  0.75662896  0.24435961  0.49094366  1
  Zn  Zn102  1  -0.00501767  0.61416144  0.12184768  1
  Zn  Zn103  1  0.74937518  0.37319410  0.12612099  1
  Zn  Zn104  1  0.87067625  0.87927018  0.00546575  1
  Zn  Zn105  1  0.38134479  0.62140020  0.76746596  1
  Zn  Zn106  1  0.50177306  -0.00215799  0.00293378  1
  Zn  Zn107  1  0.18823770  0.19043738  0.19389348  1
  Zn  Zn108  1  0.18837358  0.18675182  0.68938644  1
  Zn  Zn109  1  0.18322993  0.67836804  0.18769843  1
  Zn  Zn110  1  0.18749671  0.68414073  0.68648384  1
  Zn  Zn111  1  0.68487480  0.19214053  0.18795117  1
  Zn  Zn112  1  0.68735344  0.18762705  0.68423157  1
  Zn  Zn113  1  0.67411328  0.68967233  0.18293218  1
  Zn  Zn114  1  0.68588595  0.68779005  0.68803164  1
  Zn  Zn115  1  0.30877570  0.31395155  0.31451006  1
  Zn  Zn116  1  0.31209054  0.31225187  0.81378225  1
  Zn  Zn117  1  0.30723622  0.81904213  0.31172050  1
  Zn  Zn118  1  0.31722565  0.80934035  0.81739412  1
  Zn  Zn119  1  0.80978278  0.30988243  0.30419221  1
  Zn  Zn120  1  0.81580681  0.31271322  0.81202357  1
  Zn  Zn121  1  0.81064555  0.81254546  0.31601891  1
  Zn  Zn122  1  0.81348719  0.81298262  0.81383228  1
  Zn  Zn123  1  0.19164379  0.43389736  0.43462883  1
  Zn  Zn124  1  0.18360304  0.42866148  0.93952237  1
  Zn  Zn125  1  0.18862653  0.93295549  0.43301656  1
  Zn  Zn126  1  0.18785937  0.93994634  0.94306828  1
  Zn  Zn127  1  0.68971171  0.43625001  0.43900386  1
  Zn  Zn128  1  0.68583966  0.43910049  0.93513388  1
  Zn  Zn129  1  0.69062078  0.93638588  0.43774309  1
  Zn  Zn130  1  0.68306026  0.94279970  0.93510558  1
  Zn  Zn131  1  0.31207953  0.06161982  0.06893884  1
  Zn  Zn132  1  0.31591667  0.05986761  0.56858616  1
  Zn  Zn133  1  0.30432241  0.56026753  0.06644353  1
  Zn  Zn134  1  0.31609922  0.56234536  0.56200221  1
  Zn  Zn135  1  0.80730609  0.05920252  0.05871239  1
  Zn  Zn136  1  0.81349899  0.05939135  0.55822239  1
  Zn  Zn137  1  0.80256160  0.57260566  0.06731577  1
  Zn  Zn138  1  0.81448176  0.56026510  0.56268085  1
  Zn  Zn139  1  0.43348310  0.44273324  0.18290544  1
  Zn  Zn140  1  0.43815080  0.43795926  0.68517409  1
  Zn  Zn141  1  0.44089155  0.94055586  0.19009162  1
  Zn  Zn142  1  0.43863945  0.93447159  0.68900376  1
  Zn  Zn143  1  0.92788793  0.42484978  0.21075274  1
  Zn  Zn144  1  0.93838375  0.44031191  0.68605168  1
  Zn  Zn145  1  0.93646539  0.94413080  0.18668783  1
  Zn  Zn146  1  0.93888209  0.93700207  0.68670422  1
  Zn  Zn147  1  0.06327787  0.07282886  0.31273880  1
  Zn  Zn148  1  0.06127308  0.06064110  0.80804242  1
  Zn  Zn149  1  0.05719236  0.56349699  0.31229306  1
  Zn  Zn150  1  0.06625245  0.56237844  0.81292685  1
  Zn  Zn151  1  0.56250571  0.06129491  0.30992845  1
  Zn  Zn152  1  0.56474150  0.05135127  0.81729445  1
  Zn  Zn153  1  0.55549386  0.56605959  0.31207928  1
  Zn  Zn154  1  0.56247467  0.56202939  0.81175304  1
  Zn  Zn155  1  0.43952358  0.18438295  0.43575041  1
  Zn  Zn156  1  0.43578564  0.18786038  0.93888862  1
  Zn  Zn157  1  0.44223979  0.68962798  0.43805309  1
  Zn  Zn158  1  0.40792966  0.66566367  0.97300997  1
  Zn  Zn159  1  0.94249834  0.18597469  0.43697811  1
  Zn  Zn160  1  0.93280386  0.19174309  0.93618812  1
  Zn  Zn161  1  0.93727527  0.68507022  0.43315067  1
  Zn  Zn162  1  0.93603551  0.68849352  0.93966690  1
  Zn  Zn163  1  0.06269715  0.29749043  0.06085075  1
  Zn  Zn164  1  0.06750953  0.31179672  0.56056215  1
  Zn  Zn165  1  0.05643552  0.81143139  0.06169834  1
  Zn  Zn166  1  0.06239181  0.81300110  0.56077154  1
  Zn  Zn167  1  0.56249608  0.30989631  0.06136003  1
  Zn  Zn168  1  0.56447748  0.31085849  0.56301002  1
  Zn  Zn169  1  0.55652484  0.81006470  0.06447666  1
  Zn  Zn170  1  0.56374151  0.81400542  0.56477396  1
  O  O171  1  0.12127170  0.11927167  0.12751314  1
  O  O172  1  0.11822789  0.11347821  0.63250310  1
  O  O173  1  0.11470953  0.62276022  0.11320543  1
  O  O174  1  0.11828347  0.62110647  0.61369861  1
  O  O175  1  0.61762122  0.12583848  0.11930222  1
  O  O176  1  0.61989146  0.11934217  0.61746446  1
  O  O177  1  0.62437491  0.61177817  0.11094286  1
  O  O178  1  0.61410548  0.62236117  0.62559557  1
  O  O179  1  0.37410276  0.38067302  0.38533192  1
  O  O180  1  0.38777135  0.36994831  0.88103302  1
  O  O181  1  0.38341195  0.87533103  0.38296600  1
  O  O182  1  0.37925009  0.88360794  0.88134514  1
  O  O183  1  0.86559637  0.38762478  0.37798126  1
  O  O184  1  0.88693379  0.38313656  0.87205839  1
  O  O185  1  0.88524848  0.87923562  0.37895497  1
  O  O186  1  0.88406140  0.88273221  0.87579072  1
  O  O187  1  0.24888731  0.00149398  0.36555823  1
  O  O188  1  0.25655694  -0.00466438  0.86442472  1
  O  O189  1  0.26202958  0.49498996  0.36331102  1
  O  O190  1  0.24234026  0.49400462  0.85961109  1
  O  O191  1  0.76277950  -0.00409949  0.36752051  1
  O  O192  1  0.75721282  0.01201963  0.87002018  1
  O  O193  1  0.75330482  0.50801672  0.37533858  1
  O  O194  1  0.76209366  0.50481591  0.86975895  1
  O  O195  1  0.25255096  0.48842663  0.13781895  1
  O  O196  1  0.24727941  0.49310917  0.62976214  1
  O  O197  1  0.23220307  1.00433201  0.13089372  1
  O  O198  1  0.24540396  0.99244664  0.63506716  1
  O  O199  1  0.73331500  0.49890766  0.12158027  1
  O  O200  1  0.74978873  0.49109972  0.63116384  1
  O  O201  1  0.75102872  1.00048874  0.14089668  1
  O  O202  1  0.74572581  0.99135112  0.62858967  1
  O  O203  1  -0.01063296  0.34773540  0.26083305  1
  O  O204  1  0.00190331  0.36952517  0.75550077  1
  O  O205  1  0.00293696  0.86935386  0.25484280  1
  O  O206  1  0.00478693  0.87002176  0.75906853  1
  O  O207  1  0.49563536  0.36317248  0.24442379  1
  O  O208  1  0.50509540  0.36846590  0.75451150  1
  O  O209  1  0.51054985  0.87627202  0.25845397  1
  O  O210  1  0.49912637  0.85726738  0.74795742  1
  O  O211  1  0.49839507  0.13323291  0.24334131  1
  O  O212  1  0.49652956  0.12969501  0.74879138  1
  O  O213  1  0.47307074  0.62223156  0.24771654  1
  O  O214  1  0.49870355  0.63274650  0.74278160  1
  O  O215  1  0.99068693  0.15001937  0.26750634  1
  O  O216  1  0.99438736  0.12944996  0.73931380  1
  O  O217  1  0.98701911  0.63257962  0.24792953  1
  O  O218  1  0.99517053  0.62892304  0.74263481  1
  O  O219  1  0.37111537  0.25954059  0.00665439  1
  O  O220  1  0.37299668  0.25549946  0.50742296  1
  O  O221  1  0.35743425  0.76920274  -0.00427300  1
  O  O222  1  0.37244237  0.75810267  0.50567157  1
  O  O223  1  0.86700486  0.24341020  0.01481785  1
  O  O224  1  0.87489890  0.25116132  0.50721663  1
  O  O225  1  0.86511369  0.75204991  0.00851895  1
  O  O226  1  0.87586284  0.76240523  0.49449511  1
  O  O227  1  0.13657924  0.25216064  0.49251990  1
  O  O228  1  0.13493124  0.24811638  0.98942712  1
  O  O229  1  0.12843527  0.74300948  0.49377000  1
  O  O230  1  0.12887994  0.75045888  0.99449437  1
  O  O231  1  0.62324092  0.24282918  0.48676704  1
  O  O232  1  0.63498410  0.23790026  1.00475017  1
  O  O233  1  0.62720973  0.75630688  0.48668493  1
  O  O234  1  0.63099553  0.74275544  0.99961426  1
  O  O235  1  0.49531425  0.24517633  0.13498019  1
  O  O236  1  0.49534507  0.24528009  0.63680770  1
  O  O237  1  0.52608861  0.73571542  0.14031289  1
  O  O238  1  0.49453388  0.74266264  0.62759138  1
  O  O239  1  0.98805635  0.24607234  0.13033605  1
  O  O240  1  0.99838288  0.24287845  0.62781046  1
  O  O241  1  0.99072716  0.74871527  0.13589966  1
  O  O242  1  1.00580253  0.73770377  0.62965500  1
  O  O243  1  0.01361024  0.25589360  0.38403289  1
  O  O244  1  0.00367960  0.25708853  0.86932017  1
  O  O245  1  0.00290397  0.75642887  0.36278121  1
  O  O246  1  0.00840656  0.75771350  0.87198421  1
  O  O247  1  0.50663548  0.24973518  0.36304629  1
  O  O248  1  0.49712163  0.25513706  0.86331905  1
  O  O249  1  0.50665651  0.75950017  0.36965533  1
  O  O250  1  0.49630367  0.74746305  0.86099230  1
  O  O251  1  0.25603804  0.13737520  0.50854636  1
  O  O252  1  0.25974044  0.13912521  1.00157228  1
  O  O253  1  0.24013887  0.63090769  0.50580917  1
  O  O254  1  0.23169262  0.63554626  1.00296688  1
  O  O255  1  0.73416922  0.12792462  0.50772141  1
  O  O256  1  0.74379627  0.13188265  0.99146361  1
  O  O257  1  0.75337549  0.62589391  0.48961835  1
  O  O258  1  0.74053477  0.63377733  0.99079974  1
  O  O259  1  0.25737859  0.36928202  0.00681894  1
  O  O260  1  0.26189963  0.36902289  0.50840234  1
  O  O261  1  0.25772542  0.87088531  0.00281042  1
  O  O262  1  0.25720385  0.86760074  0.50663369  1
  O  O263  1  0.74383510  0.36001832  -0.00264818  1
  O  O264  1  0.75161705  0.37126760  0.51311857  1
  O  O265  1  0.74896889  0.86562753  -0.00711554  1
  O  O266  1  0.75937957  0.87324744  0.50812547  1
  O  O267  1  0.14226894  0.50999962  0.25741565  1
  O  O268  1  0.13439818  0.49828337  0.74075199  1
  O  O269  1  0.12462023  0.99698310  0.23904526  1
  O  O270  1  0.13352129  0.99293488  0.74430188  1
  O  O271  1  0.61814527  0.50832568  0.23244447  1
  O  O272  1  0.63206395  0.49133268  0.74634578  1
  O  O273  1  0.63843627  0.99131692  0.25313459  1
  O  O274  1  0.63372199  1.00590725  0.73503211  1
  O  O275  1  0.36334508  0.00001983  0.25002757  1
  O  O276  1  0.36923906  0.00391604  0.75705482  1
  O  O277  1  0.36909265  0.50666400  0.25796840  1
  O  O278  1  0.36132026  0.50184525  0.74472668  1
  O  O279  1  0.86340832  -0.00379034  0.26121377  1
  O  O280  1  0.87030580  0.00556074  0.75430232  1
  O  O281  1  0.87289350  0.51107343  0.26000252  1
  O  O282  1  0.87057465  0.51056201  0.75640695  1
  O  O283  1  0.13836418  0.35501530  0.37382028  1
  O  O284  1  0.11028823  0.36876822  0.87386810  1
  O  O285  1  0.11164491  0.87161720  0.36658651  1
  O  O286  1  0.11764428  0.87110569  0.87098607  1
  O  O287  1  0.62261534  0.36346137  0.37851429  1
  O  O288  1  0.61596317  0.37706619  0.86184623  1
  O  O289  1  0.61962692  0.87141546  0.36924782  1
  O  O290  1  0.61051373  0.89951675  0.86369365  1
  O  O291  1  0.38249960  0.13874218  0.12609875  1
  O  O292  1  0.38434821  0.12682228  0.63709131  1
  O  O293  1  0.38472171  0.63289200  0.08403204  1
  O  O294  1  0.38251811  0.63579804  0.62550991  1
  O  O295  1  0.87451383  0.12562766  0.12606145  1
  O  O296  1  0.88175146  0.12820316  0.62851079  1
  O  O297  1  0.87481568  0.63490560  0.13347409  1
  O  O298  1  0.88396351  0.62098274  0.63393164  1
  O  O299  1  0.25746788  0.25542174  0.12152230  1
  O  O300  1  0.25575399  0.25760079  0.62166704  1
  O  O301  1  0.23938563  0.75250078  0.11969682  1
  O  O302  1  0.25794674  0.75297579  0.62065194  1
  O  O303  1  0.76075780  0.24827651  0.11803125  1
  O  O304  1  0.75918890  0.25714417  0.62515785  1
  O  O305  1  0.75390729  0.74432346  0.11334862  1
  O  O306  1  0.74629868  0.76351432  0.62549946  1
  O  O307  1  0.24857089  0.24671688  0.38619428  1
  O  O308  1  0.23903321  0.25743423  0.88346758  1
  O  O309  1  0.23783920  0.75776081  0.38240422  1
  O  O310  1  0.23507739  0.75404643  0.87855814  1
  O  O311  1  0.73456848  0.25152222  0.37332006  1
  O  O312  1  0.75951457  0.23872315  0.88135330  1
  O  O313  1  0.74390971  0.74183847  0.37988631  1
  O  O314  1  0.75557560  0.74077009  0.88295739  1
  O  O315  1  -0.00230920  0.11380906  -0.00915393  1
  O  O316  1  -0.00101974  0.11909463  0.51406246  1
  O  O317  1  0.01289618  0.62912755  0.00091811  1
  O  O318  1  0.00539052  0.61854872  0.50544217  1
  O  O319  1  0.50699329  0.12878075  0.00834327  1
  O  O320  1  0.51037085  0.12325229  0.50852461  1
  O  O321  1  0.51485986  0.61486500  -0.01372267  1
  O  O322  1  0.49383171  0.61512540  0.50884682  1
  O  O323  1  0.48720927  0.38179414  0.51100225  1
  O  O324  1  0.49569566  0.37720104  0.99083421  1
  O  O325  1  0.49316794  0.87526095  0.49344641  1
  O  O326  1  0.48530892  0.87670612  1.00290808  1
  O  O327  1  1.00072629  0.39100571  0.50944977  1
  O  O328  1  0.99841819  0.37574794  0.99458250  1
  O  O329  1  0.99557758  0.87804111  0.49091255  1
  O  O330  1  0.99792994  0.88151936  0.98881102  1
  O  O331  1  0.48648504  0.50592083  0.38292831  1
  O  O332  1  0.50390035  0.48964398  0.88400900  1
  O  O333  1  0.49899874  0.98859280  0.37786705  1
  O  O334  1  0.48212901  1.00502619  0.88206797  1
  O  O335  1  0.98839383  0.50526211  0.38359490  1
  O  O336  1  0.98852312  0.49462959  0.86892392  1
  O  O337  1  0.99091004  0.99463585  0.37195330  1
  O  O338  1  0.99754486  0.99299926  0.87956726  1
  O  O339  1  0.01148286  -0.00134770  0.11703012  1
  O  O340  1  0.01135676  0.00549944  0.62547380  1
  O  O341  1  -0.01514894  0.49125122  0.11941063  1
  O  O342  1  0.00699510  0.51137444  0.61942483  1
  O  O343  1  0.50165030  0.01468284  0.12442972  1
  O  O344  1  0.50965341  0.00320201  0.62496688  1
  O  O345  1  0.50709047  0.50212486  0.11081295  1
  O  O346  1  0.49901047  0.50925657  0.61758165  1
  O  O347  1  0.25413615  0.38662101  0.24129727  1
  O  O348  1  0.25144549  0.38410221  0.74194468  1
  O  O349  1  0.23643176  0.88845818  0.25343568  1
  O  O350  1  0.24773886  0.87979297  0.74507012  1
  O  O351  1  0.75747314  0.38307679  0.23864337  1
  O  O352  1  0.74394781  0.37720427  0.74452597  1
  O  O353  1  0.73951606  0.88208366  0.25550830  1
  O  O354  1  0.75111715  0.88154456  0.74385363  1
  O  O355  1  0.25278889  0.11326278  0.24938090  1
  O  O356  1  0.26093691  0.11336802  0.74333598  1
  O  O357  1  0.26539458  0.61277887  0.23899613  1
  O  O358  1  0.24982831  0.60979480  0.74907981  1
  O  O359  1  0.74377420  0.11259228  0.25133798  1
  O  O360  1  0.75454603  0.12206494  0.75542302  1
  O  O361  1  0.75627195  0.62382918  0.25643070  1
  O  O362  1  0.75737250  0.62316300  0.75488359  1
  O  O363  1  0.36936159  0.11950668  0.37576932  1
  O  O364  1  0.37540710  0.12021084  0.86445638  1
  O  O365  1  0.36946409  0.62000614  0.37262647  1
  O  O366  1  0.36216120  0.62829118  0.87847978  1
  O  O367  1  0.87328871  0.11000456  0.38490429  1
  O  O368  1  0.86918156  0.12037523  0.86630864  1
  O  O369  1  0.86471274  0.61948806  0.36843184  1
  O  O370  1  0.86894630  0.61873355  0.86952067  1
  O  O371  1  0.13506062  0.36740899  0.11884056  1
  O  O372  1  0.13880609  0.38019103  0.62488981  1
  O  O373  1  0.11713955  0.87827013  0.13506392  1
  O  O374  1  0.12980269  0.87988767  0.63237204  1
  O  O375  1  0.62355686  0.39049363  0.11657373  1
  O  O376  1  0.63366393  0.37438249  0.63496990  1
  O  O377  1  0.62153487  0.87950644  0.14159625  1
  O  O378  1  0.63367576  0.88432347  0.62743506  1
  O  O379  1  0.11276076  0.25022188  0.25659596  1
  O  O380  1  0.12016212  0.25435652  0.75536459  1
  O  O381  1  0.11644592  0.75473726  0.25190323  1
  O  O382  1  0.11997861  0.75310618  0.75709032  1
  O  O383  1  0.61383908  0.24920911  0.26173700  1
  O  O384  1  0.61668498  0.25702217  0.74611288  1
  O  O385  1  0.63284294  0.76425731  0.26301131  1
  O  O386  1  0.61062660  0.74987576  0.74852203  1
  O  O387  1  0.38434704  0.25078247  0.24521197  1
  O  O388  1  0.38021491  0.24165023  0.74663276  1
  O  O389  1  0.36956180  0.73698388  0.25823294  1
  O  O390  1  0.38358291  0.74610865  0.74243036  1
  O  O391  1  0.87606311  0.24808471  0.22990035  1
  O  O392  1  0.88318660  0.24492311  0.74191359  1
  O  O393  1  0.87707825  0.74447008  0.24593737  1
  O  O394  1  0.88267011  0.73777082  0.75560033  1
  O  O395  1  0.37948166  0.49167905  0.49320588  1
  O  O396  1  0.38316312  0.48395582  1.00280085  1
  O  O397  1  0.37599103  0.98472731  0.50385747  1
  O  O398  1  0.36907954  0.98948126  0.99594973  1
  O  O399  1  0.88421934  0.49914690  0.49254291  1
  O  O400  1  0.87336163  0.50444220  0.99455562  1
  O  O401  1  0.87631001  0.98918172  0.48709698  1
  O  O402  1  0.88195396  0.99805467  0.99447386  1
  O  O403  1  0.11882704  0.00048873  0.01376782  1
  O  O404  1  0.12732340  -0.00753704  0.51315392  1
  O  O405  1  0.12681218  0.51292103  -0.00520291  1
  O  O406  1  0.12208842  0.50652487  0.50084853  1
  O  O407  1  0.62438516  0.01495933  0.00599483  1
  O  O408  1  0.62617548  0.00792319  0.50786169  1
  O  O409  1  0.61805475  0.50516980  0.00371363  1
  O  O410  1  0.60931567  0.49239530  0.50075202  1
  O  O411  1  0.37165475  0.36487461  0.11730864  1
  O  O412  1  0.36672304  0.36914864  0.62098240  1
  O  O413  1  0.37558826  0.87773033  0.11678568  1
  O  O414  1  0.37287556  0.86319585  0.61933679  1
  O  O415  1  0.87622428  0.38017061  0.10941701  1
  O  O416  1  0.86780819  0.36875029  0.62582762  1
  O  O417  1  0.87801498  0.86222811  0.12575239  1
  O  O418  1  0.86853632  0.88084274  0.61501559  1
  O  O419  1  0.13144398  0.14388501  0.37274012  1
  O  O420  1  0.12199488  0.13714405  0.86618699  1
  O  O421  1  0.11790622  0.63242846  0.38600055  1
  O  O422  1  0.12701006  0.63305535  0.88406197  1
  O  O423  1  0.61852508  0.12890763  0.38686124  1
  O  O424  1  0.63461928  0.12105215  0.88154165  1
  O  O425  1  0.63249137  0.63461611  0.36676407  1
  O  O426  1  0.64080344  0.61648383  0.87844872  1
