# generated using pymatgen
data_V85Zn86O256
_symmetry_space_group_name_H-M   'P 1'
_cell_length_a   16.92831137
_cell_length_b   16.92007019
_cell_length_c   16.92847655
_cell_angle_alpha   90.00411856
_cell_angle_beta   89.97690559
_cell_angle_gamma   90.04878997
_symmetry_Int_Tables_number   1
_chemical_formula_structural   V85Zn86O256
_chemical_formula_sum   'V85 Zn86 O256'
_cell_volume   4848.79118374
_cell_formula_units_Z   1
loop_
 _symmetry_equiv_pos_site_id
 _symmetry_equiv_pos_as_xyz
  1  'x, y, z'
loop_
 _atom_site_type_symbol
 _atom_site_label
 _atom_site_symmetry_multiplicity
 _atom_site_fract_x
 _atom_site_fract_y
 _atom_site_fract_z
 _atom_site_occupancy
  V  V0  1  0.62412966  0.12670556  0.50094948  1
  V  V1  1  0.12393215  0.37859613  0.75056559  1
  V  V2  1  0.36958499  0.86952184  0.50040021  1
  V  V3  1  0.50236320  0.62413558  0.62705634  1
  V  V4  1  0.50083265  0.49939797  0.50075192  1
  V  V5  1  0.13299715  0.25533082  0.37634875  1
  V  V6  1  0.24834881  0.00767816  0.75463929  1
  V  V7  1  0.75190825  0.00550005  0.74985499  1
  V  V8  1  0.36747476  -0.00379290  0.37120473  1
  V  V9  1  0.25264464  0.63130039  0.36118338  1
  V  V10  1  0.37936506  0.49181484  0.88120383  1
  V  V11  1  0.62602601  0.13149368  0.00047322  1
  V  V12  1  0.49992960  0.87295575  0.37403400  1
  V  V13  1  0.00184172  0.00304128  0.00787545  1
  V  V14  1  0.62387395  -0.00129558  0.62730323  1
  V  V15  1  0.11791330  0.75028438  0.88319982  1
  V  V16  1  0.25289538  0.37254545  0.12220900  1
  V  V17  1  0.87052349  0.37264999  -0.00284254  1
  V  V18  1  0.75828791  0.61382944  0.37422779  1
  V  V19  1  0.12853765  0.13197428  0.50151990  1
  V  V20  1  0.00059752  0.00087264  0.49600345  1
  V  V21  1  0.12739115  0.50580583  0.12116172  1
  V  V22  1  0.50789266  0.62026788  0.13022962  1
  V  V23  1  -0.00943277  0.12406791  0.62793744  1
  V  V24  1  0.24883523  0.62266876  0.89191307  1
  V  V25  1  0.75542220  0.37644138  0.62721072  1
  V  V26  1  0.24957639  0.49848435  0.74977629  1
  V  V27  1  0.87582783  0.87481219  0.49651410  1
  V  V28  1  0.88566686  0.74734388  0.62722059  1
  V  V29  1  0.62449035  0.37741089  0.75614678  1
  V  V30  1  0.00028693  0.37520912  0.87456843  1
  V  V31  1  -0.02770366  0.27183974  0.28734389  1
  V  V32  1  0.49407145  -0.00466613  0.00154023  1
  V  V33  1  0.01125103  0.49909799  0.49422076  1
  V  V34  1  0.74838434  0.50081091  0.24078842  1
  V  V35  1  0.63499548  0.49983489  0.62965797  1
  V  V36  1  0.12456523  0.37316838  0.25053620  1
  V  V37  1  0.12571433  0.12460076  0.01059008  1
  V  V38  1  0.49921263  -0.00092577  0.50128603  1
  V  V39  1  0.50389273  0.74828912  0.75658449  1
  V  V40  1  0.87280598  0.50313307  0.86796376  1
  V  V41  1  0.49929631  0.25357592  0.75946394  1
  V  V42  1  0.62678645  0.74746334  0.37242110  1
  V  V43  1  0.12349229  0.00120552  0.62595586  1
  V  V44  1  0.74869658  0.13229971  0.87569581  1
  V  V45  1  0.50017543  0.37662743  0.37334607  1
  V  V46  1  0.24694397  0.87733804  0.62556169  1
  V  V47  1  0.74171774  0.37458009  0.11760074  1
  V  V48  1  0.00469957  0.87244755  0.36154920  1
  V  V49  1  0.37693129  0.62341998  0.75462869  1
  V  V50  1  0.37064619  0.37240316  0.49739198  1
  V  V51  1  0.00378713  0.50600070  -0.00014866  1
  V  V52  1  0.25801602  0.77017018  0.00115958  1
  V  V53  1  0.12256370  0.74852343  0.35390812  1
  V  V54  1  0.19095182  0.69253788  0.55193671  1
  V  V55  1  0.75445884  0.74696464  0.50074391  1
  V  V56  1  0.74845169  0.87158936  0.12675873  1
  V  V57  1  -0.00779683  0.24599830  0.75016285  1
  V  V58  1  0.37077157  0.25003230  0.62393624  1
  V  V59  1  0.25146487  0.12638982  0.37953493  1
  V  V60  1  0.49677355  0.86913161  0.88027725  1
  V  V61  1  0.18182341  0.94468910  0.18853824  1
  V  V62  1  0.24587358  0.37569030  0.62075656  1
  V  V63  1  0.73824867  0.74373385  -0.00391337  1
  V  V64  1  0.25314669  0.24418757  -0.00463151  1
  V  V65  1  0.37133859  0.00127325  0.87748650  1
  V  V66  1  0.73998758  0.62710551  0.86923585  1
  V  V67  1  0.51546055  0.50141686  0.00105305  1
  V  V68  1  0.49760100  0.12615579  0.62726950  1
  V  V69  1  0.87540848  0.87446117  -0.00150560  1
  V  V70  1  0.88551063  0.62191573  0.24995071  1
  V  V71  1  0.87462339  0.00526017  0.87237659  1
  V  V72  1  0.37363491  0.75361837  0.13044822  1
  V  V73  1  0.37199825  0.12204494  0.24830672  1
  V  V74  1  0.75090308  0.12416769  0.37284657  1
  V  V75  1  0.62599737  0.87086923  0.75650130  1
  V  V76  1  0.88369214  0.74822164  0.12720108  1
  V  V77  1  0.12828463  0.23922767  0.87294100  1
  V  V78  1  0.62329299  -0.00161296  0.12491779  1
  V  V79  1  0.37526466  0.74821255  0.62625962  1
  V  V80  1  0.62870098  0.62375070  0.50134654  1
  V  V81  1  0.50008201  0.25061586  0.24774190  1
  V  V82  1  0.87544944  0.24881875  0.11583715  1
  V  V83  1  0.75072461  0.25569383  0.50000771  1
  V  V84  1  0.88468308  0.62904762  0.74981025  1
  Zn  Zn85  1  0.49870938  0.12407688  0.12513339  1
  Zn  Zn86  1  0.74958134  0.00011041  0.24981050  1
  Zn  Zn87  1  0.38290636  0.37121198  -0.00267433  1
  Zn  Zn88  1  0.37456241  0.24698805  0.12260614  1
  Zn  Zn89  1  0.62070450  0.38211251  0.24369701  1
  Zn  Zn90  1  0.25348110  0.50171913  0.24714035  1
  Zn  Zn91  1  0.11541116  0.87340122  0.75190682  1
  Zn  Zn92  1  0.87569824  0.25267210  0.62388631  1
  Zn  Zn93  1  0.75045442  0.87435838  0.62590328  1
  Zn  Zn94  1  0.62246128  0.25031077  0.37394909  1
  Zn  Zn95  1  0.00220687  0.13122533  0.13662679  1
  Zn  Zn96  1  0.87251209  0.12369129  0.24373801  1
  Zn  Zn97  1  0.62433367  0.25643731  0.88040253  1
  Zn  Zn98  1  0.48900030  0.73967426  0.25575037  1
  Zn  Zn99  1  0.89758573  0.37501520  0.46120658  1
  Zn  Zn100  1  0.01477565  0.61840257  0.62200619  1
  Zn  Zn101  1  0.62248849  0.87256909  0.24909975  1
  Zn  Zn102  1  0.37064375  0.12785564  0.75427546  1
  Zn  Zn103  1  0.37699555  0.51106048  0.36911564  1
  Zn  Zn104  1  0.87510849  -0.00021804  0.37012442  1
  Zn  Zn105  1  -0.00262267  0.87444400  0.87064824  1
  Zn  Zn106  1  0.00751851  0.63007149  0.12532122  1
  Zn  Zn107  1  0.18949362  0.18756733  0.19195862  1
  Zn  Zn108  1  0.18522953  0.18987969  0.68634309  1
  Zn  Zn109  1  0.18966904  0.69234423  0.18007086  1
  Zn  Zn110  1  0.18832947  0.68792637  0.71487108  1
  Zn  Zn111  1  0.68788492  0.19156393  0.18411233  1
  Zn  Zn112  1  0.68606337  0.18964909  0.68862064  1
  Zn  Zn113  1  0.68911842  0.68533227  0.18701815  1
  Zn  Zn114  1  0.69316972  0.68772528  0.69002163  1
  Zn  Zn115  1  0.31285890  0.31389113  0.31074266  1
  Zn  Zn116  1  0.31157590  0.31110600  0.81290707  1
  Zn  Zn117  1  0.30244784  0.81464046  0.30608941  1
  Zn  Zn118  1  0.31190640  0.81489433  0.81455986  1
  Zn  Zn119  1  0.80148435  0.30962001  0.30489001  1
  Zn  Zn120  1  0.81040390  0.31523722  0.80960619  1
  Zn  Zn121  1  0.81543323  0.80806429  0.31080726  1
  Zn  Zn122  1  0.81322883  0.81275893  0.81208912  1
  Zn  Zn123  1  0.18190858  0.44560400  0.43727650  1
  Zn  Zn124  1  0.18871012  0.43328658  0.93782954  1
  Zn  Zn125  1  0.18486296  0.93461899  0.43410725  1
  Zn  Zn126  1  0.18469984  0.93981838  0.94061176  1
  Zn  Zn127  1  0.68630419  0.43775792  0.43681498  1
  Zn  Zn128  1  0.69059404  0.44143285  0.93457692  1
  Zn  Zn129  1  0.68785509  0.93719886  0.43772911  1
  Zn  Zn130  1  0.68555792  0.93781877  0.93859282  1
  Zn  Zn131  1  0.31036375  0.05960818  0.06297412  1
  Zn  Zn132  1  0.31242761  0.06096273  0.56170421  1
  Zn  Zn133  1  0.32173719  0.56354395  0.06973681  1
  Zn  Zn134  1  0.31544790  0.55514061  0.56404403  1
  Zn  Zn135  1  0.80974595  0.06197860  0.06040878  1
  Zn  Zn136  1  0.81105956  0.06169245  0.55983301  1
  Zn  Zn137  1  0.81358404  0.56152044  0.05975631  1
  Zn  Zn138  1  0.83034161  0.55433071  0.55692355  1
  Zn  Zn139  1  0.43359379  0.44227218  0.18666166  1
  Zn  Zn140  1  0.43872790  0.43665234  0.68838962  1
  Zn  Zn141  1  0.43274275  0.93255229  0.18829690  1
  Zn  Zn142  1  0.43571652  0.93638014  0.69195389  1
  Zn  Zn143  1  0.93524338  0.43906975  0.18654078  1
  Zn  Zn144  1  0.94118114  0.44331144  0.68249598  1
  Zn  Zn145  1  0.93521032  0.94070694  0.18642748  1
  Zn  Zn146  1  0.93576117  0.93542729  0.68815168  1
  Zn  Zn147  1  0.05726158  0.07130118  0.30988336  1
  Zn  Zn148  1  0.06012017  0.05937827  0.81378163  1
  Zn  Zn149  1  0.06772580  0.56009412  0.31542577  1
  Zn  Zn150  1  0.06394768  0.56566646  0.81507964  1
  Zn  Zn151  1  0.56178473  0.06174619  0.31200114  1
  Zn  Zn152  1  0.56089640  0.06224938  0.81431812  1
  Zn  Zn153  1  0.56453765  0.56201856  0.31005697  1
  Zn  Zn154  1  0.56172294  0.55802851  0.81529126  1
  Zn  Zn155  1  0.43656767  0.18986663  0.43769404  1
  Zn  Zn156  1  0.43766855  0.18127332  0.93825594  1
  Zn  Zn157  1  0.43609727  0.68767841  0.44025633  1
  Zn  Zn158  1  0.43742949  0.68182516  0.94390554  1
  Zn  Zn159  1  0.93419245  0.18869303  0.44372482  1
  Zn  Zn160  1  0.93837470  0.18629799  0.93761299  1
  Zn  Zn161  1  0.94576797  0.68149224  0.43573196  1
  Zn  Zn162  1  0.93256936  0.68579484  0.94287174  1
  Zn  Zn163  1  0.06234497  0.31542201  0.06124060  1
  Zn  Zn164  1  0.06335717  0.31478561  0.56274840  1
  Zn  Zn165  1  0.06774059  0.81655957  0.06072125  1
  Zn  Zn166  1  0.05740917  0.81737605  0.56205361  1
  Zn  Zn167  1  0.55791687  0.31393157  0.06175887  1
  Zn  Zn168  1  0.56185623  0.31320621  0.56598293  1
  Zn  Zn169  1  0.55767889  0.80846416  0.06473849  1
  Zn  Zn170  1  0.56341054  0.81160976  0.56413548  1
  O  O171  1  0.12047898  0.13681638  0.11404593  1
  O  O172  1  0.11953463  0.12074797  0.61755225  1
  O  O173  1  0.12551793  0.61052618  0.12865257  1
  O  O174  1  0.13530557  0.64141701  0.62232955  1
  O  O175  1  0.62457198  0.11638775  0.11794219  1
  O  O176  1  0.61820578  0.11884625  0.62024810  1
  O  O177  1  0.60775124  0.63449723  0.12474566  1
  O  O178  1  0.62464628  0.61786153  0.62236958  1
  O  O179  1  0.38420783  0.37254095  0.38362276  1
  O  O180  1  0.37157269  0.38809290  0.87454005  1
  O  O181  1  0.37773711  0.87793073  0.38179624  1
  O  O182  1  0.38743749  0.88584953  0.86817865  1
  O  O183  1  0.90270017  0.33063198  0.35260426  1
  O  O184  1  0.87714987  0.38363521  0.87736154  1
  O  O185  1  0.88121519  0.87119931  0.38476127  1
  O  O186  1  0.87146848  0.88471942  0.88370076  1
  O  O187  1  0.26261149  0.00604140  0.38316507  1
  O  O188  1  0.25806011  -0.00831365  0.86608738  1
  O  O189  1  0.24542000  0.52229129  0.37554576  1
  O  O190  1  0.25510367  0.50407241  0.86919110  1
  O  O191  1  0.74980373  0.00887481  0.37354922  1
  O  O192  1  0.75408078  0.00630349  0.86839808  1
  O  O193  1  0.74948394  0.50982441  0.37050658  1
  O  O194  1  0.75993583  0.51798557  0.88147374  1
  O  O195  1  0.24382551  0.49148614  0.12175994  1
  O  O196  1  0.25629636  0.49109280  0.64121720  1
  O  O197  1  0.24012005  1.00057207  0.12553000  1
  O  O198  1  0.24521126  0.99343972  0.63147754  1
  O  O199  1  0.75425585  0.49047818  0.12877704  1
  O  O200  1  0.74029428  0.49410751  0.61742273  1
  O  O201  1  0.74093275  0.98853512  0.12283401  1
  O  O202  1  0.74460794  0.99892407  0.63267920  1
  O  O203  1  0.01197246  0.36457994  0.24102865  1
  O  O204  1  0.00774247  0.36926353  0.75350008  1
  O  O205  1  -0.00949202  0.87608858  0.26309947  1
  O  O206  1  0.00119436  0.87937373  0.75685507  1
  O  O207  1  0.49985915  0.36931750  0.25624539  1
  O  O208  1  0.50984105  0.36508630  0.74305881  1
  O  O209  1  0.50016296  0.87003426  0.26505855  1
  O  O210  1  0.50662702  0.86857810  0.75745010  1
  O  O211  1  0.48992481  0.13199561  0.25234482  1
  O  O212  1  0.49895305  0.13278226  0.74205025  1
  O  O213  1  0.50005601  0.62290813  0.23798987  1
  O  O214  1  0.49660814  0.62918590  0.74698262  1
  O  O215  1  0.99065420  0.14967617  0.25498828  1
  O  O216  1  1.00742459  0.13318737  0.73989607  1
  O  O217  1  0.98884752  0.61611503  0.24693740  1
  O  O218  1  0.98943672  0.62314292  0.74634531  1
  O  O219  1  0.36813339  0.25007535  -0.00145854  1
  O  O220  1  0.37924727  0.26337388  0.50896768  1
  O  O221  1  0.36240475  0.74752697  0.00394502  1
  O  O222  1  0.37907269  0.76281080  0.50871720  1
  O  O223  1  0.87614119  0.26473124  -0.00266307  1
  O  O224  1  0.86567995  0.26077208  0.50342513  1
  O  O225  1  0.86609973  0.76070885  0.00386811  1
  O  O226  1  0.86991745  0.75432275  0.50347738  1
  O  O227  1  0.12631682  0.23781507  0.49749314  1
  O  O228  1  0.12988573  0.24452556  0.99130130  1
  O  O229  1  0.12932416  0.75036168  0.49742978  1
  O  O230  1  0.14376761  0.75280223  0.99426591  1
  O  O231  1  0.62996793  0.24281346  0.50107259  1
  O  O232  1  0.61644355  0.23620873  0.99816340  1
  O  O233  1  0.63298378  0.74457973  0.49321832  1
  O  O234  1  0.64023642  0.75433193  1.00050792  1
  O  O235  1  0.49496329  0.24683640  0.13338873  1
  O  O236  1  0.48870632  0.24655116  0.63189100  1
  O  O237  1  0.49216473  0.74021881  0.12831770  1
  O  O238  1  0.49599112  0.74342597  0.63356736  1
  O  O239  1  0.98312841  0.25277985  0.11640304  1
  O  O240  1  1.00087512  0.24221446  0.63285974  1
  O  O241  1  0.98764690  0.74821185  0.11232672  1
  O  O242  1  0.98846051  0.74298657  0.61833248  1
  O  O243  1  0.02000842  0.24041900  0.38122787  1
  O  O244  1  0.00637581  0.25458431  0.86787823  1
  O  O245  1  0.01498865  0.75602920  0.37786359  1
  O  O246  1  0.01568664  0.74757347  0.89186385  1
  O  O247  1  0.50045290  0.25848742  0.36863831  1
  O  O248  1  0.50018697  0.24574011  0.86292214  1
  O  O249  1  0.50775708  0.75401357  0.37616393  1
  O  O250  1  0.49298947  0.75572530  0.86901635  1
  O  O251  1  0.24410185  0.12142098  0.48995683  1
  O  O252  1  0.24255053  0.13594175  1.00236315  1
  O  O253  1  0.24972218  0.62844110  0.49936398  1
  O  O254  1  0.25270136  0.62245991  0.99239320  1
  O  O255  1  0.74461375  0.13594233  0.49678521  1
  O  O256  1  0.73689665  0.11694358  0.98891130  1
  O  O257  1  0.75068426  0.62928789  0.49266214  1
  O  O258  1  0.75592501  0.63747547  0.98982311  1
  O  O259  1  0.25011552  0.36092851  0.00581268  1
  O  O260  1  0.25771595  0.38397691  0.50960166  1
  O  O261  1  0.25733570  0.86834247  -0.00338348  1
  O  O262  1  0.25758961  0.88116046  0.51317111  1
  O  O263  1  0.75854850  0.38068950  0.00421347  1
  O  O264  1  0.74358191  0.36433620  0.50632339  1
  O  O265  1  0.75477236  0.86741140  0.00672624  1
  O  O266  1  0.75799488  0.86590880  0.49953761  1
  O  O267  1  0.12943756  0.48954528  0.24130533  1
  O  O268  1  0.13333096  0.48746672  0.75836969  1
  O  O269  1  0.12121485  1.00727116  0.24306733  1
  O  O270  1  0.13216455  0.99757587  0.74523616  1
  O  O271  1  0.64180172  0.50004229  0.25253634  1
  O  O272  1  0.61871757  0.49165355  0.73967613  1
  O  O273  1  0.62460053  0.99691402  0.23691558  1
  O  O274  1  0.62914149  0.99263066  0.74519906  1
  O  O275  1  0.38355665  0.00767818  0.26198127  1
  O  O276  1  0.36588864  0.00172864  0.75662389  1
  O  O277  1  0.36516817  0.49064351  0.25884178  1
  O  O278  1  0.37064216  0.50333684  0.75781957  1
  O  O279  1  0.86854336  0.00611081  0.25229173  1
  O  O280  1  0.86304074  -0.00253074  0.75856119  1
  O  O281  1  0.86326186  0.50852494  0.24620225  1
  O  O282  1  0.87817374  0.50670854  0.76267016  1
  O  O283  1  0.13596067  0.36674830  0.36445664  1
  O  O284  1  0.12027221  0.36498784  0.86757337  1
  O  O285  1  0.11808669  0.86057207  0.37820878  1
  O  O286  1  0.12254592  0.86301088  0.88014714  1
  O  O287  1  0.61068492  0.37437911  0.37378512  1
  O  O288  1  0.63108563  0.37487600  0.86153366  1
  O  O289  1  0.61668230  0.86642192  0.37705742  1
  O  O290  1  0.61554808  0.88100924  0.86387127  1
  O  O291  1  0.37635128  0.12405540  0.13599690  1
  O  O292  1  0.37861524  0.13375181  0.62501369  1
  O  O293  1  0.38870656  0.64002896  0.12050147  1
  O  O294  1  0.38056058  0.62907481  0.63141065  1
  O  O295  1  0.87320962  0.13587173  0.11983761  1
  O  O296  1  0.88735255  0.12768624  0.61884101  1
  O  O297  1  0.87656578  0.63208469  0.13063104  1
  O  O298  1  0.86724298  0.63283801  0.63559386  1
  O  O299  1  0.25104116  0.25542035  0.11666857  1
  O  O300  1  0.26303124  0.25846289  0.63143270  1
  O  O301  1  0.26146775  0.74738318  0.11129915  1
  O  O302  1  0.24979264  0.75243491  0.62218349  1
  O  O303  1  0.76166781  0.26129798  0.12557027  1
  O  O304  1  0.75103650  0.25664778  0.61815004  1
  O  O305  1  0.75627822  0.75310656  0.11343602  1
  O  O306  1  0.75506250  0.75092103  0.61130115  1
  O  O307  1  0.24304279  0.24140217  0.37578903  1
  O  O308  1  0.24062063  0.25212535  0.88149632  1
  O  O309  1  0.23731350  0.74343744  0.37259142  1
  O  O310  1  0.24989440  0.74383777  0.88724985  1
  O  O311  1  0.74256746  0.24469820  0.38302908  1
  O  O312  1  0.74780651  0.23564389  0.86694648  1
  O  O313  1  0.74428142  0.74413097  0.38431450  1
  O  O314  1  0.75478682  0.74095931  0.88642104  1
  O  O315  1  0.00834225  0.12033669  0.00161504  1
  O  O316  1  0.00777581  0.11970935  0.50697700  1
  O  O317  1  -0.00543899  0.60952869  0.00342112  1
  O  O318  1  -0.00827669  0.61000189  0.50710548  1
  O  O319  1  0.50807740  0.11280044  0.00199569  1
  O  O320  1  0.50312906  0.12019096  0.50641327  1
  O  O321  1  0.49889000  0.61132392  0.01018426  1
  O  O322  1  0.50705395  0.62054627  0.50689855  1
  O  O323  1  0.49408738  0.37967920  0.49453115  1
  O  O324  1  0.49809587  0.39379669  1.00737138  1
  O  O325  1  0.49381463  0.87726710  0.49189629  1
  O  O326  1  0.50717403  0.88044182  0.98865016  1
  O  O327  1  1.00488058  0.38624487  0.50256742  1
  O  O328  1  0.99279101  0.38274703  0.99104400  1
  O  O329  1  0.99229796  0.88237294  0.49281613  1
  O  O330  1  0.99058881  0.88350800  0.99700730  1
  O  O331  1  0.49941342  0.49456848  0.38219753  1
  O  O332  1  0.49202332  0.50631496  0.88964239  1
  O  O333  1  0.49289243  0.99145526  0.38180972  1
  O  O334  1  0.49458399  0.99131722  0.88214726  1
  O  O335  1  1.00743404  0.50195865  0.39010545  1
  O  O336  1  0.99509151  0.49534861  0.88034597  1
  O  O337  1  0.99973239  0.99392012  0.38125853  1
  O  O338  1  0.98836660  1.00259316  0.88546426  1
  O  O339  1  -0.00988148  0.00867477  0.11130728  1
  O  O340  1  0.00377346  0.00685615  0.61843696  1
  O  O341  1  0.00922198  0.49661928  0.11593753  1
  O  O342  1  0.00072130  0.50506448  0.61447838  1
  O  O343  1  0.50530601  -0.00258622  0.11825772  1
  O  O344  1  0.50232017  0.00460325  0.62129552  1
  O  O345  1  0.49704192  0.51096661  0.11673130  1
  O  O346  1  0.50815058  0.50527243  0.61954120  1
  O  O347  1  0.23949203  0.37017828  0.23935163  1
  O  O348  1  0.24374975  0.38054764  0.74584707  1
  O  O349  1  0.24477368  0.89283345  0.25191720  1
  O  O350  1  0.24986809  0.88181659  0.73743318  1
  O  O351  1  0.74667881  0.38366223  0.23904278  1
  O  O352  1  0.73740265  0.37028359  0.73974778  1
  O  O353  1  0.74801054  0.87194649  0.23675063  1
  O  O354  1  0.74192847  0.88367859  0.74979762  1
  O  O355  1  0.26337051  0.13007195  0.26345698  1
  O  O356  1  0.24939800  0.11182356  0.74461035  1
  O  O357  1  0.24873802  0.62701149  0.25875732  1
  O  O358  1  0.25870757  0.61392930  0.76154871  1
  O  O359  1  0.74791062  0.12646297  0.26026923  1
  O  O360  1  0.74131017  0.11270732  0.75717253  1
  O  O361  1  0.75712854  0.61918174  0.25552154  1
  O  O362  1  0.76110706  0.63109148  0.76449433  1
  O  O363  1  0.36984878  0.11674830  0.37409318  1
  O  O364  1  0.37966048  0.10727361  0.87128936  1
  O  O365  1  0.35724715  0.63105853  0.38117704  1
  O  O366  1  0.36793852  0.61504840  0.87175875  1
  O  O367  1  0.85947059  0.12619466  0.37932931  1
  O  O368  1  0.86491558  0.11327272  0.88232464  1
  O  O369  1  0.86590956  0.63635669  0.36329022  1
  O  O370  1  0.87151158  0.62134586  0.86829515  1
  O  O371  1  0.13452690  0.37955381  0.12940050  1
  O  O372  1  0.13969239  0.36524551  0.63571640  1
  O  O373  1  0.12543627  0.88015456  0.13190018  1
  O  O374  1  0.13126140  0.88160542  0.62526133  1
  O  O375  1  0.63802532  0.36930477  0.12361373  1
  O  O376  1  0.63269059  0.38232974  0.63097574  1
  O  O377  1  0.63067847  0.87914913  0.12594967  1
  O  O378  1  0.62542920  0.88220958  0.63383342  1
  O  O379  1  0.12230676  0.25652720  0.26182101  1
  O  O380  1  0.11929372  0.25750864  0.75661670  1
  O  O381  1  0.12209906  0.74968349  0.25483063  1
  O  O382  1  0.13070320  0.75840839  0.77593679  1
  O  O383  1  0.61073762  0.25101889  0.25094133  1
  O  O384  1  0.61513269  0.25822985  0.75021565  1
  O  O385  1  0.62630521  0.74964468  0.26484454  1
  O  O386  1  0.61994705  0.76089789  0.74449266  1
  O  O387  1  0.38477435  0.24206263  0.25098892  1
  O  O388  1  0.38152909  0.24927998  0.74383462  1
  O  O389  1  0.37101032  0.75250216  0.23653487  1
  O  O390  1  0.37968879  0.74390245  0.74516859  1
  O  O391  1  0.87539822  0.24785434  0.23465265  1
  O  O392  1  0.88907610  0.25228947  0.74969492  1
  O  O393  1  0.86862310  0.73846672  0.23639859  1
  O  O394  1  0.87043308  0.74417462  0.73873273  1
  O  O395  1  0.38262488  0.48889416  0.49668194  1
  O  O396  1  0.37760400  0.49642917  0.99237394  1
  O  O397  1  0.38106841  0.98837622  0.49589924  1
  O  O398  1  0.38618176  1.00271972  0.99456195  1
  O  O399  1  0.88664351  0.48339324  0.49465987  1
  O  O400  1  0.88218487  0.49164758  0.98971384  1
  O  O401  1  0.87976945  0.99061232  0.49688997  1
  O  O402  1  0.87669782  0.99042494  0.99382808  1
  O  O403  1  0.11464394  0.01324006  -0.00712705  1
  O  O404  1  0.12031804  0.00956416  0.50461914  1
  O  O405  1  0.11599607  0.49065881  0.00757983  1
  O  O406  1  0.11409396  0.50155658  0.50647496  1
  O  O407  1  0.61595448  0.00371813  0.00929398  1
  O  O408  1  0.61904152  0.00448282  0.50741294  1
  O  O409  1  0.61403788  0.50152737  -0.00431470  1
  O  O410  1  0.62037174  0.50564785  0.50807048  1
  O  O411  1  0.36162960  0.37171971  0.12222630  1
  O  O412  1  0.36706677  0.37014720  0.61953726  1
  O  O413  1  0.38829840  0.85400051  0.11909556  1
  O  O414  1  0.36799103  0.86887861  0.62053413  1
  O  O415  1  0.86774106  0.37103953  0.11367219  1
  O  O416  1  0.85900270  0.37529682  0.63607374  1
  O  O417  1  0.86736582  0.86849972  0.11805735  1
  O  O418  1  0.87364029  0.86682440  0.61249825  1
  O  O419  1  0.13543133  0.12922904  0.38182787  1
  O  O420  1  0.12008080  0.13614255  0.88148689  1
  O  O421  1  0.13396538  0.64067522  0.37125747  1
  O  O422  1  0.13620955  0.63704864  0.87217255  1
  O  O423  1  0.63267499  0.12411477  0.38355089  1
  O  O424  1  0.63109095  0.12465882  0.88301856  1
  O  O425  1  0.63383255  0.63059948  0.38186431  1
  O  O426  1  0.64105390  0.62436132  0.86672827  1
