# generated using pymatgen
data_V85Zn86O256
_symmetry_space_group_name_H-M   'P 1'
_cell_length_a   16.94207751
_cell_length_b   16.94805478
_cell_length_c   16.94093467
_cell_angle_alpha   89.98108206
_cell_angle_beta   89.95980480
_cell_angle_gamma   90.00722406
_symmetry_Int_Tables_number   1
_chemical_formula_structural   V85Zn86O256
_chemical_formula_sum   'V85 Zn86 O256'
_cell_volume   4864.33813996
_cell_formula_units_Z   1
loop_
 _symmetry_equiv_pos_site_id
 _symmetry_equiv_pos_as_xyz
  1  'x, y, z'
loop_
 _atom_site_type_symbol
 _atom_site_label
 _atom_site_symmetry_multiplicity
 _atom_site_fract_x
 _atom_site_fract_y
 _atom_site_fract_z
 _atom_site_occupancy
  V  V0  1  0.00022807  0.37637815  0.87298473  1
  V  V1  1  0.62565020  0.37438557  0.26179118  1
  V  V2  1  0.00168030  0.25020798  0.25374845  1
  V  V3  1  0.12590421  0.87501516  0.74951294  1
  V  V4  1  0.50007754  0.24841637  0.74275259  1
  V  V5  1  0.87325484  0.74458204  0.63243253  1
  V  V6  1  0.75429968  0.50597770  0.75015683  1
  V  V7  1  0.30550141  0.03629901  0.31749396  1
  V  V8  1  0.87484419  0.25094284  0.12746202  1
  V  V9  1  0.50524497  0.62536461  0.62818019  1
  V  V10  1  0.75036477  0.12056016  0.86857128  1
  V  V11  1  0.87672552  0.50904273  0.87205600  1
  V  V12  1  0.12041974  0.74796008  0.37740468  1
  V  V13  1  0.50408976  -0.01280757  0.00173330  1
  V  V14  1  0.87501800  0.37790892  0.00037570  1
  V  V15  1  -0.00229998  -0.00140242  -0.00150708  1
  V  V16  1  0.25639956  0.25190840  0.52048947  1
  V  V17  1  0.75116996  0.36969928  0.62770808  1
  V  V18  1  0.25079740  -0.00188255  0.75063391  1
  V  V19  1  0.38019780  0.87449209  -0.00281805  1
  V  V20  1  0.00179628  0.12376933  0.13021454  1
  V  V21  1  0.50243737  0.49885571  0.49407284  1
  V  V22  1  0.88261466  0.00035606  0.38037034  1
  V  V23  1  0.25644326  0.75732306  0.49594100  1
  V  V24  1  0.50006049  0.76111080  0.25654220  1
  V  V25  1  0.38253792  -0.00515200  0.87727539  1
  V  V26  1  0.24867830  0.37461906  0.12526908  1
  V  V27  1  0.62504146  0.25055391  0.87426296  1
  V  V28  1  0.61794077  0.75462809  0.38797526  1
  V  V29  1  0.37813180  0.24829785  0.12816288  1
  V  V30  1  0.50014158  0.12401022  0.61679309  1
  V  V31  1  0.24970617  0.74883846  0.00012597  1
  V  V32  1  0.37596991  0.12713051  0.74564249  1
  V  V33  1  0.13293459  0.12159596  0.49595983  1
  V  V34  1  -0.00120630  0.73866465  0.75271461  1
  V  V35  1  0.37627979  0.62901186  0.25179798  1
  V  V36  1  0.64187385  0.87353389  0.25847697  1
  V  V37  1  0.62060519  0.76732744  0.86864753  1
  V  V38  1  -0.00867844  0.62976980  0.12857516  1
  V  V39  1  0.38147703  0.75137839  0.12597693  1
  V  V40  1  0.12580633  0.37513500  0.25016928  1
  V  V41  1  0.75252208  0.87733579  0.64848679  1
  V  V42  1  0.87399387  0.11955534  0.74699095  1
  V  V43  1  0.25281709  0.62477959  0.87661254  1
  V  V44  1  0.49956574  0.25252997  0.26213614  1
  V  V45  1  0.62861889  0.50458630  0.62495826  1
  V  V46  1  0.37056001  0.49996394  0.87308703  1
  V  V47  1  0.74976313  0.75130104  0.49617012  1
  V  V48  1  0.74454308  0.24364776  0.48665493  1
  V  V49  1  0.49253816  0.76190403  0.75346755  1
  V  V50  1  0.00032874  0.38149587  0.37442497  1
  V  V51  1  0.87865851  0.37783644  0.50049216  1
  V  V52  1  0.75193239  0.25005502  -0.00056939  1
  V  V53  1  0.37428937  0.37277742  -0.00164487  1
  V  V54  1  0.87728342  0.12220467  0.25973866  1
  V  V55  1  0.62962994  -0.00273907  0.63683766  1
  V  V56  1  0.62817148  0.49679860  0.12650754  1
  V  V57  1  0.25127459  0.50065023  0.25004136  1
  V  V58  1  -0.00105958  0.87481892  0.87509299  1
  V  V59  1  0.00049966  0.12235329  0.61782854  1
  V  V60  1  0.24418867  0.62507296  0.37560918  1
  V  V61  1  0.87919702  0.87810226  0.50261965  1
  V  V62  1  0.12539843  0.25114435  0.87448015  1
  V  V63  1  0.00160817  0.87984527  0.37914713  1
  V  V64  1  0.37909559  0.49009962  0.37123025  1
  V  V65  1  0.00069303  0.25179013  0.74583853  1
  V  V66  1  0.49223657  -0.02252420  0.49698865  1
  V  V67  1  0.37767239  0.37054207  0.51087028  1
  V  V68  1  0.85416139  0.62471683  0.25544576  1
  V  V69  1  0.49939365  0.37223132  0.87400563  1
  V  V70  1  0.62663474  0.12469451  0.00038645  1
  V  V71  1  0.13852340  0.38209220  0.74150928  1
  V  V72  1  0.00697372  0.62261154  0.61575685  1
  V  V73  1  0.50090643  0.12475929  0.12562908  1
  V  V74  1  0.68685470  0.58229034  0.44393842  1
  V  V75  1  0.13861208  0.25252237  0.37763058  1
  V  V76  1  0.33796561  0.59141526  0.71204220  1
  V  V77  1  0.25032885  0.12263279  0.87708779  1
  V  V78  1  0.12705463  0.12584931  0.00066331  1
  V  V79  1  0.64157747  -0.00103534  0.12725563  1
  V  V80  1  0.12254725  -0.00254144  0.61788923  1
  V  V81  1  0.69720666  0.05942371  0.31413090  1
  V  V82  1  0.62259149  0.62191422  -0.00901616  1
  V  V83  1  0.24858758  0.87743876  0.12438713  1
  V  V84  1  0.12304280  0.87431817  0.24641129  1
  Zn  Zn85  1  0.50005176  0.62435161  0.12519188  1
  Zn  Zn86  1  0.25400739  0.87888060  0.61667655  1
  Zn  Zn87  1  0.12808786  0.00116342  0.12630157  1
  Zn  Zn88  1  0.86408854  0.87157626  0.01532936  1
  Zn  Zn89  1  0.74886071  0.62549620  0.87384617  1
  Zn  Zn90  1  0.24885719  0.24801544  0.00244625  1
  Zn  Zn91  1  0.87489849  0.24824383  0.62121064  1
  Zn  Zn92  1  0.38377386  0.76003800  0.61404272  1
  Zn  Zn93  1  -0.01691524  0.75380435  0.24645322  1
  Zn  Zn94  1  0.75022149  0.75230158  0.00723368  1
  Zn  Zn95  1  0.01852101  0.50371251  0.49898057  1
  Zn  Zn96  1  0.12236632  0.50303048  0.12308700  1
  Zn  Zn97  1  0.12281143  0.62305095  0.00332520  1
  Zn  Zn98  1  0.62648135  0.37451893  0.74989294  1
  Zn  Zn99  1  0.62592355  0.12129690  0.49279726  1
  Zn  Zn100  1  0.75295069  0.37894086  0.13342895  1
  Zn  Zn101  1  0.87107832  0.00103811  0.87288376  1
  Zn  Zn102  1  0.15839561  0.50997646  0.62599045  1
  Zn  Zn103  1  0.86349330  0.50538317  0.37451393  1
  Zn  Zn104  1  0.00144422  0.50269192  0.00152810  1
  Zn  Zn105  1  0.49906680  0.49932876  0.00104062  1
  Zn  Zn106  1  0.12708269  0.74832832  0.87544853  1
  Zn  Zn107  1  0.19218802  0.18363389  0.19531624  1
  Zn  Zn108  1  0.18559255  0.18514021  0.68899866  1
  Zn  Zn109  1  0.18276325  0.69007963  0.18773197  1
  Zn  Zn110  1  0.18452571  0.69337137  0.68306756  1
  Zn  Zn111  1  0.68436924  0.19547623  0.18666274  1
  Zn  Zn112  1  0.68515119  0.18545432  0.68480475  1
  Zn  Zn113  1  0.67750855  0.68140013  0.19235667  1
  Zn  Zn114  1  0.68615025  0.69062308  0.69182943  1
  Zn  Zn115  1  0.31680865  0.31104209  0.31268812  1
  Zn  Zn116  1  0.31280349  0.30743511  0.81208639  1
  Zn  Zn117  1  0.31255439  0.82668628  0.31434078  1
  Zn  Zn118  1  0.31727966  0.81066375  0.80719592  1
  Zn  Zn119  1  0.81381353  0.31540146  0.31313535  1
  Zn  Zn120  1  0.81472022  0.31192986  0.81170419  1
  Zn  Zn121  1  0.80495573  0.80522846  0.17661840  1
  Zn  Zn122  1  0.82218802  0.79995412  0.83859991  1
  Zn  Zn123  1  0.19112981  0.43710061  0.44356886  1
  Zn  Zn124  1  0.18641332  0.43926440  0.93711867  1
  Zn  Zn125  1  0.20716260  0.93844072  0.42325531  1
  Zn  Zn126  1  0.18748105  0.93756349  0.93929735  1
  Zn  Zn127  1  0.68455124  0.41672839  0.44040086  1
  Zn  Zn128  1  0.68892551  0.43811008  0.93818382  1
  Zn  Zn129  1  0.68370641  0.93257982  0.45174219  1
  Zn  Zn130  1  0.68962519  0.93706875  0.93653508  1
  Zn  Zn131  1  0.31620357  0.05938209  0.14801420  1
  Zn  Zn132  1  0.31283304  0.06212609  0.56316304  1
  Zn  Zn133  1  0.31442824  0.56210680  0.06299457  1
  Zn  Zn134  1  0.31777647  0.56864112  0.54466497  1
  Zn  Zn135  1  0.81718759  0.06426869  0.06192788  1
  Zn  Zn136  1  0.81034290  0.06136010  0.56277167  1
  Zn  Zn137  1  0.80880564  0.56510502  0.06254165  1
  Zn  Zn138  1  0.82499481  0.55906144  0.57007880  1
  Zn  Zn139  1  0.44204632  0.43509368  0.18708396  1
  Zn  Zn140  1  0.44167315  0.43497611  0.68490748  1
  Zn  Zn141  1  0.44473031  0.93278801  0.18671775  1
  Zn  Zn142  1  0.43595095  0.93975726  0.68091869  1
  Zn  Zn143  1  0.93447845  0.44668805  0.18927509  1
  Zn  Zn144  1  0.93876993  0.43798479  0.68813502  1
  Zn  Zn145  1  0.93611128  0.93997511  0.19327473  1
  Zn  Zn146  1  0.94047574  0.93545102  0.68828329  1
  Zn  Zn147  1  0.09045033  0.05207175  0.32593640  1
  Zn  Zn148  1  0.06158289  0.06252113  0.81030522  1
  Zn  Zn149  1  0.06071847  0.56376038  0.30560140  1
  Zn  Zn150  1  0.06830016  0.55986718  0.81151450  1
  Zn  Zn151  1  0.51714583  0.06671422  0.32001475  1
  Zn  Zn152  1  0.56147036  0.06225801  0.81346746  1
  Zn  Zn153  1  0.55874351  0.56186983  0.30558593  1
  Zn  Zn154  1  0.55681001  0.55869104  0.80750087  1
  Zn  Zn155  1  0.42127784  0.17354250  0.43621729  1
  Zn  Zn156  1  0.43794366  0.18385719  0.93899428  1
  Zn  Zn157  1  0.43831964  0.68119228  0.43761346  1
  Zn  Zn158  1  0.43992193  0.68591808  0.93639831  1
  Zn  Zn159  1  0.94145815  0.19316406  0.43886048  1
  Zn  Zn160  1  0.93847702  0.18763300  0.93636994  1
  Zn  Zn161  1  0.93170898  0.69067545  0.43481116  1
  Zn  Zn162  1  0.93702483  0.68976578  0.94359576  1
  Zn  Zn163  1  0.06048081  0.31287497  0.06263693  1
  Zn  Zn164  1  0.06635414  0.31506957  0.56234409  1
  Zn  Zn165  1  0.05894686  0.80863432  0.06085192  1
  Zn  Zn166  1  0.06468726  0.80863455  0.56035100  1
  Zn  Zn167  1  0.56310405  0.31440116  0.06350611  1
  Zn  Zn168  1  0.56438191  0.31320033  0.55894050  1
  Zn  Zn169  1  0.59897715  0.80270717  0.07833696  1
  Zn  Zn170  1  0.56896556  0.81461950  0.57291734  1
  O  O171  1  0.11775888  0.12662342  0.11897928  1
  O  O172  1  0.12006825  0.11908676  0.61670210  1
  O  O173  1  0.11294008  0.62372732  0.12576923  1
  O  O174  1  0.11022539  0.62448335  0.62820944  1
  O  O175  1  0.62017409  0.11939203  0.12148472  1
  O  O176  1  0.61894469  0.11476886  0.62198032  1
  O  O177  1  0.62005188  0.61052006  0.11864280  1
  O  O178  1  0.62169069  0.61282286  0.62838554  1
  O  O179  1  0.37151658  0.38662677  0.38100613  1
  O  O180  1  0.37659762  0.37815345  0.88095329  1
  O  O181  1  0.31209610  0.93373525  0.35705378  1
  O  O182  1  0.37175079  0.88788516  0.87822039  1
  O  O183  1  0.88345329  0.38074746  0.38036553  1
  O  O184  1  0.88202938  0.37904751  0.88215423  1
  O  O185  1  0.88584029  0.88544434  0.38594058  1
  O  O186  1  0.89464411  0.88720144  0.86201530  1
  O  O187  1  0.20736761  0.03705082  0.36526956  1
  O  O188  1  0.25688201  0.00503260  0.87059225  1
  O  O189  1  0.25573217  0.50705606  0.36953278  1
  O  O190  1  0.26207626  0.50575485  0.87673151  1
  O  O191  1  0.75422796  0.00308775  0.37819867  1
  O  O192  1  0.74944151  0.01669198  0.87649571  1
  O  O193  1  0.74120950  0.50879451  0.39353191  1
  O  O194  1  0.75815564  0.49792457  0.86617824  1
  O  O195  1  0.25297374  0.48713836  0.13054596  1
  O  O196  1  0.27137436  0.53768666  0.64366554  1
  O  O197  1  0.24466605  0.98125380  0.10667563  1
  O  O198  1  0.23937061  1.00086813  0.63329081  1
  O  O199  1  0.73365119  0.49613995  0.12072663  1
  O  O200  1  0.74824114  0.49076025  0.63004819  1
  O  O201  1  0.74071077  1.00789176  0.12524631  1
  O  O202  1  0.73939459  0.99311869  0.62405816  1
  O  O203  1  0.00513807  0.37171425  0.25589058  1
  O  O204  1  0.00688744  0.36731917  0.75278275  1
  O  O205  1  0.00443980  0.86984883  0.26109310  1
  O  O206  1  0.01221235  0.86876139  0.75326597  1
  O  O207  1  0.50682290  0.36041525  0.24814114  1
  O  O208  1  0.50079552  0.36434440  0.75483913  1
  O  O209  1  0.50509264  0.86500008  0.25660809  1
  O  O210  1  0.49461239  0.86023898  0.74824957  1
  O  O211  1  0.50401337  0.13711238  0.23517983  1
  O  O212  1  0.49463191  0.13021661  0.74209953  1
  O  O213  1  0.49173833  0.63778477  0.24918333  1
  O  O214  1  0.49147146  0.61975904  0.73372988  1
  O  O215  1  0.99536570  0.12932362  0.24469705  1
  O  O216  1  0.99804399  0.13344705  0.73989906  1
  O  O217  1  0.99449321  0.62975064  0.23917401  1
  O  O218  1  1.00608697  0.63558345  0.74520535  1
  O  O219  1  0.37351816  0.25998947  0.00409011  1
  O  O220  1  0.36356717  0.25379083  0.49538722  1
  O  O221  1  0.37269959  0.75600930  0.00394822  1
  O  O222  1  0.36086993  0.74902023  0.49282068  1
  O  O223  1  0.87271617  0.25563579  0.00649625  1
  O  O224  1  0.86760384  0.26079117  0.50062594  1
  O  O225  1  0.85727409  0.76525025  -0.04282048  1
  O  O226  1  0.86807308  0.75702943  0.50991271  1
  O  O227  1  0.14020108  0.24852400  0.49729625  1
  O  O228  1  0.12281376  0.24322248  0.99272731  1
  O  O229  1  0.13386720  0.75250822  0.48414996  1
  O  O230  1  0.13686898  0.74700615  0.99608770  1
  O  O231  1  0.63955834  0.24822588  0.49957808  1
  O  O232  1  0.63085846  0.24490720  0.99501430  1
  O  O233  1  0.63129750  0.75223061  0.49901856  1
  O  O234  1  0.61724616  0.74046043  0.98036474  1
  O  O235  1  0.49482848  0.24447196  0.12863801  1
  O  O236  1  0.50843629  0.24285148  0.63611022  1
  O  O237  1  0.49891975  0.75079872  0.13721903  1
  O  O238  1  0.50385916  0.74175061  0.63648093  1
  O  O239  1  0.99536387  0.24014349  0.13103286  1
  O  O240  1  1.00071550  0.24348347  0.63126464  1
  O  O241  1  0.99930071  0.73482625  0.12528043  1
  O  O242  1  0.99571233  0.74130034  0.63109954  1
  O  O243  1  0.00738335  0.26528765  0.37150217  1
  O  O244  1  0.00553727  0.25508278  0.86638578  1
  O  O245  1  0.00536958  0.76049060  0.37565600  1
  O  O246  1  0.00518098  0.75695665  0.86769614  1
  O  O247  1  0.48898261  0.23523222  0.35943815  1
  O  O248  1  0.50475811  0.25154535  0.86622251  1
  O  O249  1  0.50957717  0.74488123  0.37350608  1
  O  O250  1  0.50671993  0.74421892  0.86180981  1
  O  O251  1  0.24443384  0.13879235  0.50561737  1
  O  O252  1  0.23294409  0.12614317  0.99747841  1
  O  O253  1  0.25055664  0.63596790  0.48108549  1
  O  O254  1  0.25130815  0.63228721  0.99494976  1
  O  O255  1  0.74953421  0.14033907  0.50390649  1
  O  O256  1  0.74712517  0.13207482  0.99273915  1
  O  O257  1  0.75129944  0.63077260  0.51185540  1
  O  O258  1  0.73763468  0.63025510  0.99657487  1
  O  O259  1  0.25582966  0.37110951  0.00817727  1
  O  O260  1  0.26061959  0.35830908  0.49673083  1
  O  O261  1  0.25600293  0.86476578  0.00187641  1
  O  O262  1  0.24574243  0.86106247  0.49799317  1
  O  O263  1  0.76275353  0.36804985  -0.00103392  1
  O  O264  1  0.75811630  0.36411210  0.50834999  1
  O  O265  1  0.74905518  0.86982948  -0.00049008  1
  O  O266  1  0.76235471  0.86699919  0.50995511  1
  O  O267  1  0.13450084  0.49165189  0.24727871  1
  O  O268  1  0.12669037  0.48688801  0.74252554  1
  O  O269  1  0.11579892  0.98066096  0.24116125  1
  O  O270  1  0.12950682  0.99400193  0.74284971  1
  O  O271  1  0.61655693  0.48502788  0.24016505  1
  O  O272  1  0.63178446  0.49433272  0.74081441  1
  O  O273  1  0.63412518  0.99953284  0.25312136  1
  O  O274  1  0.62241403  1.00500797  0.73627009  1
  O  O275  1  0.37333683  0.00619741  0.23482703  1
  O  O276  1  0.37407546  0.00985099  0.75831060  1
  O  O277  1  0.37218988  0.50416429  0.25461241  1
  O  O278  1  0.37861229  0.50207974  0.75760930  1
  O  O279  1  0.87760238  0.00936408  0.26746944  1
  O  O280  1  0.88392762  0.01658016  0.74955849  1
  O  O281  1  0.87434737  0.51499916  0.25703723  1
  O  O282  1  0.86636641  0.49140145  0.76027149  1
  O  O283  1  0.12156603  0.36870680  0.37060833  1
  O  O284  1  0.11910118  0.37077173  0.86605740  1
  O  O285  1  0.12037521  0.86983314  0.36759687  1
  O  O286  1  0.11625893  0.87610634  0.86736760  1
  O  O287  1  0.61681116  0.37618146  0.36068071  1
  O  O288  1  0.61841362  0.36790698  0.87495762  1
  O  O289  1  0.63012953  0.86414438  0.37365261  1
  O  O290  1  0.62149397  0.86558179  0.87165737  1
  O  O291  1  0.38614237  0.14111093  0.11143305  1
  O  O292  1  0.38524314  0.12071199  0.63626782  1
  O  O293  1  0.37625173  0.63288072  0.13304999  1
  O  O294  1  0.38504618  0.63521669  0.62074721  1
  O  O295  1  0.88162190  0.12882471  0.13825730  1
  O  O296  1  0.88291370  0.12666170  0.62900587  1
  O  O297  1  0.88251281  0.61801259  0.13411806  1
  O  O298  1  0.88491555  0.63936061  0.62718691  1
  O  O299  1  0.25895496  0.25889444  0.12751739  1
  O  O300  1  0.25219504  0.24939307  0.61882834  1
  O  O301  1  0.25780192  0.75378133  0.11434348  1
  O  O302  1  0.24734882  0.74620805  0.60279502  1
  O  O303  1  0.75797732  0.25217038  0.11769907  1
  O  O304  1  0.75104851  0.26087433  0.62238002  1
  O  O305  1  0.71441247  0.75908144  0.11984124  1
  O  O306  1  0.75674961  0.75692922  0.62532296  1
  O  O307  1  0.24033962  0.24836043  0.37323096  1
  O  O308  1  0.24330349  0.24034062  0.87833219  1
  O  O309  1  0.24506644  0.74640355  0.37889768  1
  O  O310  1  0.25468385  0.74333535  0.88590640  1
  O  O311  1  0.75201872  0.25285195  0.38822123  1
  O  O312  1  0.74583488  0.24311031  0.87987685  1
  O  O313  1  0.73704367  0.74188802  0.39628217  1
  O  O314  1  0.72457585  0.74149507  0.85993002  1
  O  O315  1  0.00713770  0.12094886  0.00680460  1
  O  O316  1  0.00756266  0.13245874  0.51420187  1
  O  O317  1  -0.00140732  0.62457970  0.01172023  1
  O  O318  1  -0.00410234  0.62620109  0.51258580  1
  O  O319  1  0.50921774  0.12043621  0.00884175  1
  O  O320  1  0.50128373  0.13079219  0.51067974  1
  O  O321  1  0.50783205  0.62065801  0.00324996  1
  O  O322  1  0.49524955  0.60984780  0.51222585  1
  O  O323  1  0.49591149  0.38753198  0.50216270  1
  O  O324  1  0.49064894  0.37317321  0.99179134  1
  O  O325  1  0.49687696  0.87826542  0.51086564  1
  O  O326  1  0.50275953  0.88501875  1.00919921  1
  O  O327  1  0.99413203  0.37484406  0.49333717  1
  O  O328  1  0.98873493  0.37500978  0.99465108  1
  O  O329  1  0.98782340  0.86931680  0.49715988  1
  O  O330  1  0.99999874  0.88300739  0.99155724  1
  O  O331  1  0.49110216  0.50619455  0.38205184  1
  O  O332  1  0.48715763  0.49051030  0.87554778  1
  O  O333  1  0.50204165  0.99029728  0.39615548  1
  O  O334  1  0.49376848  1.00678602  0.88736145  1
  O  O335  1  1.00663681  0.48909785  0.37831556  1
  O  O336  1  0.99349086  0.49378553  0.87391432  1
  O  O337  1  0.99829325  0.98827643  0.37664712  1
  O  O338  1  1.00189683  0.99582824  0.88335350  1
  O  O339  1  -0.00015198  0.01310723  0.11884482  1
  O  O340  1  0.01339035  0.00786557  0.62903876  1
  O  O341  1  0.00190114  0.51259809  0.12353995  1
  O  O342  1  -0.00980045  0.51925774  0.62495541  1
  O  O343  1  0.50704597  0.01030943  0.11908414  1
  O  O344  1  0.51109649  0.00621487  0.62169204  1
  O  O345  1  0.51053891  0.49922223  0.12136749  1
  O  O346  1  0.51183494  0.50327413  0.61830796  1
  O  O347  1  0.24737502  0.37838148  0.24303157  1
  O  O348  1  0.23637543  0.36875612  0.75419487  1
  O  O349  1  0.23825401  0.86401649  0.23172693  1
  O  O350  1  0.23694051  0.87886767  0.75456159  1
  O  O351  1  0.73180704  0.36664022  0.25042526  1
  O  O352  1  0.74935420  0.37991515  0.74192474  1
  O  O353  1  0.74014400  0.87103830  0.25316218  1
  O  O354  1  0.76422778  0.87014337  0.74593905  1
  O  O355  1  0.25829136  0.10346582  0.23916245  1
  O  O356  1  0.25775604  0.11934801  0.75492721  1
  O  O357  1  0.25640299  0.62268622  0.25627369  1
  O  O358  1  0.25622562  0.64106541  0.76082698  1
  O  O359  1  0.75350883  0.12667332  0.25706992  1
  O  O360  1  0.76181686  0.13563444  0.75645497  1
  O  O361  1  0.75496756  0.62056731  0.24904431  1
  O  O362  1  0.74802893  0.60918721  0.74850986  1
  O  O363  1  0.36769681  0.09742909  0.36923701  1
  O  O364  1  0.36975939  0.11455881  0.87228109  1
  O  O365  1  0.36748518  0.61433217  0.36860211  1
  O  O366  1  0.36546494  0.61405748  0.87859471  1
  O  O367  1  0.88535418  0.12118337  0.36733794  1
  O  O368  1  0.86833824  0.12629364  0.86611112  1
  O  O369  1  0.87514959  0.62355471  0.36187266  1
  O  O370  1  0.87357669  0.61120720  0.87727513  1
  O  O371  1  0.13408938  0.37233191  0.13094795  1
  O  O372  1  0.12728627  0.37205492  0.64017995  1
  O  O373  1  0.13006003  0.87086132  0.12879931  1
  O  O374  1  0.12757761  0.88161742  0.63028777  1
  O  O375  1  0.62664318  0.38334212  0.13020656  1
  O  O376  1  0.63496525  0.38643188  0.62231888  1
  O  O377  1  0.61480098  0.89364319  0.14634971  1
  O  O378  1  0.63762132  0.88702472  0.63051318  1
  O  O379  1  0.12131139  0.25322629  0.25850581  1
  O  O380  1  0.11631323  0.25402350  0.75469483  1
  O  O381  1  0.12112190  0.75900897  0.26007854  1
  O  O382  1  0.11852952  0.75941562  0.75199713  1
  O  O383  1  0.61065027  0.26124742  0.24613205  1
  O  O384  1  0.61717057  0.25107609  0.75644170  1
  O  O385  1  0.61799562  0.75725381  0.26424395  1
  O  O386  1  0.60690560  0.74145480  0.76002015  1
  O  O387  1  0.38710742  0.25578430  0.23922070  1
  O  O388  1  0.38455181  0.23592256  0.75727294  1
  O  O389  1  0.38118283  0.75232377  0.25084332  1
  O  O390  1  0.38848103  0.73969878  0.75051272  1
  O  O391  1  0.88135631  0.24410032  0.24787169  1
  O  O392  1  0.88823656  0.24357367  0.74776255  1
  O  O393  1  0.86796560  0.73135249  0.24528242  1
  O  O394  1  0.88804732  0.75567273  0.74486957  1
  O  O395  1  0.38289038  0.49061703  0.49082365  1
  O  O396  1  0.37495085  0.48683037  0.99416495  1
  O  O397  1  0.39434124  1.00125396  0.51367347  1
  O  O398  1  0.38730869  0.99123966  0.99294245  1
  O  O399  1  0.87836430  0.48701015  0.49666433  1
  O  O400  1  0.87404404  0.49177763  0.99211431  1
  O  O401  1  0.87116091  0.99450562  0.49034657  1
  O  O402  1  0.88774047  1.00149307  0.99604877  1
  O  O403  1  0.11345460  0.00794401  0.00154616  1
  O  O404  1  0.13535488  0.00912855  0.50878812  1
  O  O405  1  0.12116334  0.50257460  0.00371625  1
  O  O406  1  0.13043818  0.49140989  0.51797278  1
  O  O407  1  0.62170298  0.00583937  0.00899834  1
  O  O408  1  0.61345686  0.00125245  0.51275283  1
  O  O409  1  0.62267862  0.50350666  0.00775488  1
  O  O410  1  0.62456700  0.50552098  0.50164290  1
  O  O411  1  0.37068987  0.36769086  0.11722716  1
  O  O412  1  0.37718712  0.37785597  0.61057393  1
  O  O413  1  0.36841510  0.86854459  0.11791328  1
  O  O414  1  0.36337059  0.86799082  0.63893538  1
  O  O415  1  0.87461382  0.37129505  0.11880222  1
  O  O416  1  0.86936524  0.37316592  0.61777189  1
  O  O417  1  0.88278102  0.86933490  0.12745596  1
  O  O418  1  0.87267088  0.86890900  0.62111994  1
  O  O419  1  0.10225110  0.14383849  0.39454706  1
  O  O420  1  0.12814140  0.12995214  0.88081283  1
  O  O421  1  0.13293208  0.63422212  0.36481936  1
  O  O422  1  0.14130178  0.62423172  0.87553098  1
  O  O423  1  0.62781821  0.10978265  0.36866438  1
  O  O424  1  0.63179826  0.13176582  0.87849161  1
  O  O425  1  0.62312231  0.63045562  0.37692914  1
  O  O426  1  0.62255109  0.61407629  0.88422173  1
