# generated using pymatgen
data_V85Zn86O256
_symmetry_space_group_name_H-M   'P 1'
_cell_length_a   16.94331153
_cell_length_b   16.94134407
_cell_length_c   16.94707343
_cell_angle_alpha   90.03491013
_cell_angle_beta   90.05523581
_cell_angle_gamma   90.14600449
_symmetry_Int_Tables_number   1
_chemical_formula_structural   V85Zn86O256
_chemical_formula_sum   'V85 Zn86 O256'
_cell_volume   4864.51085563
_cell_formula_units_Z   1
loop_
 _symmetry_equiv_pos_site_id
 _symmetry_equiv_pos_as_xyz
  1  'x, y, z'
loop_
 _atom_site_type_symbol
 _atom_site_label
 _atom_site_symmetry_multiplicity
 _atom_site_fract_x
 _atom_site_fract_y
 _atom_site_fract_z
 _atom_site_occupancy
  V  V0  1  0.24843084  0.24726412  -0.00270627  1
  V  V1  1  0.37436123  0.24922030  0.12311996  1
  V  V2  1  0.37119650  0.37073689  0.50084452  1
  V  V3  1  0.24963527  0.62281922  0.87735412  1
  V  V4  1  0.12088606  0.87972408  0.74752512  1
  V  V5  1  0.63687873  -0.00101025  0.62359350  1
  V  V6  1  0.25161140  0.75146017  0.00321417  1
  V  V7  1  0.75217568  0.11671935  0.37029575  1
  V  V8  1  0.74653078  0.24743037  0.00116272  1
  V  V9  1  0.11870373  0.49497835  0.12122907  1
  V  V10  1  0.87740836  0.24921887  0.12581709  1
  V  V11  1  0.74922184  0.12533431  0.86670888  1
  V  V12  1  0.63099472  0.00293968  0.12939870  1
  V  V13  1  0.12297069  0.75152048  0.87492800  1
  V  V14  1  0.12319846  0.25167179  0.87060041  1
  V  V15  1  0.24510417  0.49480310  0.24832911  1
  V  V16  1  -0.04432508  0.72735438  0.29235275  1
  V  V17  1  0.25014112  -0.00150403  0.74802275  1
  V  V18  1  0.75562631  0.25732967  0.49743457  1
  V  V19  1  0.49844816  0.37360056  0.37529771  1
  V  V20  1  0.50498149  0.12581666  0.11862108  1
  V  V21  1  0.87618355  0.11264469  0.24737057  1
  V  V22  1  0.37502057  0.49756029  0.87482924  1
  V  V23  1  0.00247963  0.12160127  0.61182686  1
  V  V24  1  0.88084368  0.50712117  0.88932713  1
  V  V25  1  -0.00264349  0.11100279  0.11521402  1
  V  V26  1  0.24580232  0.87486062  0.62401196  1
  V  V27  1  0.62831185  0.49748007  0.12768294  1
  V  V28  1  -0.00791231  0.39834555  0.37574196  1
  V  V29  1  0.23441017  0.12467881  0.36997513  1
  V  V30  1  0.75218275  0.75324959  -0.00339079  1
  V  V31  1  -0.00574334  0.75043449  0.74687373  1
  V  V32  1  0.37786271  0.12323706  0.74367617  1
  V  V33  1  0.49901992  0.50138253  0.50526989  1
  V  V34  1  0.62488169  0.24464577  0.87627010  1
  V  V35  1  0.11840153  0.62236616  -0.00296217  1
  V  V36  1  0.38075000  0.62988032  0.75125625  1
  V  V37  1  0.50960858  0.37628654  0.87027834  1
  V  V38  1  0.75646790  0.88085551  0.13032107  1
  V  V39  1  0.86586520  0.62565886  0.75502501  1
  V  V40  1  0.87810804  -0.00524381  0.38121973  1
  V  V41  1  0.85566187  0.75089821  0.62714002  1
  V  V42  1  0.00119766  0.86968531  0.39185414  1
  V  V43  1  0.50783969  0.00090378  -0.00229132  1
  V  V44  1  0.00189821  0.63305542  0.12592843  1
  V  V45  1  0.62668661  0.86774268  0.74248324  1
  V  V46  1  0.88174600  0.01052841  0.87355916  1
  V  V47  1  0.49966349  0.12433057  0.62270991  1
  V  V48  1  0.50614251  0.62637926  0.13197902  1
  V  V49  1  0.06533099  0.56822198  0.58158067  1
  V  V50  1  0.23747887  0.37496766  0.62278952  1
  V  V51  1  0.38142935  0.62491311  0.25048562  1
  V  V52  1  0.74642086  0.49398685  0.75661112  1
  V  V53  1  0.63463655  0.37477159  0.25179242  1
  V  V54  1  0.36881037  -0.00227500  0.36740915  1
  V  V55  1  0.49998162  0.86765131  0.36975267  1
  V  V56  1  0.62612328  0.12399014  0.49721789  1
  V  V57  1  0.37723807  0.87351109  0.50198425  1
  V  V58  1  0.25119565  0.12490329  0.87211951  1
  V  V59  1  0.23225476  0.24872476  0.49604876  1
  V  V60  1  0.37673882  0.87540216  -0.00202510  1
  V  V61  1  0.24243083  0.49722590  0.74839117  1
  V  V62  1  0.49756095  0.00093382  0.49870173  1
  V  V63  1  0.49912422  0.24884783  0.24898782  1
  V  V64  1  0.13254524  0.74628778  0.36792038  1
  V  V65  1  0.37567715  0.37420379  -0.00114994  1
  V  V66  1  0.63952318  0.62378865  -0.00067295  1
  V  V67  1  0.62672834  0.63218734  0.50303762  1
  V  V68  1  0.36845853  0.11873484  0.24532423  1
  V  V69  1  -0.00970940  0.24456691  0.74958279  1
  V  V70  1  0.88260991  0.75514061  0.12143106  1
  V  V71  1  0.50444998  0.25481411  0.74477357  1
  V  V72  1  0.24411205  0.37135090  0.12637854  1
  V  V73  1  0.87481519  0.25279184  0.62150504  1
  V  V74  1  0.24934374  0.61934875  0.37961167  1
  V  V75  1  0.62361621  0.86965434  0.24777518  1
  V  V76  1  0.00008340  0.88122633  0.88465500  1
  V  V77  1  0.62494038  0.24645932  0.37460203  1
  V  V78  1  0.50219792  0.50172211  -0.00095255  1
  V  V79  1  0.37482663  0.49643577  0.37476682  1
  V  V80  1  0.85558891  0.87628493  0.51221337  1
  V  V81  1  0.38067501  0.74859950  0.12669081  1
  V  V82  1  0.63287309  0.74717244  0.37728895  1
  V  V83  1  0.61961050  0.75000942  0.87499044  1
  V  V84  1  0.25224172  0.74420959  0.50215171  1
  Zn  Zn85  1  0.78944497  0.61773198  0.38328691  1
  Zn  Zn86  1  0.50129503  0.87444133  0.86895164  1
  Zn  Zn87  1  0.13590189  0.87215722  0.24663328  1
  Zn  Zn88  1  0.11648888  0.37497117  0.74144257  1
  Zn  Zn89  1  0.75320885  0.37362230  0.12565381  1
  Zn  Zn90  1  0.13163640  -0.00987645  0.11881859  1
  Zn  Zn91  1  0.88107757  0.88669522  0.00491705  1
  Zn  Zn92  1  0.37917688  0.75524254  0.63455409  1
  Zn  Zn93  1  0.36957245  0.24802150  0.62220940  1
  Zn  Zn94  1  0.00046030  0.38181413  0.87683596  1
  Zn  Zn95  1  0.88222533  0.37548095  0.00095330  1
  Zn  Zn96  1  0.62478415  0.49660140  0.63009766  1
  Zn  Zn97  1  0.38122757  -0.00039946  0.87325742  1
  Zn  Zn98  1  0.01174203  0.25461758  0.24735203  1
  Zn  Zn99  1  0.09857939  -0.01338736  0.59165361  1
  Zn  Zn100  1  0.82155517  0.47344539  0.30346007  1
  Zn  Zn101  1  0.74926999  0.37749766  0.62575111  1
  Zn  Zn102  1  0.75279377  0.00091282  0.74718610  1
  Zn  Zn103  1  0.11429214  0.11445704  -0.00731133  1
  Zn  Zn104  1  0.26346619  0.89679163  0.14866588  1
  Zn  Zn105  1  0.11955291  0.27524062  0.36210547  1
  Zn  Zn106  1  0.50005756  0.63340598  0.62955800  1
  Zn  Zn107  1  0.18193044  0.17888181  0.18446323  1
  Zn  Zn108  1  0.18065737  0.18631479  0.68310152  1
  Zn  Zn109  1  0.19402365  0.68483342  0.18651429  1
  Zn  Zn110  1  0.19038655  0.68935863  0.69156004  1
  Zn  Zn111  1  0.69015342  0.18537740  0.18938982  1
  Zn  Zn112  1  0.68606334  0.19006623  0.68567601  1
  Zn  Zn113  1  0.70019497  0.69196846  0.19226814  1
  Zn  Zn114  1  0.68410133  0.68142546  0.69011859  1
  Zn  Zn115  1  0.30738523  0.30805731  0.31055661  1
  Zn  Zn116  1  0.31505503  0.31206647  0.80830935  1
  Zn  Zn117  1  0.31675488  0.80719260  0.31114268  1
  Zn  Zn118  1  0.31119436  0.81347421  0.81821029  1
  Zn  Zn119  1  0.82482872  0.30015657  0.31644072  1
  Zn  Zn120  1  0.81591285  0.31805029  0.81481447  1
  Zn  Zn121  1  0.80784214  0.81396619  0.31531994  1
  Zn  Zn122  1  0.80949976  0.82105752  0.81539273  1
  Zn  Zn123  1  0.17453180  0.44640979  0.44698636  1
  Zn  Zn124  1  0.18501530  0.43565955  0.93871110  1
  Zn  Zn125  1  0.19029331  0.93075338  0.42655758  1
  Zn  Zn126  1  0.18931843  0.93982433  0.94015448  1
  Zn  Zn127  1  0.68481593  0.43875942  0.44373449  1
  Zn  Zn128  1  0.69516849  0.43638094  0.93682064  1
  Zn  Zn129  1  0.68758919  0.93792676  0.43541070  1
  Zn  Zn130  1  0.68974728  0.93702553  0.93747089  1
  Zn  Zn131  1  0.31149771  0.05845165  0.05883890  1
  Zn  Zn132  1  0.27317966  0.04549403  0.54126878  1
  Zn  Zn133  1  0.31117482  0.56209404  0.06285421  1
  Zn  Zn134  1  0.31000299  0.55798051  0.56695614  1
  Zn  Zn135  1  0.81006897  0.06579419  0.05419008  1
  Zn  Zn136  1  0.82103651  0.07056971  0.56022084  1
  Zn  Zn137  1  0.83203206  0.54446984  0.10094309  1
  Zn  Zn138  1  0.81613829  0.56284453  0.56579742  1
  Zn  Zn139  1  0.44032712  0.43751408  0.18795144  1
  Zn  Zn140  1  0.43029849  0.43621737  0.68634588  1
  Zn  Zn141  1  0.44228278  0.93673557  0.18534939  1
  Zn  Zn142  1  0.44248373  0.93650714  0.68626727  1
  Zn  Zn143  1  0.94621708  0.43363649  0.19171679  1
  Zn  Zn144  1  0.93458179  0.43691935  0.68926137  1
  Zn  Zn145  1  0.95663230  0.93272003  0.20203424  1
  Zn  Zn146  1  0.93361618  0.93947137  0.69108371  1
  Zn  Zn147  1  0.05554339  0.04950296  0.30150193  1
  Zn  Zn148  1  0.06135236  0.06598048  0.80576740  1
  Zn  Zn149  1  0.06546769  0.56192060  0.31060898  1
  Zn  Zn150  1  0.05906961  0.56657805  0.80044569  1
  Zn  Zn151  1  0.55923639  0.05826318  0.30803926  1
  Zn  Zn152  1  0.56657934  0.06163366  0.80922301  1
  Zn  Zn153  1  0.65146923  0.56531297  0.31021540  1
  Zn  Zn154  1  0.56709040  0.56514854  0.81674258  1
  Zn  Zn155  1  0.43138327  0.18591075  0.43564465  1
  Zn  Zn156  1  0.43831854  0.18593814  0.93487873  1
  Zn  Zn157  1  0.44073951  0.68670486  0.43833189  1
  Zn  Zn158  1  0.44206697  0.68507827  0.94018570  1
  Zn  Zn159  1  0.94329648  0.19324719  0.43395624  1
  Zn  Zn160  1  0.93374885  0.19149054  0.93694404  1
  Zn  Zn161  1  0.93338071  0.66002378  0.46861015  1
  Zn  Zn162  1  0.93589139  0.68932777  0.93651689  1
  Zn  Zn163  1  0.05889527  0.30632028  0.05807797  1
  Zn  Zn164  1  0.04941482  0.32192527  0.55162747  1
  Zn  Zn165  1  0.07089211  0.81629286  0.06472487  1
  Zn  Zn166  1  0.05270818  0.77300359  0.55202213  1
  Zn  Zn167  1  0.56430027  0.31267502  0.05921092  1
  Zn  Zn168  1  0.56665599  0.31526905  0.56405258  1
  Zn  Zn169  1  0.56382104  0.81285121  0.06189435  1
  Zn  Zn170  1  0.55833547  0.81146016  0.56806568  1
  O  O171  1  0.10552755  0.11564058  0.12402710  1
  O  O172  1  0.10682010  0.12060671  0.62626472  1
  O  O173  1  0.11952848  0.62382987  0.11713738  1
  O  O174  1  0.11660752  0.60975006  0.66057809  1
  O  O175  1  0.61654586  0.11628005  0.13150888  1
  O  O176  1  0.61855649  0.11906958  0.61735531  1
  O  O177  1  0.62133089  0.61838669  0.12251651  1
  O  O178  1  0.61795775  0.62033274  0.61667712  1
  O  O179  1  0.37636148  0.37693835  0.38042366  1
  O  O180  1  0.38336272  0.37833065  0.88006129  1
  O  O181  1  0.38318436  0.88005455  0.37994428  1
  O  O182  1  0.38251318  0.87658623  0.88255996  1
  O  O183  1  0.88000420  0.38757107  0.35779693  1
  O  O184  1  0.87595771  0.39335585  0.87772069  1
  O  O185  1  0.87506061  0.87646158  0.39274159  1
  O  O186  1  0.88487990  0.88562113  0.87909948  1
  O  O187  1  0.26467598  0.00802332  0.37238248  1
  O  O188  1  0.25538515  0.00747744  0.86368611  1
  O  O189  1  0.25417596  0.50273290  0.36910435  1
  O  O190  1  0.25785643  0.50287578  0.87330605  1
  O  O191  1  0.76336428  0.00484455  0.37927887  1
  O  O192  1  0.75395663  0.01082592  0.87436613  1
  O  O193  1  0.73525391  0.50527364  0.36871886  1
  O  O194  1  0.76014322  0.50005619  0.86442251  1
  O  O195  1  0.24353650  0.49440602  0.13097648  1
  O  O196  1  0.25369881  0.48801721  0.63771189  1
  O  O197  1  0.24763005  1.00909972  0.13234897  1
  O  O198  1  0.25842521  0.99213555  0.64250213  1
  O  O199  1  0.73064252  0.49222954  0.11479170  1
  O  O200  1  0.75598708  0.50107277  0.64052148  1
  O  O201  1  0.74170162  0.99487831  0.11851003  1
  O  O202  1  0.73905474  1.01133456  0.62240551  1
  O  O203  1  0.00365040  0.37301980  0.26352295  1
  O  O204  1  0.00047749  0.36298912  0.75474366  1
  O  O205  1  -0.02170299  0.83559679  0.28021858  1
  O  O206  1  0.00670133  0.87458807  0.76091177  1
  O  O207  1  0.50346916  0.36595939  0.25623086  1
  O  O208  1  0.49138266  0.36690128  0.75846208  1
  O  O209  1  0.50899720  0.87783798  0.25832395  1
  O  O210  1  0.51908421  0.88205043  0.75258969  1
  O  O211  1  0.49275022  0.12986710  0.23925960  1
  O  O212  1  0.49451248  0.13073752  0.74393059  1
  O  O213  1  0.49394065  0.61773576  0.23450944  1
  O  O214  1  0.48327941  0.61499142  0.75322074  1
  O  O215  1  0.98818817  0.12261910  0.23633613  1
  O  O216  1  1.00159940  0.14094647  0.74080013  1
  O  O217  1  1.00348165  0.64548858  0.24558790  1
  O  O218  1  0.98231401  0.64090535  0.76027566  1
  O  O219  1  0.37017568  0.25412354  0.00306377  1
  O  O220  1  0.36692859  0.26153446  0.49704424  1
  O  O221  1  0.37440203  0.75600072  0.00563985  1
  O  O222  1  0.36965239  0.76082350  0.49785878  1
  O  O223  1  0.86500645  0.24869140  0.00919343  1
  O  O224  1  0.86468000  0.24203277  0.50674402  1
  O  O225  1  0.86911313  0.75756202  0.00648575  1
  O  O226  1  0.87494058  0.76058687  0.52209469  1
  O  O227  1  0.13102846  0.25580661  0.49288833  1
  O  O228  1  0.13385846  0.23802229  0.99073945  1
  O  O229  1  0.14737802  0.75462898  0.48827607  1
  O  O230  1  0.13291614  0.74237304  0.99325280  1
  O  O231  1  0.63025404  0.24101552  0.49152265  1
  O  O232  1  0.63056760  0.25325690  0.98755668  1
  O  O233  1  0.61275663  0.73930526  0.49450027  1
  O  O234  1  0.63220296  0.74461315  0.99650847  1
  O  O235  1  0.49613077  0.24276818  0.12645608  1
  O  O236  1  0.49808544  0.24386670  0.63008379  1
  O  O237  1  0.49044457  0.74065735  0.11908848  1
  O  O238  1  0.49079991  0.74719339  0.62774361  1
  O  O239  1  0.99060421  0.23864080  0.12791010  1
  O  O240  1  0.99485552  0.24715952  0.63094106  1
  O  O241  1  0.99479203  0.74867174  0.12230018  1
  O  O242  1  0.98688741  0.76508764  0.64550957  1
  O  O243  1  0.00138514  0.25614343  0.36518901  1
  O  O244  1  0.00624715  0.24509594  0.86290472  1
  O  O245  1  0.02056321  0.74392885  0.38422444  1
  O  O246  1  0.00317902  0.76143059  0.86828528  1
  O  O247  1  0.50464012  0.25268490  0.36986293  1
  O  O248  1  0.50669335  0.25555891  0.86883113  1
  O  O249  1  0.50366886  0.76443144  0.37801041  1
  O  O250  1  0.51539569  0.75209087  0.88224289  1
  O  O251  1  0.25981977  0.14106184  0.48111656  1
  O  O252  1  0.25899270  0.12975969  0.98112940  1
  O  O253  1  0.26506019  0.63099320  0.49071645  1
  O  O254  1  0.24400938  0.63059363  0.99481016  1
  O  O255  1  0.74514415  0.12978386  0.48745448  1
  O  O256  1  0.75023273  0.13940436  0.98523460  1
  O  O257  1  0.72570956  0.62899208  0.50194624  1
  O  O258  1  0.74029734  0.63501782  1.01148720  1
  O  O259  1  0.25652049  0.36686458  0.00511787  1
  O  O260  1  0.25258392  0.36990986  0.50370831  1
  O  O261  1  0.26733201  0.86919938  -0.00511975  1
  O  O262  1  0.26174387  0.86409739  0.50224958  1
  O  O263  1  0.75425917  0.36072515  0.00146862  1
  O  O264  1  0.74900240  0.36009633  0.49600284  1
  O  O265  1  0.75117158  0.86979804  0.01338150  1
  O  O266  1  0.75742518  0.87509439  0.50414265  1
  O  O267  1  0.13776883  0.50869587  0.23678926  1
  O  O268  1  0.13924549  0.49031724  0.76738401  1
  O  O269  1  0.07107714  0.96584800  0.22624139  1
  O  O270  1  0.13312519  0.98955105  0.75309438  1
  O  O271  1  0.61257490  0.48537745  0.23927218  1
  O  O272  1  0.64226986  0.50917790  0.75185094  1
  O  O273  1  0.62084036  0.98907651  0.23702297  1
  O  O274  1  0.62825707  0.99422039  0.73801700  1
  O  O275  1  0.38584298  0.00898321  0.25572233  1
  O  O276  1  0.37166828  0.00685071  0.75231033  1
  O  O277  1  0.37074902  0.50762394  0.25301250  1
  O  O278  1  0.36416864  0.50438199  0.75871120  1
  O  O279  1  0.87909141  0.00538878  0.26088233  1
  O  O280  1  0.86773269  -0.00551212  0.76731679  1
  O  O281  1  0.86409533  0.50667797  0.20663844  1
  O  O282  1  0.86820808  0.51016799  0.75856256  1
  O  O283  1  0.10648309  0.38928627  0.38000378  1
  O  O284  1  0.12717564  0.35878062  0.87551390  1
  O  O285  1  0.11603670  0.86493515  0.37169499  1
  O  O286  1  0.12066720  0.87078273  0.86796321  1
  O  O287  1  0.61731320  0.36750091  0.36908235  1
  O  O288  1  0.61350135  0.36907157  0.87777823  1
  O  O289  1  0.61826793  0.87228638  0.36841161  1
  O  O290  1  0.62313759  0.86797545  0.86781824  1
  O  O291  1  0.38360453  0.13018553  0.12919491  1
  O  O292  1  0.37917336  0.12607970  0.63552876  1
  O  O293  1  0.38358123  0.62777065  0.12994973  1
  O  O294  1  0.37150565  0.62228945  0.64422874  1
  O  O295  1  0.87540671  0.12875268  0.12977977  1
  O  O296  1  0.88775367  0.13781795  0.62595051  1
  O  O297  1  0.89587711  0.63898032  0.11305278  1
  O  O298  1  0.87071932  0.64442935  0.63859987  1
  O  O299  1  0.25464851  0.25018200  0.11650552  1
  O  O300  1  0.24821083  0.25357987  0.61388751  1
  O  O301  1  0.26867930  0.74135872  0.11714779  1
  O  O302  1  0.25462044  0.75494072  0.61953895  1
  O  O303  1  0.75469395  0.24743035  0.11677578  1
  O  O304  1  0.75670774  0.24624823  0.61444098  1
  O  O305  1  0.75757800  0.75946263  0.11574709  1
  O  O306  1  0.75727210  0.75384042  0.63358865  1
  O  O307  1  0.24193282  0.24302566  0.37866432  1
  O  O308  1  0.24498946  0.24278040  0.87428196  1
  O  O309  1  0.25308035  0.73768645  0.38267535  1
  O  O310  1  0.24298786  0.74275675  0.88197425  1
  O  O311  1  0.74588619  0.23972065  0.38015022  1
  O  O312  1  0.74278742  0.24754929  0.87675238  1
  O  O313  1  0.73302142  0.75741494  0.38312442  1
  O  O314  1  0.74282974  0.75887486  0.89111105  1
  O  O315  1  -0.00341993  0.13165582  0.01211010  1
  O  O316  1  -0.00229948  0.12751723  0.51242360  1
  O  O317  1  0.01350618  0.63263270  0.00600250  1
  O  O318  1  0.02623926  0.65356872  0.53206182  1
  O  O319  1  0.49594035  0.11796128  0.01091168  1
  O  O320  1  0.50330071  0.12038814  0.50246227  1
  O  O321  1  0.50875543  0.61805173  0.01061108  1
  O  O322  1  0.49778622  0.61416613  0.50567811  1
  O  O323  1  0.48940874  0.37656583  0.49549862  1
  O  O324  1  0.49487747  0.38132209  0.99167354  1
  O  O325  1  0.49335336  0.88188799  0.49353672  1
  O  O326  1  0.49210397  0.88288519  1.00087030  1
  O  O327  1  0.98576269  0.37554833  0.47691577  1
  O  O328  1  0.99621597  0.36783315  0.99044698  1
  O  O329  1  0.99607748  0.86189456  0.49435904  1
  O  O330  1  1.00296740  0.87157570  0.98734789  1
  O  O331  1  0.48846376  0.48784010  0.39019069  1
  O  O332  1  0.49645161  0.49242290  0.87842173  1
  O  O333  1  0.49132705  0.99264017  0.38022496  1
  O  O334  1  0.50258672  1.00200370  0.88531092  1
  O  O335  1  0.99308039  0.50084007  0.36917685  1
  O  O336  1  0.98444436  0.50449180  0.87120935  1
  O  O337  1  0.98737290  0.98399007  0.37693226  1
  O  O338  1  0.98982157  0.99846878  0.86928303  1
  O  O339  1  -0.02182579  0.01317071  0.11278848  1
  O  O340  1  -0.00486005  0.01414257  0.62866975  1
  O  O341  1  0.01512613  0.51347730  0.12879841  1
  O  O342  1  -0.00586122  0.50555788  0.61938518  1
  O  O343  1  0.50755197  0.00790263  0.11823478  1
  O  O344  1  0.50741078  0.00677975  0.61651399  1
  O  O345  1  0.50827473  0.50447419  0.11722072  1
  O  O346  1  0.49506340  0.49842916  0.61415991  1
  O  O347  1  0.25832890  0.38700811  0.24149843  1
  O  O348  1  0.24876002  0.37875485  0.73987694  1
  O  O349  1  0.25091494  0.87893262  0.26147912  1
  O  O350  1  0.24310381  0.88032640  0.74835608  1
  O  O351  1  0.73810633  0.36681397  0.24998659  1
  O  O352  1  0.75230327  0.39059285  0.75106381  1
  O  O353  1  0.74303049  0.87358725  0.23749877  1
  O  O354  1  0.73143123  0.88187417  0.75490495  1
  O  O355  1  0.26420438  0.13074054  0.25530149  1
  O  O356  1  0.25585581  0.11969864  0.75373384  1
  O  O357  1  0.26142076  0.61303561  0.25551519  1
  O  O358  1  0.25762732  0.61550603  0.75933346  1
  O  O359  1  0.75611142  0.12431712  0.26337623  1
  O  O360  1  0.74389492  0.12581112  0.76223865  1
  O  O361  1  0.73868933  0.63070234  0.27540384  1
  O  O362  1  0.75972383  0.61933632  0.75293670  1
  O  O363  1  0.37286100  0.11584632  0.36298773  1
  O  O364  1  0.36945868  0.12555330  0.86057307  1
  O  O365  1  0.37183428  0.61820003  0.36665890  1
  O  O366  1  0.37182344  0.61814845  0.87020184  1
  O  O367  1  0.87127176  0.11434332  0.36988110  1
  O  O368  1  0.86836720  0.11727894  0.87351877  1
  O  O369  1  0.88856976  0.69043300  0.36105826  1
  O  O370  1  0.87302444  0.61630510  0.87249183  1
  O  O371  1  0.13307470  0.38387693  0.11481823  1
  O  O372  1  0.13338763  0.36991471  0.62089982  1
  O  O373  1  0.14757414  0.86764490  0.12564983  1
  O  O374  1  0.12932539  0.87500291  0.63408563  1
  O  O375  1  0.62214810  0.37961064  0.13439932  1
  O  O376  1  0.63438364  0.38330774  0.61762416  1
  O  O377  1  0.63159619  0.87942005  0.13190415  1
  O  O378  1  0.62383479  0.88314541  0.63375363  1
  O  O379  1  0.12799071  0.24693154  0.25215201  1
  O  O380  1  0.11603927  0.25278233  0.75530880  1
  O  O381  1  0.13737768  0.74812026  0.26366995  1
  O  O382  1  0.11719612  0.76052184  0.75578433  1
  O  O383  1  0.61869435  0.25473277  0.25510351  1
  O  O384  1  0.61103994  0.24832210  0.75599911  1
  O  O385  1  0.62523217  0.76314817  0.25778942  1
  O  O386  1  0.62986971  0.75906321  0.75865102  1
  O  O387  1  0.38036962  0.24229701  0.24260391  1
  O  O388  1  0.38672628  0.24196414  0.74756258  1
  O  O389  1  0.37571978  0.73351048  0.24276002  1
  O  O390  1  0.36698848  0.73289613  0.75608368  1
  O  O391  1  0.87313021  0.23096089  0.23951071  1
  O  O392  1  0.88541434  0.25115888  0.74639686  1
  O  O393  1  0.86664181  0.75015298  0.23032155  1
  O  O394  1  0.87508550  0.75027569  0.74868086  1
  O  O395  1  0.37536211  0.48711807  0.49655062  1
  O  O396  1  0.38100113  0.49580192  0.99390625  1
  O  O397  1  0.37405659  0.98877908  0.49083346  1
  O  O398  1  0.38738622  0.99214572  0.99815270  1
  O  O399  1  0.86230789  0.57400645  0.46650678  1
  O  O400  1  0.86754026  0.50319652  0.99177011  1
  O  O401  1  0.87249663  0.98471020  0.49806971  1
  O  O402  1  0.86826632  1.00017206  0.97945389  1
  O  O403  1  0.12598965  0.00328786  0.00284766  1
  O  O404  1  0.16921702  0.00059031  0.50987933  1
  O  O405  1  0.13361498  0.51192185  0.00858139  1
  O  O406  1  0.13073565  0.52033656  0.52037687  1
  O  O407  1  0.61442178  -0.00718308  0.01208140  1
  O  O408  1  0.61923040  0.00458040  0.50427823  1
  O  O409  1  0.62083359  0.50649700  0.00176024  1
  O  O410  1  0.61224758  0.51258888  0.50021260  1
  O  O411  1  0.36898330  0.36896345  0.11881409  1
  O  O412  1  0.36214213  0.36985730  0.61574429  1
  O  O413  1  0.37676502  0.86560034  0.11933994  1
  O  O414  1  0.36835855  0.87628994  0.61697351  1
  O  O415  1  0.87392969  0.35787013  0.12541672  1
  O  O416  1  0.87004789  0.35864754  0.62977994  1
  O  O417  1  0.87321100  0.87371394  0.12584517  1
  O  O418  1  0.87201175  0.87161346  0.61884242  1
  O  O419  1  0.13608936  0.10701519  0.36026069  1
  O  O420  1  0.13447765  0.13344429  0.87037854  1
  O  O421  1  0.14313453  0.62801094  0.37082604  1
  O  O422  1  0.12783620  0.62952433  0.88027295  1
  O  O423  1  0.63141425  0.12489535  0.37577057  1
  O  O424  1  0.62967482  0.13737462  0.87218415  1
  O  O425  1  0.60698855  0.63727930  0.39005828  1
  O  O426  1  0.62408811  0.63472265  0.88787573  1
