# generated using pymatgen
data_V85Zn86O256
_symmetry_space_group_name_H-M   'P 1'
_cell_length_a   16.94863704
_cell_length_b   16.94415643
_cell_length_c   16.92942728
_cell_angle_alpha   90.00194285
_cell_angle_beta   89.86588218
_cell_angle_gamma   89.97079547
_symmetry_Int_Tables_number   1
_chemical_formula_structural   V85Zn86O256
_chemical_formula_sum   'V85 Zn86 O256'
_cell_volume   4861.78502038
_cell_formula_units_Z   1
loop_
 _symmetry_equiv_pos_site_id
 _symmetry_equiv_pos_as_xyz
  1  'x, y, z'
loop_
 _atom_site_type_symbol
 _atom_site_label
 _atom_site_symmetry_multiplicity
 _atom_site_fract_x
 _atom_site_fract_y
 _atom_site_fract_z
 _atom_site_occupancy
  V  V0  1  0.37692436  0.23905141  0.62687964  1
  V  V1  1  0.74879433  0.49901205  0.75149584  1
  V  V2  1  -0.00393287  0.62937604  0.62701821  1
  V  V3  1  0.49985728  0.62663702  0.62051494  1
  V  V4  1  0.11071532  0.74958857  0.86662194  1
  V  V5  1  0.01190351  0.48821433  -0.00021699  1
  V  V6  1  0.87261709  0.25793789  0.12921374  1
  V  V7  1  0.12135318  0.00772449  0.62553537  1
  V  V8  1  0.00082856  -0.00082012  -0.00274922  1
  V  V9  1  0.74847057  0.25589012  0.00431845  1
  V  V10  1  0.24965852  0.49646424  0.75049509  1
  V  V11  1  0.37394337  0.62404266  0.74733880  1
  V  V12  1  0.24660751  0.62360506  0.87573976  1
  V  V13  1  0.51014748  0.36952763  0.37278507  1
  V  V14  1  0.60504329  0.61669640  0.00573206  1
  V  V15  1  0.37390388  0.75196342  0.62290933  1
  V  V16  1  0.13719661  0.12174043  -0.00706339  1
  V  V17  1  -0.00402614  0.50214663  0.49678410  1
  V  V18  1  0.49744588  0.00814133  0.00288171  1
  V  V19  1  0.37616687  0.38140402  0.00335728  1
  V  V20  1  0.74807206  0.12807523  0.87539408  1
  V  V21  1  0.12328764  0.50202504  0.62630652  1
  V  V22  1  0.63308286  0.62409588  0.49686200  1
  V  V23  1  0.24450056  0.87447543  0.63898489  1
  V  V24  1  0.01107118  0.37253512  0.36952714  1
  V  V25  1  0.49588894  0.38081716  0.87581120  1
  V  V26  1  0.87353824  0.00252093  0.87729858  1
  V  V27  1  0.87852560  0.37143468  -0.01157094  1
  V  V28  1  0.50538323  0.24802613  0.25077131  1
  V  V29  1  0.01018500  0.74568562  0.24051913  1
  V  V30  1  0.23651294  0.37641462  0.12577364  1
  V  V31  1  0.25230713  0.37649073  0.62524446  1
  V  V32  1  0.62878109  0.75261285  0.37603266  1
  V  V33  1  0.49793053  0.00703622  0.50675071  1
  V  V34  1  0.24548388  0.25211545  0.49472636  1
  V  V35  1  0.37821298  0.24805623  0.12402522  1
  V  V36  1  0.00081706  0.12440772  0.12516528  1
  V  V37  1  0.36995557  0.87693686  -0.00209852  1
  V  V38  1  0.50430424  0.87760220  0.37747230  1
  V  V39  1  0.76043226  0.75017013  0.50462242  1
  V  V40  1  0.24899192  0.01909636  0.75278836  1
  V  V41  1  0.01627504  0.25146352  0.25178384  1
  V  V42  1  0.74933498  -0.00199062  0.24875312  1
  V  V43  1  0.88565383  0.13124673  0.74822420  1
  V  V44  1  0.62263403  0.75244970  0.87427335  1
  V  V45  1  0.24642728  0.75080122  0.00130004  1
  V  V46  1  0.62135130  0.37457558  0.74879350  1
  V  V47  1  0.36940542  0.01502103  0.87050535  1
  V  V48  1  0.37566415  0.00222250  0.37504773  1
  V  V49  1  0.74527942  0.12847670  0.37661671  1
  V  V50  1  0.87140196  0.87037964  0.00622109  1
  V  V51  1  0.62608990  0.49968282  0.62251030  1
  V  V52  1  0.50006389  0.87881991  0.86955283  1
  V  V53  1  0.74214390  -0.00080683  0.75156247  1
  V  V54  1  0.12521705  -0.00632341  0.12950435  1
  V  V55  1  0.62047473  0.00325401  0.12576295  1
  V  V56  1  0.74789121  0.62408109  0.87952557  1
  V  V57  1  0.12234449  0.63189008  0.49409253  1
  V  V58  1  0.01884688  0.87098394  0.36878906  1
  V  V59  1  0.88849445  0.24828237  0.62380477  1
  V  V60  1  0.37480998  0.87549816  0.50312036  1
  V  V61  1  0.49898762  0.50007764  0.49196304  1
  V  V62  1  0.12700735  0.61954783  0.01321602  1
  V  V63  1  0.87616549  -0.00418049  0.37829193  1
  V  V64  1  0.61542373  0.48518396  0.12552364  1
  V  V65  1  0.87552235  0.12731127  0.25073892  1
  V  V66  1  0.49588612  0.23891538  0.74606125  1
  V  V67  1  0.24972128  -0.00920831  0.25184496  1
  V  V68  1  0.62026502  0.00310205  0.62754327  1
  V  V69  1  0.50152390  0.75335723  0.74847020  1
  V  V70  1  0.38008167  0.12129560  0.24614189  1
  V  V71  1  0.62268256  0.25159632  0.87408485  1
  V  V72  1  0.37554156  0.37825331  0.49372429  1
  V  V73  1  0.25701596  0.62086529  0.37523376  1
  V  V74  1  0.87683669  0.50446897  0.35662329  1
  V  V75  1  0.61950840  0.13069820  0.50166895  1
  V  V76  1  0.93169034  0.80029858  0.68791165  1
  V  V77  1  0.74307841  0.87093447  0.63142224  1
  V  V78  1  0.12062663  0.24717967  0.86738801  1
  V  V79  1  0.24597279  0.49005808  0.25615613  1
  V  V80  1  0.88029635  0.62481644  0.75352638  1
  V  V81  1  0.74860796  0.25225073  0.50007024  1
  V  V82  1  0.24819554  0.75302919  0.49246596  1
  V  V83  1  0.10719442  0.37493343  0.75488675  1
  V  V84  1  0.24217467  0.12951470  0.37249907  1
  Zn  Zn85  1  0.37958917  0.61796712  0.23704568  1
  Zn  Zn86  1  0.00006124  0.00502154  0.49885164  1
  Zn  Zn87  1  0.83749525  0.68907150  0.17783291  1
  Zn  Zn88  1  0.88244515  0.49433875  0.87305916  1
  Zn  Zn89  1  -0.00835190  0.61538141  0.12952683  1
  Zn  Zn90  1  0.61950441  0.12852853  0.00416885  1
  Zn  Zn91  1  0.74742282  0.74366258  0.01030719  1
  Zn  Zn92  1  0.75363695  0.50117063  0.23295523  1
  Zn  Zn93  1  0.88073642  0.87440383  0.50328122  1
  Zn  Zn94  1  0.50053663  0.73751020  0.23887456  1
  Zn  Zn95  1  0.38074133  0.74187446  0.12161458  1
  Zn  Zn96  1  -0.00331282  0.86835622  0.86968746  1
  Zn  Zn97  1  0.64124479  0.36483736  0.24818843  1
  Zn  Zn98  1  0.87425173  0.37596769  0.49802945  1
  Zn  Zn99  1  0.11639817  0.13510675  0.50192740  1
  Zn  Zn100  1  0.76146110  0.63073450  0.35906339  1
  Zn  Zn101  1  0.24396845  0.86859717  0.13265489  1
  Zn  Zn102  1  0.75200600  0.86782540  0.12922089  1
  Zn  Zn103  1  0.25297371  0.24661741  -0.00766175  1
  Zn  Zn104  1  0.75078979  0.37339899  0.62298166  1
  Zn  Zn105  1  0.62628425  0.87204833  0.24696813  1
  Zn  Zn106  1  0.37702574  0.50143379  0.87725580  1
  Zn  Zn107  1  0.19357191  0.18143643  0.18141924  1
  Zn  Zn108  1  0.18579005  0.19265958  0.68681010  1
  Zn  Zn109  1  0.18861112  0.68745978  0.19445687  1
  Zn  Zn110  1  0.18512032  0.68778418  0.68534501  1
  Zn  Zn111  1  0.68732794  0.18372407  0.18510083  1
  Zn  Zn112  1  0.68900029  0.18744093  0.68544244  1
  Zn  Zn113  1  0.67539145  0.68138208  0.18647073  1
  Zn  Zn114  1  0.68813940  0.68710596  0.69055691  1
  Zn  Zn115  1  0.31663181  0.31379550  0.31106105  1
  Zn  Zn116  1  0.30850548  0.30703418  0.81383471  1
  Zn  Zn117  1  0.31925817  0.80835652  0.31317832  1
  Zn  Zn118  1  0.31251336  0.81133563  0.81671433  1
  Zn  Zn119  1  0.81632254  0.31831602  0.31468614  1
  Zn  Zn120  1  0.81188688  0.31098663  0.80840585  1
  Zn  Zn121  1  0.81794046  0.81268515  0.31192802  1
  Zn  Zn122  1  0.80495632  0.81740853  0.82395840  1
  Zn  Zn123  1  0.18544979  0.44085761  0.43792466  1
  Zn  Zn124  1  0.18934784  0.42991433  0.93575527  1
  Zn  Zn125  1  0.19072792  0.94143097  0.44221879  1
  Zn  Zn126  1  0.18312740  0.93317540  0.92889722  1
  Zn  Zn127  1  0.69369663  0.43773222  0.42826563  1
  Zn  Zn128  1  0.68518540  0.43829201  0.94116054  1
  Zn  Zn129  1  0.69144006  0.93920828  0.44364974  1
  Zn  Zn130  1  0.68447042  0.93718952  0.94020645  1
  Zn  Zn131  1  0.31502569  0.05849010  0.06703592  1
  Zn  Zn132  1  0.30575076  0.06381186  0.56168062  1
  Zn  Zn133  1  0.31471071  0.55873809  0.06915880  1
  Zn  Zn134  1  0.31360764  0.56368893  0.55824580  1
  Zn  Zn135  1  0.81184979  0.06544085  0.06405644  1
  Zn  Zn136  1  0.81269885  0.06519891  0.56316736  1
  Zn  Zn137  1  0.80910123  0.55241649  0.05923696  1
  Zn  Zn138  1  0.81601283  0.56588929  0.56632998  1
  Zn  Zn139  1  0.43489418  0.43977837  0.18946225  1
  Zn  Zn140  1  0.43755642  0.43510533  0.68404345  1
  Zn  Zn141  1  0.45270314  0.90305762  0.17139742  1
  Zn  Zn142  1  0.43393574  0.94179306  0.68974705  1
  Zn  Zn143  1  0.94486912  0.43172103  0.18179760  1
  Zn  Zn144  1  0.93215786  0.43945790  0.68163864  1
  Zn  Zn145  1  0.93908980  0.93399629  0.19093649  1
  Zn  Zn146  1  0.93473047  0.96240286  0.68888646  1
  Zn  Zn147  1  0.06179430  0.06239210  0.31413580  1
  Zn  Zn148  1  0.06622737  0.06040119  0.81330249  1
  Zn  Zn149  1  0.06817153  0.56518551  0.30818912  1
  Zn  Zn150  1  0.06173679  0.56126054  0.81933403  1
  Zn  Zn151  1  0.56328384  0.06317898  0.31441312  1
  Zn  Zn152  1  0.56163298  0.06407280  0.81529051  1
  Zn  Zn153  1  0.56611965  0.55836592  0.30834852  1
  Zn  Zn154  1  0.56150356  0.56482418  0.81209978  1
  Zn  Zn155  1  0.43409874  0.18960268  0.43561506  1
  Zn  Zn156  1  0.43615303  0.19251607  0.93630853  1
  Zn  Zn157  1  0.45654814  0.66783249  0.40333539  1
  Zn  Zn158  1  0.43181502  0.68984816  0.93584011  1
  Zn  Zn159  1  0.93736671  0.18743458  0.43718290  1
  Zn  Zn160  1  0.94035895  0.18750236  0.93662592  1
  Zn  Zn161  1  0.94114428  0.69082450  0.42935121  1
  Zn  Zn162  1  0.92636018  0.67177115  0.96548884  1
  Zn  Zn163  1  0.06198851  0.30470635  0.05720634  1
  Zn  Zn164  1  0.06340799  0.31938513  0.56111033  1
  Zn  Zn165  1  0.06176679  0.81115851  0.05948466  1
  Zn  Zn166  1  0.06866920  0.82348469  0.55500251  1
  Zn  Zn167  1  0.55714847  0.31176551  0.06223287  1
  Zn  Zn168  1  0.56143000  0.31194975  0.56343979  1
  Zn  Zn169  1  0.56635906  0.81669013  0.05734632  1
  Zn  Zn170  1  0.56570318  0.81455420  0.56018204  1
  O  O171  1  0.11961213  0.11517861  0.11412187  1
  O  O172  1  0.13323119  0.11244428  0.62354676  1
  O  O173  1  0.12725662  0.62604250  0.11425780  1
  O  O174  1  0.11643696  0.62039423  0.61821387  1
  O  O175  1  0.62752555  0.10966061  0.12075273  1
  O  O176  1  0.63105394  0.11260882  0.61660081  1
  O  O177  1  0.61097665  0.62553243  0.10851549  1
  O  O178  1  0.62033256  0.62203222  0.61464147  1
  O  O179  1  0.38499974  0.37087300  0.38870718  1
  O  O180  1  0.38001698  0.37285662  0.88182930  1
  O  O181  1  0.38339534  0.88132261  0.38483327  1
  O  O182  1  0.37915890  0.88351868  0.88151273  1
  O  O183  1  0.88716314  0.39159318  0.37876444  1
  O  O184  1  0.87403021  0.36985977  0.88431236  1
  O  O185  1  0.87500961  0.88891630  0.37810155  1
  O  O186  1  0.87639163  0.88579887  0.88427177  1
  O  O187  1  0.25593812  0.00767342  0.37023760  1
  O  O188  1  0.25290489  -0.00309048  0.85979931  1
  O  O189  1  0.24807880  0.50355641  0.36562319  1
  O  O190  1  0.25017771  0.50590265  0.86622043  1
  O  O191  1  0.75574589  0.00682476  0.37036957  1
  O  O192  1  0.74985640  0.00804795  0.87018264  1
  O  O193  1  0.76989510  0.50638294  0.37507954  1
  O  O194  1  0.74698234  0.50579211  0.86431243  1
  O  O195  1  0.24874848  0.48142610  0.13065522  1
  O  O196  1  0.24388386  0.49758787  0.63075302  1
  O  O197  1  0.24206064  0.99922769  0.13549248  1
  O  O198  1  0.24675102  0.99457811  0.63664452  1
  O  O199  1  0.72559329  0.50575422  0.11762341  1
  O  O200  1  0.74570289  0.50058915  0.63616806  1
  O  O201  1  0.74515235  1.00202590  0.13581632  1
  O  O202  1  0.74484822  0.99370335  0.63338208  1
  O  O203  1  0.00032046  0.36752897  0.25991803  1
  O  O204  1  0.00886900  0.38440563  0.74673765  1
  O  O205  1  0.00072203  0.86937966  0.26197785  1
  O  O206  1  -0.01732412  0.86690122  0.74594431  1
  O  O207  1  0.49780591  0.36537942  0.25936524  1
  O  O208  1  0.50493291  0.36735395  0.75331583  1
  O  O209  1  0.50515554  0.88293680  0.27239040  1
  O  O210  1  0.49342577  0.87098075  0.76174845  1
  O  O211  1  0.48765415  0.13069792  0.25872728  1
  O  O212  1  0.50245562  0.13953419  0.75258875  1
  O  O213  1  0.48554405  0.63378853  0.29080138  1
  O  O214  1  0.49310623  0.63091713  0.74210730  1
  O  O215  1  0.99329954  0.13192183  0.24764081  1
  O  O216  1  0.98412925  0.11481718  0.75282873  1
  O  O217  1  1.00422913  0.63723398  0.24611746  1
  O  O218  1  0.98625347  0.61913125  0.74972025  1
  O  O219  1  0.37197591  0.25601654  0.00756631  1
  O  O220  1  0.36827524  0.25745786  0.50950613  1
  O  O221  1  0.36466497  0.75995038  -0.00316531  1
  O  O222  1  0.36577176  0.75799283  0.50905225  1
  O  O223  1  0.86978505  0.25285227  0.00584737  1
  O  O224  1  0.86808269  0.25007905  0.50991018  1
  O  O225  1  0.87013795  0.76880917  -0.00974090  1
  O  O226  1  0.86368952  0.75137740  0.49551213  1
  O  O227  1  0.14164174  0.25365394  0.50824174  1
  O  O228  1  0.12857575  0.23720200  0.99199243  1
  O  O229  1  0.13494843  0.74255428  0.50708938  1
  O  O230  1  0.13019755  0.73924700  0.99322988  1
  O  O231  1  0.63133729  0.23865207  0.50675401  1
  O  O232  1  0.63206975  0.24888278  0.99600694  1
  O  O233  1  0.63760722  0.74363829  0.49706276  1
  O  O234  1  0.62189539  0.73912597  0.98966923  1
  O  O235  1  0.48630144  0.25240959  0.13292130  1
  O  O236  1  0.48532406  0.25436961  0.63025437  1
  O  O237  1  0.48971672  0.79018058  0.13537298  1
  O  O238  1  0.49661740  0.74678644  0.62763634  1
  O  O239  1  0.99346557  0.24377295  0.13200371  1
  O  O240  1  0.98748794  0.25218313  0.61789884  1
  O  O241  1  1.00311027  0.75038340  0.13605153  1
  O  O242  1  0.99925561  0.75183056  0.62587852  1
  O  O243  1  -0.00687304  0.26547314  0.36691307  1
  O  O244  1  0.01935717  0.24706014  0.88067587  1
  O  O245  1  0.00205926  0.76580431  0.36915409  1
  O  O246  1  0.00996581  0.74313986  0.88322166  1
  O  O247  1  0.49589817  0.25756646  0.36516255  1
  O  O248  1  0.50367612  0.25831712  0.86557663  1
  O  O249  1  0.51784556  0.76401759  0.39222537  1
  O  O250  1  0.50241088  0.75884730  0.86971005  1
  O  O251  1  0.24891121  0.13580067  0.49025874  1
  O  O252  1  0.23943480  0.12160660  1.00403897  1
  O  O253  1  0.23957669  0.63278486  0.50095547  1
  O  O254  1  0.24513635  0.62770578  0.99203985  1
  O  O255  1  0.74249120  0.13043617  0.49417508  1
  O  O256  1  0.75157356  0.13455162  0.98818610  1
  O  O257  1  0.74575807  0.63298998  0.50288147  1
  O  O258  1  0.73737765  0.62263181  0.98633563  1
  O  O259  1  0.25577949  0.37018269  0.01160490  1
  O  O260  1  0.25737348  0.37267195  0.50242495  1
  O  O261  1  0.25365329  0.86561847  -0.00722430  1
  O  O262  1  0.25510148  0.86868873  0.50773878  1
  O  O263  1  0.75766630  0.36158210  -0.00605681  1
  O  O264  1  0.75148947  0.36616897  0.49916952  1
  O  O265  1  0.76199660  0.87679411  0.00062574  1
  O  O266  1  0.75540500  0.86962106  0.51518123  1
  O  O267  1  0.14565006  0.50643798  0.24726724  1
  O  O268  1  0.13099336  0.49527069  0.74745113  1
  O  O269  1  0.13557541  1.00821506  0.24004453  1
  O  O270  1  0.13823865  1.00297319  0.74107753  1
  O  O271  1  0.62625568  0.49740344  0.23566727  1
  O  O272  1  0.63062175  0.49724748  0.74351242  1
  O  O273  1  0.63195418  0.99997730  0.24453668  1
  O  O274  1  0.63464811  1.00678346  0.74480326  1
  O  O275  1  0.36886689  0.00674418  0.25635184  1
  O  O276  1  0.35905786  -0.00135886  0.75626485  1
  O  O277  1  0.35550009  0.50184324  0.24454588  1
  O  O278  1  0.36650698  0.50601870  0.74791259  1
  O  O279  1  0.86763558  0.00662168  0.25552531  1
  O  O280  1  0.85955830  0.01166071  0.75684233  1
  O  O281  1  0.88202951  0.49999794  0.25468235  1
  O  O282  1  0.86601927  0.50604424  0.75335206  1
  O  O283  1  0.11001321  0.37897021  0.37704981  1
  O  O284  1  0.12652596  0.36357181  0.86488823  1
  O  O285  1  0.11673691  0.88225653  0.37632318  1
  O  O286  1  0.11616519  0.85576255  0.87674804  1
  O  O287  1  0.61381076  0.37561831  0.37265940  1
  O  O288  1  0.61658546  0.37036920  0.87005332  1
  O  O289  1  0.62200483  0.86982334  0.38050224  1
  O  O290  1  0.61375744  0.86528343  0.88083117  1
  O  O291  1  0.37043808  0.13249821  0.13550325  1
  O  O292  1  0.37135571  0.14056057  0.61954257  1
  O  O293  1  0.38002394  0.62824232  0.12177631  1
  O  O294  1  0.38117274  0.63186785  0.62666647  1
  O  O295  1  0.88204336  0.13349581  0.12992694  1
  O  O296  1  0.87031684  0.13785225  0.63332842  1
  O  O297  1  0.88273547  0.63366117  0.08843532  1
  O  O298  1  0.88306129  0.62743484  0.63844111  1
  O  O299  1  0.26146434  0.25909731  0.12667285  1
  O  O300  1  0.26009445  0.25761781  0.62045647  1
  O  O301  1  0.24722202  0.75153379  0.11145583  1
  O  O302  1  0.25319870  0.75732275  0.62011812  1
  O  O303  1  0.75951591  0.24179984  0.11502909  1
  O  O304  1  0.75528117  0.25031450  0.61258059  1
  O  O305  1  0.74753835  0.75084571  0.12595697  1
  O  O306  1  0.74316012  0.76104850  0.62109277  1
  O  O307  1  0.25875494  0.24337588  0.38327698  1
  O  O308  1  0.23332764  0.25100165  0.87690109  1
  O  O309  1  0.25249309  0.74444245  0.38801152  1
  O  O310  1  0.24280268  0.74155894  0.88310932  1
  O  O311  1  0.75981488  0.24048794  0.38844589  1
  O  O312  1  0.74293164  0.24434127  0.87905188  1
  O  O313  1  0.74342084  0.75105279  0.38371025  1
  O  O314  1  0.73801685  0.74205465  0.87803040  1
  O  O315  1  0.00498067  0.11244511  0.00397430  1
  O  O316  1  0.00658487  0.11799411  0.48639452  1
  O  O317  1  0.01504111  0.60986734  0.00071312  1
  O  O318  1  0.00530398  0.62297611  0.50355219  1
  O  O319  1  0.49827571  0.11195680  -0.00585083  1
  O  O320  1  0.50930492  0.12151022  0.49463804  1
  O  O321  1  0.50841578  0.62135758  -0.01526876  1
  O  O322  1  0.51034219  0.61701372  0.49902297  1
  O  O323  1  0.49570221  0.37994478  0.49463033  1
  O  O324  1  0.48911244  0.36755885  0.98754169  1
  O  O325  1  0.49581620  0.88542275  0.49593418  1
  O  O326  1  0.48995386  0.88540631  0.98672181  1
  O  O327  1  0.99948843  0.38478923  0.48886278  1
  O  O328  1  0.99567692  0.38019071  1.00067367  1
  O  O329  1  0.99847289  0.88140788  0.48517498  1
  O  O330  1  0.98928965  0.88491801  0.99946228  1
  O  O331  1  0.50545936  0.49060166  0.38734123  1
  O  O332  1  0.49601685  0.48515234  0.86422009  1
  O  O333  1  0.49644385  0.99665250  0.38712828  1
  O  O334  1  0.49152417  0.99499987  0.87703791  1
  O  O335  1  0.99564641  0.49562793  0.37703069  1
  O  O336  1  0.99822485  0.50035167  0.89252599  1
  O  O337  1  0.99198296  0.98874493  0.36962384  1
  O  O338  1  0.99566173  0.99516510  0.88192783  1
  O  O339  1  0.00617526  0.00451068  0.12000738  1
  O  O340  1  0.01758199  -0.00286414  0.62303627  1
  O  O341  1  -0.00131904  0.49832610  0.10670492  1
  O  O342  1  0.00347625  0.50784053  0.61644522  1
  O  O343  1  0.50610930  -0.00852341  0.11436076  1
  O  O344  1  0.50848935  -0.00266439  0.62106952  1
  O  O345  1  0.51390261  0.49493042  0.12578591  1
  O  O346  1  0.50720611  0.50606086  0.61491834  1
  O  O347  1  0.25158856  0.38033668  0.24176550  1
  O  O348  1  0.24757436  0.38632319  0.74566616  1
  O  O349  1  0.25548625  0.88733680  0.25320474  1
  O  O350  1  0.25276440  0.87414980  0.74067693  1
  O  O351  1  0.75119026  0.38616244  0.25703459  1
  O  O352  1  0.74122814  0.38359346  0.74919866  1
  O  O353  1  0.74911885  0.88833303  0.25246371  1
  O  O354  1  0.75344601  0.88579244  0.74319271  1
  O  O355  1  0.26063531  0.11887570  0.25599141  1
  O  O356  1  0.25162773  0.11724159  0.74825805  1
  O  O357  1  0.25392582  0.61918130  0.26181085  1
  O  O358  1  0.25182525  0.61506880  0.75420791  1
  O  O359  1  0.75335318  0.11841301  0.25882823  1
  O  O360  1  0.75400843  0.12232223  0.76130368  1
  O  O361  1  0.75675444  0.62260537  0.24323073  1
  O  O362  1  0.75772673  0.61933505  0.75790222  1
  O  O363  1  0.36681691  0.11877890  0.36952320  1
  O  O364  1  0.37594264  0.11410345  0.87681121  1
  O  O365  1  0.35517524  0.61979033  0.39611347  1
  O  O366  1  0.36161107  0.62398028  0.86802392  1
  O  O367  1  0.86472278  0.11519239  0.37053181  1
  O  O368  1  0.86721943  0.12349805  0.86961230  1
  O  O369  1  0.88016175  0.60792432  0.37849734  1
  O  O370  1  0.86421960  0.62242196  0.87283747  1
  O  O371  1  0.13883877  0.36380054  0.12157412  1
  O  O372  1  0.13185782  0.38261357  0.63320650  1
  O  O373  1  0.12707296  0.88994655  0.11514353  1
  O  O374  1  0.13591766  0.88915129  0.62280515  1
  O  O375  1  0.62257802  0.38124425  0.12523802  1
  O  O376  1  0.62623898  0.38237008  0.63077314  1
  O  O377  1  0.63267467  0.88891112  0.12515474  1
  O  O378  1  0.63335022  0.88891277  0.62183368  1
  O  O379  1  0.11453494  0.23897606  0.24427289  1
  O  O380  1  0.12454319  0.25895221  0.75726215  1
  O  O381  1  0.11145374  0.75304535  0.24965597  1
  O  O382  1  0.12359849  0.73904854  0.76755480  1
  O  O383  1  0.61011073  0.24741083  0.24165473  1
  O  O384  1  0.61800766  0.25558395  0.75191687  1
  O  O385  1  0.61889934  0.75223794  0.26263513  1
  O  O386  1  0.61602641  0.74281161  0.76387485  1
  O  O387  1  0.38240205  0.24182941  0.24367870  1
  O  O388  1  0.38016707  0.25632693  0.73524691  1
  O  O389  1  0.37995292  0.74528884  0.24468812  1
  O  O390  1  0.37962209  0.74359726  0.74394896  1
  O  O391  1  0.87989212  0.24555026  0.24328680  1
  O  O392  1  0.87034445  0.24464852  0.73487201  1
  O  O393  1  0.89340630  0.75265270  0.25407692  1
  O  O394  1  0.87143886  0.74522846  0.75274990  1
  O  O395  1  0.38747162  0.49063442  0.50730889  1
  O  O396  1  0.36785488  0.48468857  0.99548477  1
  O  O397  1  0.37817899  0.99663041  0.49758889  1
  O  O398  1  0.37768049  0.99613889  0.99090333  1
  O  O399  1  0.88850686  0.50070902  0.50183635  1
  O  O400  1  0.88164349  0.48436210  0.99503429  1
  O  O401  1  0.87502867  0.99797090  0.49319334  1
  O  O402  1  0.88143697  0.99728803  0.99519536  1
  O  O403  1  0.11814440  0.00404697  0.00029522  1
  O  O404  1  0.13149543  0.00546467  0.51631275  1
  O  O405  1  0.11922319  0.50173503  -0.00447089  1
  O  O406  1  0.11386828  0.50760602  0.50587758  1
  O  O407  1  0.61421401  0.00218673  0.00532235  1
  O  O408  1  0.61999206  0.00970999  0.50833039  1
  O  O409  1  0.62009180  0.50911550  0.00551724  1
  O  O410  1  0.62409377  0.50720640  0.50211885  1
  O  O411  1  0.37042263  0.36730493  0.11813627  1
  O  O412  1  0.36942562  0.37007470  0.61387090  1
  O  O413  1  0.36055936  0.88258206  0.10502435  1
  O  O414  1  0.36716371  0.87205226  0.62069771  1
  O  O415  1  0.87988244  0.36097362  0.11316947  1
  O  O416  1  0.87125667  0.36254246  0.62160668  1
  O  O417  1  0.87239983  0.88385018  0.11026249  1
  O  O418  1  0.87405060  0.86969339  0.63087981  1
  O  O419  1  0.13986317  0.12272678  0.37425348  1
  O  O420  1  0.12436887  0.13246049  0.88081041  1
  O  O421  1  0.13391064  0.62017495  0.38986876  1
  O  O422  1  0.13482326  0.62981057  0.88179469  1
  O  O423  1  0.63796741  0.12024062  0.38487936  1
  O  O424  1  0.63194981  0.13288823  0.87869265  1
  O  O425  1  0.63273829  0.63222735  0.38562254  1
  O  O426  1  0.62901189  0.62975257  0.88006845  1
