# generated using pymatgen
data_V85Zn86O256
_symmetry_space_group_name_H-M   'P 1'
_cell_length_a   16.97219334
_cell_length_b   16.96669562
_cell_length_c   16.95567043
_cell_angle_alpha   90.02084074
_cell_angle_beta   89.98516334
_cell_angle_gamma   89.99905680
_symmetry_Int_Tables_number   1
_chemical_formula_structural   V85Zn86O256
_chemical_formula_sum   'V85 Zn86 O256'
_cell_volume   4882.58893105
_cell_formula_units_Z   1
loop_
 _symmetry_equiv_pos_site_id
 _symmetry_equiv_pos_as_xyz
  1  'x, y, z'
loop_
 _atom_site_type_symbol
 _atom_site_label
 _atom_site_symmetry_multiplicity
 _atom_site_fract_x
 _atom_site_fract_y
 _atom_site_fract_z
 _atom_site_occupancy
  V  V0  1  0.50098467  0.74936595  0.25170542  1
  V  V1  1  0.49630030  0.00055843  0.50822082  1
  V  V2  1  0.74360657  -0.00049876  0.24662355  1
  V  V3  1  0.24981427  0.75398131  -0.00398573  1
  V  V4  1  0.64626553  0.49284434  0.63787327  1
  V  V5  1  -0.02529657  -0.00121921  0.49699437  1
  V  V6  1  0.61848629  0.12609520  0.50480240  1
  V  V7  1  0.24881035  0.24811327  0.50399105  1
  V  V8  1  0.75238712  0.74866252  -0.00364274  1
  V  V9  1  -0.01317740  0.88075926  0.38152197  1
  V  V10  1  0.86564121  0.00477129  0.86196667  1
  V  V11  1  0.38093317  0.00410086  0.87609252  1
  V  V12  1  0.25088286  0.12487963  0.87265641  1
  V  V13  1  0.74843318  0.12078328  0.37991061  1
  V  V14  1  0.87353172  0.24895816  0.12425289  1
  V  V15  1  0.38956457  0.49625099  0.37487698  1
  V  V16  1  0.85549613  0.62906731  0.75425222  1
  V  V17  1  0.12506969  0.12851814  0.00170752  1
  V  V18  1  -0.00247932  -0.00390103  -0.00577909  1
  V  V19  1  0.64304555  -0.00558395  0.62430712  1
  V  V20  1  -0.00028175  0.12638431  0.12625893  1
  V  V21  1  0.12510559  -0.00034949  0.12354372  1
  V  V22  1  0.12349507  0.76000114  0.85801710  1
  V  V23  1  0.74814697  0.37159145  0.12628833  1
  V  V24  1  0.61819030  0.24979007  0.37399395  1
  V  V25  1  0.63026426  0.61412810  0.50092639  1
  V  V26  1  0.61775044  0.37543859  0.25446985  1
  V  V27  1  0.87206695  0.11556118  0.25369920  1
  V  V28  1  0.12165460  0.62760273  0.50456802  1
  V  V29  1  0.25694589  0.75128325  0.49707771  1
  V  V30  1  0.50288765  0.10949883  0.12035497  1
  V  V31  1  0.24741897  0.37364222  0.62625272  1
  V  V32  1  -0.00180484  0.24957481  0.25180504  1
  V  V33  1  0.12301537  0.24995244  0.87573485  1
  V  V34  1  0.62711912  0.11064524  -0.00051316  1
  V  V35  1  0.12183469  0.11280183  0.50195025  1
  V  V36  1  0.38148724  0.24622502  0.62087589  1
  V  V37  1  0.62199576  0.87715454  0.24413856  1
  V  V38  1  0.13081774  0.37642379  0.25093198  1
  V  V39  1  0.49971602  0.62512262  0.12435473  1
  V  V40  1  0.50017674  0.49886760  -0.00118932  1
  V  V41  1  0.38165745  0.75799078  0.61920115  1
  V  V42  1  0.87650758  0.75193835  0.12146349  1
  V  V43  1  0.37392109  -0.00376898  0.37626415  1
  V  V44  1  0.37756756  0.62376681  0.74370944  1
  V  V45  1  0.86331706  0.50679425  0.87497104  1
  V  V46  1  0.37693820  0.36790512  -0.00041173  1
  V  V47  1  -0.00075196  0.75004024  0.24611552  1
  V  V48  1  0.19146655  0.54327188  0.18948480  1
  V  V49  1  0.37599982  0.49856147  0.87112105  1
  V  V50  1  0.37964219  0.88230068  0.00043230  1
  V  V51  1  0.62395827  0.50065261  0.12601722  1
  V  V52  1  0.37396060  0.12749021  0.24550138  1
  V  V53  1  0.25523314  0.37064631  0.13021740  1
  V  V54  1  -0.01381061  0.12542389  0.62081479  1
  V  V55  1  -0.00819592  0.37615157  0.87520774  1
  V  V56  1  0.87877876  0.62615329  0.24683393  1
  V  V57  1  -0.00536394  0.23379751  0.75287891  1
  V  V58  1  0.50087081  0.87631278  0.87401454  1
  V  V59  1  0.25063782  0.62561400  0.87348115  1
  V  V60  1  0.38561260  0.37781412  0.49492083  1
  V  V61  1  0.37296816  0.61922723  0.24906088  1
  V  V62  1  0.50283510  0.61209250  0.61753103  1
  V  V63  1  0.49610616  0.25152727  0.23944548  1
  V  V64  1  0.88218448  0.75815395  0.62379556  1
  V  V65  1  0.23904732  0.87664851  0.62353079  1
  V  V66  1  0.24816297  0.61283536  0.37589410  1
  V  V67  1  0.12504225  0.87999998  0.25360699  1
  V  V68  1  0.12483348  0.75203553  0.37821202  1
  V  V69  1  0.62974737  0.62423523  -0.00443439  1
  V  V70  1  0.75123416  0.50276638  0.25032974  1
  V  V71  1  0.37676765  0.75138189  0.12365323  1
  V  V72  1  0.00138507  0.37651198  0.37713220  1
  V  V73  1  0.24850819  0.25139143  0.00403985  1
  V  V74  1  0.49834099  0.87325833  0.38209415  1
  V  V75  1  0.00150769  0.62461884  0.64730377  1
  V  V76  1  0.86740984  0.37025585  0.49658625  1
  V  V77  1  0.50635031  0.25387260  0.74548988  1
  V  V78  1  0.85384859  0.27358071  0.65510136  1
  V  V79  1  0.50875105  0.37538964  0.86922654  1
  V  V80  1  -0.00231670  0.50185188  0.50667139  1
  V  V81  1  0.62736390  0.74939144  0.87198032  1
  V  V82  1  0.75385920  0.76389753  0.50189727  1
  V  V83  1  0.37916067  0.12674131  0.74527623  1
  V  V84  1  0.12619796  0.24918956  0.37844300  1
  Zn  Zn85  1  0.25084243  0.12255598  0.37518987  1
  Zn  Zn86  1  0.63244270  0.89266964  0.75357656  1
  Zn  Zn87  1  0.25236648  0.87943319  0.12573931  1
  Zn  Zn88  1  -0.00147649  0.87383872  0.86056636  1
  Zn  Zn89  1  0.50091120  0.75143117  0.74591673  1
  Zn  Zn90  1  0.62571927  0.24875088  0.87698968  1
  Zn  Zn91  1  0.74971424  0.12864440  0.86273773  1
  Zn  Zn92  1  0.12363110  0.49866678  0.63275607  1
  Zn  Zn93  1  0.00128715  0.52067513  0.01711111  1
  Zn  Zn94  1  0.74615497  0.87886503  0.12255175  1
  Zn  Zn95  1  0.87491893  0.50346434  0.37579483  1
  Zn  Zn96  1  0.24898014  0.00275579  0.25181119  1
  Zn  Zn97  1  0.75282640  0.62820659  0.37590455  1
  Zn  Zn98  1  0.74456323  0.24643965  0.00076419  1
  Zn  Zn99  1  0.87568266  0.38354712  0.00437350  1
  Zn  Zn100  1  0.24749582  0.49624461  0.74893415  1
  Zn  Zn101  1  0.87392986  0.87609038  -0.00468955  1
  Zn  Zn102  1  0.12373036  0.62566343  0.00932138  1
  Zn  Zn103  1  0.62749750  0.74954645  0.37860156  1
  Zn  Zn104  1  0.74732048  0.25147259  0.50067736  1
  Zn  Zn105  1  0.11792309  0.37282863  0.74690038  1
  Zn  Zn106  1  0.24705468  -0.01236239  0.74857890  1
  Zn  Zn107  1  0.18955281  0.19043371  0.18790129  1
  Zn  Zn108  1  0.16789287  0.15409676  0.70220017  1
  Zn  Zn109  1  0.19012083  0.70659796  0.18833979  1
  Zn  Zn110  1  0.19425274  0.68543545  0.68414741  1
  Zn  Zn111  1  0.68273974  0.18382403  0.18550528  1
  Zn  Zn112  1  0.67990736  0.18948543  0.68371599  1
  Zn  Zn113  1  0.68854666  0.69043326  0.18545313  1
  Zn  Zn114  1  0.70759225  0.73344398  0.70361054  1
  Zn  Zn115  1  0.31496973  0.31081679  0.31487934  1
  Zn  Zn116  1  0.31495682  0.30884856  0.81104497  1
  Zn  Zn117  1  0.31347785  0.81171827  0.31364304  1
  Zn  Zn118  1  0.31587379  0.81215174  0.80677810  1
  Zn  Zn119  1  0.80965027  0.30940557  0.31299712  1
  Zn  Zn120  1  0.80960331  0.30972304  0.82120686  1
  Zn  Zn121  1  0.80880415  0.81269246  0.31266807  1
  Zn  Zn122  1  0.81662659  0.81710018  0.81155702  1
  Zn  Zn123  1  0.18804359  0.43722519  0.44428331  1
  Zn  Zn124  1  0.18477129  0.43703036  0.93899674  1
  Zn  Zn125  1  0.18881723  0.93467674  0.44063132  1
  Zn  Zn126  1  0.19275832  0.94016788  0.93705556  1
  Zn  Zn127  1  0.68636137  0.43790873  0.43334892  1
  Zn  Zn128  1  0.68909325  0.43674016  0.93968781  1
  Zn  Zn129  1  0.68519929  0.94026720  0.43332201  1
  Zn  Zn130  1  0.68867683  0.93532129  0.93989542  1
  Zn  Zn131  1  0.31414308  0.06425904  0.06381753  1
  Zn  Zn132  1  0.31339791  0.06227286  0.56012748  1
  Zn  Zn133  1  0.31715711  0.56372703  0.05379139  1
  Zn  Zn134  1  0.31358296  0.55893129  0.56067119  1
  Zn  Zn135  1  0.81192021  0.06009148  0.06230561  1
  Zn  Zn136  1  0.81081456  0.07201353  0.68392412  1
  Zn  Zn137  1  0.81507930  0.56567063  0.06309058  1
  Zn  Zn138  1  0.81448250  0.56604396  0.56535934  1
  Zn  Zn139  1  0.43404802  0.43733013  0.18757392  1
  Zn  Zn140  1  0.43580245  0.43453734  0.68471835  1
  Zn  Zn141  1  0.43692093  0.93753607  0.19196487  1
  Zn  Zn142  1  0.43722142  0.93649269  0.69162060  1
  Zn  Zn143  1  0.93912229  0.43922991  0.18690972  1
  Zn  Zn144  1  0.91249265  0.42933999  0.70148105  1
  Zn  Zn145  1  0.93784079  0.93624516  0.18703336  1
  Zn  Zn146  1  0.93858732  0.94153256  0.68331072  1
  Zn  Zn147  1  0.06038198  0.06253804  0.31580851  1
  Zn  Zn148  1  0.05659213  0.02240453  0.78833461  1
  Zn  Zn149  1  0.05573958  0.56632524  0.31891610  1
  Zn  Zn150  1  0.07638999  0.54831800  0.83964085  1
  Zn  Zn151  1  0.56035418  0.06123905  0.31252621  1
  Zn  Zn152  1  0.56304281  0.06696585  0.80853413  1
  Zn  Zn153  1  0.56509344  0.56662074  0.31465019  1
  Zn  Zn154  1  0.56601181  0.56417007  0.80818021  1
  Zn  Zn155  1  0.43859730  0.18600946  0.43176284  1
  Zn  Zn156  1  0.44298556  0.18839700  0.93854721  1
  Zn  Zn157  1  0.44023725  0.68201887  0.43718049  1
  Zn  Zn158  1  0.43850205  0.68919580  0.93607526  1
  Zn  Zn159  1  0.93397409  0.18563753  0.43570361  1
  Zn  Zn160  1  0.93483095  0.18325428  0.94013088  1
  Zn  Zn161  1  0.93692681  0.69051012  0.43714512  1
  Zn  Zn162  1  0.94485760  0.68462658  0.93545733  1
  Zn  Zn163  1  0.05163914  0.34375567  0.07383109  1
  Zn  Zn164  1  0.05787070  0.30792578  0.56715119  1
  Zn  Zn165  1  0.06312288  0.81152621  0.06003510  1
  Zn  Zn166  1  0.05991723  0.81864633  0.68455909  1
  Zn  Zn167  1  0.56305019  0.30667837  0.06197279  1
  Zn  Zn168  1  0.56417973  0.31828042  0.56243506  1
  Zn  Zn169  1  0.56174097  0.81403859  0.05984851  1
  Zn  Zn170  1  0.56704261  0.81016572  0.56174660  1
  O  O171  1  0.11923019  0.12001423  0.12265917  1
  O  O172  1  0.10235582  0.14425981  0.60614655  1
  O  O173  1  0.14360399  0.61550941  0.13149957  1
  O  O174  1  0.11880800  0.62411476  0.61921615  1
  O  O175  1  0.61176926  0.12399210  0.11616599  1
  O  O176  1  0.62493121  0.11614245  0.60898325  1
  O  O177  1  0.61859679  0.62035107  0.11803897  1
  O  O178  1  0.61862121  0.61059241  0.61358920  1
  O  O179  1  0.36756953  0.38602454  0.38273592  1
  O  O180  1  0.38081954  0.37985719  0.88159597  1
  O  O181  1  0.38464300  0.88371288  0.36820807  1
  O  O182  1  0.38093042  0.88190480  0.87871956  1
  O  O183  1  0.88414014  0.37699018  0.37987743  1
  O  O184  1  0.87553135  0.38740843  0.87966288  1
  O  O185  1  0.88947119  0.87408148  0.36723657  1
  O  O186  1  0.88096564  0.88738428  0.87417891  1
  O  O187  1  0.25867114  0.00040241  0.37393595  1
  O  O188  1  0.26296074  0.00633849  0.87227114  1
  O  O189  1  0.25230934  0.51058347  0.37972633  1
  O  O190  1  0.25906682  0.51023686  0.87469324  1
  O  O191  1  0.74495353  0.01023192  0.36274509  1
  O  O192  1  0.76387320  -0.00235079  0.87741816  1
  O  O193  1  0.75315752  0.50062564  0.35988806  1
  O  O194  1  0.76359368  0.49917246  0.88010832  1
  O  O195  1  0.25384963  0.49157583  0.12244731  1
  O  O196  1  0.24752366  0.48799279  0.62456836  1
  O  O197  1  0.23713939  1.00011264  0.12660681  1
  O  O198  1  0.25970754  0.97784119  0.61595528  1
  O  O199  1  0.74593930  0.49394165  0.13434838  1
  O  O200  1  0.74590477  0.50026993  0.62829917  1
  O  O201  1  0.75508199  0.99741596  0.14094434  1
  O  O202  1  0.74132826  0.99865834  0.62169741  1
  O  O203  1  0.00549119  0.36984435  0.26375407  1
  O  O204  1  -0.00514367  0.35838490  0.76122579  1
  O  O205  1  0.00940296  0.87333337  0.25877839  1
  O  O206  1  0.02275816  0.90533596  0.75009222  1
  O  O207  1  0.50781385  0.36692168  0.24252161  1
  O  O208  1  0.49174116  0.36802046  0.75964265  1
  O  O209  1  0.50426000  0.86857305  0.25765377  1
  O  O210  1  0.50486078  0.87157495  0.76162916  1
  O  O211  1  0.49591813  0.12926420  0.23922166  1
  O  O212  1  0.48646331  0.13677357  0.75394161  1
  O  O213  1  0.49562111  0.63091766  0.24390335  1
  O  O214  1  0.48793622  0.62307465  0.74182283  1
  O  O215  1  0.99162634  0.13006183  0.24750119  1
  O  O216  1  1.00527746  0.12920277  0.73719131  1
  O  O217  1  0.99302992  0.63769245  0.25380867  1
  O  O218  1  1.00660908  0.61691206  0.74560151  1
  O  O219  1  0.36774564  0.26204197  -0.00700846  1
  O  O220  1  0.36803325  0.25158877  0.50192806  1
  O  O221  1  0.36676767  0.75723212  0.00234939  1
  O  O222  1  0.36690123  0.73917995  0.50622690  1
  O  O223  1  0.86986463  0.24458985  0.01647148  1
  O  O224  1  0.87183651  0.26418085  0.49130950  1
  O  O225  1  0.86964106  0.75039009  0.00526592  1
  O  O226  1  0.86867825  0.74464108  0.51163715  1
  O  O227  1  0.12898376  0.24789248  0.49066012  1
  O  O228  1  0.13250900  0.24784125  0.99667748  1
  O  O229  1  0.13527896  0.73519266  0.49323483  1
  O  O230  1  0.14148878  0.75122217  0.99766262  1
  O  O231  1  0.62228832  0.24433561  0.49175416  1
  O  O232  1  0.62458041  0.23638284  0.99901281  1
  O  O233  1  0.64158483  0.74110701  0.50338656  1
  O  O234  1  0.63021877  0.74324411  0.99385831  1
  O  O235  1  0.50111565  0.23988294  0.13608771  1
  O  O236  1  0.49116101  0.25580611  0.62979963  1
  O  O237  1  0.49413191  0.74494684  0.12930420  1
  O  O238  1  0.49608355  0.73922574  0.62367902  1
  O  O239  1  0.99216390  0.24935479  0.13354141  1
  O  O240  1  0.98576068  0.24985432  0.64053380  1
  O  O241  1  0.99495263  0.75868377  0.13910649  1
  O  O242  1  0.99120652  0.73939854  0.62802834  1
  O  O243  1  0.00748001  0.25666659  0.37216494  1
  O  O244  1  0.00411560  0.24438984  0.86679702  1
  O  O245  1  0.00363103  0.76216207  0.36837954  1
  O  O246  1  0.02059387  0.75576775  0.87498777  1
  O  O247  1  0.51234164  0.24295799  0.36054337  1
  O  O248  1  0.49900275  0.25998798  0.86592097  1
  O  O249  1  0.49959619  0.75648413  0.36987250  1
  O  O250  1  0.50673825  0.75965666  0.87603803  1
  O  O251  1  0.23927246  0.13172545  0.49974307  1
  O  O252  1  0.24795887  0.13397672  0.99521792  1
  O  O253  1  0.24343951  0.62913971  0.49360661  1
  O  O254  1  0.25126403  0.63509360  0.98960233  1
  O  O255  1  0.73609039  0.12958417  0.48421741  1
  O  O256  1  0.73452717  0.12292214  1.00403121  1
  O  O257  1  0.74194372  0.62857475  0.49798842  1
  O  O258  1  0.73865354  0.63317132  1.00877784  1
  O  O259  1  0.25523287  0.36974606  0.00470184  1
  O  O260  1  0.25507825  0.36655037  0.50868146  1
  O  O261  1  0.26268627  0.87014434  0.00034302  1
  O  O262  1  0.24954346  0.85852000  0.50453620  1
  O  O263  1  0.75078400  0.37453609  0.01671809  1
  O  O264  1  0.76438028  0.37428145  0.49109029  1
  O  O265  1  0.75213048  0.86488767  0.00472911  1
  O  O266  1  0.74591520  0.86235994  0.49589166  1
  O  O267  1  0.12328514  0.49463369  0.25421977  1
  O  O268  1  0.13013433  0.49117727  0.75252048  1
  O  O269  1  0.12464546  0.99543949  0.24360979  1
  O  O270  1  0.15287698  1.04715217  0.74364111  1
  O  O271  1  0.63063007  0.49480653  0.24600536  1
  O  O272  1  0.62667774  0.50234960  0.73679915  1
  O  O273  1  0.63070964  0.99048789  0.25276297  1
  O  O274  1  0.61600879  1.00547439  0.72750793  1
  O  O275  1  0.37249652  0.00662828  0.25917000  1
  O  O276  1  0.37044497  0.01063650  0.75485695  1
  O  O277  1  0.37670131  0.50776208  0.25832513  1
  O  O278  1  0.37112340  0.50573119  0.75414510  1
  O  O279  1  0.87136987  0.01141824  0.24787797  1
  O  O280  1  0.87396365  0.00314314  0.75715204  1
  O  O281  1  0.86998123  0.50825145  0.24750049  1
  O  O282  1  0.87305067  0.51834478  0.76163121  1
  O  O283  1  0.12112325  0.36922570  0.37266495  1
  O  O284  1  0.11617254  0.36084366  0.87377393  1
  O  O285  1  0.11880026  0.87036325  0.36994017  1
  O  O286  1  0.13354278  0.86126299  0.87653461  1
  O  O287  1  0.62761539  0.36810355  0.36182368  1
  O  O288  1  0.61149891  0.37526341  0.88170976  1
  O  O289  1  0.61534927  0.87155803  0.36482746  1
  O  O290  1  0.61659134  0.86772929  0.87675965  1
  O  O291  1  0.38583208  0.11975622  0.13579027  1
  O  O292  1  0.36919449  0.13757860  0.63009014  1
  O  O293  1  0.37927560  0.62954666  0.12879154  1
  O  O294  1  0.38003157  0.62981048  0.62807985  1
  O  O295  1  0.88040373  0.12984114  0.13315069  1
  O  O296  1  0.88339839  0.14071354  0.62263683  1
  O  O297  1  0.87211036  0.63768620  0.13714661  1
  O  O298  1  0.88399083  0.62726277  0.63947701  1
  O  O299  1  0.25203257  0.25453267  0.11202130  1
  O  O300  1  0.25668064  0.25385792  0.61207417  1
  O  O301  1  0.25970644  0.75735580  0.11491519  1
  O  O302  1  0.26006515  0.75466090  0.61514859  1
  O  O303  1  0.75511215  0.25654209  0.12912060  1
  O  O304  1  0.76031726  0.24656764  0.61875151  1
  O  O305  1  0.75879960  0.75259854  0.11611272  1
  O  O306  1  0.76846309  0.74269632  0.60925695  1
  O  O307  1  0.24322587  0.24830915  0.38681269  1
  O  O308  1  0.24254904  0.25014961  0.88527694  1
  O  O309  1  0.24793362  0.73930456  0.37979700  1
  O  O310  1  0.24868443  0.74710576  0.87857329  1
  O  O311  1  0.73448739  0.24240128  0.37144650  1
  O  O312  1  0.74428215  0.24681384  0.88285728  1
  O  O313  1  0.75232213  0.74790682  0.38889464  1
  O  O314  1  0.74257123  0.75061536  0.88995409  1
  O  O315  1  0.00532324  0.11547607  0.00802581  1
  O  O316  1  0.00047523  0.11531214  0.49841134  1
  O  O317  1  0.00903755  0.63381267  0.00990207  1
  O  O318  1  0.00629587  0.61834654  0.50271522  1
  O  O319  1  0.50451758  0.12620661  0.01402056  1
  O  O320  1  0.50895283  0.11394682  0.48944854  1
  O  O321  1  0.50359762  0.61936422  0.00654745  1
  O  O322  1  0.51862281  0.63042923  0.50490569  1
  O  O323  1  0.48418710  0.36731598  0.49588029  1
  O  O324  1  0.49234946  0.37770909  0.99572511  1
  O  O325  1  0.50609228  0.88043917  0.48737632  1
  O  O326  1  0.48847435  0.87115334  0.98971994  1
  O  O327  1  0.99877529  0.38076762  0.48966043  1
  O  O328  1  0.98961229  0.35305254  0.97810490  1
  O  O329  1  0.99686078  0.88997119  0.48612198  1
  O  O330  1  1.00261890  0.88845734  0.99733397  1
  O  O331  1  0.48883674  0.50443662  0.37290339  1
  O  O332  1  0.49542293  0.49430304  0.87892442  1
  O  O333  1  0.49364131  0.99116135  0.38007036  1
  O  O334  1  0.48843156  0.99315606  0.86849734  1
  O  O335  1  0.99818250  0.49293066  0.38707979  1
  O  O336  1  0.98358589  0.48605646  0.87066071  1
  O  O337  1  1.00105561  0.99000558  0.38186425  1
  O  O338  1  0.99088574  1.00198919  0.88088792  1
  O  O339  1  0.00952308  0.00428177  0.11920464  1
  O  O340  1  -0.00965469  0.01088343  0.60578683  1
  O  O341  1  0.01097469  0.45070955  0.10469545  1
  O  O342  1  -0.00023594  0.50652733  0.61543297  1
  O  O343  1  0.49924469  0.01115910  0.12851070  1
  O  O344  1  0.49036110  -0.00370925  0.60896008  1
  O  O345  1  0.50511018  0.50423593  0.11884040  1
  O  O346  1  0.49502903  0.51095794  0.62308432  1
  O  O347  1  0.24864448  0.37044274  0.24163927  1
  O  O348  1  0.25194188  0.36875722  0.73448434  1
  O  O349  1  0.23606955  0.87435099  0.24948435  1
  O  O350  1  0.25486205  0.87237415  0.73022702  1
  O  O351  1  0.74330462  0.38146244  0.24230022  1
  O  O352  1  0.81791568  0.35509977  0.71949731  1
  O  O353  1  0.74012075  0.88184983  0.25081002  1
  O  O354  1  0.72895306  0.83774618  0.74820253  1
  O  O355  1  0.25983107  0.12548272  0.25149964  1
  O  O356  1  0.27075637  0.14703982  0.76245241  1
  O  O357  1  0.24901035  0.61815938  0.25324889  1
  O  O358  1  0.26307096  0.62384400  0.75406411  1
  O  O359  1  0.75305946  0.11904451  0.25472242  1
  O  O360  1  0.74079666  0.12583613  0.75048124  1
  O  O361  1  0.75639183  0.61796235  0.24979404  1
  O  O362  1  0.75823795  0.63362159  0.74909364  1
  O  O363  1  0.37508872  0.11729287  0.36161390  1
  O  O364  1  0.37406138  0.11899860  0.87191206  1
  O  O365  1  0.36617680  0.61771499  0.36923185  1
  O  O366  1  0.36848356  0.62289327  0.86654214  1
  O  O367  1  0.86119791  0.13354055  0.36404980  1
  O  O368  1  0.86991298  0.10733714  0.88282166  1
  O  O369  1  0.87453489  0.62454327  0.36130132  1
  O  O370  1  0.87837560  0.62110940  0.86310801  1
  O  O371  1  0.14512521  0.36684629  0.13680493  1
  O  O372  1  0.13239988  0.37360412  0.62539393  1
  O  O373  1  0.12493728  0.88389790  0.13364188  1
  O  O374  1  0.14076746  0.86887153  0.61772149  1
  O  O375  1  0.62949415  0.37946178  0.13403590  1
  O  O376  1  0.62396301  0.39570336  0.61719797  1
  O  O377  1  0.62334710  0.86859027  0.13934524  1
  O  O378  1  0.62054443  0.89255909  0.62250188  1
  O  O379  1  0.12154487  0.25428630  0.26223118  1
  O  O380  1  0.11330643  0.24671017  0.75971551  1
  O  O381  1  0.11647183  0.75923504  0.25685635  1
  O  O382  1  0.12937024  0.75290834  0.75443348  1
  O  O383  1  0.61779069  0.25766405  0.25286680  1
  O  O384  1  0.60967183  0.25080605  0.75079213  1
  O  O385  1  0.61741936  0.75377392  0.25385487  1
  O  O386  1  0.61419967  0.72700062  0.77050824  1
  O  O387  1  0.38465118  0.24052115  0.25591097  1
  O  O388  1  0.38467893  0.24823660  0.73820477  1
  O  O389  1  0.37954578  0.74177099  0.24369311  1
  O  O390  1  0.37922679  0.74048279  0.73889594  1
  O  O391  1  0.87734199  0.24176116  0.24199803  1
  O  O392  1  0.88900080  0.23188436  0.75859798  1
  O  O393  1  0.88013684  0.74571697  0.24394673  1
  O  O394  1  0.87682757  0.73692002  0.74107726  1
  O  O395  1  0.37162600  0.48983151  0.48910805  1
  O  O396  1  0.38197117  0.49005302  0.99194957  1
  O  O397  1  0.38230739  1.00813758  0.48431549  1
  O  O398  1  0.37119672  0.99167210  0.99157381  1
  O  O399  1  0.88209455  0.49212606  0.49731416  1
  O  O400  1  0.87991038  0.50516374  0.99031895  1
  O  O401  1  0.88038745  1.00387203  0.49195270  1
  O  O402  1  0.88432749  0.99668675  0.99717821  1
  O  O403  1  0.12127875  0.00645346  0.00566857  1
  O  O404  1  0.12201443  0.01166360  0.49538156  1
  O  O405  1  0.11162982  0.51775167  -0.03805638  1
  O  O406  1  0.11760747  0.51170514  0.50213677  1
  O  O407  1  0.62356001  0.01090853  -0.00036223  1
  O  O408  1  0.61813041  0.00597933  0.50735941  1
  O  O409  1  0.62061754  0.50660465  0.00645006  1
  O  O410  1  0.63255432  0.51105344  0.50255622  1
  O  O411  1  0.36532760  0.37804495  0.11439927  1
  O  O412  1  0.36794482  0.36505398  0.61529910  1
  O  O413  1  0.37638362  0.87207571  0.11674113  1
  O  O414  1  0.37659474  0.85973669  0.62534418  1
  O  O415  1  0.86389939  0.36500251  0.12794714  1
  O  O416  1  0.89241929  0.36923512  0.59910007  1
  O  O417  1  0.87403784  0.86207527  0.12492323  1
  O  O418  1  0.88368905  0.85658242  0.63106709  1
  O  O419  1  0.12511717  0.13399377  0.38264495  1
  O  O420  1  0.13217689  0.13875906  0.88648187  1
  O  O421  1  0.13121369  0.63085640  0.38077710  1
  O  O422  1  0.14343161  0.64416247  0.86710232  1
  O  O423  1  0.62873115  0.13110866  0.37785891  1
  O  O424  1  0.62082040  0.12395347  0.88983673  1
  O  O425  1  0.62907694  0.62787591  0.38717554  1
  O  O426  1  0.61577302  0.62904521  0.89101884  1
