# generated using pymatgen
data_V85Zn86O256
_symmetry_space_group_name_H-M   'P 1'
_cell_length_a   16.92546243
_cell_length_b   16.92592175
_cell_length_c   16.92846654
_cell_angle_alpha   90.06239558
_cell_angle_beta   90.02591744
_cell_angle_gamma   90.01866542
_symmetry_Int_Tables_number   1
_chemical_formula_structural   V85Zn86O256
_chemical_formula_sum   'V85 Zn86 O256'
_cell_volume   4849.64742917
_cell_formula_units_Z   1
loop_
 _symmetry_equiv_pos_site_id
 _symmetry_equiv_pos_as_xyz
  1  'x, y, z'
loop_
 _atom_site_type_symbol
 _atom_site_label
 _atom_site_symmetry_multiplicity
 _atom_site_fract_x
 _atom_site_fract_y
 _atom_site_fract_z
 _atom_site_occupancy
  V  V0  1  0.74789310  0.11528840  0.37559992  1
  V  V1  1  0.24099571  0.12888907  0.87418399  1
  V  V2  1  0.36986471  0.49660737  0.37035307  1
  V  V3  1  0.49767170  0.37734062  0.87274335  1
  V  V4  1  0.62097971  0.75351659  0.87479191  1
  V  V5  1  0.62536056  0.36931330  0.24336456  1
  V  V6  1  0.87542587  0.62524586  0.24845851  1
  V  V7  1  0.62268214  0.74568563  0.37344189  1
  V  V8  1  0.36463793  0.50765916  0.86062064  1
  V  V9  1  0.26697987  0.87001658  0.62332335  1
  V  V10  1  0.48198133  0.62609967  0.62882113  1
  V  V11  1  0.00255781  0.38090136  0.37981790  1
  V  V12  1  0.62332036  0.62619221  0.00372623  1
  V  V13  1  0.00669072  0.86938311  0.87319350  1
  V  V14  1  0.38041709  0.24785496  0.13070170  1
  V  V15  1  0.50102693  0.37267706  0.37125897  1
  V  V16  1  0.24285508  0.25182351  -0.00312726  1
  V  V17  1  0.37357172  0.36922510  0.50209948  1
  V  V18  1  0.00445814  0.00972264  0.49955752  1
  V  V19  1  0.62184198  0.87739406  0.25169867  1
  V  V20  1  0.12803041  0.00429603  0.61986771  1
  V  V21  1  0.25095332  0.62442314  0.37339634  1
  V  V22  1  0.62282897  0.12178453  0.50178548  1
  V  V23  1  0.74943437  0.37350339  0.62417728  1
  V  V24  1  0.75087481  0.49436960  0.24612954  1
  V  V25  1  -0.00589293  0.74643444  0.73499738  1
  V  V26  1  0.37443638  0.61905272  0.24260002  1
  V  V27  1  0.13075193  0.36982159  0.75343725  1
  V  V28  1  0.62176867  0.12437545  -0.00151470  1
  V  V29  1  0.11818435  0.50528866  0.62498764  1
  V  V30  1  0.12541779  -0.00093776  0.13106719  1
  V  V31  1  0.13068856  0.37567962  0.25242475  1
  V  V32  1  0.01185430  0.87882562  0.37423986  1
  V  V33  1  0.00224002  0.24966566  0.25160981  1
  V  V34  1  0.38420344  -0.00451441  0.38812410  1
  V  V35  1  0.88328350  0.13049557  0.74985346  1
  V  V36  1  0.86892431  0.12398790  0.25112430  1
  V  V37  1  0.00071557  0.00249629  -0.00221832  1
  V  V38  1  0.74842350  0.12295032  0.86827750  1
  V  V39  1  0.49650103  0.12153881  0.62163341  1
  V  V40  1  0.25328350  0.00329582  0.25381474  1
  V  V41  1  0.00405761  0.62674372  0.12343239  1
  V  V42  1  0.88239860  0.25214215  0.62858868  1
  V  V43  1  0.37440801  0.37575552  -0.00200630  1
  V  V44  1  0.24439496  0.64304590  0.86938026  1
  V  V45  1  0.74797645  0.25263865  0.00543431  1
  V  V46  1  0.37237667  0.74737074  0.11686063  1
  V  V47  1  0.24979497  0.87331653  0.12334909  1
  V  V48  1  0.75201593  0.50122225  0.75239408  1
  V  V49  1  0.87163499  0.37503426  0.00632374  1
  V  V50  1  -0.00141305  0.12571905  0.12583455  1
  V  V51  1  0.63384501  0.00202972  0.63242663  1
  V  V52  1  0.75124489  0.87827032  0.13267199  1
  V  V53  1  0.49998460  -0.01034783  -0.00107957  1
  V  V54  1  0.37275523  0.13103962  0.74836581  1
  V  V55  1  0.49807892  0.25064839  0.74540825  1
  V  V56  1  0.25135830  0.37832618  0.12707269  1
  V  V57  1  0.49724314  0.74669334  0.24311629  1
  V  V58  1  0.49717187  0.50563480  0.00085712  1
  V  V59  1  0.62447901  0.49987865  0.12413429  1
  V  V60  1  0.62387594  0.37536367  0.74997211  1
  V  V61  1  0.87941648  0.50728276  0.87591434  1
  V  V62  1  0.87131855  -0.00146619  0.86543759  1
  V  V63  1  0.25297638  0.37825379  0.62521555  1
  V  V64  1  0.00485948  0.49766579  -0.00049814  1
  V  V65  1  0.12735010  0.86735527  0.74772419  1
  V  V66  1  0.74998489  0.62324583  0.37451366  1
  V  V67  1  0.75191243  0.74924653  0.00010944  1
  V  V68  1  0.62380222  0.50425015  0.62474046  1
  V  V69  1  0.48961947  0.75173091  0.75122381  1
  V  V70  1  0.62700628  0.00130790  0.12963683  1
  V  V71  1  0.26255750  0.75172214  0.50346731  1
  V  V72  1  0.87469480  0.75205509  0.12824451  1
  V  V73  1  0.62986720  0.87703449  0.75452688  1
  V  V74  1  0.12944118  0.50167491  0.12806604  1
  V  V75  1  0.75292415  0.75330831  0.50883006  1
  V  V76  1  0.13231404  0.24295612  0.38921184  1
  V  V77  1  0.87438826  0.87741623  0.00011886  1
  V  V78  1  0.87298075  -0.00266644  0.37427641  1
  V  V79  1  0.24980625  -0.00168889  0.75145091  1
  V  V80  1  0.37834666  -0.00269488  0.87629826  1
  V  V81  1  0.62297455  0.24756812  0.37208362  1
  V  V82  1  0.00990056  0.75596078  0.25198137  1
  V  V83  1  0.87777017  0.38099559  0.50055972  1
  V  V84  1  0.00186785  0.36398929  0.86764878  1
  Zn  Zn85  1  0.12362631  0.62444557  0.49829647  1
  Zn  Zn86  1  0.38111922  0.12745322  0.25683583  1
  Zn  Zn87  1  0.62372679  0.25090356  0.87513849  1
  Zn  Zn88  1  0.87555233  0.62921298  0.74534905  1
  Zn  Zn89  1  0.49951304  0.50113271  0.49912387  1
  Zn  Zn90  1  0.14541853  0.65142898  0.00174522  1
  Zn  Zn91  1  0.00744923  0.13067073  0.62548710  1
  Zn  Zn92  1  0.48111663  0.86412811  0.39472406  1
  Zn  Zn93  1  0.50219263  0.12836889  0.13052539  1
  Zn  Zn94  1  0.12026411  0.13143241  -0.00435409  1
  Zn  Zn95  1  0.13001362  0.75353477  0.37627153  1
  Zn  Zn96  1  0.87010661  0.25485569  0.13001672  1
  Zn  Zn97  1  0.88123863  0.87169522  0.50584998  1
  Zn  Zn98  1  0.30329954  0.21095137  0.55687100  1
  Zn  Zn99  1  0.75230009  0.62577744  0.87709162  1
  Zn  Zn100  1  0.88148178  0.50302654  0.37814910  1
  Zn  Zn101  1  0.75158893  0.24899388  0.49976778  1
  Zn  Zn102  1  -0.01598554  0.62086757  0.59976668  1
  Zn  Zn103  1  0.37046304  0.86925282  -0.00548366  1
  Zn  Zn104  1  0.62301263  0.62284511  0.50106632  1
  Zn  Zn105  1  0.25066853  0.12307520  0.39400563  1
  Zn  Zn106  1  0.75701666  0.87671034  0.63557545  1
  Zn  Zn107  1  0.18964894  0.18547845  0.18877701  1
  Zn  Zn108  1  0.18272061  0.19187664  0.69159934  1
  Zn  Zn109  1  0.19235410  0.68703491  0.18945436  1
  Zn  Zn110  1  0.19168849  0.68676098  0.68874099  1
  Zn  Zn111  1  0.68780921  0.18649699  0.18753413  1
  Zn  Zn112  1  0.69006350  0.18943434  0.68844546  1
  Zn  Zn113  1  0.68654264  0.68524083  0.18616827  1
  Zn  Zn114  1  0.68654103  0.68511099  0.69121235  1
  Zn  Zn115  1  0.30965292  0.31144504  0.31365512  1
  Zn  Zn116  1  0.31069468  0.31379840  0.81182780  1
  Zn  Zn117  1  0.30911935  0.81388778  0.30667574  1
  Zn  Zn118  1  0.31050693  0.81217493  0.81465397  1
  Zn  Zn119  1  0.81075727  0.31071453  0.31623956  1
  Zn  Zn120  1  0.81413703  0.31258845  0.81679348  1
  Zn  Zn121  1  0.81387141  0.81334265  0.31659524  1
  Zn  Zn122  1  0.81467609  0.80974696  0.81333335  1
  Zn  Zn123  1  0.19015183  0.43653476  0.44241807  1
  Zn  Zn124  1  0.18638566  0.44054438  0.93656656  1
  Zn  Zn125  1  0.19254188  0.93680283  0.44021331  1
  Zn  Zn126  1  0.18693594  0.93842420  0.93851811  1
  Zn  Zn127  1  0.68824318  0.43711064  0.43829355  1
  Zn  Zn128  1  0.68809445  0.43698708  0.93621833  1
  Zn  Zn129  1  0.64508178  0.91463625  0.46168855  1
  Zn  Zn130  1  0.68783310  0.93630511  0.93826216  1
  Zn  Zn131  1  0.31046409  0.06369813  0.06048008  1
  Zn  Zn132  1  0.31686950  0.04766752  0.56399605  1
  Zn  Zn133  1  0.31127911  0.56374960  0.05780076  1
  Zn  Zn134  1  0.30607705  0.55409298  0.55923603  1
  Zn  Zn135  1  0.81053443  0.06410105  0.06103134  1
  Zn  Zn136  1  0.81410343  0.06093538  0.56140683  1
  Zn  Zn137  1  0.81207232  0.56165088  0.06360897  1
  Zn  Zn138  1  0.81070709  0.56398804  0.56226975  1
  Zn  Zn139  1  0.44104287  0.43661138  0.18722663  1
  Zn  Zn140  1  0.43609115  0.43850809  0.68427331  1
  Zn  Zn141  1  0.43740197  0.93644839  0.18895214  1
  Zn  Zn142  1  0.44529403  0.93978959  0.69217596  1
  Zn  Zn143  1  0.94051859  0.43737622  0.18937082  1
  Zn  Zn144  1  0.93971909  0.44144928  0.68782809  1
  Zn  Zn145  1  0.93806030  0.93967010  0.19127749  1
  Zn  Zn146  1  0.93847030  0.93642047  0.68364237  1
  Zn  Zn147  1  0.06432534  0.06407667  0.31249539  1
  Zn  Zn148  1  0.06288608  0.05794122  0.80899916  1
  Zn  Zn149  1  0.06448926  0.56346214  0.31085029  1
  Zn  Zn150  1  0.07206267  0.56266735  0.80902218  1
  Zn  Zn151  1  0.55687833  0.06296429  0.30889609  1
  Zn  Zn152  1  0.56045890  0.06154809  0.81248336  1
  Zn  Zn153  1  0.55738786  0.56062819  0.30903170  1
  Zn  Zn154  1  0.55949046  0.56696508  0.81324898  1
  Zn  Zn155  1  0.44148826  0.18280938  0.43141177  1
  Zn  Zn156  1  0.43443827  0.18707923  0.93724392  1
  Zn  Zn157  1  0.43837498  0.68209888  0.43709009  1
  Zn  Zn158  1  0.43525782  0.68371757  0.93339094  1
  Zn  Zn159  1  0.93794426  0.19241960  0.43885532  1
  Zn  Zn160  1  0.93368978  0.18827570  0.93810103  1
  Zn  Zn161  1  0.93748176  0.68964920  0.43573079  1
  Zn  Zn162  1  0.96718146  0.69958498  0.94970033  1
  Zn  Zn163  1  0.06098710  0.31397336  0.06391272  1
  Zn  Zn164  1  0.06279488  0.31770220  0.56595859  1
  Zn  Zn165  1  0.06463513  0.81819364  0.06597276  1
  Zn  Zn166  1  0.07177074  0.81367093  0.55737117  1
  Zn  Zn167  1  0.56249820  0.31600065  0.06019086  1
  Zn  Zn168  1  0.56005930  0.30954937  0.55981791  1
  Zn  Zn169  1  0.56019352  0.81142593  0.06467247  1
  Zn  Zn170  1  0.56104250  0.80709352  0.56982056  1
  O  O171  1  0.11777513  0.11623335  0.12302165  1
  O  O172  1  0.12436028  0.10942424  0.63722065  1
  O  O173  1  0.12396885  0.61729774  0.12282425  1
  O  O174  1  0.12684172  0.61138219  0.62773373  1
  O  O175  1  0.62643986  0.11674840  0.11750732  1
  O  O176  1  0.62035078  0.12326878  0.62125530  1
  O  O177  1  0.62596326  0.61794027  0.11212715  1
  O  O178  1  0.62299709  0.61187037  0.62641462  1
  O  O179  1  0.38181407  0.37826709  0.37552525  1
  O  O180  1  0.37999184  0.38384385  0.87903165  1
  O  O181  1  0.37230550  0.88964681  0.36623953  1
  O  O182  1  0.36805996  0.89217319  0.87673855  1
  O  O183  1  0.88455363  0.37377525  0.38197209  1
  O  O184  1  0.88659560  0.38254527  0.88246015  1
  O  O185  1  0.88181952  0.88497343  0.37808016  1
  O  O186  1  0.87958252  0.88334880  0.88011364  1
  O  O187  1  0.25617386  0.00072462  0.36621053  1
  O  O188  1  0.25524991  0.00880310  0.86998779  1
  O  O189  1  0.26267367  0.50432403  0.37795667  1
  O  O190  1  0.26392151  0.49666239  0.87495637  1
  O  O191  1  0.75799999  0.01247950  0.37766802  1
  O  O192  1  0.76037381  0.00934970  0.88426212  1
  O  O193  1  0.74715593  0.51105244  0.36670513  1
  O  O194  1  0.75938965  0.49998796  0.86881230  1
  O  O195  1  0.24508269  0.48639741  0.11957311  1
  O  O196  1  0.24164616  0.48648297  0.62791135  1
  O  O197  1  0.24308566  0.99996834  0.13244103  1
  O  O198  1  0.24538395  0.98946133  0.63367983  1
  O  O199  1  0.73726362  0.50240013  0.13251695  1
  O  O200  1  0.74187075  0.49313821  0.63363175  1
  O  O201  1  0.73700647  0.99186664  0.11774761  1
  O  O202  1  0.73718993  1.00617836  0.62801054  1
  O  O203  1  0.00987890  0.36668852  0.25433852  1
  O  O204  1  0.00349224  0.37747104  0.76379602  1
  O  O205  1  -0.00503871  0.86691643  0.25935820  1
  O  O206  1  0.00742471  0.86958323  0.75284008  1
  O  O207  1  0.51072679  0.37811009  0.26175763  1
  O  O208  1  0.50193461  0.36792618  0.75212373  1
  O  O209  1  0.50895924  0.86558359  0.25155346  1
  O  O210  1  0.51256969  0.85912765  0.74409704  1
  O  O211  1  0.49469852  0.12701738  0.24334197  1
  O  O212  1  0.49245668  0.13296022  0.74670966  1
  O  O213  1  0.48627127  0.63280077  0.25264163  1
  O  O214  1  0.50205631  0.63483481  0.73824211  1
  O  O215  1  0.99069778  0.13259030  0.24845800  1
  O  O216  1  0.98689605  0.12270849  0.75057965  1
  O  O217  1  0.99501353  0.63168552  0.24362754  1
  O  O218  1  1.00375278  0.64337052  0.75413904  1
  O  O219  1  0.36532910  0.25720850  0.00663237  1
  O  O220  1  0.38404066  0.26317903  0.49416107  1
  O  O221  1  0.38602856  0.75080409  0.01287574  1
  O  O222  1  0.36260349  0.74872562  0.49305837  1
  O  O223  1  0.86671197  0.25727405  0.00266487  1
  O  O224  1  0.87249026  0.26073079  0.50748832  1
  O  O225  1  0.87454676  0.75858518  0.00784806  1
  O  O226  1  0.85603044  0.75304008  0.48971574  1
  O  O227  1  0.11965305  0.25381354  0.48709022  1
  O  O228  1  0.13769670  0.25061794  1.00576536  1
  O  O229  1  0.14074601  0.74655210  0.49392057  1
  O  O230  1  0.07152893  0.73253194  0.99813507  1
  O  O231  1  0.62755600  0.23995710  0.49268616  1
  O  O232  1  0.62948505  0.24328988  0.99803944  1
  O  O233  1  0.63535307  0.74187758  0.48811569  1
  O  O234  1  0.62687875  0.74369388  0.99648151  1
  O  O235  1  0.48297016  0.25391845  0.11673445  1
  O  O236  1  0.50506427  0.24054953  0.63820208  1
  O  O237  1  0.49214549  0.75219579  0.13624978  1
  O  O238  1  0.50409177  0.73552273  0.63651116  1
  O  O239  1  0.99866074  0.24531492  0.13660843  1
  O  O240  1  0.98738928  0.24864244  0.62127810  1
  O  O241  1  0.99162492  0.75011738  0.13727481  1
  O  O242  1  1.00452790  0.75027741  0.63297528  1
  O  O243  1  0.00875125  0.25759578  0.36650783  1
  O  O244  1  -0.00185226  0.26582802  0.88160608  1
  O  O245  1  0.00099620  0.76217875  0.36744155  1
  O  O246  1  -0.00690534  0.76749616  0.85997825  1
  O  O247  1  0.51458095  0.25578866  0.37524949  1
  O  O248  1  0.49921036  0.25639724  0.86503405  1
  O  O249  1  0.50648547  0.74876073  0.36569639  1
  O  O250  1  0.50681639  0.74209545  0.86163230  1
  O  O251  1  0.25613479  0.12355002  0.50796008  1
  O  O252  1  0.24685601  0.13319843  0.99112673  1
  O  O253  1  0.25090357  0.63326222  0.49221644  1
  O  O254  1  0.25166147  0.62183261  0.98344398  1
  O  O255  1  0.74380943  0.12830761  0.49181405  1
  O  O256  1  0.73957077  0.13003241  0.99245329  1
  O  O257  1  0.74720346  0.63110629  0.48932092  1
  O  O258  1  0.74275260  0.63132943  0.99971541  1
  O  O259  1  0.25390838  0.36975635  0.00573274  1
  O  O260  1  0.26044335  0.37275028  0.50951033  1
  O  O261  1  0.25253255  0.88565293  0.01605003  1
  O  O262  1  0.25014693  0.86211744  0.50860732  1
  O  O263  1  0.75912068  0.36583131  -0.00720304  1
  O  O264  1  0.75554607  0.37137782  0.50681888  1
  O  O265  1  0.75409777  0.86909832  0.01076174  1
  O  O266  1  0.74261496  0.85832633  0.49838686  1
  O  O267  1  0.12160473  0.49076198  0.23657704  1
  O  O268  1  0.11947014  0.48640341  0.73739410  1
  O  O269  1  0.13700274  1.00639707  0.24263627  1
  O  O270  1  0.13191925  0.98934344  0.74418342  1
  O  O271  1  0.62921139  0.49473752  0.24167294  1
  O  O272  1  0.63078610  0.49552222  0.74657985  1
  O  O273  1  0.62261271  0.98997595  0.24183527  1
  O  O274  1  0.62093448  0.98955191  0.74787382  1
  O  O275  1  0.36306535  0.00323666  0.24916694  1
  O  O276  1  0.37204852  0.01077267  0.75711660  1
  O  O277  1  0.38026890  0.50671566  0.25559109  1
  O  O278  1  0.37902485  0.49864022  0.76330616  1
  O  O279  1  0.88055176  0.01025530  0.26393344  1
  O  O280  1  0.87789311  0.00667216  0.76177855  1
  O  O281  1  0.86634551  0.50432783  0.24969743  1
  O  O282  1  0.86741974  0.49677842  0.76034789  1
  O  O283  1  0.12211531  0.36884150  0.36955852  1
  O  O284  1  0.11396022  0.38183371  0.86482532  1
  O  O285  1  0.11528902  0.87785324  0.37393111  1
  O  O286  1  0.11656774  0.88325431  0.86472281  1
  O  O287  1  0.62035327  0.36789846  0.36836414  1
  O  O288  1  0.61530898  0.37572899  0.86795452  1
  O  O289  1  0.63815821  0.85916270  0.35709838  1
  O  O290  1  0.62608059  0.86169928  0.87379851  1
  O  O291  1  0.37356741  0.14188947  0.12044153  1
  O  O292  1  0.38163113  0.12326271  0.63297399  1
  O  O293  1  0.36817720  0.63203818  0.13190521  1
  O  O294  1  0.38437938  0.61614285  0.62370546  1
  O  O295  1  0.87965447  0.12460164  0.13421865  1
  O  O296  1  0.87421653  0.13318570  0.63389894  1
  O  O297  1  0.88116846  0.62996559  0.13083564  1
  O  O298  1  0.87764460  0.61432632  0.63323988  1
  O  O299  1  0.25648487  0.26024168  0.11899779  1
  O  O300  1  0.24792867  0.26808223  0.63560803  1
  O  O301  1  0.25736331  0.76066088  0.12867696  1
  O  O302  1  0.25036528  0.75472692  0.61299663  1
  O  O303  1  0.75162319  0.24506970  0.11058727  1
  O  O304  1  0.75996813  0.25803574  0.62513552  1
  O  O305  1  0.75511843  0.75650750  0.12030657  1
  O  O306  1  0.74309352  0.74722215  0.61096505  1
  O  O307  1  0.23623565  0.24800261  0.37467793  1
  O  O308  1  0.25541136  0.24208701  0.88427332  1
  O  O309  1  0.25166800  0.74282360  0.38017793  1
  O  O310  1  0.24942760  0.74371829  0.88051705  1
  O  O311  1  0.73866502  0.24028286  0.37589768  1
  O  O312  1  0.74882341  0.24133097  0.88600742  1
  O  O313  1  0.74252579  0.73753091  0.37405736  1
  O  O314  1  0.74325510  0.74720147  0.88349838  1
  O  O315  1  -0.00105974  0.11980617  0.00500707  1
  O  O316  1  -0.00321000  0.11363514  0.50057183  1
  O  O317  1  -0.01352447  0.60298408  0.01008278  1
  O  O318  1  0.00939133  0.62743133  0.49052638  1
  O  O319  1  0.51179290  0.12194357  0.00298667  1
  O  O320  1  0.50820478  0.13097626  0.51104333  1
  O  O321  1  0.50666929  0.61268376  -0.00397669  1
  O  O322  1  0.50206334  0.62425446  0.51504274  1
  O  O323  1  0.49701101  0.37665119  0.48737970  1
  O  O324  1  0.49684331  0.38534062  0.99180354  1
  O  O325  1  0.53903420  0.87687329  0.48866896  1
  O  O326  1  0.49803293  0.88671326  1.00186052  1
  O  O327  1  0.99237140  0.37220643  0.49045576  1
  O  O328  1  0.99520125  0.38197165  0.99309553  1
  O  O329  1  1.00076380  0.88468957  0.49041908  1
  O  O330  1  0.99477140  0.88556849  0.99132943  1
  O  O331  1  0.49072829  0.49204917  0.37632134  1
  O  O332  1  0.49135685  0.49780187  0.88082196  1
  O  O333  1  0.48628439  0.99424564  0.37071608  1
  O  O334  1  0.49013569  1.00775563  0.88578086  1
  O  O335  1  1.00022136  0.48479709  0.36514839  1
  O  O336  1  0.99668799  0.49421872  0.88255257  1
  O  O337  1  0.99598345  0.99663214  0.37958408  1
  O  O338  1  0.99261676  0.99405691  0.88090781  1
  O  O339  1  0.00538538  0.00450518  0.11960230  1
  O  O340  1  0.00971109  0.00277718  0.61579765  1
  O  O341  1  0.00955963  0.50264974  0.12022956  1
  O  O342  1  0.01325189  0.50087943  0.62407611  1
  O  O343  1  0.51134753  -0.00011893  0.11746698  1
  O  O344  1  0.51201740  0.01593955  0.63419289  1
  O  O345  1  0.51349084  0.49447228  0.11524526  1
  O  O346  1  0.50631668  0.51084276  0.62626927  1
  O  O347  1  0.23837224  0.37175577  0.24308319  1
  O  O348  1  0.23715061  0.37561132  0.74865280  1
  O  O349  1  0.25077864  0.89031638  0.23675447  1
  O  O350  1  0.24413348  0.87654800  0.74379083  1
  O  O351  1  0.74255501  0.38721351  0.25720005  1
  O  O352  1  0.74573295  0.38401723  0.74760064  1
  O  O353  1  0.74577128  0.86907232  0.23713258  1
  O  O354  1  0.73562571  0.86710136  0.75324136  1
  O  O355  1  0.25573840  0.11329986  0.25174569  1
  O  O356  1  0.25654240  0.12256879  0.75526064  1
  O  O357  1  0.26468838  0.62865902  0.25812174  1
  O  O358  1  0.25099783  0.63103523  0.76758434  1
  O  O359  1  0.76198382  0.12901853  0.25673749  1
  O  O360  1  0.75733644  0.12962077  0.76408741  1
  O  O361  1  0.75360976  0.61523833  0.25372210  1
  O  O362  1  0.75057904  0.61216522  0.75567238  1
  O  O363  1  0.37186193  0.11064573  0.37552551  1
  O  O364  1  0.36557355  0.11789069  0.86881472  1
  O  O365  1  0.36908781  0.61512361  0.36868073  1
  O  O366  1  0.36469741  0.61366250  0.87635870  1
  O  O367  1  0.86811605  0.12298216  0.36985643  1
  O  O368  1  0.86867845  0.11946126  0.86991360  1
  O  O369  1  0.86629347  0.62241239  0.36571900  1
  O  O370  1  0.87828153  0.61272260  0.87423973  1
  O  O371  1  0.13189928  0.37936302  0.13271471  1
  O  O372  1  0.12915846  0.38191395  0.63432501  1
  O  O373  1  0.13004671  0.89049355  0.12242487  1
  O  O374  1  0.13295502  0.88469770  0.63169222  1
  O  O375  1  0.62299822  0.38033107  0.13593766  1
  O  O376  1  0.62647535  0.38386867  0.63006761  1
  O  O377  1  0.63084173  0.87897592  0.13370203  1
  O  O378  1  0.63172995  0.88488877  0.63584224  1
  O  O379  1  0.11892965  0.25642969  0.25467561  1
  O  O380  1  0.11799552  0.27008003  0.74777706  1
  O  O381  1  0.11332807  0.74590137  0.25273489  1
  O  O382  1  0.11602669  0.76225539  0.74397770  1
  O  O383  1  0.63188583  0.25983933  0.25629813  1
  O  O384  1  0.61745174  0.25686648  0.75299655  1
  O  O385  1  0.61625795  0.75152690  0.25194417  1
  O  O386  1  0.61945560  0.75244602  0.75949788  1
  O  O387  1  0.36822618  0.25123394  0.23385537  1
  O  O388  1  0.38173881  0.23881206  0.75492478  1
  O  O389  1  0.38078237  0.74413178  0.24099522  1
  O  O390  1  0.39101448  0.75674625  0.75379845  1
  O  O391  1  0.88274908  0.24478289  0.25035998  1
  O  O392  1  0.87106665  0.24270413  0.74328684  1
  O  O393  1  0.87998092  0.74376502  0.24635586  1
  O  O394  1  0.88937953  0.75090384  0.74809940  1
  O  O395  1  0.37799860  0.48761487  0.48969132  1
  O  O396  1  0.38389957  0.49378029  0.99602794  1
  O  O397  1  0.37945933  0.99090737  0.48724159  1
  O  O398  1  0.38446862  1.00327304  0.99437065  1
  O  O399  1  0.86637909  0.48518142  0.49553982  1
  O  O400  1  0.87738365  0.49137541  0.99388624  1
  O  O401  1  0.88314289  1.00195129  0.48720249  1
  O  O402  1  0.88419678  0.99770660  0.99418413  1
  O  O403  1  0.11202730  0.00437728  0.00517494  1
  O  O404  1  0.11899278  -0.00375615  0.50873259  1
  O  O405  1  0.11719609  0.49447325  0.01271680  1
  O  O406  1  0.13248795  0.49937014  0.51881054  1
  O  O407  1  0.61849687  0.00590013  0.00471652  1
  O  O408  1  0.62948129  0.01682132  0.51211849  1
  O  O409  1  0.62136685  0.50570221  0.00449946  1
  O  O410  1  0.62241772  0.50124669  0.50988362  1
  O  O411  1  0.36880558  0.36915978  0.12066815  1
  O  O412  1  0.36834057  0.37947992  0.61490166  1
  O  O413  1  0.36775055  0.86640789  0.12335567  1
  O  O414  1  0.36585186  0.88278013  0.63177722  1
  O  O415  1  0.88105009  0.37503804  0.11081180  1
  O  O416  1  0.87185968  0.37109830  0.62030968  1
  O  O417  1  0.86775999  0.87552148  0.12146364  1
  O  O418  1  0.86640343  0.88614687  0.61704454  1
  O  O419  1  0.12651312  0.13977222  0.37363071  1
  O  O420  1  0.13669524  0.12108076  0.87316588  1
  O  O421  1  0.14301675  0.62091350  0.36990174  1
  O  O422  1  0.14076169  0.61858232  0.88055030  1
  O  O423  1  0.62922984  0.12774323  0.38042824  1
  O  O424  1  0.63160452  0.12532877  0.88149736  1
  O  O425  1  0.62923107  0.63204035  0.37087214  1
  O  O426  1  0.62647504  0.63327054  0.88686216  1
