# generated using pymatgen
data_V85Zn86O256
_symmetry_space_group_name_H-M   'P 1'
_cell_length_a   16.95537759
_cell_length_b   16.95515939
_cell_length_c   16.95525061
_cell_angle_alpha   89.99584615
_cell_angle_beta   90.01624244
_cell_angle_gamma   90.02790895
_symmetry_Int_Tables_number   1
_chemical_formula_structural   V85Zn86O256
_chemical_formula_sum   'V85 Zn86 O256'
_cell_volume   4874.31381130
_cell_formula_units_Z   1
loop_
 _symmetry_equiv_pos_site_id
 _symmetry_equiv_pos_as_xyz
  1  'x, y, z'
loop_
 _atom_site_type_symbol
 _atom_site_label
 _atom_site_symmetry_multiplicity
 _atom_site_fract_x
 _atom_site_fract_y
 _atom_site_fract_z
 _atom_site_occupancy
  V  V0  1  0.50253272  0.62628100  0.62243270  1
  V  V1  1  -0.00304076  0.75055144  0.75598206  1
  V  V2  1  0.24209157  0.12947079  0.36432639  1
  V  V3  1  0.87690059  0.87955867  0.50862355  1
  V  V4  1  0.00262898  0.87542652  0.87721000  1
  V  V5  1  0.49711555  0.11905489  0.12598569  1
  V  V6  1  0.88382175  0.88364873  0.00822080  1
  V  V7  1  -0.00114985  0.49906143  -0.00091337  1
  V  V8  1  0.49947604  0.24707600  0.25372660  1
  V  V9  1  0.12627357  0.37709388  0.74363572  1
  V  V10  1  0.12705640  0.64111085  -0.00263712  1
  V  V11  1  0.13003644  0.87419924  0.25428489  1
  V  V12  1  0.86913027  0.75286677  0.62623738  1
  V  V13  1  0.87386347  0.74623606  0.12655525  1
  V  V14  1  0.00460684  0.87368879  0.38213236  1
  V  V15  1  0.75041075  0.37719518  0.62477067  1
  V  V16  1  0.74473620  0.76458997  -0.01205429  1
  V  V17  1  0.49486989  0.75479020  0.25209452  1
  V  V18  1  0.36661140  0.86705226  -0.00943917  1
  V  V19  1  0.50165761  -0.01069054  -0.00749032  1
  V  V20  1  0.25060523  -0.00220693  0.74357160  1
  V  V21  1  0.74587201  0.87384822  0.13105298  1
  V  V22  1  -0.00280949  0.62260271  0.62518463  1
  V  V23  1  0.24288770  0.24986192  0.49585946  1
  V  V24  1  0.62282739  0.49526926  0.12597767  1
  V  V25  1  0.87502125  0.25091086  0.62445651  1
  V  V26  1  0.86540615  0.36905244  -0.00140331  1
  V  V27  1  0.37871370  0.01333863  0.36312166  1
  V  V28  1  0.87955442  0.00117746  0.38273877  1
  V  V29  1  0.00030062  0.12009595  0.61701531  1
  V  V30  1  0.50330074  0.48596392  0.48968171  1
  V  V31  1  0.25289403  0.37610597  0.61703739  1
  V  V32  1  0.24504898  0.63832924  0.87684817  1
  V  V33  1  0.63083892  0.12632047  0.00370372  1
  V  V34  1  0.49780429  0.37531122  0.87484695  1
  V  V35  1  0.00335888  0.74639878  0.25561978  1
  V  V36  1  0.37720314  0.62660861  0.75024617  1
  V  V37  1  0.37375088  0.37389268  0.00340985  1
  V  V38  1  0.87225036  0.37657521  0.49474245  1
  V  V39  1  0.62477331  0.50281313  0.62471716  1
  V  V40  1  0.73824334  0.00239440  0.74748870  1
  V  V41  1  -0.00458066  0.62397553  0.12817429  1
  V  V42  1  0.49208762  0.87622199  0.37343321  1
  V  V43  1  0.36989892  0.62371123  0.25276343  1
  V  V44  1  0.49693148  0.50010296  0.00118582  1
  V  V45  1  0.24789322  0.24396236  -0.00394892  1
  V  V46  1  0.24671518  0.49998787  0.25028899  1
  V  V47  1  0.87023928  0.51733364  0.36902102  1
  V  V48  1  0.62472371  0.62591308  -0.00183430  1
  V  V49  1  0.00226248  0.37552508  0.87517792  1
  V  V50  1  0.37830097  0.25105661  0.61613240  1
  V  V51  1  0.75106136  0.50225579  0.74867527  1
  V  V52  1  0.75106019  0.51086772  0.25037131  1
  V  V53  1  0.62539003  0.37275280  0.25918057  1
  V  V54  1  0.49662719  0.62579451  0.12431370  1
  V  V55  1  0.61771165  0.12207017  0.51663693  1
  V  V56  1  0.49312047  0.00129870  0.51013974  1
  V  V57  1  0.87639168  0.12432538  0.75024208  1
  V  V58  1  0.11748642  0.35899749  0.24817710  1
  V  V59  1  -0.00222743  0.36238446  0.37019496  1
  V  V60  1  0.62660956  0.63307524  0.48560463  1
  V  V61  1  0.00217106  0.25099140  0.74631274  1
  V  V62  1  0.66844388  0.81732273  0.31160264  1
  V  V63  1  0.75319067  0.62344120  0.87777635  1
  V  V64  1  0.24626035  0.37302325  0.12168291  1
  V  V65  1  0.37473019  0.12624790  0.74604701  1
  V  V66  1  0.74604718  0.25001308  0.50031718  1
  V  V67  1  0.16509357  0.55470097  0.56771969  1
  V  V68  1  0.74321060  0.12586870  0.37612699  1
  V  V69  1  0.11695174  0.11292372  -0.00482714  1
  V  V70  1  0.37417628  0.23994517  0.12697737  1
  V  V71  1  0.12511337  -0.00075570  0.61867628  1
  V  V72  1  0.50674597  0.76660380  0.75217736  1
  V  V73  1  0.24490310  0.50328167  0.75094272  1
  V  V74  1  0.37168599  0.76244025  0.61776287  1
  V  V75  1  -0.00347168  0.50460847  0.49670869  1
  V  V76  1  0.87937506  0.00323063  0.87864747  1
  V  V77  1  0.87361426  0.24895646  0.12745793  1
  V  V78  1  0.63016878  0.25091174  0.88105597  1
  V  V79  1  0.74481166  -0.00206500  0.25576318  1
  V  V80  1  0.73126807  0.87841708  0.62734650  1
  V  V81  1  0.88200714  0.12915106  0.25352916  1
  V  V82  1  0.49947352  0.24638210  0.74737024  1
  V  V83  1  0.12845642  0.87201027  0.74822736  1
  V  V84  1  0.12257776  0.49873304  0.12006766  1
  Zn  Zn85  1  0.12087246  0.12618921  0.49434249  1
  Zn  Zn86  1  0.74463187  0.75230015  0.49167621  1
  Zn  Zn87  1  0.36347154  0.75037239  0.12176872  1
  Zn  Zn88  1  0.87558847  0.49673313  0.87427462  1
  Zn  Zn89  1  0.12748385  0.24829218  0.87327670  1
  Zn  Zn90  1  0.22817007  0.75968822  0.50235544  1
  Zn  Zn91  1  0.87376777  0.62852896  0.75359991  1
  Zn  Zn92  1  0.25195974  0.12215518  0.87332847  1
  Zn  Zn93  1  0.62379374  0.37486307  0.75100283  1
  Zn  Zn94  1  0.61712183  0.25188634  0.37919448  1
  Zn  Zn95  1  0.22478446  0.62296141  0.37992109  1
  Zn  Zn96  1  0.24439802  0.86995851  0.11514156  1
  Zn  Zn97  1  -0.00274469  0.12083276  0.12276160  1
  Zn  Zn98  1  0.75414292  0.13080470  0.88040069  1
  Zn  Zn99  1  0.37257441  0.50133359  0.87599443  1
  Zn  Zn100  1  0.37923805  -0.00255375  0.86968220  1
  Zn  Zn101  1  0.36813598  0.48359482  0.38508530  1
  Zn  Zn102  1  0.74782845  0.36867142  0.12267775  1
  Zn  Zn103  1  0.11861589  -0.00396539  0.12486173  1
  Zn  Zn104  1  0.61279465  0.75948502  0.87647193  1
  Zn  Zn105  1  0.25175711  0.00333670  0.24257540  1
  Zn  Zn106  1  0.62211847  -0.00484879  0.13026018  1
  Zn  Zn107  1  0.18497009  0.18289214  0.17927181  1
  Zn  Zn108  1  0.18895512  0.18729118  0.68449347  1
  Zn  Zn109  1  0.18692805  0.69130983  0.18710421  1
  Zn  Zn110  1  0.19013782  0.69699349  0.68872490  1
  Zn  Zn111  1  0.69037479  0.18714100  0.18619686  1
  Zn  Zn112  1  0.68789596  0.18933763  0.69268694  1
  Zn  Zn113  1  0.68697586  0.68458724  0.18034591  1
  Zn  Zn114  1  0.68632009  0.69003009  0.68940893  1
  Zn  Zn115  1  0.31078744  0.30921012  0.30932961  1
  Zn  Zn116  1  0.31399188  0.31334711  0.81070413  1
  Zn  Zn117  1  0.29050987  0.82732856  0.36027278  1
  Zn  Zn118  1  0.31722197  0.81511022  0.80917942  1
  Zn  Zn119  1  0.80863867  0.31367270  0.31022119  1
  Zn  Zn120  1  0.81253453  0.31433978  0.81140773  1
  Zn  Zn121  1  0.83783542  0.79990064  0.32266570  1
  Zn  Zn122  1  0.79173060  0.82708080  0.82450542  1
  Zn  Zn123  1  0.18551555  0.42927081  0.42862136  1
  Zn  Zn124  1  0.18752875  0.43977696  0.93412294  1
  Zn  Zn125  1  0.19095966  0.94376050  0.44112927  1
  Zn  Zn126  1  0.19016704  0.93777790  0.92703256  1
  Zn  Zn127  1  0.68758258  0.44214018  0.43588171  1
  Zn  Zn128  1  0.68427145  0.43871630  0.93656367  1
  Zn  Zn129  1  0.68627612  0.94364259  0.44834405  1
  Zn  Zn130  1  0.69292251  0.94453094  0.94057020  1
  Zn  Zn131  1  0.30963977  0.05334817  0.06177770  1
  Zn  Zn132  1  0.31248493  0.06549960  0.56042309  1
  Zn  Zn133  1  0.31006755  0.56542510  0.06235882  1
  Zn  Zn134  1  0.33130984  0.56013765  0.56350880  1
  Zn  Zn135  1  0.81305163  0.06091634  0.06728278  1
  Zn  Zn136  1  0.80839926  0.06267552  0.56559710  1
  Zn  Zn137  1  0.81136374  0.55939879  0.06163555  1
  Zn  Zn138  1  0.81141313  0.56917846  0.55759818  1
  Zn  Zn139  1  0.42078474  0.41730411  0.21876213  1
  Zn  Zn140  1  0.43597087  0.43720023  0.68688972  1
  Zn  Zn141  1  0.43366189  0.93277161  0.18318890  1
  Zn  Zn142  1  0.43807336  0.93818261  0.68725943  1
  Zn  Zn143  1  0.93368544  0.43480501  0.18835252  1
  Zn  Zn144  1  0.93605644  0.43967216  0.68562187  1
  Zn  Zn145  1  0.94097760  0.94112036  0.19326442  1
  Zn  Zn146  1  0.93673169  0.93971160  0.69080772  1
  Zn  Zn147  1  0.06266195  0.05695875  0.31168444  1
  Zn  Zn148  1  0.06356433  0.06200533  0.81052748  1
  Zn  Zn149  1  0.05554734  0.55200454  0.30579939  1
  Zn  Zn150  1  0.06432530  0.56439470  0.81181084  1
  Zn  Zn151  1  0.56319585  0.06458320  0.31169210  1
  Zn  Zn152  1  0.56082518  0.06929736  0.81494487  1
  Zn  Zn153  1  0.56038531  0.56389117  0.30950158  1
  Zn  Zn154  1  0.56406695  0.56520874  0.81289035  1
  Zn  Zn155  1  0.43458447  0.18586030  0.43821095  1
  Zn  Zn156  1  0.43979549  0.18342842  0.93767167  1
  Zn  Zn157  1  0.40073897  0.70200049  0.41813504  1
  Zn  Zn158  1  0.43565873  0.68743350  0.93306191  1
  Zn  Zn159  1  0.93315398  0.18688532  0.43893553  1
  Zn  Zn160  1  0.93844413  0.19292032  0.93722679  1
  Zn  Zn161  1  1.05390550  0.68940116  0.43506056  1
  Zn  Zn162  1  0.93334368  0.68803336  0.94021681  1
  Zn  Zn163  1  0.05758828  0.30428984  0.06228164  1
  Zn  Zn164  1  0.06289072  0.31621848  0.56006946  1
  Zn  Zn165  1  0.06191720  0.81450620  0.06754352  1
  Zn  Zn166  1  0.05797935  0.81462869  0.56987257  1
  Zn  Zn167  1  0.56004929  0.31060350  0.06484929  1
  Zn  Zn168  1  0.56552230  0.31143871  0.56647510  1
  Zn  Zn169  1  0.56151727  0.81131524  0.06591473  1
  Zn  Zn170  1  0.55086837  0.81197522  0.55658032  1
  O  O171  1  0.12246276  0.12199676  0.10692220  1
  O  O172  1  0.11603387  0.11866416  0.62475655  1
  O  O173  1  0.11690893  0.61620636  0.11693731  1
  O  O174  1  0.11616275  0.62094449  0.63376253  1
  O  O175  1  0.61859483  0.12151502  0.11838179  1
  O  O176  1  0.62567351  0.12949884  0.61471351  1
  O  O177  1  0.61776488  0.61438309  0.11799477  1
  O  O178  1  0.62023323  0.61525213  0.62684112  1
  O  O179  1  0.38444477  0.38955040  0.32762694  1
  O  O180  1  0.38507637  0.37588600  0.88099298  1
  O  O181  1  0.38850844  0.89439768  0.37208941  1
  O  O182  1  0.37829648  0.87768346  0.88532207  1
  O  O183  1  0.87856637  0.37682651  0.38084253  1
  O  O184  1  0.88287580  0.37591734  0.88079716  1
  O  O185  1  0.88137289  0.88369171  0.38724146  1
  O  O186  1  0.88076989  0.88402990  0.88630204  1
  O  O187  1  0.26270593  0.01552563  0.37209657  1
  O  O188  1  0.25556904  0.00263392  0.85731277  1
  O  O189  1  0.25036848  0.50130214  0.36337146  1
  O  O190  1  0.25279447  0.50634719  0.86428144  1
  O  O191  1  0.75580267  0.00635493  0.37422709  1
  O  O192  1  0.76255308  0.00439902  0.86470182  1
  O  O193  1  0.76206159  0.49730215  0.36697532  1
  O  O194  1  0.74827938  0.50754669  0.86691564  1
  O  O195  1  0.23713215  0.49451429  0.12425422  1
  O  O196  1  0.24457461  0.49635436  0.62620279  1
  O  O197  1  0.24316331  0.98904176  0.12775204  1
  O  O198  1  0.24250920  1.00633055  0.63447147  1
  O  O199  1  0.74033928  0.49778146  0.13103888  1
  O  O200  1  0.74416614  0.49954077  0.63006165  1
  O  O201  1  0.75242691  0.98967678  0.13950844  1
  O  O202  1  0.74901327  0.99632183  0.63900679  1
  O  O203  1  0.00539654  0.37833588  0.25777419  1
  O  O204  1  0.00766848  0.37401296  0.75237536  1
  O  O205  1  0.00438925  0.86617567  0.26176138  1
  O  O206  1  0.00319490  0.86813778  0.75786029  1
  O  O207  1  0.51719362  0.35809306  0.23229378  1
  O  O208  1  0.49885167  0.36788795  0.75900489  1
  O  O209  1  0.49938653  0.86486666  0.25424918  1
  O  O210  1  0.50171579  0.86554238  0.74972149  1
  O  O211  1  0.50687473  0.13055517  0.23368238  1
  O  O212  1  0.49356557  0.13890939  0.75155639  1
  O  O213  1  0.49639477  0.62963248  0.23974416  1
  O  O214  1  0.49239586  0.62309529  0.74064654  1
  O  O215  1  0.98379814  0.12276977  0.25902653  1
  O  O216  1  0.99501737  0.13285313  0.74230936  1
  O  O217  1  1.00114774  0.62944745  0.23481162  1
  O  O218  1  0.99677133  0.63149167  0.74494342  1
  O  O219  1  0.37009342  0.25344576  0.00649774  1
  O  O220  1  0.36775846  0.24671657  0.51069524  1
  O  O221  1  0.38447236  0.76500114  -0.00115828  1
  O  O222  1  0.40261108  0.74934274  0.52246087  1
  O  O223  1  0.87533686  0.26045800  0.00473160  1
  O  O224  1  0.86524365  0.25532331  0.50677961  1
  O  O225  1  0.86981445  0.76127944  0.01052912  1
  O  O226  1  0.86412269  0.76225244  0.51813956  1
  O  O227  1  0.13894017  0.24894677  0.50424463  1
  O  O228  1  0.13375255  0.24188295  0.99661590  1
  O  O229  1  0.11720237  0.74321455  0.51041964  1
  O  O230  1  0.11751023  0.73958024  1.00079306  1
  O  O231  1  0.62656692  0.23945489  0.49903283  1
  O  O232  1  0.61780366  0.24050118  0.99265397  1
  O  O233  1  0.62148970  0.73626686  0.50301105  1
  O  O234  1  0.62715770  0.74039100  1.00076492  1
  O  O235  1  0.49187687  0.23893463  0.12710761  1
  O  O236  1  0.48978369  0.26004393  0.63484603  1
  O  O237  1  0.50103139  0.73826840  0.13183303  1
  O  O238  1  0.49806129  0.74319663  0.63841702  1
  O  O239  1  0.98202158  0.24017229  0.12000936  1
  O  O240  1  0.99437714  0.24662270  0.62859936  1
  O  O241  1  0.99247280  0.74214643  0.13030879  1
  O  O242  1  0.98962183  0.73976621  0.63480459  1
  O  O243  1  -0.00416739  0.26340165  0.38351553  1
  O  O244  1  0.00191109  0.26300754  0.86580814  1
  O  O245  1  -0.01207185  0.75958275  0.36673874  1
  O  O246  1  -0.01005813  0.75817173  0.86366949  1
  O  O247  1  0.49799533  0.24080930  0.35783458  1
  O  O248  1  0.50629066  0.25732681  0.86936043  1
  O  O249  1  0.48893047  0.76281540  0.36623767  1
  O  O250  1  0.49849566  0.74584777  0.85669314  1
  O  O251  1  0.24793719  0.13366654  0.48868709  1
  O  O252  1  0.24304402  0.12951249  0.99535942  1
  O  O253  1  0.23824887  0.60313506  0.50932966  1
  O  O254  1  0.23929180  0.62005687  0.98895842  1
  O  O255  1  0.73723802  0.12773618  0.49649536  1
  O  O256  1  0.73518965  0.11587628  0.99970627  1
  O  O257  1  0.73162572  0.63037649  0.50303467  1
  O  O258  1  0.74341080  0.62932599  0.99375886  1
  O  O259  1  0.25277970  0.36740216  0.00328013  1
  O  O260  1  0.24740550  0.36884255  0.50582239  1
  O  O261  1  0.26338388  0.87732147  -0.00760682  1
  O  O262  1  0.25896383  0.86233985  0.46602166  1
  O  O263  1  0.76226172  0.38168343  -0.00122233  1
  O  O264  1  0.75200087  0.37138123  0.50507299  1
  O  O265  1  0.76676826  0.88019632  0.01795583  1
  O  O266  1  0.75653354  0.87639632  0.51121512  1
  O  O267  1  0.13047628  0.49393718  0.23467231  1
  O  O268  1  0.13666589  0.49379088  0.75092059  1
  O  O269  1  0.13036203  0.98862430  0.25127679  1
  O  O270  1  0.13257120  0.99477031  0.74290880  1
  O  O271  1  0.62803752  0.49258713  0.24332868  1
  O  O272  1  0.63464385  0.49910716  0.74357024  1
  O  O273  1  0.63995486  1.00363867  0.25033316  1
  O  O274  1  0.63972180  1.00797454  0.75899795  1
  O  O275  1  0.37334257  -0.00116760  0.25989899  1
  O  O276  1  0.36998837  0.00868048  0.74654733  1
  O  O277  1  0.35163274  0.50965329  0.22588896  1
  O  O278  1  0.36338972  0.50952362  0.74678625  1
  O  O279  1  0.86298224  0.00460535  0.26338218  1
  O  O280  1  0.86962686  0.01012363  0.75670272  1
  O  O281  1  0.86603804  0.49694703  0.26013596  1
  O  O282  1  0.86091000  0.50080678  0.74957892  1
  O  O283  1  0.11148656  0.37801928  0.35946260  1
  O  O284  1  0.11935873  0.37390880  0.86277198  1
  O  O285  1  0.10751599  0.88527773  0.37482700  1
  O  O286  1  0.10903018  0.88118254  0.86639965  1
  O  O287  1  0.62862210  0.37209838  0.36312828  1
  O  O288  1  0.61292572  0.37007205  0.87615257  1
  O  O289  1  0.61544471  0.88197774  0.37495191  1
  O  O290  1  0.68972995  0.84088612  0.89660584  1
  O  O291  1  0.38314962  0.12955796  0.11471639  1
  O  O292  1  0.37035221  0.13768490  0.63570234  1
  O  O293  1  0.38276423  0.62797699  0.12891403  1
  O  O294  1  0.38547027  0.63089666  0.63473776  1
  O  O295  1  0.87235091  0.12957759  0.13738710  1
  O  O296  1  0.88140417  0.12998662  0.62979026  1
  O  O297  1  0.88346022  0.63365414  0.11464876  1
  O  O298  1  0.87927901  0.63440762  0.62714203  1
  O  O299  1  0.25632660  0.25004837  0.11255199  1
  O  O300  1  0.25668209  0.25807674  0.61672721  1
  O  O301  1  0.24993979  0.75591376  0.12410980  1
  O  O302  1  0.26748468  0.74164325  0.61622755  1
  O  O303  1  0.76375635  0.25104579  0.12495227  1
  O  O304  1  0.75410328  0.25688902  0.62137568  1
  O  O305  1  0.75624880  0.75639994  0.11852789  1
  O  O306  1  0.75401993  0.76255071  0.63143742  1
  O  O307  1  0.25732728  0.23802466  0.38043605  1
  O  O308  1  0.25177890  0.25062355  0.88637274  1
  O  O309  1  0.28551643  0.71844791  0.39986404  1
  O  O310  1  0.25246227  0.73692218  0.86507814  1
  O  O311  1  0.74761646  0.24142887  0.38335252  1
  O  O312  1  0.73444934  0.25164531  0.86887357  1
  O  O313  1  0.74019078  0.76653658  0.37163363  1
  O  O314  1  0.77568002  0.72690532  0.87911813  1
  O  O315  1  0.01490866  0.12821995  -0.00620513  1
  O  O316  1  0.00081427  0.13040311  0.51275986  1
  O  O317  1  0.00604779  0.61870744  0.00643030  1
  O  O318  1  -0.00224614  0.61122647  0.50849785  1
  O  O319  1  0.50810094  0.11471489  0.00788574  1
  O  O320  1  0.51112105  0.11872830  0.49662525  1
  O  O321  1  0.50243395  0.62014916  0.00432739  1
  O  O322  1  0.51323365  0.61516726  0.51533880  1
  O  O323  1  0.51073375  0.38744748  0.50108657  1
  O  O324  1  0.49401501  0.37984189  0.99471399  1
  O  O325  1  0.50540587  0.89422532  0.48930233  1
  O  O326  1  0.50025117  0.88644624  1.00145443  1
  O  O327  1  0.99229058  0.38535890  0.49543107  1
  O  O328  1  0.99587888  0.37783030  0.98986853  1
  O  O329  1  0.98464363  0.87175822  0.49742794  1
  O  O330  1  0.99067759  0.86994473  0.99323325  1
  O  O331  1  0.51051174  0.49716900  0.38913931  1
  O  O332  1  0.49817919  0.49232813  0.87968731  1
  O  O333  1  0.49091966  1.00182426  0.37634847  1
  O  O334  1  0.50063595  1.00437741  0.88918125  1
  O  O335  1  0.98458530  0.49165498  0.38025381  1
  O  O336  1  1.00096518  0.48840788  0.87709445  1
  O  O337  1  0.98541269  0.99323625  0.37414000  1
  O  O338  1  0.98696042  0.99140721  0.86648353  1
  O  O339  1  0.00288986  0.00715703  0.13013695  1
  O  O340  1  0.00870348  0.01154991  0.63365817  1
  O  O341  1  0.00309063  0.50558462  0.12105958  1
  O  O342  1  -0.00758265  0.51355502  0.61737681  1
  O  O343  1  0.50208233  0.00369213  0.11645113  1
  O  O344  1  0.49307882  0.00041964  0.60904496  1
  O  O345  1  0.50713897  0.51063342  0.12211675  1
  O  O346  1  0.50805503  0.50414328  0.62088279  1
  O  O347  1  0.23644090  0.38086503  0.23999607  1
  O  O348  1  0.24453056  0.38332931  0.74377961  1
  O  O349  1  0.23304520  0.86623466  0.26730027  1
  O  O350  1  0.23855879  0.88134898  0.75356560  1
  O  O351  1  0.73931103  0.38291661  0.24489412  1
  O  O352  1  0.74770214  0.38408232  0.74341803  1
  O  O353  1  0.74636658  0.87558550  0.25245547  1
  O  O354  1  0.75422153  0.89400545  0.74073602  1
  O  O355  1  0.24594939  0.12743624  0.26061825  1
  O  O356  1  0.25740463  0.11986480  0.75047048  1
  O  O357  1  0.25388811  0.61804621  0.25230833  1
  O  O358  1  0.25492571  0.61990135  0.75304100  1
  O  O359  1  0.75545349  0.11746463  0.26070807  1
  O  O360  1  0.75801930  0.11812225  0.75154739  1
  O  O361  1  0.74365016  0.61054121  0.24607718  1
  O  O362  1  0.75072576  0.61826069  0.75756297  1
  O  O363  1  0.36773904  0.11794234  0.37171847  1
  O  O364  1  0.37529440  0.12495701  0.86040911  1
  O  O365  1  0.39120440  0.60328686  0.35271699  1
  O  O366  1  0.36838472  0.62258254  0.86369605  1
  O  O367  1  0.86349986  0.11903282  0.37504239  1
  O  O368  1  0.87521555  0.12109812  0.87053099  1
  O  O369  1  0.87583493  0.61227077  0.37461661  1
  O  O370  1  0.87092076  0.61319975  0.87534684  1
  O  O371  1  0.12516042  0.37992034  0.12560360  1
  O  O372  1  0.13526773  0.37206235  0.63580501  1
  O  O373  1  0.12339687  0.87507022  0.13991379  1
  O  O374  1  0.11547420  0.88709437  0.63814150  1
  O  O375  1  0.62667292  0.38582113  0.12462919  1
  O  O376  1  0.63169822  0.38793531  0.62713675  1
  O  O377  1  0.64136843  0.87508972  0.12192323  1
  O  O378  1  0.63286302  0.87162480  0.61712902  1
  O  O379  1  0.12454979  0.26025840  0.23865935  1
  O  O380  1  0.12120059  0.25893728  0.75032802  1
  O  O381  1  0.10909390  0.75407736  0.24984887  1
  O  O382  1  0.11315134  0.76210186  0.74356219  1
  O  O383  1  0.61981840  0.25539336  0.25097147  1
  O  O384  1  0.61539751  0.25314932  0.75708783  1
  O  O385  1  0.61732287  0.74847291  0.24972311  1
  O  O386  1  0.61025119  0.74860210  0.75358091  1
  O  O387  1  0.38253150  0.24845196  0.23317549  1
  O  O388  1  0.38010021  0.24601299  0.74175277  1
  O  O389  1  0.38622983  0.73760491  0.24525250  1
  O  O390  1  0.38468050  0.74314417  0.74107216  1
  O  O391  1  0.86892588  0.24020803  0.24402995  1
  O  O392  1  0.87981563  0.24489073  0.74376814  1
  O  O393  1  0.88607800  0.75044279  0.23495717  1
  O  O394  1  0.88118384  0.75303858  0.74086075  1
  O  O395  1  0.39642472  0.49737624  0.49747767  1
  O  O396  1  0.37999473  0.49264693  1.00018303  1
  O  O397  1  0.38906376  1.01248337  0.48850584  1
  O  O398  1  0.38754143  0.99033633  0.99557318  1
  O  O399  1  0.87708926  0.49727274  0.48946987  1
  O  O400  1  0.88338236  0.48841641  1.00027242  1
  O  O401  1  0.86818297  0.99444368  0.49408140  1
  O  O402  1  0.87278048  0.99485705  0.99243736  1
  O  O403  1  0.12881766  0.01109979  -0.00596288  1
  O  O404  1  0.12814600  0.00415054  0.51465274  1
  O  O405  1  0.11780611  0.50034295  0.00830914  1
  O  O406  1  0.11295516  0.48924359  0.50227433  1
  O  O407  1  0.61605654  0.00449044  0.00215120  1
  O  O408  1  0.61227763  0.01546023  0.49892301  1
  O  O409  1  0.61771590  0.50493471  0.00670129  1
  O  O410  1  0.62114797  0.50860232  0.50714874  1
  O  O411  1  0.36517831  0.36415397  0.12097056  1
  O  O412  1  0.36001924  0.36843381  0.63100564  1
  O  O413  1  0.37450137  0.87209078  0.10651996  1
  O  O414  1  0.37370897  0.86084829  0.63181418  1
  O  O415  1  0.87402344  0.36738273  0.11619251  1
  O  O416  1  0.86957581  0.37176142  0.61613816  1
  O  O417  1  0.87117789  0.86924346  0.12392169  1
  O  O418  1  0.87045436  0.87312249  0.62235717  1
  O  O419  1  0.13841212  0.11965358  0.37633629  1
  O  O420  1  0.12807024  0.12770772  0.88196487  1
  O  O421  1  0.11327015  0.61793578  0.37307745  1
  O  O422  1  0.13239340  0.62106708  0.88518233  1
  O  O423  1  0.63516206  0.12688526  0.38097710  1
  O  O424  1  0.62602191  0.13526583  0.88465236  1
  O  O425  1  0.62024134  0.62512489  0.38747585  1
  O  O426  1  0.63425638  0.62919892  0.88155342  1
