# generated using pymatgen
data_V85Zn86O256
_symmetry_space_group_name_H-M   'P 1'
_cell_length_a   16.94240806
_cell_length_b   16.95389659
_cell_length_c   16.94294402
_cell_angle_alpha   90.01433377
_cell_angle_beta   90.01569386
_cell_angle_gamma   89.96053147
_symmetry_Int_Tables_number   1
_chemical_formula_structural   V85Zn86O256
_chemical_formula_sum   'V85 Zn86 O256'
_cell_volume   4866.68694402
_cell_formula_units_Z   1
loop_
 _symmetry_equiv_pos_site_id
 _symmetry_equiv_pos_as_xyz
  1  'x, y, z'
loop_
 _atom_site_type_symbol
 _atom_site_label
 _atom_site_symmetry_multiplicity
 _atom_site_fract_x
 _atom_site_fract_y
 _atom_site_fract_z
 _atom_site_occupancy
  V  V0  1  0.50739089  0.74550161  0.75004272  1
  V  V1  1  0.50180678  0.25425212  0.76661752  1
  V  V2  1  0.87259049  0.00546063  0.86588349  1
  V  V3  1  0.62258037  0.37467957  0.76203231  1
  V  V4  1  0.25223406  0.00007515  0.75109738  1
  V  V5  1  0.75694664  0.50555619  0.75239173  1
  V  V6  1  0.61184455  0.50444547  0.62350676  1
  V  V7  1  -0.00201105  0.37232692  0.36998878  1
  V  V8  1  0.62706411  0.63707767  -0.00459419  1
  V  V9  1  0.86491716  0.75186106  0.62836594  1
  V  V10  1  0.87464787  0.37425075  0.50027032  1
  V  V11  1  0.25257466  0.37564154  0.12418962  1
  V  V12  1  0.55312282  -0.04932662  0.55858532  1
  V  V13  1  0.24911496  0.87653045  0.62270586  1
  V  V14  1  0.25365551  0.12458097  0.87432583  1
  V  V15  1  0.12338585  0.37038527  0.24753746  1
  V  V16  1  0.37751739  0.24432097  0.13041144  1
  V  V17  1  0.87126948  0.24722484  0.62897931  1
  V  V18  1  0.25230562  0.62325420  0.87566850  1
  V  V19  1  0.25289741  0.00339361  0.24659663  1
  V  V20  1  0.74410545  0.25024792  -0.00332503  1
  V  V21  1  0.12518949  0.49921997  0.12228171  1
  V  V22  1  0.74829141  0.50050253  0.25151224  1
  V  V23  1  0.37751941  0.00256715  0.37428651  1
  V  V24  1  0.25605381  0.12850778  0.37118574  1
  V  V25  1  0.61162430  0.62334316  0.49667420  1
  V  V26  1  0.37869307  0.62530243  0.74287368  1
  V  V27  1  0.25346033  0.25123474  -0.00104898  1
  V  V28  1  -0.00418992  0.24248565  0.75068326  1
  V  V29  1  0.12319986  0.25017788  0.37282710  1
  V  V30  1  0.62380272  0.12554975  -0.00135418  1
  V  V31  1  -0.00398404  -0.00001721  0.00058222  1
  V  V32  1  0.25096679  0.49415122  0.74364332  1
  V  V33  1  0.38317485  0.49658367  0.87373403  1
  V  V34  1  0.49956439  -0.00543318  0.00431406  1
  V  V35  1  -0.00325400  0.62340090  0.12453561  1
  V  V36  1  0.75410083  0.10670037  0.37039759  1
  V  V37  1  -0.00192999  0.37601572  0.87297939  1
  V  V38  1  0.74725158  0.37877702  0.62541147  1
  V  V39  1  -0.00341791  0.87474526  0.87333185  1
  V  V40  1  0.87395769  0.50256930  0.37569632  1
  V  V41  1  0.88214253  0.11764678  0.25232324  1
  V  V42  1  0.36978019  0.88028997  0.49812034  1
  V  V43  1  0.12100574  0.62420929  0.50173282  1
  V  V44  1  0.38450923  0.37334902  -0.00267897  1
  V  V45  1  0.12366531  0.87347191  0.74895645  1
  V  V46  1  0.12765584  0.37225808  0.73966598  1
  V  V47  1  0.87584002  0.37464503  0.00094107  1
  V  V48  1  0.74943211  0.37394819  0.12521036  1
  V  V49  1  0.12257188  0.87602766  0.24374096  1
  V  V50  1  0.63278122  -0.00245266  0.13868771  1
  V  V51  1  0.63061919  0.25049807  0.37949689  1
  V  V52  1  0.75008738  0.12887017  0.86820848  1
  V  V53  1  0.49920291  0.37815337  0.38232205  1
  V  V54  1  0.51226432  0.74841564  0.25092310  1
  V  V55  1  0.25543056  0.75761268  -0.00056193  1
  V  V56  1  0.62310229  0.37533135  0.25146113  1
  V  V57  1  0.75523759  0.64151006  0.87572196  1
  V  V58  1  0.50212540  0.50413403  0.00122696  1
  V  V59  1  0.12031254  0.75144616  0.37101689  1
  V  V60  1  0.74656369  0.63461709  0.37805520  1
  V  V61  1  0.25000396  0.62503033  0.37213814  1
  V  V62  1  0.38018381  0.75789528  0.12351180  1
  V  V63  1  0.12109234  0.00160985  0.62476371  1
  V  V64  1  -0.00444072  0.75416290  0.24858928  1
  V  V65  1  0.12451096  0.12472374  0.00140213  1
  V  V66  1  0.12533174  0.25043122  0.87471824  1
  V  V67  1  0.51237541  0.87608403  0.36801746  1
  V  V68  1  0.37842763  0.12930923  0.74463109  1
  V  V69  1  0.49843102  0.24358083  0.25263252  1
  V  V70  1  0.25201055  0.25326052  0.51136838  1
  V  V71  1  0.37759708  0.62670066  0.24196966  1
  V  V72  1  0.24802487  0.75310980  0.49826758  1
  V  V73  1  -0.00701727  0.12058547  0.62214377  1
  V  V74  1  0.37824228  -0.00831087  0.87856534  1
  V  V75  1  0.75032858  0.86948985  0.13387894  1
  V  V76  1  0.51221941  0.87057416  0.87749614  1
  V  V77  1  0.62057971  0.50548384  0.12447793  1
  V  V78  1  -0.00402229  0.73861876  0.74898461  1
  V  V79  1  0.74185777  -0.00241977  0.73910686  1
  V  V80  1  0.50272425  0.14080457  0.61784939  1
  V  V81  1  0.37908795  0.50157961  0.37889286  1
  V  V82  1  0.12568045  0.74895825  0.87491473  1
  V  V83  1  0.37123991  0.37635632  0.51031255  1
  V  V84  1  0.87511110  0.87450463  0.48494112  1
  Zn  Zn85  1  -0.00094543  0.50065128  -0.00218329  1
  Zn  Zn86  1  0.00164533  0.49895291  0.50164334  1
  Zn  Zn87  1  0.50044732  0.12103955  0.13049329  1
  Zn  Zn88  1  0.12374879  0.49841441  0.62258747  1
  Zn  Zn89  1  0.12579954  0.62523368  0.00086528  1
  Zn  Zn90  1  0.12515644  -0.00209035  0.12143021  1
  Zn  Zn91  1  0.25225278  0.50000486  0.24809399  1
  Zn  Zn92  1  0.74519459  0.75278317  0.50328338  1
  Zn  Zn93  1  0.87173045  0.62754659  0.24875710  1
  Zn  Zn94  1  0.25347410  0.87825312  0.12018189  1
  Zn  Zn95  1  0.12175966  0.12373604  0.49596984  1
  Zn  Zn96  1  0.00037913  0.12821413  0.13096276  1
  Zn  Zn97  1  0.86818627  0.74756572  0.11795526  1
  Zn  Zn98  1  0.87687009  0.50782842  0.87199829  1
  Zn  Zn99  1  0.62607048  0.87585818  0.74063248  1
  Zn  Zn100  1  0.62733231  0.12178041  0.50229909  1
  Zn  Zn101  1  0.87953329  0.24977463  0.13537438  1
  Zn  Zn102  1  -0.01417009  -0.00224145  0.47667295  1
  Zn  Zn103  1  0.74833265  0.24590159  0.50266019  1
  Zn  Zn104  1  -0.00626889  0.62056156  0.62805641  1
  Zn  Zn105  1  0.37389882  0.74490051  0.62243891  1
  Zn  Zn106  1  0.85625200  0.87051966  -0.00623518  1
  Zn  Zn107  1  0.18881159  0.18757858  0.18706520  1
  Zn  Zn108  1  0.18452485  0.18489430  0.68745406  1
  Zn  Zn109  1  0.18862520  0.68781134  0.18444911  1
  Zn  Zn110  1  0.18811109  0.68676668  0.68646724  1
  Zn  Zn111  1  0.69113064  0.18506908  0.18829270  1
  Zn  Zn112  1  0.68193398  0.18796101  0.68945555  1
  Zn  Zn113  1  0.68935982  0.68521373  0.18423634  1
  Zn  Zn114  1  0.68628158  0.68212481  0.68799623  1
  Zn  Zn115  1  0.31206390  0.31473939  0.31351317  1
  Zn  Zn116  1  0.31591151  0.31249868  0.81124135  1
  Zn  Zn117  1  0.31298919  0.81529826  0.31042093  1
  Zn  Zn118  1  0.31559578  0.81155801  0.81211878  1
  Zn  Zn119  1  0.81417512  0.30823786  0.30904486  1
  Zn  Zn120  1  0.81039134  0.31310830  0.81220421  1
  Zn  Zn121  1  0.80918740  0.81584350  0.30599291  1
  Zn  Zn122  1  0.81281788  0.81903603  0.80534221  1
  Zn  Zn123  1  0.18958175  0.43818346  0.43680445  1
  Zn  Zn124  1  0.18989518  0.43649842  0.93504281  1
  Zn  Zn125  1  0.16355682  0.94914192  0.42394928  1
  Zn  Zn126  1  0.18609510  0.93674223  0.93642398  1
  Zn  Zn127  1  0.68686028  0.44131574  0.44149013  1
  Zn  Zn128  1  0.69124918  0.44312051  0.93722670  1
  Zn  Zn129  1  0.69700666  0.93044447  0.43881361  1
  Zn  Zn130  1  0.68752054  0.93999567  0.94091197  1
  Zn  Zn131  1  0.31482971  0.06295088  0.06240502  1
  Zn  Zn132  1  0.31325857  0.06582383  0.56133875  1
  Zn  Zn133  1  0.31313703  0.56476109  0.06160466  1
  Zn  Zn134  1  0.30933602  0.56087236  0.56048461  1
  Zn  Zn135  1  0.81247414  0.06007193  0.06354475  1
  Zn  Zn136  1  0.81340890  0.06071989  0.55584820  1
  Zn  Zn137  1  0.80979852  0.56188985  0.05913967  1
  Zn  Zn138  1  0.81164133  0.56658229  0.56234686  1
  Zn  Zn139  1  0.43950863  0.43607676  0.18939250  1
  Zn  Zn140  1  0.43815556  0.43321285  0.69100426  1
  Zn  Zn141  1  0.43912994  0.93664142  0.19081880  1
  Zn  Zn142  1  0.43428893  0.93330892  0.69361875  1
  Zn  Zn143  1  0.93725856  0.43712004  0.18882587  1
  Zn  Zn144  1  0.93884105  0.43698706  0.68598384  1
  Zn  Zn145  1  0.93371505  0.94171317  0.18932952  1
  Zn  Zn146  1  0.93211259  0.93273987  0.68580422  1
  Zn  Zn147  1  0.06225422  0.06232442  0.31041320  1
  Zn  Zn148  1  0.06173186  0.06291950  0.81263429  1
  Zn  Zn149  1  0.06088561  0.56103548  0.30919421  1
  Zn  Zn150  1  0.06594077  0.55962810  0.81366151  1
  Zn  Zn151  1  0.56243170  0.06449575  0.31946375  1
  Zn  Zn152  1  0.56500983  0.06398888  0.81369552  1
  Zn  Zn153  1  0.56006784  0.56416105  0.31373012  1
  Zn  Zn154  1  0.56749693  0.56321930  0.81494907  1
  Zn  Zn155  1  0.43402963  0.19203637  0.43737280  1
  Zn  Zn156  1  0.43872187  0.18170110  0.93903314  1
  Zn  Zn157  1  0.43595222  0.69267714  0.43268007  1
  Zn  Zn158  1  0.44036829  0.68696154  0.93642394  1
  Zn  Zn159  1  0.93539830  0.18679460  0.43785112  1
  Zn  Zn160  1  0.93348894  0.18837385  0.94250842  1
  Zn  Zn161  1  0.93500835  0.69130417  0.43847586  1
  Zn  Zn162  1  0.93607527  0.69046615  0.94164651  1
  Zn  Zn163  1  0.06001912  0.30966966  0.06289717  1
  Zn  Zn164  1  0.06019562  0.30926520  0.55831652  1
  Zn  Zn165  1  0.05535398  0.80999142  0.05922379  1
  Zn  Zn166  1  0.05501973  0.81292421  0.56190996  1
  Zn  Zn167  1  0.56332849  0.31408322  0.06266632  1
  Zn  Zn168  1  0.56163011  0.31466297  0.56385048  1
  Zn  Zn169  1  0.56332393  0.81791280  0.06849589  1
  Zn  Zn170  1  0.55651007  0.78830287  0.56387947  1
  O  O171  1  0.12685880  0.12564568  0.11019595  1
  O  O172  1  0.11049650  0.11985010  0.62655207  1
  O  O173  1  0.11988491  0.61405858  0.12477215  1
  O  O174  1  0.12339437  0.62445214  0.61386272  1
  O  O175  1  0.62569756  0.11671405  0.11649179  1
  O  O176  1  0.60723009  0.12783411  0.62269232  1
  O  O177  1  0.63299889  0.61227679  0.11130796  1
  O  O178  1  0.62646999  0.61185961  0.61496664  1
  O  O179  1  0.38052664  0.38404842  0.37959357  1
  O  O180  1  0.37034782  0.38486237  0.88531930  1
  O  O181  1  0.38113247  0.88086370  0.38496668  1
  O  O182  1  0.38220048  0.88836946  0.86965637  1
  O  O183  1  0.88151833  0.37872442  0.37789993  1
  O  O184  1  0.88583463  0.37372745  0.87940776  1
  O  O185  1  0.87567357  0.86582955  0.38515405  1
  O  O186  1  0.88024945  0.88448802  0.87586448  1
  O  O187  1  0.25277108  0.01052166  0.36736906  1
  O  O188  1  0.25837370  0.00464115  0.87167514  1
  O  O189  1  0.25465724  0.51186185  0.37061994  1
  O  O190  1  0.25863937  0.50637903  0.86860759  1
  O  O191  1  0.74508369  0.00921102  0.37144142  1
  O  O192  1  0.75557049  0.00851927  0.86912594  1
  O  O193  1  0.75674126  0.50337647  0.37049092  1
  O  O194  1  0.75361492  0.50831339  0.86671828  1
  O  O195  1  0.24379012  0.49436291  0.12535092  1
  O  O196  1  0.24692924  0.50333001  0.64071357  1
  O  O197  1  0.25107706  0.99841336  0.13132005  1
  O  O198  1  0.24782830  0.99730910  0.63553402  1
  O  O199  1  0.74281855  0.49365407  0.13072704  1
  O  O200  1  0.74466418  0.49459142  0.63170964  1
  O  O201  1  0.73647450  0.99786614  0.12592168  1
  O  O202  1  0.75280655  1.01473448  0.64215631  1
  O  O203  1  0.00677892  0.37639322  0.26148985  1
  O  O204  1  0.00609743  0.36472511  0.75588208  1
  O  O205  1  0.00914845  0.86632933  0.24216595  1
  O  O206  1  0.00547597  0.86797769  0.75635542  1
  O  O207  1  0.50511342  0.36768556  0.26163713  1
  O  O208  1  0.50501798  0.36207185  0.75059993  1
  O  O209  1  0.50000009  0.86503575  0.26031290  1
  O  O210  1  0.50221034  0.86476541  0.75749597  1
  O  O211  1  0.50267569  0.13991530  0.25162980  1
  O  O212  1  0.49725458  0.13543181  0.74499374  1
  O  O213  1  0.49037260  0.63929312  0.25991810  1
  O  O214  1  0.49361504  0.63632028  0.76057822  1
  O  O215  1  0.98934220  0.12470023  0.25209518  1
  O  O216  1  1.00247439  0.13773431  0.74513036  1
  O  O217  1  0.99771703  0.62897687  0.23864036  1
  O  O218  1  1.00381223  0.63560640  0.75290200  1
  O  O219  1  0.37485556  0.25769666  0.00458642  1
  O  O220  1  0.36010302  0.26011763  0.49522744  1
  O  O221  1  0.36935893  0.73943567  0.01151635  1
  O  O222  1  0.36766088  0.75913509  0.50041035  1
  O  O223  1  0.86229380  0.26166353  -0.00069883  1
  O  O224  1  0.87327243  0.25662603  0.51206368  1
  O  O225  1  0.90439283  0.76929934  0.01231741  1
  O  O226  1  0.87269329  0.75717819  0.50867408  1
  O  O227  1  0.13606305  0.25048891  0.49129088  1
  O  O228  1  0.13274417  0.24491742  0.99245232  1
  O  O229  1  0.12745792  0.74597402  0.48969138  1
  O  O230  1  0.13432196  0.74739617  0.99226630  1
  O  O231  1  0.62567554  0.24773028  0.49330661  1
  O  O232  1  0.63579617  0.24402393  1.00520449  1
  O  O233  1  0.62845930  0.72960860  0.50352740  1
  O  O234  1  0.61473929  0.73417134  1.00632170  1
  O  O235  1  0.49451366  0.25216919  0.13486188  1
  O  O236  1  0.49763213  0.24262351  0.63344865  1
  O  O237  1  0.49437990  0.75537165  0.14080353  1
  O  O238  1  0.48860108  0.74916262  0.64411964  1
  O  O239  1  0.99063662  0.23925523  0.10968446  1
  O  O240  1  0.99302395  0.24282602  0.63057934  1
  O  O241  1  1.00695296  0.73855294  0.13654168  1
  O  O242  1  0.99526229  0.74556360  0.63567254  1
  O  O243  1  0.01444577  0.25686747  0.38205428  1
  O  O244  1  0.00252359  0.25435922  0.86814661  1
  O  O245  1  0.00885414  0.74093806  0.35974149  1
  O  O246  1  0.00567595  0.75480155  0.86745800  1
  O  O247  1  0.50806399  0.25577945  0.37033129  1
  O  O248  1  0.50065121  0.24631341  0.86535272  1
  O  O249  1  0.49416342  0.76509546  0.36366474  1
  O  O250  1  0.49226000  0.75993320  0.86372030  1
  O  O251  1  0.25002874  0.13820020  0.49174378  1
  O  O252  1  0.24512255  0.13062791  0.99351399  1
  O  O253  1  0.24093895  0.63161232  0.49222951  1
  O  O254  1  0.25057202  0.63061279  0.98790705  1
  O  O255  1  0.74948197  0.12705619  0.48556380  1
  O  O256  1  0.74492262  0.13253145  0.99455028  1
  O  O257  1  0.74053929  0.62544579  0.49162126  1
  O  O258  1  0.73817293  0.62355629  0.98901371  1
  O  O259  1  0.26125154  0.37030372  0.00417322  1
  O  O260  1  0.25550506  0.36254334  0.49461918  1
  O  O261  1  0.25042028  0.86153998  -0.00303469  1
  O  O262  1  0.25446157  0.87137137  0.50099484  1
  O  O263  1  0.75426810  0.36922672  0.00337405  1
  O  O264  1  0.75375515  0.37451474  0.51317593  1
  O  O265  1  0.74485622  0.88277481  0.01813193  1
  O  O266  1  0.76467625  0.86772649  0.50076350  1
  O  O267  1  0.12574784  0.48870244  0.23889986  1
  O  O268  1  0.13372271  0.48894622  0.75113333  1
  O  O269  1  0.13260913  0.99102066  0.24243895  1
  O  O270  1  0.13164446  0.99653679  0.74356999  1
  O  O271  1  0.62593272  0.49641870  0.24235516  1
  O  O272  1  0.63203228  0.49603206  0.74058680  1
  O  O273  1  0.61818999  1.00835942  0.23580516  1
  O  O274  1  0.63668297  0.99927407  0.75104483  1
  O  O275  1  0.36656510  -0.00605685  0.26321136  1
  O  O276  1  0.37188620  0.00796949  0.75847598  1
  O  O277  1  0.37602436  0.50794232  0.25877432  1
  O  O278  1  0.37096511  0.50239078  0.75759599  1
  O  O279  1  0.87781605  0.01614292  0.25697341  1
  O  O280  1  0.86465071  -0.00318486  0.75980470  1
  O  O281  1  0.86890318  0.49977022  0.26183011  1
  O  O282  1  0.86054889  0.49396475  0.75002629  1
  O  O283  1  0.11946246  0.37183004  0.36656645  1
  O  O284  1  0.11462619  0.36940720  0.86999967  1
  O  O285  1  0.13651035  0.85520010  0.35939191  1
  O  O286  1  0.12017026  0.86923442  0.86684086  1
  O  O287  1  0.61667156  0.37178892  0.37455875  1
  O  O288  1  0.62952693  0.38288642  0.86097785  1
  O  O289  1  0.61026278  0.87781142  0.38222164  1
  O  O290  1  0.61411290  0.87971363  0.87186202  1
  O  O291  1  0.37876822  0.14084748  0.12045560  1
  O  O292  1  0.38642673  0.12056522  0.63760710  1
  O  O293  1  0.37211293  0.63004957  0.13793685  1
  O  O294  1  0.36898672  0.62114243  0.63947188  1
  O  O295  1  0.87125905  0.12266635  0.14108417  1
  O  O296  1  0.88468647  0.13240864  0.62053464  1
  O  O297  1  0.88215723  0.62407261  0.12547927  1
  O  O298  1  0.87939514  0.64238440  0.61567842  1
  O  O299  1  0.25848003  0.25558367  0.11932248  1
  O  O300  1  0.24534937  0.24526545  0.61015855  1
  O  O301  1  0.25875680  0.74945988  0.11482134  1
  O  O302  1  0.25158204  0.75864910  0.61822856  1
  O  O303  1  0.75137542  0.25840923  0.11727652  1
  O  O304  1  0.75527839  0.25653750  0.62740264  1
  O  O305  1  0.74962043  0.76279165  0.12666751  1
  O  O306  1  0.76097774  0.74601921  0.62832969  1
  O  O307  1  0.24315865  0.24584811  0.37786614  1
  O  O308  1  0.24737732  0.24398423  0.88005168  1
  O  O309  1  0.24612927  0.73927911  0.37670707  1
  O  O310  1  0.24902917  0.74216186  0.87966030  1
  O  O311  1  0.73600666  0.25692911  0.37835719  1
  O  O312  1  0.75309991  0.24200951  0.88291472  1
  O  O313  1  0.75236514  0.73635784  0.37265930  1
  O  O314  1  0.75394743  0.74042029  0.86909011  1
  O  O315  1  0.00932560  0.11421515  -0.00786492  1
  O  O316  1  0.00162213  0.11829704  0.50708284  1
  O  O317  1  0.00441713  0.62061264  0.01161913  1
  O  O318  1  0.01361204  0.62453908  0.49439601  1
  O  O319  1  0.50898928  0.11903500  0.00479228  1
  O  O320  1  0.49608508  0.13201877  0.51472886  1
  O  O321  1  0.51180240  0.61257987  -0.00629904  1
  O  O322  1  0.51162973  0.62763668  0.49177950  1
  O  O323  1  0.48913758  0.36757021  0.48892272  1
  O  O324  1  0.49079485  0.38409150  1.00254728  1
  O  O325  1  0.49542607  0.88009027  0.49888580  1
  O  O326  1  0.50311478  0.88324031  0.99253072  1
  O  O327  1  0.99440261  0.37633437  0.48815218  1
  O  O328  1  0.99244265  0.37556351  0.99020395  1
  O  O329  1  0.98299466  0.87644589  0.50292032  1
  O  O330  1  1.01188382  0.89225574  0.98901964  1
  O  O331  1  0.49095062  0.49029750  0.37234111  1
  O  O332  1  0.48998925  0.50213502  0.88085841  1
  O  O333  1  0.49086697  0.98885875  0.36944493  1
  O  O334  1  0.49539100  0.99411254  0.88150066  1
  O  O335  1  0.99160502  0.49228999  0.37529666  1
  O  O336  1  0.99687709  0.49060888  0.87528382  1
  O  O337  1  1.05845284  0.99118916  0.39355574  1
  O  O338  1  0.99139096  0.99639823  0.87555696  1
  O  O339  1  0.00209992  0.00626802  0.11390639  1
  O  O340  1  0.00607794  0.00717138  0.63120623  1
  O  O341  1  0.00750936  0.50492125  0.12414860  1
  O  O342  1  0.00353640  0.50330275  0.62121248  1
  O  O343  1  0.50524496  -0.00008572  0.11986688  1
  O  O344  1  0.49694619  0.00765605  0.62253453  1
  O  O345  1  0.50888573  0.49652943  0.11655556  1
  O  O346  1  0.51362468  0.49844564  0.63214613  1
  O  O347  1  0.24225956  0.37821093  0.24264528  1
  O  O348  1  0.24044325  0.38172437  0.75767703  1
  O  O349  1  0.24380724  0.88640381  0.24826338  1
  O  O350  1  0.24514156  0.87962521  0.74455151  1
  O  O351  1  0.74234606  0.38101153  0.24620881  1
  O  O352  1  0.74226384  0.38036034  0.74127369  1
  O  O353  1  0.74420678  0.87686113  0.23543216  1
  O  O354  1  0.74391645  0.89129693  0.74825314  1
  O  O355  1  0.24615608  0.11349699  0.25571519  1
  O  O356  1  0.25900541  0.12226396  0.75410807  1
  O  O357  1  0.25756477  0.62421741  0.25663534  1
  O  O358  1  0.25635889  0.61888032  0.75971192  1
  O  O359  1  0.75495075  0.12837415  0.26616721  1
  O  O360  1  0.74097115  0.12078700  0.76351192  1
  O  O361  1  0.74924694  0.61655676  0.25767187  1
  O  O362  1  0.74230702  0.61802891  0.76583214  1
  O  O363  1  0.36489995  0.11958288  0.37699366  1
  O  O364  1  0.37310607  0.11586968  0.86564323  1
  O  O365  1  0.36802459  0.62004288  0.36864481  1
  O  O366  1  0.36928718  0.61615402  0.86724134  1
  O  O367  1  0.86221701  0.12808759  0.36997184  1
  O  O368  1  0.86379027  0.11748352  0.87943610  1
  O  O369  1  0.86671142  0.61670373  0.37503811  1
  O  O370  1  0.86026388  0.62494586  0.88444062  1
  O  O371  1  0.12888384  0.37848335  0.12971603  1
  O  O372  1  0.11964087  0.37265477  0.63708926  1
  O  O373  1  0.12999498  0.87257062  0.13333498  1
  O  O374  1  0.12799467  0.88180964  0.63017964  1
  O  O375  1  0.62994863  0.38500445  0.12983722  1
  O  O376  1  0.63034510  0.38548638  0.62998505  1
  O  O377  1  0.63114989  0.89027014  0.12588463  1
  O  O378  1  0.60586208  0.88423841  0.61533473  1
  O  O379  1  0.13014122  0.26248837  0.25559743  1
  O  O380  1  0.11890367  0.25484992  0.75591659  1
  O  O381  1  0.12056652  0.75432628  0.25307951  1
  O  O382  1  0.11940518  0.75397785  0.75536491  1
  O  O383  1  0.61884429  0.25696437  0.25678750  1
  O  O384  1  0.61141258  0.26000380  0.74784345  1
  O  O385  1  0.61048116  0.73996040  0.24888691  1
  O  O386  1  0.61089425  0.75248228  0.74307661  1
  O  O387  1  0.38448474  0.25921534  0.24165752  1
  O  O388  1  0.38810305  0.24275142  0.75450481  1
  O  O389  1  0.37910731  0.74366453  0.24322754  1
  O  O390  1  0.38017129  0.73935055  0.74931417  1
  O  O391  1  0.87108333  0.23276948  0.25058915  1
  O  O392  1  0.88224920  0.25623493  0.73776061  1
  O  O393  1  0.88381332  0.74850176  0.24313383  1
  O  O394  1  0.88300074  0.75333494  0.73937591  1
  O  O395  1  0.36607928  0.49402115  0.48630822  1
  O  O396  1  0.38321796  0.49588439  0.99531871  1
  O  O397  1  0.36669692  0.99409786  0.48587181  1
  O  O398  1  0.38875111  1.00782799  0.99210703  1
  O  O399  1  0.87409571  0.49355115  0.48894242  1
  O  O400  1  0.87393776  0.48519928  0.99674671  1
  O  O401  1  0.87471366  0.98294637  0.50059680  1
  O  O402  1  0.88273662  0.99876963  0.98938269  1
  O  O403  1  0.12116982  0.00995537  -0.00131171  1
  O  O404  1  0.14301227  0.00660959  0.52375887  1
  O  O405  1  0.12511525  0.49746735  0.01151001  1
  O  O406  1  0.12635278  0.50922007  0.50060025  1
  O  O407  1  0.61407560  0.00796566  0.00793027  1
  O  O408  1  0.62055942  0.00106278  0.50050603  1
  O  O409  1  0.61773015  0.50266690  0.00600095  1
  O  O410  1  0.62509715  0.50663729  0.51481760  1
  O  O411  1  0.37212639  0.36833107  0.11760267  1
  O  O412  1  0.37586675  0.38481561  0.60971446  1
  O  O413  1  0.37266009  0.86179788  0.12913219  1
  O  O414  1  0.36866198  0.87926828  0.61194235  1
  O  O415  1  0.86835120  0.37489553  0.11784640  1
  O  O416  1  0.86691716  0.36854207  0.62114282  1
  O  O417  1  0.85813877  0.88125709  0.12575844  1
  O  O418  1  0.87806235  0.85669755  0.61971257  1
  O  O419  1  0.13793101  0.13773689  0.37389782  1
  O  O420  1  0.13187634  0.12989174  0.88222452  1
  O  O421  1  0.13260092  0.63108487  0.37578962  1
  O  O422  1  0.13572948  0.62928186  0.87635052  1
  O  O423  1  0.63535770  0.13298854  0.37804148  1
  O  O424  1  0.63332227  0.11989076  0.89066047  1
  O  O425  1  0.63255064  0.61107667  0.38982778  1
  O  O426  1  0.63565392  0.62328462  0.88816126  1
