# generated using pymatgen
data_V85Zn86O256
_symmetry_space_group_name_H-M   'P 1'
_cell_length_a   16.95956363
_cell_length_b   16.95891351
_cell_length_c   16.96117345
_cell_angle_alpha   90.00101465
_cell_angle_beta   90.00978334
_cell_angle_gamma   89.96782735
_symmetry_Int_Tables_number   1
_chemical_formula_structural   V85Zn86O256
_chemical_formula_sum   'V85 Zn86 O256'
_cell_volume   4878.30016780
_cell_formula_units_Z   1
loop_
 _symmetry_equiv_pos_site_id
 _symmetry_equiv_pos_as_xyz
  1  'x, y, z'
loop_
 _atom_site_type_symbol
 _atom_site_label
 _atom_site_symmetry_multiplicity
 _atom_site_fract_x
 _atom_site_fract_y
 _atom_site_fract_z
 _atom_site_occupancy
  V  V0  1  0.75324065  0.50891289  0.74888167  1
  V  V1  1  0.37346862  0.64483933  0.24650570  1
  V  V2  1  0.11970409  0.24626340  0.87849404  1
  V  V3  1  0.37267819  0.87321630  0.49792536  1
  V  V4  1  0.75089597  0.75242116  0.49947870  1
  V  V5  1  0.61037563  0.25884405  0.85764803  1
  V  V6  1  0.74708302  0.49914279  0.24986785  1
  V  V7  1  0.24923516  0.24363809  0.50097163  1
  V  V8  1  0.75168024  -0.00116858  0.25315774  1
  V  V9  1  0.62282761  0.62573416  -0.00247628  1
  V  V10  1  0.87470032  0.12531929  0.25124714  1
  V  V11  1  0.87956956  0.24380079  0.62928749  1
  V  V12  1  0.00386973  0.37832148  0.37338270  1
  V  V13  1  0.49976089  0.37528228  0.37524269  1
  V  V14  1  0.00517931  0.87129994  0.87427461  1
  V  V15  1  -0.00711940  0.62112558  0.63259733  1
  V  V16  1  0.37964047  0.63197722  0.75940512  1
  V  V17  1  0.06326414  0.07033657  0.56908178  1
  V  V18  1  0.24381818  0.87856083  0.62454004  1
  V  V19  1  0.61316683  0.87767464  0.74591592  1
  V  V20  1  0.87691710  0.37397208  0.50051265  1
  V  V21  1  0.63080583  0.11739339  0.50890127  1
  V  V22  1  0.37863695  -0.01335040  0.87360265  1
  V  V23  1  0.73990934  0.12401773  0.87512351  1
  V  V24  1  0.49735545  0.86694509  0.36937500  1
  V  V25  1  0.37391779  0.37361965  0.50160519  1
  V  V26  1  0.75149588  0.87444351  0.12494949  1
  V  V27  1  0.25573661  0.38051318  0.12311605  1
  V  V28  1  0.37244411  0.00954080  0.37557667  1
  V  V29  1  0.37194366  0.50345865  0.36915677  1
  V  V30  1  0.24412799  0.64571495  0.87024348  1
  V  V31  1  0.73475419  0.24649890  -0.00128413  1
  V  V32  1  0.74854311  0.25010392  0.50151011  1
  V  V33  1  0.49971540  0.50350786  0.49586481  1
  V  V34  1  0.00425592  0.60312999  0.11669102  1
  V  V35  1  0.87485638  0.87375472  -0.00104866  1
  V  V36  1  0.62236744  0.37448883  0.25145840  1
  V  V37  1  0.24614321  0.00108275  0.75104972  1
  V  V38  1  0.12625195  0.24354260  0.37494967  1
  V  V39  1  0.75060416  0.37546362  0.63347365  1
  V  V40  1  0.12908371  0.62459679  0.50367981  1
  V  V41  1  0.87317322  0.50479096  0.87343143  1
  V  V42  1  0.88951538  0.87525865  0.49735852  1
  V  V43  1  0.61948164  0.49918006  0.12363973  1
  V  V44  1  -0.00326158  0.73676648  0.75835694  1
  V  V45  1  0.50908889  -0.00704433  0.50318822  1
  V  V46  1  0.74898871  0.62504625  0.37404263  1
  V  V47  1  0.50606373  -0.00155428  -0.00937000  1
  V  V48  1  0.49332701  0.49527722  -0.01213535  1
  V  V49  1  0.12224394  0.37996868  0.75563079  1
  V  V50  1  0.62400306  0.86752365  0.24793673  1
  V  V51  1  0.00074081  0.25287542  0.24817595  1
  V  V52  1  0.30842338  0.45388611  0.80772265  1
  V  V53  1  0.49541154  0.63929036  0.12795103  1
  V  V54  1  0.89221369  -0.00431162  0.37520288  1
  V  V55  1  0.11917057  0.87260538  0.26602421  1
  V  V56  1  0.00407744  0.49788162  0.50663124  1
  V  V57  1  0.87799422  0.62891064  0.24843419  1
  V  V58  1  -0.00376886  0.37270005  0.88085049  1
  V  V59  1  0.12301561  -0.01415379  0.12478272  1
  V  V60  1  -0.00324847  -0.00083841  -0.00330592  1
  V  V61  1  0.12669864  0.37944484  0.24242346  1
  V  V62  1  0.87140322  0.00023192  0.86968634  1
  V  V63  1  0.87524515  0.49971226  0.37553878  1
  V  V64  1  0.62488128  0.62735970  0.49777083  1
  V  V65  1  0.74960359  0.88372843  0.62486449  1
  V  V66  1  0.24994001  0.37976122  0.62310757  1
  V  V67  1  0.25402993  0.24506732  0.00518053  1
  V  V68  1  0.24415497  0.50595851  0.24360798  1
  V  V69  1  0.49361447  0.23830493  0.25177833  1
  V  V70  1  0.62708053  0.01033909  0.12119973  1
  V  V71  1  0.60924000  0.75367495  0.86847017  1
  V  V72  1  0.62641194  0.24843927  0.37883883  1
  V  V73  1  0.12596938  0.12309202  0.00204055  1
  V  V74  1  0.87083057  0.37648888  -0.00119735  1
  V  V75  1  0.50102497  0.63430156  0.62786743  1
  V  V76  1  0.49225784  0.12129310  0.62400189  1
  V  V77  1  0.37399350  0.75164359  0.62940539  1
  V  V78  1  0.87098597  0.25104506  0.12201885  1
  V  V79  1  0.25136603  0.75763314  0.01891235  1
  V  V80  1  0.74910916  0.75049578  -0.00403129  1
  V  V81  1  0.12145828  0.87235059  0.74865134  1
  V  V82  1  0.62602096  0.50097989  0.62963103  1
  V  V83  1  0.88632081  0.74883160  0.12543596  1
  V  V84  1  -0.00286264  0.12764774  0.12153656  1
  Zn  Zn85  1  0.27535638  -0.00475718  0.22056067  1
  Zn  Zn86  1  0.74529371  0.00015349  0.74578998  1
  Zn  Zn87  1  0.12820431  0.50407303  0.64041133  1
  Zn  Zn88  1  0.25245810  0.12489814  0.36320818  1
  Zn  Zn89  1  0.49381014  0.12283716  0.12255972  1
  Zn  Zn90  1  0.42849757  0.28360297  0.68245260  1
  Zn  Zn91  1  0.25390572  0.11686923  0.88011777  1
  Zn  Zn92  1  0.87356758  0.74940884  0.63173700  1
  Zn  Zn93  1  0.37809064  0.37460304  -0.01208684  1
  Zn  Zn94  1  0.74574579  0.37474301  0.12278472  1
  Zn  Zn95  1  0.75309452  0.12217576  0.37844739  1
  Zn  Zn96  1  0.24582568  0.75046027  0.49960737  1
  Zn  Zn97  1  0.11404310  0.75965495  0.38184046  1
  Zn  Zn98  1  0.24985667  0.63311307  0.37440924  1
  Zn  Zn99  1  0.87727860  0.12255131  0.74922527  1
  Zn  Zn100  1  0.75176220  0.62974831  0.86770600  1
  Zn  Zn101  1  0.37161391  0.87661624  0.03197568  1
  Zn  Zn102  1  0.01710624  0.23658948  0.73553448  1
  Zn  Zn103  1  0.12964325  0.62327509  0.00595191  1
  Zn  Zn104  1  0.38251206  0.12132314  0.75449673  1
  Zn  Zn105  1  0.37376554  0.24430469  0.12681380  1
  Zn  Zn106  1  0.62142054  0.74778222  0.36910885  1
  Zn  Zn107  1  0.19428623  0.17959756  0.18785668  1
  Zn  Zn108  1  0.19681562  0.19042356  0.68650152  1
  Zn  Zn109  1  0.17971873  0.68994402  0.18974044  1
  Zn  Zn110  1  0.18521210  0.68922881  0.69155086  1
  Zn  Zn111  1  0.68765893  0.18890432  0.19092540  1
  Zn  Zn112  1  0.68856404  0.18278302  0.68881202  1
  Zn  Zn113  1  0.69053640  0.68660988  0.18239809  1
  Zn  Zn114  1  0.68807437  0.69285740  0.68602657  1
  Zn  Zn115  1  0.31167446  0.31434813  0.31394531  1
  Zn  Zn116  1  0.30974071  0.29001235  0.81891110  1
  Zn  Zn117  1  0.29448366  0.82005784  0.31257333  1
  Zn  Zn118  1  0.31670731  0.81507447  0.80896177  1
  Zn  Zn119  1  0.81182812  0.31329186  0.31281560  1
  Zn  Zn120  1  0.80443508  0.31192834  0.81267838  1
  Zn  Zn121  1  0.81625364  0.81231901  0.31457666  1
  Zn  Zn122  1  0.81337566  0.81386763  0.81075485  1
  Zn  Zn123  1  0.18634484  0.44042186  0.43476930  1
  Zn  Zn124  1  0.18337156  0.43886393  0.95202917  1
  Zn  Zn125  1  0.18165888  0.94484991  0.44315486  1
  Zn  Zn126  1  0.18827546  0.93292342  0.93834236  1
  Zn  Zn127  1  0.68740931  0.43684036  0.44192560  1
  Zn  Zn128  1  0.68360455  0.43371925  0.93286225  1
  Zn  Zn129  1  0.69083057  0.93386078  0.43348070  1
  Zn  Zn130  1  0.68435094  0.93423694  0.93308434  1
  Zn  Zn131  1  0.32719782  0.04762179  0.07242498  1
  Zn  Zn132  1  0.30777371  0.05560940  0.55776871  1
  Zn  Zn133  1  0.31480674  0.56747974  0.05857395  1
  Zn  Zn134  1  0.31317188  0.56069752  0.56711420  1
  Zn  Zn135  1  0.80962987  0.06423927  0.05953530  1
  Zn  Zn136  1  0.82141095  0.05955715  0.55892771  1
  Zn  Zn137  1  0.80956294  0.56135459  0.06062129  1
  Zn  Zn138  1  0.81485261  0.56397414  0.56222145  1
  Zn  Zn139  1  0.43602281  0.43889196  0.18584187  1
  Zn  Zn140  1  0.44575869  0.44741717  0.68195728  1
  Zn  Zn141  1  0.44559232  0.93922698  0.18843482  1
  Zn  Zn142  1  0.43581030  0.94109320  0.68436641  1
  Zn  Zn143  1  0.93397152  0.43789041  0.18647571  1
  Zn  Zn144  1  0.93835759  0.43154227  0.69441416  1
  Zn  Zn145  1  0.94158338  0.93553553  0.18811420  1
  Zn  Zn146  1  0.94015880  0.93792795  0.68377689  1
  Zn  Zn147  1  0.06686427  0.06518416  0.30643413  1
  Zn  Zn148  1  0.06107503  0.06062400  0.80581768  1
  Zn  Zn149  1  0.04632022  0.59553909  0.32911039  1
  Zn  Zn150  1  0.07917454  0.54354043  0.85463131  1
  Zn  Zn151  1  0.56647190  0.05758158  0.31999000  1
  Zn  Zn152  1  0.56422848  0.06250073  0.81089743  1
  Zn  Zn153  1  0.55832661  0.56666413  0.30829633  1
  Zn  Zn154  1  0.56468095  0.56631163  0.81034522  1
  Zn  Zn155  1  0.44249319  0.18916601  0.44779149  1
  Zn  Zn156  1  0.43823754  0.17705289  0.93804494  1
  Zn  Zn157  1  0.43367484  0.68950457  0.43709075  1
  Zn  Zn158  1  0.43145109  0.69391919  0.94672001  1
  Zn  Zn159  1  0.94020946  0.18492154  0.43792792  1
  Zn  Zn160  1  0.93211491  0.18621032  0.93408762  1
  Zn  Zn161  1  0.93998746  0.69059371  0.44091511  1
  Zn  Zn162  1  0.93730196  0.68563785  0.93828919  1
  Zn  Zn163  1  0.06218959  0.31611133  0.06309874  1
  Zn  Zn164  1  0.06796889  0.30984522  0.56340321  1
  Zn  Zn165  1  0.06623021  0.80402233  0.05562973  1
  Zn  Zn166  1  0.06247193  0.80678628  0.57179081  1
  Zn  Zn167  1  0.55850089  0.31316428  0.06292198  1
  Zn  Zn168  1  0.55804158  0.31928638  0.58464690  1
  Zn  Zn169  1  0.56444028  0.81969715  0.05877076  1
  Zn  Zn170  1  0.56508579  0.81272677  0.56276170  1
  O  O171  1  0.11332084  0.12694919  0.11278598  1
  O  O172  1  0.11357125  0.13699025  0.62974540  1
  O  O173  1  0.10683183  0.62227993  0.12874499  1
  O  O174  1  0.11668969  0.62084390  0.62213048  1
  O  O175  1  0.62916693  0.11186642  0.12871241  1
  O  O176  1  0.61989851  0.12503797  0.61291526  1
  O  O177  1  0.61579843  0.62008251  0.11878089  1
  O  O178  1  0.61923806  0.62327638  0.61881228  1
  O  O179  1  0.38064029  0.38505921  0.37904909  1
  O  O180  1  0.36137979  0.38586251  0.86410990  1
  O  O181  1  0.37963377  0.87903654  0.38297614  1
  O  O182  1  0.37962472  0.88559612  0.87051972  1
  O  O183  1  0.88296055  0.38020770  0.38015938  1
  O  O184  1  0.87771397  0.37564090  0.88060629  1
  O  O185  1  0.87578111  0.87933370  0.38713071  1
  O  O186  1  0.88150100  0.88088656  0.88064661  1
  O  O187  1  0.26819217  0.00503815  0.39054915  1
  O  O188  1  0.25835625  -0.00513983  0.86838581  1
  O  O189  1  0.26261693  0.49950904  0.36668277  1
  O  O190  1  0.25616811  0.51056263  0.87194159  1
  O  O191  1  0.75809453  -0.00184622  0.36218789  1
  O  O192  1  0.75548434  0.00579079  0.87653565  1
  O  O193  1  0.75532096  0.50503286  0.37221466  1
  O  O194  1  0.75218057  0.50054070  0.86456023  1
  O  O195  1  0.25556550  0.49349011  0.12964854  1
  O  O196  1  0.24541742  0.48638097  0.62416357  1
  O  O197  1  0.22048063  1.01099499  0.11221632  1
  O  O198  1  0.25732455  0.98580655  0.63457260  1
  O  O199  1  0.73477026  0.50094903  0.12943748  1
  O  O200  1  0.74676143  0.49676596  0.62911085  1
  O  O201  1  0.74890476  0.99469068  0.13380059  1
  O  O202  1  0.75481584  0.98714385  0.62290095  1
  O  O203  1  0.00791398  0.37384248  0.25172877  1
  O  O204  1  0.00757286  0.36253136  0.76127740  1
  O  O205  1  0.01851920  0.87941621  0.24674420  1
  O  O206  1  0.00412252  0.86834003  0.75583725  1
  O  O207  1  0.50600169  0.36976438  0.25646689  1
  O  O208  1  0.50976519  0.35838811  0.68741889  1
  O  O209  1  0.51151131  0.87853132  0.25710297  1
  O  O210  1  0.51459750  0.87469250  0.73862348  1
  O  O211  1  0.50991449  0.13746100  0.25519223  1
  O  O212  1  0.50282166  0.11540417  0.72832471  1
  O  O213  1  0.49130308  0.62699766  0.23646352  1
  O  O214  1  0.49314797  0.62149863  0.73897895  1
  O  O215  1  0.99411728  0.13396896  0.24182891  1
  O  O216  1  0.98952581  0.13201013  0.76259509  1
  O  O217  1  0.98189127  0.61059630  0.23297632  1
  O  O218  1  1.00696094  0.63491586  0.75059957  1
  O  O219  1  0.36574241  0.25445693  -0.00436990  1
  O  O220  1  0.36678788  0.26731018  0.48916469  1
  O  O221  1  0.36114817  0.75999117  0.00416968  1
  O  O222  1  0.37283942  0.75966655  0.50918061  1
  O  O223  1  0.86499273  0.25903121  0.00235312  1
  O  O224  1  0.86585637  0.25254348  0.50754000  1
  O  O225  1  0.86706784  0.75367351  0.00576101  1
  O  O226  1  0.86907846  0.75866784  0.50003230  1
  O  O227  1  0.13668917  0.26304008  0.48539633  1
  O  O228  1  0.12895342  0.24301862  0.99713771  1
  O  O229  1  0.12305268  0.73699516  0.50312198  1
  O  O230  1  0.14282255  0.73982854  1.00294319  1
  O  O231  1  0.63748348  0.24504940  0.50058432  1
  O  O232  1  0.63282723  0.25279540  0.99814954  1
  O  O233  1  0.63418780  0.74430881  0.49629959  1
  O  O234  1  0.63007400  0.74760941  0.98986987  1
  O  O235  1  0.50344730  0.24743790  0.14149073  1
  O  O236  1  0.49350240  0.22375882  0.60090756  1
  O  O237  1  0.50725994  0.73714952  0.11826962  1
  O  O238  1  0.49269475  0.73980536  0.61689153  1
  O  O239  1  0.99137299  0.24837764  0.12889269  1
  O  O240  1  0.98287390  0.26000936  0.62381186  1
  O  O241  1  0.98759042  0.74720185  0.12220657  1
  O  O242  1  0.99649398  0.73907318  0.63943275  1
  O  O243  1  0.00605909  0.25886957  0.36893583  1
  O  O244  1  0.01007963  0.25365731  0.87929190  1
  O  O245  1  0.01660883  0.70357987  0.36393559  1
  O  O246  1  -0.00480164  0.75520770  0.86680436  1
  O  O247  1  0.50691865  0.25398947  0.36981694  1
  O  O248  1  0.51213553  0.24119559  0.87543510  1
  O  O249  1  0.50111471  0.76314727  0.37861719  1
  O  O250  1  0.51179369  0.74781076  0.88018241  1
  O  O251  1  0.25900126  0.14184847  0.49941985  1
  O  O252  1  0.24026720  0.13133109  1.00158411  1
  O  O253  1  0.24226251  0.62715337  0.50716027  1
  O  O254  1  0.25627983  0.63462206  0.98438440  1
  O  O255  1  0.74702057  0.13105769  0.50060450  1
  O  O256  1  0.75263765  0.13594708  0.99065910  1
  O  O257  1  0.74660060  0.63202485  0.49520043  1
  O  O258  1  0.73552786  0.63202106  1.00098402  1
  O  O259  1  0.25305040  0.36973597  0.00742101  1
  O  O260  1  0.25605501  0.37366499  0.50494881  1
  O  O261  1  0.24896490  0.86141461  0.00255075  1
  O  O262  1  0.25684733  0.87591501  0.50822541  1
  O  O263  1  0.75356658  0.36506329  0.00010305  1
  O  O264  1  0.75919743  0.36764072  0.50473483  1
  O  O265  1  0.75451538  0.86804646  0.00381143  1
  O  O266  1  0.75424310  0.86651291  0.50479045  1
  O  O267  1  0.14109068  0.49381769  0.25588399  1
  O  O268  1  0.12173097  0.48401986  0.76039190  1
  O  O269  1  0.11472205  0.99465426  0.23092071  1
  O  O270  1  0.13193334  0.98321992  0.75912791  1
  O  O271  1  0.62639568  0.49540625  0.24340703  1
  O  O272  1  0.63016740  0.50444284  0.73492436  1
  O  O273  1  0.63477436  0.99251286  0.24504696  1
  O  O274  1  0.62828806  0.98123024  0.75615469  1
  O  O275  1  0.38414275  -0.00166505  0.27502647  1
  O  O276  1  0.36690424  -0.00037164  0.75571224  1
  O  O277  1  0.36711025  0.50640230  0.25500076  1
  O  O278  1  0.37555714  0.50849694  0.74969414  1
  O  O279  1  0.86959734  0.00277444  0.25404295  1
  O  O280  1  0.87089834  -0.00594128  0.76222967  1
  O  O281  1  0.86512856  0.50363359  0.25494358  1
  O  O282  1  0.86364775  0.49281209  0.75937934  1
  O  O283  1  0.12158548  0.37153237  0.36160640  1
  O  O284  1  0.11619622  0.36563401  0.87585757  1
  O  O285  1  0.11902253  0.87952061  0.37183187  1
  O  O286  1  0.10978541  0.87567445  0.87189464  1
  O  O287  1  0.61871912  0.37024945  0.37295448  1
  O  O288  1  0.62387911  0.35812123  0.87355644  1
  O  O289  1  0.61705422  0.87378316  0.36500879  1
  O  O290  1  0.62788491  0.86107194  0.86206381  1
  O  O291  1  0.37929421  0.13153512  0.12354103  1
  O  O292  1  0.39046320  0.11023876  0.62044390  1
  O  O293  1  0.38831000  0.62409956  0.13116842  1
  O  O294  1  0.38129472  0.63206673  0.63298004  1
  O  O295  1  0.87826985  0.13078271  0.12968276  1
  O  O296  1  0.86819842  0.14106365  0.62543533  1
  O  O297  1  0.87868309  0.62916028  0.12850737  1
  O  O298  1  0.88920986  0.62602705  0.62371622  1
  O  O299  1  0.24767381  0.25774074  0.11603127  1
  O  O300  1  0.24289035  0.26643056  0.61240324  1
  O  O301  1  0.25119103  0.74425278  0.11739508  1
  O  O302  1  0.25772861  0.76057709  0.62542953  1
  O  O303  1  0.75339854  0.25039534  0.11688385  1
  O  O304  1  0.75537930  0.25814906  0.61933309  1
  O  O305  1  0.75623333  0.75398153  0.11200768  1
  O  O306  1  0.75468281  0.75461327  0.61340073  1
  O  O307  1  0.24327703  0.24835377  0.37924876  1
  O  O308  1  0.23550550  0.24501914  0.89103617  1
  O  O309  1  0.23709076  0.74847236  0.38231195  1
  O  O310  1  0.25409194  0.74644631  0.87721584  1
  O  O311  1  0.74590041  0.24926196  0.38526394  1
  O  O312  1  0.74220367  0.24233378  0.88118807  1
  O  O313  1  0.74937971  0.74408584  0.38499328  1
  O  O314  1  0.74921143  0.74899823  0.88584166  1
  O  O315  1  0.00289107  0.12017144  0.00247828  1
  O  O316  1  0.00434766  0.12533126  0.50592449  1
  O  O317  1  -0.00301460  0.62820362  0.01616618  1
  O  O318  1  0.00616388  0.61422747  0.51413208  1
  O  O319  1  0.50195550  0.10440974  0.00343164  1
  O  O320  1  0.51067976  0.11100941  0.50307184  1
  O  O321  1  0.50549439  0.61910296  0.00859324  1
  O  O322  1  0.50429466  0.62180957  0.50306787  1
  O  O323  1  0.49260022  0.38292736  0.49550281  1
  O  O324  1  0.49683965  0.39045247  1.00344826  1
  O  O325  1  0.49508156  0.87713884  0.49431538  1
  O  O326  1  0.49145732  0.89250770  1.01293542  1
  O  O327  1  0.99648721  0.38055972  0.49607465  1
  O  O328  1  0.98871169  0.36851934  0.98893922  1
  O  O329  1  0.98746118  0.86524338  0.50469757  1
  O  O330  1  0.99426640  0.87554821  0.99192577  1
  O  O331  1  0.48983191  0.49816745  0.37658754  1
  O  O332  1  0.50775542  0.50569597  0.89004914  1
  O  O333  1  0.49483732  0.98887608  0.38586075  1
  O  O334  1  0.49847311  0.99974152  0.88361028  1
  O  O335  1  0.99421078  0.49803937  0.38514785  1
  O  O336  1  0.98241276  0.48347950  0.86561537  1
  O  O337  1  0.99054216  1.00462320  0.36761997  1
  O  O338  1  0.99023591  0.99102076  0.87915099  1
  O  O339  1  0.00446615  0.00694250  0.11491026  1
  O  O340  1  0.00225590  0.00925550  0.62489031  1
  O  O341  1  -0.00473674  0.50440634  0.11629774  1
  O  O342  1  0.00088127  0.50248597  0.62402073  1
  O  O343  1  0.51559619  0.00422824  0.12098199  1
  O  O344  1  0.50287802  0.00287339  0.61006093  1
  O  O345  1  0.50895342  0.50824975  0.12007164  1
  O  O346  1  0.50940450  0.51651330  0.61394161  1
  O  O347  1  0.24518835  0.38110523  0.24195251  1
  O  O348  1  0.24945341  0.38347198  0.75062336  1
  O  O349  1  0.22843175  0.89335091  0.25493076  1
  O  O350  1  0.24157406  0.87945291  0.74448588  1
  O  O351  1  0.74031887  0.38120600  0.24923590  1
  O  O352  1  0.75000838  0.38479650  0.73745653  1
  O  O353  1  0.74716927  0.88168368  0.24566088  1
  O  O354  1  0.74489888  0.87312216  0.73882504  1
  O  O355  1  0.24632873  0.10609506  0.25100701  1
  O  O356  1  0.24197258  0.10674842  0.75227515  1
  O  O357  1  0.25556803  0.61995890  0.24854020  1
  O  O358  1  0.26197715  0.63223281  0.76007729  1
  O  O359  1  0.75703356  0.11658070  0.25263613  1
  O  O360  1  0.75586577  0.11885441  0.75784723  1
  O  O361  1  0.75681496  0.61816866  0.25230570  1
  O  O362  1  0.74762356  0.61391758  0.74770608  1
  O  O363  1  0.38089500  0.11141106  0.38634268  1
  O  O364  1  0.37182374  0.11005181  0.87132526  1
  O  O365  1  0.37336541  0.61960341  0.36583397  1
  O  O366  1  0.37323111  0.63439375  0.86300340  1
  O  O367  1  0.87399244  0.11699873  0.36854063  1
  O  O368  1  0.86229565  0.11451263  0.87643002  1
  O  O369  1  0.86792388  0.61918148  0.36593272  1
  O  O370  1  0.86988313  0.60880099  0.88408454  1
  O  O371  1  0.13404207  0.37393960  0.13524891  1
  O  O372  1  0.13063288  0.37615444  0.63951543  1
  O  O373  1  0.11899341  0.88520895  0.12032097  1
  O  O374  1  0.13343097  0.87166521  0.63405420  1
  O  O375  1  0.62356027  0.38392356  0.13205903  1
  O  O376  1  0.64353999  0.39207819  0.60610265  1
  O  O377  1  0.63387355  0.88291700  0.13145967  1
  O  O378  1  0.63488327  0.86473085  0.63780048  1
  O  O379  1  0.12028123  0.25947637  0.25399358  1
  O  O380  1  0.13254264  0.25969295  0.76323309  1
  O  O381  1  0.12913012  0.76995083  0.25299715  1
  O  O382  1  0.11053340  0.76180673  0.74780025  1
  O  O383  1  0.62003027  0.25690972  0.25844909  1
  O  O384  1  0.62623024  0.24785575  0.75852359  1
  O  O385  1  0.63501560  0.76350552  0.24877025  1
  O  O386  1  0.62728113  0.75502782  0.76263840  1
  O  O387  1  0.39195804  0.25398863  0.25553735  1
  O  O388  1  0.35279098  0.23062302  0.73850007  1
  O  O389  1  0.36528595  0.74318025  0.25680455  1
  O  O390  1  0.37799766  0.74641075  0.73706526  1
  O  O391  1  0.87953946  0.24692728  0.24405521  1
  O  O392  1  0.86923905  0.25386527  0.73346144  1
  O  O393  1  0.86480547  0.73869558  0.23899470  1
  O  O394  1  0.89143268  0.75251282  0.75031564  1
  O  O395  1  0.37854680  0.49410614  0.49135123  1
  O  O396  1  0.38982808  0.49916932  1.00006809  1
  O  O397  1  0.38537597  0.98638158  0.49631174  1
  O  O398  1  0.38615913  0.99674023  0.98520077  1
  O  O399  1  0.88549573  0.49536795  0.49707596  1
  O  O400  1  0.86178195  0.48379742  0.99114011  1
  O  O401  1  0.87320152  0.98444222  0.48942325  1
  O  O402  1  0.87738999  0.99329376  0.99143809  1
  O  O403  1  0.11490864  0.00568653  0.00243366  1
  O  O404  1  0.12979511  0.01430320  0.51416925  1
  O  O405  1  0.11232491  0.51954507  -0.03521553  1
  O  O406  1  0.11302347  0.49756811  0.50819370  1
  O  O407  1  0.61709320  -0.00858147  0.00693374  1
  O  O408  1  0.62145986  0.00498185  0.49304940  1
  O  O409  1  0.61930905  0.50767949  0.00546671  1
  O  O410  1  0.62204324  0.51047482  0.50591529  1
  O  O411  1  0.36417970  0.36794072  0.12555756  1
  O  O412  1  0.36553780  0.37940845  0.61472672  1
  O  O413  1  0.35243281  0.93805844  0.12977032  1
  O  O414  1  0.37045649  0.86775012  0.61844622  1
  O  O415  1  0.86972556  0.36975980  0.11642999  1
  O  O416  1  0.86714344  0.36914538  0.61887178  1
  O  O417  1  0.87056732  0.86768185  0.12048607  1
  O  O418  1  0.86896031  0.87263823  0.61300717  1
  O  O419  1  0.12518085  0.14053870  0.36956641  1
  O  O420  1  0.12480547  0.12882664  0.88773786  1
  O  O421  1  0.13691686  0.60255418  0.39941779  1
  O  O422  1  0.14426891  0.63854923  0.86158429  1
  O  O423  1  0.62934685  0.13080481  0.38848076  1
  O  O424  1  0.63587952  0.13138703  0.87032757  1
  O  O425  1  0.63040101  0.62656722  0.37750810  1
  O  O426  1  0.62799741  0.63702343  0.88045505  1
