# generated using pymatgen
data_V85Zn86O256
_symmetry_space_group_name_H-M   'P 1'
_cell_length_a   16.93488845
_cell_length_b   16.94333376
_cell_length_c   16.93112250
_cell_angle_alpha   90.06823349
_cell_angle_beta   90.02501811
_cell_angle_gamma   89.96195895
_symmetry_Int_Tables_number   1
_chemical_formula_structural   V85Zn86O256
_chemical_formula_sum   'V85 Zn86 O256'
_cell_volume   4858.10070667
_cell_formula_units_Z   1
loop_
 _symmetry_equiv_pos_site_id
 _symmetry_equiv_pos_as_xyz
  1  'x, y, z'
loop_
 _atom_site_type_symbol
 _atom_site_label
 _atom_site_symmetry_multiplicity
 _atom_site_fract_x
 _atom_site_fract_y
 _atom_site_fract_z
 _atom_site_occupancy
  V  V0  1  0.75336924  0.87706148  0.12502431  1
  V  V1  1  0.50077201  0.49345336  0.00090184  1
  V  V2  1  0.01097884  0.37377283  0.37438711  1
  V  V3  1  0.75728981  0.50835936  0.24993077  1
  V  V4  1  0.37379443  0.24764297  0.11739833  1
  V  V5  1  0.73984595  0.12525115  0.87338883  1
  V  V6  1  0.12105166  0.11128390  0.50321920  1
  V  V7  1  0.25109752  0.12530985  0.86999753  1
  V  V8  1  0.31618742  0.41943144  0.06194728  1
  V  V9  1  0.50095939  0.74554337  0.75263293  1
  V  V10  1  0.43717807  0.93502257  0.04624884  1
  V  V11  1  0.75286357  0.12866476  0.37618123  1
  V  V12  1  0.00506912  0.88160115  0.38216928  1
  V  V13  1  0.00284446  0.49333960  -0.00196447  1
  V  V14  1  0.25096198  0.75955944  -0.00410324  1
  V  V15  1  0.62654987  0.25270477  0.37849315  1
  V  V16  1  0.49799105  0.62175699  0.12938646  1
  V  V17  1  0.88115119  0.00447968  0.38263783  1
  V  V18  1  -0.00714397  -0.00218544  0.00479328  1
  V  V19  1  0.37571029  0.87174899  0.50085093  1
  V  V20  1  -0.00385112  0.25215407  0.75698855  1
  V  V21  1  0.75018313  0.75482130  -0.01124935  1
  V  V22  1  0.49500091  0.74404115  0.25412517  1
  V  V23  1  0.62390647  0.86764196  0.74978805  1
  V  V24  1  0.87986843  0.24727445  0.12214479  1
  V  V25  1  0.00206071  0.63364751  0.63155100  1
  V  V26  1  0.24791639  0.62734380  0.87301635  1
  V  V27  1  0.37475170  0.12830999  0.25218878  1
  V  V28  1  0.25609151  0.62245715  0.36246915  1
  V  V29  1  0.11995603  0.62644122  0.00652918  1
  V  V30  1  0.87218527  0.25054938  0.62335816  1
  V  V31  1  0.62953018  0.37587780  0.25214320  1
  V  V32  1  0.62255799  0.10552923  0.00877133  1
  V  V33  1  0.86536950  0.74842825  0.62084239  1
  V  V34  1  0.24843805  0.49964797  0.75043850  1
  V  V35  1  0.37819413  0.74994636  0.12154923  1
  V  V36  1  0.37837331  0.00081318  0.86427275  1
  V  V37  1  0.87606585  0.37747280  0.49742356  1
  V  V38  1  0.87509318  0.74245338  0.12175531  1
  V  V39  1  0.11966592  0.00666002  0.12512981  1
  V  V40  1  0.11872141  0.75043790  0.86806543  1
  V  V41  1  0.24197858  0.25093533  0.50181819  1
  V  V42  1  0.24996942  0.37369119  0.62653596  1
  V  V43  1  0.37522863  0.62478182  0.74799083  1
  V  V44  1  0.88166349  0.12336960  0.24403704  1
  V  V45  1  0.87201050  0.12264432  0.74895456  1
  V  V46  1  0.25018014  0.87978261  0.12248390  1
  V  V47  1  0.74648205  -0.00567033  0.74562942  1
  V  V48  1  -0.00436820  0.87141787  0.87477490  1
  V  V49  1  0.12838801  0.38038053  0.23104699  1
  V  V50  1  -0.00099531  0.74277077  0.24728488  1
  V  V51  1  0.37533771  0.24439474  0.63401495  1
  V  V52  1  -0.00004445  0.11197271  0.62313568  1
  V  V53  1  0.49994800  0.25068661  0.25132082  1
  V  V54  1  0.73946491  0.00568455  0.24607107  1
  V  V55  1  0.87076995  -0.00758937  0.87819510  1
  V  V56  1  0.38006586  0.49616459  0.37367517  1
  V  V57  1  0.12405275  0.50084981  0.62607654  1
  V  V58  1  0.12370244  0.88362377  0.74557555  1
  V  V59  1  0.73802444  0.24946733  -0.00277302  1
  V  V60  1  0.87591092  0.62359623  0.75291621  1
  V  V61  1  0.37539442  0.00429894  0.37839500  1
  V  V62  1  0.49900559  0.87174070  0.87685479  1
  V  V63  1  0.00687600  0.24787626  0.25011539  1
  V  V64  1  0.74212816  0.61525339  0.87093126  1
  V  V65  1  0.12953750  0.62581015  0.49947830  1
  V  V66  1  0.65956751  0.83028066  0.27731451  1
  V  V67  1  0.63884970  0.62571961  0.48414573  1
  V  V68  1  0.49918821  0.36391481  0.87679036  1
  V  V69  1  0.24509019  0.13199448  0.37689889  1
  V  V70  1  0.50841374  0.60811977  0.61767374  1
  V  V71  1  0.37356306  0.49424144  0.87773580  1
  V  V72  1  0.63151949  0.37825757  0.75695624  1
  V  V73  1  0.12660825  0.75043844  0.37315903  1
  V  V74  1  0.50461541  0.87092472  0.37489793  1
  V  V75  1  0.87655253  0.37227875  -0.01251096  1
  V  V76  1  0.11881812  0.12532183  -0.00155166  1
  V  V77  1  0.75334310  0.37541490  0.12379816  1
  V  V78  1  0.62717425  0.49941681  0.12441645  1
  V  V79  1  0.87597181  0.51218487  0.36952393  1
  V  V80  1  0.50003289  0.12217307  0.63032753  1
  V  V81  1  0.11729154  0.37485883  0.75580306  1
  V  V82  1  0.12392358  0.87797788  0.24806809  1
  V  V83  1  0.00131839  0.50043826  0.49881849  1
  V  V84  1  0.74565606  0.39345800  0.62572383  1
  Zn  Zn85  1  0.75049205  0.25317377  0.50181388  1
  Zn  Zn86  1  0.24788686  0.00733363  0.73916044  1
  Zn  Zn87  1  0.37305432  0.74965402  0.62467608  1
  Zn  Zn88  1  0.87493265  0.87288887  0.50110562  1
  Zn  Zn89  1  0.73850266  0.86454169  0.61129746  1
  Zn  Zn90  1  0.50702047  0.38249485  0.38519166  1
  Zn  Zn91  1  0.50373908  0.11442438  0.12575929  1
  Zn  Zn92  1  0.12274879  0.25081958  0.87685624  1
  Zn  Zn93  1  -0.00135358  0.61585575  0.12960308  1
  Zn  Zn94  1  0.62463574  0.12455370  0.50120770  1
  Zn  Zn95  1  0.62081627  0.62966119  -0.00585192  1
  Zn  Zn96  1  0.50498851  0.24563797  0.75456255  1
  Zn  Zn97  1  0.24765340  0.00358595  0.25003793  1
  Zn  Zn98  1  0.50511534  0.00179405  0.49807224  1
  Zn  Zn99  1  0.38207760  0.37824522  0.50456204  1
  Zn  Zn100  1  0.24608979  0.25203372  0.00213573  1
  Zn  Zn101  1  0.25234978  0.74968087  0.50092121  1
  Zn  Zn102  1  0.87650202  0.49512664  0.86735110  1
  Zn  Zn103  1  0.62473460  -0.00256767  0.61962248  1
  Zn  Zn104  1  0.75207562  0.65517234  0.36511856  1
  Zn  Zn105  1  0.24344208  0.87899822  0.61953093  1
  Zn  Zn106  1  0.24946367  0.49698409  0.23751338  1
  Zn  Zn107  1  0.18863948  0.19067601  0.18525047  1
  Zn  Zn108  1  0.18226712  0.18612852  0.68661636  1
  Zn  Zn109  1  0.18777971  0.69238654  0.18551590  1
  Zn  Zn110  1  0.18961292  0.69532914  0.68621583  1
  Zn  Zn111  1  0.68909855  0.18738675  0.18643093  1
  Zn  Zn112  1  0.68260315  0.19151909  0.68856121  1
  Zn  Zn113  1  0.68938893  0.68278412  0.17938298  1
  Zn  Zn114  1  0.68389613  0.68252206  0.68996199  1
  Zn  Zn115  1  0.31075514  0.31427247  0.31226239  1
  Zn  Zn116  1  0.31180631  0.31024404  0.81623676  1
  Zn  Zn117  1  0.31264749  0.81313913  0.31173161  1
  Zn  Zn118  1  0.31313100  0.81740973  0.81235299  1
  Zn  Zn119  1  0.81802560  0.31694037  0.31230575  1
  Zn  Zn120  1  0.80488700  0.30833110  0.80953227  1
  Zn  Zn121  1  0.83046496  0.81919718  0.30717582  1
  Zn  Zn122  1  0.81525176  0.80714636  0.80453375  1
  Zn  Zn123  1  0.19211852  0.43931038  0.43693421  1
  Zn  Zn124  1  0.17892841  0.44114987  0.93335800  1
  Zn  Zn125  1  0.19159263  0.94067016  0.43770676  1
  Zn  Zn126  1  0.18637170  0.94083583  0.93340501  1
  Zn  Zn127  1  0.68742522  0.44589229  0.44167521  1
  Zn  Zn128  1  0.68528502  0.43708916  0.93693769  1
  Zn  Zn129  1  0.69296737  0.93935527  0.43987372  1
  Zn  Zn130  1  0.68528125  0.93162316  0.93537900  1
  Zn  Zn131  1  0.30591179  0.07076584  0.06333775  1
  Zn  Zn132  1  0.31403360  0.06021646  0.56540142  1
  Zn  Zn133  1  0.31200943  0.58217783  0.06052804  1
  Zn  Zn134  1  0.31504577  0.56140203  0.56043586  1
  Zn  Zn135  1  0.81006511  0.06234419  0.06261445  1
  Zn  Zn136  1  0.81097035  0.06135598  0.56153104  1
  Zn  Zn137  1  0.81522315  0.56337020  0.05593148  1
  Zn  Zn138  1  0.81170840  0.56987641  0.55425093  1
  Zn  Zn139  1  0.44053872  0.44007356  0.20125936  1
  Zn  Zn140  1  0.43749079  0.43248991  0.69331055  1
  Zn  Zn141  1  0.43960434  0.93435282  0.20994572  1
  Zn  Zn142  1  0.43865422  0.93759382  0.68663327  1
  Zn  Zn143  1  0.93952421  0.43571693  0.18298876  1
  Zn  Zn144  1  0.93514087  0.44090524  0.68596347  1
  Zn  Zn145  1  0.93479534  0.93428576  0.18949500  1
  Zn  Zn146  1  0.93642593  0.93138634  0.69186213  1
  Zn  Zn147  1  0.06476763  0.06659514  0.31498809  1
  Zn  Zn148  1  0.05801624  0.06352472  0.81436103  1
  Zn  Zn149  1  0.06849276  0.55878691  0.31076230  1
  Zn  Zn150  1  0.05799975  0.56237444  0.81638980  1
  Zn  Zn151  1  0.56207304  0.06582778  0.31595456  1
  Zn  Zn152  1  0.56173752  0.05822005  0.81237115  1
  Zn  Zn153  1  0.56503465  0.56484896  0.31217569  1
  Zn  Zn154  1  0.56277561  0.55506643  0.80976349  1
  Zn  Zn155  1  0.43727593  0.19461324  0.44707381  1
  Zn  Zn156  1  0.44072154  0.17819283  0.93881790  1
  Zn  Zn157  1  0.43897875  0.68390481  0.43960546  1
  Zn  Zn158  1  0.43697578  0.68616061  0.93776863  1
  Zn  Zn159  1  0.94226150  0.19034836  0.43642671  1
  Zn  Zn160  1  0.93270620  0.18070311  0.93641583  1
  Zn  Zn161  1  0.94195158  0.68858768  0.43815526  1
  Zn  Zn162  1  0.93318816  0.68688813  0.93956232  1
  Zn  Zn163  1  0.05789709  0.31061629  0.06031869  1
  Zn  Zn164  1  0.06104901  0.30831529  0.56677475  1
  Zn  Zn165  1  0.06059346  0.81569138  0.05945036  1
  Zn  Zn166  1  0.06078691  0.81006208  0.56168657  1
  Zn  Zn167  1  0.56036730  0.31163601  0.06569163  1
  Zn  Zn168  1  0.56310641  0.31439318  0.56496589  1
  Zn  Zn169  1  0.57854591  0.80939298  0.07504212  1
  Zn  Zn170  1  0.55990198  0.80398677  0.56487994  1
  O  O171  1  0.12800088  0.11317086  0.11801057  1
  O  O172  1  0.11469324  0.12650833  0.61383112  1
  O  O173  1  0.12498558  0.63226631  0.10969887  1
  O  O174  1  0.12059920  0.62339044  0.61946000  1
  O  O175  1  0.62602342  0.12414786  0.11355365  1
  O  O176  1  0.61436593  0.12490808  0.62251374  1
  O  O177  1  0.61486591  0.61627370  0.11927916  1
  O  O178  1  0.61031753  0.61960167  0.63007925  1
  O  O179  1  0.37458126  0.38589435  0.37664926  1
  O  O180  1  0.38412998  0.38306176  0.87082368  1
  O  O181  1  0.38238477  0.88253940  0.37947449  1
  O  O182  1  0.38466411  0.88627745  0.87762293  1
  O  O183  1  0.88669027  0.38381569  0.38047825  1
  O  O184  1  0.86765620  0.37195238  0.88430317  1
  O  O185  1  0.88822702  0.88774904  0.37478354  1
  O  O186  1  0.87954393  0.88394030  0.86739699  1
  O  O187  1  0.25805660  0.01407059  0.37488107  1
  O  O188  1  0.26175369  0.00486095  0.87333085  1
  O  O189  1  0.25254262  0.51117418  0.36940987  1
  O  O190  1  0.25282443  0.50708484  0.87004747  1
  O  O191  1  0.76048661  0.01191369  0.36539803  1
  O  O192  1  0.75346839  0.00087799  0.86625504  1
  O  O193  1  0.76304705  0.49437730  0.36353785  1
  O  O194  1  0.75439702  0.51285327  0.88034869  1
  O  O195  1  0.26473649  0.49261151  0.11730308  1
  O  O196  1  0.24423755  0.49340672  0.63050323  1
  O  O197  1  0.24093662  0.99565415  0.12548543  1
  O  O198  1  0.25358194  0.99207144  0.62756466  1
  O  O199  1  0.74898027  0.49590286  0.12862853  1
  O  O200  1  0.75641517  0.49126248  0.62230392  1
  O  O201  1  0.75767389  0.99058679  0.13388629  1
  O  O202  1  0.75040919  0.99898242  0.63778047  1
  O  O203  1  0.01040787  0.37051327  0.25413585  1
  O  O204  1  0.00568855  0.36634655  0.74107094  1
  O  O205  1  0.00701063  0.86684091  0.25789111  1
  O  O206  1  0.00954827  0.87797452  0.76476301  1
  O  O207  1  0.51156632  0.36720765  0.25804755  1
  O  O208  1  0.50738983  0.37074033  0.76085621  1
  O  O209  1  0.50773986  0.86212412  0.26229669  1
  O  O210  1  0.50301578  0.86625815  0.75682800  1
  O  O211  1  0.49404846  0.13140705  0.24681422  1
  O  O212  1  0.50567739  0.12675013  0.73737425  1
  O  O213  1  0.49876454  0.62823298  0.23819306  1
  O  O214  1  0.49250115  0.62825981  0.74990797  1
  O  O215  1  0.99309855  0.13504935  0.25422044  1
  O  O216  1  0.99310962  0.13078505  0.74245491  1
  O  O217  1  1.01385032  0.63795592  0.24623627  1
  O  O218  1  0.99411301  0.62177182  0.74094647  1
  O  O219  1  0.38040586  0.24423273  0.01473068  1
  O  O220  1  0.35986254  0.25219919  0.51397727  1
  O  O221  1  0.36489882  0.74696040  0.00905582  1
  O  O222  1  0.37399963  0.75795679  0.49957433  1
  O  O223  1  0.86948137  0.25217069  0.00509141  1
  O  O224  1  0.87623203  0.25908140  0.50700736  1
  O  O225  1  0.86182063  0.75086601  0.00704569  1
  O  O226  1  0.88064652  0.74626499  0.51622744  1
  O  O227  1  0.13729093  0.24360782  0.50734672  1
  O  O228  1  0.12074475  0.23950589  0.99744404  1
  O  O229  1  0.12664917  0.74208533  0.49142209  1
  O  O230  1  0.13043537  0.74607734  0.99122660  1
  O  O231  1  0.62966262  0.24900408  0.48732034  1
  O  O232  1  0.63639364  0.24601823  1.00561268  1
  O  O233  1  0.61616399  0.72335709  0.50962804  1
  O  O234  1  0.64401479  0.74512557  1.00559457  1
  O  O235  1  0.49636104  0.24883161  0.13923195  1
  O  O236  1  0.49219028  0.24033148  0.62728849  1
  O  O237  1  0.49485891  0.74254953  0.12701782  1
  O  O238  1  0.49346952  0.73908936  0.64109380  1
  O  O239  1  0.98642709  0.25313475  0.13165130  1
  O  O240  1  0.98712426  0.24385046  0.63357963  1
  O  O241  1  0.99362325  0.75249546  0.12984330  1
  O  O242  1  0.99458395  0.73641514  0.62244597  1
  O  O243  1  -0.00536018  0.26181768  0.36240221  1
  O  O244  1  -0.00329456  0.24235622  0.86045101  1
  O  O245  1  0.00723000  0.75584911  0.36632523  1
  O  O246  1  0.00608346  0.75968995  0.88446267  1
  O  O247  1  0.50901897  0.24665911  0.36535185  1
  O  O248  1  0.49342002  0.26052332  0.87756913  1
  O  O249  1  0.49147485  0.75422006  0.36381102  1
  O  O250  1  0.49250034  0.75715456  0.86538361  1
  O  O251  1  0.23950339  0.13005573  0.49743758  1
  O  O252  1  0.23506770  0.12424413  0.99003852  1
  O  O253  1  0.23987537  0.62486174  0.49275147  1
  O  O254  1  0.24090092  0.63749256  0.99129851  1
  O  O255  1  0.75298957  0.12989751  0.48602189  1
  O  O256  1  0.74010683  0.12926856  0.99482810  1
  O  O257  1  0.74561677  0.63168298  0.48439486  1
  O  O258  1  0.75025725  0.63391054  0.98571870  1
  O  O259  1  0.24936538  0.37366169  -0.00311597  1
  O  O260  1  0.24738647  0.36825344  0.51064395  1
  O  O261  1  0.24252340  0.86565367  0.00397543  1
  O  O262  1  0.26158781  0.87183680  0.49503619  1
  O  O263  1  0.75528532  0.36678008  0.00291147  1
  O  O264  1  0.75559954  0.37590174  0.51144862  1
  O  O265  1  0.74417370  0.86370858  0.00840469  1
  O  O266  1  0.76123458  0.87844449  0.50183604  1
  O  O267  1  0.12748838  0.48568214  0.24427989  1
  O  O268  1  0.12706363  0.49431342  0.74575054  1
  O  O269  1  0.12436421  0.99736795  0.24128110  1
  O  O270  1  0.12410348  0.98651621  0.75746304  1
  O  O271  1  0.63384207  0.49432502  0.24455771  1
  O  O272  1  0.61908742  0.47891532  0.74683811  1
  O  O273  1  0.63962550  1.01056275  0.25080912  1
  O  O274  1  0.63111668  0.98746743  0.74831002  1
  O  O275  1  0.37058634  0.00739307  0.26295700  1
  O  O276  1  0.37176737  -0.00361503  0.76183771  1
  O  O277  1  0.36411869  0.49582188  0.26469261  1
  O  O278  1  0.36705712  0.50584661  0.75684543  1
  O  O279  1  0.87232250  0.01092721  0.25604130  1
  O  O280  1  0.86624476  0.00345382  0.75720028  1
  O  O281  1  0.86987898  0.49331385  0.25656155  1
  O  O282  1  0.87774702  0.51534863  0.74998079  1
  O  O283  1  0.11333295  0.38108856  0.37254701  1
  O  O284  1  0.12500333  0.37160242  0.86002799  1
  O  O285  1  0.12243163  0.87311777  0.36903811  1
  O  O286  1  0.11647891  0.86909262  0.86970852  1
  O  O287  1  0.62991401  0.36923223  0.37029056  1
  O  O288  1  0.61833501  0.37643060  0.86621140  1
  O  O289  1  0.62012284  0.87860682  0.36530215  1
  O  O290  1  0.60769842  0.88074704  0.86735461  1
  O  O291  1  0.37861246  0.13052798  0.13323838  1
  O  O292  1  0.38701832  0.13182340  0.62245487  1
  O  O293  1  0.38484961  0.63790526  0.12499516  1
  O  O294  1  0.37848971  0.62313402  0.63740909  1
  O  O295  1  0.87015495  0.13250929  0.13527823  1
  O  O296  1  0.87829241  0.13201537  0.62927701  1
  O  O297  1  0.87813771  0.63720918  0.12014510  1
  O  O298  1  0.88172958  0.63069246  0.62815528  1
  O  O299  1  0.26319337  0.24756018  0.11993961  1
  O  O300  1  0.25312316  0.25581757  0.62351538  1
  O  O301  1  0.25871823  0.75840073  0.11821481  1
  O  O302  1  0.25476036  0.75985290  0.62057858  1
  O  O303  1  0.76014460  0.25407297  0.11792880  1
  O  O304  1  0.76296808  0.25168300  0.62461677  1
  O  O305  1  0.75954958  0.75169869  0.11795527  1
  O  O306  1  0.76207878  0.74573848  0.62895027  1
  O  O307  1  0.25640860  0.23929968  0.38548098  1
  O  O308  1  0.24869324  0.24064438  0.88190886  1
  O  O309  1  0.24602449  0.73775649  0.37278416  1
  O  O310  1  0.24384313  0.74816438  0.88100793  1
  O  O311  1  0.74576603  0.24543579  0.37294201  1
  O  O312  1  0.75359563  0.23622801  0.88429407  1
  O  O313  1  0.73316792  0.76440338  0.32701644  1
  O  O314  1  0.75506350  0.74639585  0.88569931  1
  O  O315  1  0.00886532  0.11255416  -0.00595111  1
  O  O316  1  0.01336009  0.13142298  0.50630686  1
  O  O317  1  0.00546653  0.61752569  0.00175615  1
  O  O318  1  0.01341198  0.61994310  0.50387099  1
  O  O319  1  0.51876895  0.12431742  0.00423384  1
  O  O320  1  0.50230668  0.12512813  0.51271448  1
  O  O321  1  0.49814335  0.61227318  0.00704418  1
  O  O322  1  0.49744497  0.62152704  0.51547394  1
  O  O323  1  0.49507883  0.36729383  0.49595509  1
  O  O324  1  0.50611241  0.38525532  0.99455429  1
  O  O325  1  0.49760887  0.87178135  0.48710781  1
  O  O326  1  0.50517143  0.87122406  0.99892996  1
  O  O327  1  0.99779208  0.37967193  0.49455835  1
  O  O328  1  0.99249926  0.38332127  0.99852461  1
  O  O329  1  0.99824625  0.87060138  0.48595900  1
  O  O330  1  1.00309109  0.88794433  0.98761966  1
  O  O331  1  0.48416343  0.50275631  0.36752888  1
  O  O332  1  0.49315197  0.49337307  0.88532234  1
  O  O333  1  0.49277529  0.99087771  0.37248443  1
  O  O334  1  0.48659022  0.99383881  0.87542683  1
  O  O335  1  0.99496152  0.49608968  0.37848494  1
  O  O336  1  0.99389622  0.50294413  0.89079087  1
  O  O337  1  0.99436088  0.99268966  0.36801586  1
  O  O338  1  0.98815184  0.99478122  0.88123317  1
  O  O339  1  0.00491296  -0.00723517  0.11592573  1
  O  O340  1  -0.01128375  0.01306366  0.62964860  1
  O  O341  1  -0.00635919  0.50134843  0.10639151  1
  O  O342  1  0.00600506  0.50919256  0.61733205  1
  O  O343  1  0.48748566  -0.00983294  0.11709288  1
  O  O344  1  0.50001934  0.01172429  0.62337755  1
  O  O345  1  0.50227403  0.50432489  0.12184289  1
  O  O346  1  0.49215279  0.51095927  0.63037580  1
  O  O347  1  0.23052888  0.37115533  0.25259003  1
  O  O348  1  0.24126828  0.37939759  0.74448075  1
  O  O349  1  0.24297646  0.87865627  0.24206975  1
  O  O350  1  0.23233480  0.87614473  0.75364388  1
  O  O351  1  0.74743667  0.38083432  0.24212260  1
  O  O352  1  0.74300295  0.37587415  0.74021193  1
  O  O353  1  0.75408958  0.89049261  0.24875968  1
  O  O354  1  0.74042312  0.87831725  0.74759312  1
  O  O355  1  0.25428061  0.12765890  0.26048157  1
  O  O356  1  0.24032615  0.12449596  0.76504958  1
  O  O357  1  0.24221192  0.62205995  0.25974820  1
  O  O358  1  0.25510809  0.62142111  0.75426369  1
  O  O359  1  0.76041031  0.12448418  0.25732324  1
  O  O360  1  0.74915099  0.11717365  0.75715794  1
  O  O361  1  0.74891321  0.61118900  0.24945949  1
  O  O362  1  0.75573620  0.63108001  0.76544692  1
  O  O363  1  0.37066600  0.12043556  0.37427848  1
  O  O364  1  0.36800937  0.11034759  0.88102059  1
  O  O365  1  0.36097128  0.61751198  0.37796559  1
  O  O366  1  0.36953143  0.61722183  0.86633903  1
  O  O367  1  0.87257373  0.12370999  0.36623923  1
  O  O368  1  0.86208459  0.11257796  0.86927239  1
  O  O369  1  0.87347379  0.61627719  0.37589668  1
  O  O370  1  0.86618183  0.62524030  0.86741739  1
  O  O371  1  0.12304462  0.37380603  0.13216271  1
  O  O372  1  0.13270988  0.37860324  0.63383824  1
  O  O373  1  0.12839555  0.88589792  0.12833963  1
  O  O374  1  0.11739062  0.86850528  0.64289422  1
  O  O375  1  0.63261083  0.37989946  0.13087117  1
  O  O376  1  0.64200959  0.37254821  0.62976006  1
  O  O377  1  0.64833397  0.86043556  0.15276060  1
  O  O378  1  0.62179103  0.87554419  0.63399357  1
  O  O379  1  0.11241739  0.25783637  0.24232435  1
  O  O380  1  0.11324026  0.25769003  0.74935164  1
  O  O381  1  0.12140680  0.75953924  0.25366451  1
  O  O382  1  0.12581107  0.75661639  0.76401438  1
  O  O383  1  0.62091795  0.25414231  0.25783564  1
  O  O384  1  0.62181929  0.26869797  0.74621646  1
  O  O385  1  0.60748450  0.74014199  0.24275064  1
  O  O386  1  0.61694039  0.75907804  0.75006316  1
  O  O387  1  0.38293329  0.24766782  0.24526770  1
  O  O388  1  0.37614189  0.25446278  0.73750882  1
  O  O389  1  0.38333075  0.76073965  0.23326348  1
  O  O390  1  0.37920738  0.74036553  0.75196477  1
  O  O391  1  0.88339563  0.24538691  0.24173978  1
  O  O392  1  0.87753307  0.24285979  0.74404741  1
  O  O393  1  0.88970866  0.74910307  0.23943697  1
  O  O394  1  0.87675225  0.73609161  0.73644736  1
  O  O395  1  0.36285058  0.49595840  0.48038926  1
  O  O396  1  0.37615837  0.49263055  1.00153668  1
  O  O397  1  0.37989512  0.99387993  0.48848927  1
  O  O398  1  0.37441986  0.99783818  0.99550985  1
  O  O399  1  0.88205074  0.49720217  0.49091200  1
  O  O400  1  0.88150868  0.48826509  0.99552205  1
  O  O401  1  0.87726529  1.00544497  0.48521038  1
  O  O402  1  0.88069089  1.00511417  0.99098478  1
  O  O403  1  0.11603850  0.00500369  0.00578712  1
  O  O404  1  0.12470843  0.01231490  0.49942668  1
  O  O405  1  0.11248721  0.50959639  -0.00422364  1
  O  O406  1  0.12269954  0.50700180  0.50649035  1
  O  O407  1  0.63078548  0.00692526  0.00523728  1
  O  O408  1  0.62295876  0.00592585  0.50081356  1
  O  O409  1  0.61641365  0.50223201  0.00657906  1
  O  O410  1  0.62824476  0.52321113  0.49917474  1
  O  O411  1  0.38010391  0.36780065  0.12717651  1
  O  O412  1  0.36162764  0.37096879  0.62705378  1
  O  O413  1  0.37756350  0.87664370  0.11532608  1
  O  O414  1  0.38320005  0.87443539  0.60813388  1
  O  O415  1  0.87006782  0.36616607  0.11374179  1
  O  O416  1  0.86575593  0.37024086  0.62072709  1
  O  O417  1  0.86182313  0.86298044  0.13167325  1
  O  O418  1  0.87841442  0.85651919  0.62749588  1
  O  O419  1  0.13250680  0.12514184  0.38910405  1
  O  O420  1  0.12989385  0.12466703  0.88248734  1
  O  O421  1  0.13439837  0.62725607  0.38179764  1
  O  O422  1  0.12756907  0.63354213  0.88169315  1
  O  O423  1  0.63620510  0.13544768  0.37405361  1
  O  O424  1  0.63423488  0.11566893  0.88655447  1
  O  O425  1  0.63124132  0.62814924  0.37898645  1
  O  O426  1  0.63741562  0.62007845  0.87386968  1
