# generated using pymatgen
data_V85Zn86O256
_symmetry_space_group_name_H-M   'P 1'
_cell_length_a   16.95443662
_cell_length_b   16.93599379
_cell_length_c   16.95410826
_cell_angle_alpha   90.07626259
_cell_angle_beta   90.03717409
_cell_angle_gamma   90.12330968
_symmetry_Int_Tables_number   1
_chemical_formula_structural   V85Zn86O256
_chemical_formula_sum   'V85 Zn86 O256'
_cell_volume   4868.18997882
_cell_formula_units_Z   1
loop_
 _symmetry_equiv_pos_site_id
 _symmetry_equiv_pos_as_xyz
  1  'x, y, z'
loop_
 _atom_site_type_symbol
 _atom_site_label
 _atom_site_symmetry_multiplicity
 _atom_site_fract_x
 _atom_site_fract_y
 _atom_site_fract_z
 _atom_site_occupancy
  V  V0  1  0.00015993  0.25445754  0.75208095  1
  V  V1  1  0.73804274  0.49538719  0.74615466  1
  V  V2  1  0.62659469  0.13877757  0.49639717  1
  V  V3  1  0.12369245  0.24157513  0.38160580  1
  V  V4  1  0.12813602  0.38420799  0.75105019  1
  V  V5  1  0.39595197  0.39292597  0.00562133  1
  V  V6  1  0.12072351  0.74954700  0.36990005  1
  V  V7  1  0.75660483  0.75305494  0.01388360  1
  V  V8  1  0.49921999  0.86844314  0.36451590  1
  V  V9  1  0.88246675  0.63466884  0.24445564  1
  V  V10  1  0.11669330  0.86834686  0.74616178  1
  V  V11  1  0.37608805  -0.00596986  0.88339982  1
  V  V12  1  0.75039268  0.87350183  0.61989213  1
  V  V13  1  0.38656805  0.74055032  0.12922863  1
  V  V14  1  0.37793233  0.51894141  0.87680710  1
  V  V15  1  0.24725394  0.24367868  0.50272260  1
  V  V16  1  0.12724134  0.12235538  0.00415337  1
  V  V17  1  0.74878470  0.00212925  0.74959158  1
  V  V18  1  0.87516142  0.87315279  0.01620928  1
  V  V19  1  0.25031593  0.87673593  0.62197422  1
  V  V20  1  0.50603286  0.61331248  0.62028108  1
  V  V21  1  0.37728949  0.12694360  0.75211350  1
  V  V22  1  0.37640490  0.25271731  0.12674286  1
  V  V23  1  0.88218643  0.62402829  0.74693793  1
  V  V24  1  0.01026950  0.62726695  0.62449803  1
  V  V25  1  0.87140046  0.12149847  0.25121465  1
  V  V26  1  0.62593076  0.75094645  0.87513151  1
  V  V27  1  0.37520428  0.74093351  0.62559912  1
  V  V28  1  0.12991177  0.75116511  0.88287895  1
  V  V29  1  0.25459431  0.51643045  0.75300481  1
  V  V30  1  0.37595383  0.87194697  0.49891950  1
  V  V31  1  0.87241775  -0.00214078  0.87530942  1
  V  V32  1  0.54721761  0.43165298  0.43404387  1
  V  V33  1  0.50236267  0.25481156  0.26351113  1
  V  V34  1  0.62603774  0.26055228  0.87508728  1
  V  V35  1  0.00277254  -0.00071071  -0.00338502  1
  V  V36  1  0.87485515  0.12706901  0.74975656  1
  V  V37  1  0.25490413  0.25260282  0.00054170  1
  V  V38  1  0.25015024  0.50400116  0.24837729  1
  V  V39  1  0.62677432  -0.01291916  0.12561177  1
  V  V40  1  0.00302700  0.12763236  0.61964818  1
  V  V41  1  0.74171288  0.37667612  0.62009978  1
  V  V42  1  0.74521091  0.13769362  0.37867052  1
  V  V43  1  0.25678264  0.86930304  0.11281310  1
  V  V44  1  0.12500510  0.37278794  0.25036626  1
  V  V45  1  0.74662135  -0.00994292  0.24910576  1
  V  V46  1  0.87734128  0.24666904  0.12455102  1
  V  V47  1  0.87239760  0.26197105  0.61720817  1
  V  V48  1  0.62499255  0.00157642  0.62377900  1
  V  V49  1  0.75187177  0.37452744  0.12880351  1
  V  V50  1  0.24878755  0.00186503  0.74769775  1
  V  V51  1  0.88047174  0.50170976  0.37854054  1
  V  V52  1  0.00491084  0.00304622  0.49530921  1
  V  V53  1  0.24319186  -0.00010115  0.24494677  1
  V  V54  1  0.25231370  0.37874984  0.12166128  1
  V  V55  1  0.75210993  0.24611981  0.00126679  1
  V  V56  1  0.50094949  0.12502188  0.62686310  1
  V  V57  1  0.12018098  0.87561958  0.23707478  1
  V  V58  1  0.25128983  0.12667954  0.87560732  1
  V  V59  1  0.62177446  0.87529600  0.74920807  1
  V  V60  1  0.11259448  0.50112325  0.12090505  1
  V  V61  1  0.61973018  0.37333575  0.25241429  1
  V  V62  1  0.12415197  0.00335586  0.62101870  1
  V  V63  1  0.50097604  0.12516272  0.12770992  1
  V  V64  1  0.50051551  0.00046228  0.49667882  1
  V  V65  1  0.62268579  0.74398975  0.37398789  1
  V  V66  1  -0.00339546  0.37291974  0.38181368  1
  V  V67  1  0.88119514  0.74943970  0.62542016  1
  V  V68  1  0.75062099  0.50071156  0.25009271  1
  V  V69  1  0.49481403  0.74416511  0.74949836  1
  V  V70  1  0.00349970  0.11468406  0.12651492  1
  V  V71  1  0.37334389  0.12505438  0.25456450  1
  V  V72  1  0.24718288  0.37958424  0.62910364  1
  V  V73  1  0.25155342  0.62767366  0.37227988  1
  V  V74  1  0.86902256  -0.00101970  0.37553878  1
  V  V75  1  0.12813238  0.61784402  -0.00864423  1
  V  V76  1  0.62214407  0.12163205  0.00092017  1
  V  V77  1  0.00682786  0.49731880  0.50673249  1
  V  V78  1  0.37105648  0.49984150  0.37676111  1
  V  V79  1  0.50323780  0.25914269  0.75509033  1
  V  V80  1  0.00092419  0.24665616  0.25101378  1
  V  V81  1  -0.00192978  0.87028210  0.36956662  1
  V  V82  1  0.75566949  0.63169158  0.86899959  1
  V  V83  1  0.12738851  0.25152952  0.87388188  1
  V  V84  1  0.37137748  0.37863744  0.50027816  1
  Zn  Zn85  1  0.37210459  -0.00279646  0.37320601  1
  Zn  Zn86  1  0.24485929  0.12045613  0.37906449  1
  Zn  Zn87  1  0.87365095  0.87204288  0.49831785  1
  Zn  Zn88  1  0.51141889  0.39284010  0.87717036  1
  Zn  Zn89  1  0.88728219  0.38346435  0.00299470  1
  Zn  Zn90  1  0.62219833  0.85686297  0.23905138  1
  Zn  Zn91  1  0.12656820  0.62378500  0.49864143  1
  Zn  Zn92  1  0.74665572  0.73761101  0.50439638  1
  Zn  Zn93  1  0.24885218  0.74847626  0.49822307  1
  Zn  Zn94  1  -0.00455777  0.86603056  0.86853571  1
  Zn  Zn95  1  0.74826826  0.12502494  0.87456146  1
  Zn  Zn96  1  0.00510158  0.38809610  0.88694684  1
  Zn  Zn97  1  0.49879337  0.61152089  0.11957754  1
  Zn  Zn98  1  0.88337294  0.50212110  0.87930672  1
  Zn  Zn99  1  0.75188808  0.62359147  0.37894020  1
  Zn  Zn100  1  0.49208744  0.87023968  0.87829714  1
  Zn  Zn101  1  0.49526013  -0.01506280  0.00858061  1
  Zn  Zn102  1  0.59963453  0.48655845  0.09311472  1
  Zn  Zn103  1  0.62183423  0.61334079  -0.00359715  1
  Zn  Zn104  1  -0.00091897  0.64268515  0.11956397  1
  Zn  Zn105  1  0.62420608  0.61157075  0.50165934  1
  Zn  Zn106  1  0.37440499  0.25182454  0.62777972  1
  Zn  Zn107  1  0.18794690  0.18755942  0.18782352  1
  Zn  Zn108  1  0.18655512  0.19020891  0.68637853  1
  Zn  Zn109  1  0.18592034  0.68942084  0.18475077  1
  Zn  Zn110  1  0.18762720  0.69332292  0.68657583  1
  Zn  Zn111  1  0.68547492  0.18543929  0.19146977  1
  Zn  Zn112  1  0.68780499  0.19167552  0.68721279  1
  Zn  Zn113  1  0.68054507  0.67415372  0.18563969  1
  Zn  Zn114  1  0.68629925  0.68666066  0.68632131  1
  Zn  Zn115  1  0.31164204  0.31427871  0.31417586  1
  Zn  Zn116  1  0.31925394  0.32014822  0.81999914  1
  Zn  Zn117  1  0.30891868  0.81309770  0.30766570  1
  Zn  Zn118  1  0.30849009  0.81225704  0.80770377  1
  Zn  Zn119  1  0.81586233  0.31239121  0.31325504  1
  Zn  Zn120  1  0.81469021  0.31760355  0.81517313  1
  Zn  Zn121  1  0.80411413  0.81063679  0.31866751  1
  Zn  Zn122  1  0.81539877  0.81400154  0.80609751  1
  Zn  Zn123  1  0.18516401  0.43405918  0.43802377  1
  Zn  Zn124  1  0.19214972  0.44191860  0.93530813  1
  Zn  Zn125  1  0.18622300  0.93709572  0.43213837  1
  Zn  Zn126  1  0.18575804  0.93777920  0.93246667  1
  Zn  Zn127  1  0.70844068  0.42952700  0.43849539  1
  Zn  Zn128  1  0.72655421  0.45283313  0.95113112  1
  Zn  Zn129  1  0.68262331  0.93621994  0.43479096  1
  Zn  Zn130  1  0.68621070  0.93257926  0.94088472  1
  Zn  Zn131  1  0.31094308  0.06018908  0.06728980  1
  Zn  Zn132  1  0.31604078  0.06300153  0.56276351  1
  Zn  Zn133  1  0.30973706  0.56963689  0.06110697  1
  Zn  Zn134  1  0.30961460  0.56185210  0.56247371  1
  Zn  Zn135  1  0.81211374  0.05856745  0.06510567  1
  Zn  Zn136  1  0.81378629  0.06608661  0.56067376  1
  Zn  Zn137  1  0.80956929  0.56760534  0.06359435  1
  Zn  Zn138  1  0.81569933  0.55894956  0.56223783  1
  Zn  Zn139  1  0.45120546  0.46927324  0.20049227  1
  Zn  Zn140  1  0.43112230  0.43867802  0.69263917  1
  Zn  Zn141  1  0.43465668  0.93809123  0.18653592  1
  Zn  Zn142  1  0.43707501  0.93625014  0.68852849  1
  Zn  Zn143  1  0.93521890  0.43548025  0.19227886  1
  Zn  Zn144  1  0.94055776  0.44317897  0.69428325  1
  Zn  Zn145  1  0.93526516  0.81433812  0.19085563  1
  Zn  Zn146  1  0.93581332  0.93993258  0.68462868  1
  Zn  Zn147  1  0.06131664  0.05845634  0.31140139  1
  Zn  Zn148  1  0.06221414  0.06270378  0.81079627  1
  Zn  Zn149  1  0.06349672  0.56260747  0.31031210  1
  Zn  Zn150  1  0.06403273  0.56821301  0.81162891  1
  Zn  Zn151  1  0.56276579  0.06147693  0.31303844  1
  Zn  Zn152  1  0.56090697  0.06454587  0.81622903  1
  Zn  Zn153  1  0.56643230  0.57320801  0.30247763  1
  Zn  Zn154  1  0.56296747  0.56790957  0.81213861  1
  Zn  Zn155  1  0.43473086  0.18950861  0.43967171  1
  Zn  Zn156  1  0.43990665  0.18886357  0.94013681  1
  Zn  Zn157  1  0.43899774  0.68383822  0.43776546  1
  Zn  Zn158  1  0.43026931  0.69660499  0.94973823  1
  Zn  Zn159  1  0.93390205  0.18607719  0.43930723  1
  Zn  Zn160  1  0.93857922  0.19122487  0.93618010  1
  Zn  Zn161  1  0.93611810  0.68629913  0.44056755  1
  Zn  Zn162  1  0.94683592  0.68906973  0.93574384  1
  Zn  Zn163  1  0.06607065  0.30779886  0.06505407  1
  Zn  Zn164  1  0.06464759  0.31527558  0.56456100  1
  Zn  Zn165  1  0.06600419  0.81401629  0.05663771  1
  Zn  Zn166  1  0.06190396  0.81332833  0.55527672  1
  Zn  Zn167  1  0.56528949  0.30925013  0.06773728  1
  Zn  Zn168  1  0.56227954  0.31018526  0.57229108  1
  Zn  Zn169  1  0.54271515  0.78418363  0.04721082  1
  Zn  Zn170  1  0.56117268  0.80788340  0.55898099  1
  O  O171  1  0.11730945  0.12940789  0.11546934  1
  O  O172  1  0.11073213  0.12116240  0.62955846  1
  O  O173  1  0.12004631  0.61462837  0.12146873  1
  O  O174  1  0.11407537  0.63298642  0.62081162  1
  O  O175  1  0.61885937  0.12163677  0.11700073  1
  O  O176  1  0.62078877  0.12050932  0.61817726  1
  O  O177  1  0.62423372  0.60294452  0.11991204  1
  O  O178  1  0.61065099  0.62630761  0.62240555  1
  O  O179  1  0.36701209  0.38635058  0.38618542  1
  O  O180  1  0.38169610  0.38680824  0.89061456  1
  O  O181  1  0.38101374  0.87268776  0.38169741  1
  O  O182  1  0.37147849  0.89129467  0.86644181  1
  O  O183  1  0.88971389  0.38182069  0.36910614  1
  O  O184  1  0.88233102  0.37721071  0.88053240  1
  O  O185  1  0.87936444  0.88162175  0.37576143  1
  O  O186  1  0.87702738  0.88774060  0.87289359  1
  O  O187  1  0.25201649  0.00281854  0.36404134  1
  O  O188  1  0.25892930  0.00705178  0.86885889  1
  O  O189  1  0.25111136  0.50505018  0.36894026  1
  O  O190  1  0.26016672  0.49971383  0.86106153  1
  O  O191  1  0.75415359  0.00488396  0.37180213  1
  O  O192  1  0.75643562  0.00118418  0.86893850  1
  O  O193  1  0.76501822  0.49729693  0.36840823  1
  O  O194  1  0.75601063  0.51702438  0.85579257  1
  O  O195  1  0.24380792  0.49442897  0.13181566  1
  O  O196  1  0.25726422  0.49240360  0.64069673  1
  O  O197  1  0.25148156  0.99387833  0.13865752  1
  O  O198  1  0.24407373  0.99753699  0.62631654  1
  O  O199  1  0.75701002  0.48345361  0.13601678  1
  O  O200  1  0.75599678  0.48729465  0.63410087  1
  O  O201  1  0.73996644  1.00657281  0.13773492  1
  O  O202  1  0.74487271  0.99577433  0.62975768  1
  O  O203  1  0.00630184  0.36644754  0.25759702  1
  O  O204  1  0.01298628  0.36779715  0.74644350  1
  O  O205  1  0.00461411  0.87887170  0.26204611  1
  O  O206  1  0.01218315  0.88943750  0.75129910  1
  O  O207  1  0.51203113  0.37137103  0.24621968  1
  O  O208  1  0.49350249  0.36226787  0.75462078  1
  O  O209  1  0.50243407  0.88277961  0.26302525  1
  O  O210  1  0.50794719  0.86745040  0.75145526  1
  O  O211  1  0.49317498  0.13218475  0.24738097  1
  O  O212  1  0.49234753  0.12975279  0.74733611  1
  O  O213  1  0.48828985  0.57684094  0.22984230  1
  O  O214  1  0.50373475  0.63863722  0.73837537  1
  O  O215  1  0.99420659  0.12472052  0.24266550  1
  O  O216  1  0.99467092  0.13213387  0.74170192  1
  O  O217  1  0.98474627  0.62105516  0.24833500  1
  O  O218  1  0.99396689  0.62418325  0.73662994  1
  O  O219  1  0.37112821  0.25630991  0.00823947  1
  O  O220  1  0.36702032  0.26197434  0.50113914  1
  O  O221  1  0.37342020  0.75990552  0.02538366  1
  O  O222  1  0.37428588  0.75778404  0.50636358  1
  O  O223  1  0.86529055  0.24163311  0.00911961  1
  O  O224  1  0.87959325  0.24861336  0.51916443  1
  O  O225  1  0.86531968  0.75949731  -0.00634342  1
  O  O226  1  0.86873397  0.75183154  0.51081078  1
  O  O227  1  0.13379192  0.25464344  0.49339685  1
  O  O228  1  0.13458383  0.23878402  0.99433367  1
  O  O229  1  0.12944817  0.75141831  0.48448457  1
  O  O230  1  0.12989235  0.74724909  0.98665997  1
  O  O231  1  0.61776383  0.23766982  0.50230479  1
  O  O232  1  0.63101115  0.24056020  0.99592876  1
  O  O233  1  0.62580811  0.74655542  0.48808235  1
  O  O234  1  0.64613874  0.76021419  0.98087212  1
  O  O235  1  0.49389065  0.24363210  0.13447354  1
  O  O236  1  0.49626218  0.24263321  0.63737869  1
  O  O237  1  0.48789630  0.75506565  0.14400455  1
  O  O238  1  0.49216228  0.74614443  0.63036557  1
  O  O239  1  0.99700108  0.23709309  0.13303004  1
  O  O240  1  0.99450644  0.24628696  0.63296631  1
  O  O241  1  1.00458995  0.75587251  0.12792383  1
  O  O242  1  0.99162135  0.74326103  0.61597102  1
  O  O243  1  0.00360677  0.25402954  0.37334960  1
  O  O244  1  0.00797732  0.24534924  0.86029139  1
  O  O245  1  0.00576421  0.75966450  0.38016063  1
  O  O246  1  0.01953530  0.75212638  0.87021363  1
  O  O247  1  0.49397022  0.25057376  0.36254304  1
  O  O248  1  0.50994854  0.24699029  0.86912458  1
  O  O249  1  0.50872150  0.75535154  0.37784009  1
  O  O250  1  0.50811528  0.75020104  0.86467764  1
  O  O251  1  0.25731994  0.13915288  0.49911981  1
  O  O252  1  0.24457900  0.12926062  0.99789570  1
  O  O253  1  0.24602463  0.62402832  0.48701146  1
  O  O254  1  0.22693989  0.62825557  1.00834378  1
  O  O255  1  0.73841484  0.11992185  0.49217582  1
  O  O256  1  0.74230110  0.13278623  1.00309626  1
  O  O257  1  0.74293938  0.61787114  0.49823972  1
  O  O258  1  0.75279184  0.64208344  0.98715057  1
  O  O259  1  0.25519858  0.37159454  0.00749570  1
  O  O260  1  0.25386091  0.36863890  0.50892463  1
  O  O261  1  0.24309911  0.88783693  0.01590496  1
  O  O262  1  0.26274440  0.87817403  0.50213534  1
  O  O263  1  0.74815252  0.35546399  0.01446283  1
  O  O264  1  0.75890613  0.37427175  0.52065647  1
  O  O265  1  0.76200453  0.86274609  -0.00504286  1
  O  O266  1  0.74896426  0.87958001  0.51304975  1
  O  O267  1  0.13246835  0.49266061  0.24337208  1
  O  O268  1  0.14000222  0.49052529  0.75584099  1
  O  O269  1  0.13154214  0.99035974  0.25436696  1
  O  O270  1  0.13166398  0.99750897  0.74212873  1
  O  O271  1  0.64342920  0.48741441  0.26119425  1
  O  O272  1  0.63965028  0.50501428  0.74968216  1
  O  O273  1  0.63170833  1.00136466  0.24146773  1
  O  O274  1  0.62715743  0.99498590  0.74483216  1
  O  O275  1  0.36758066  0.00996488  0.25230644  1
  O  O276  1  0.37024303  0.01074311  0.75537011  1
  O  O277  1  0.35462933  0.48541112  0.26261976  1
  O  O278  1  0.36304635  0.50067229  0.76321377  1
  O  O279  1  0.86411899  0.00637118  0.26523453  1
  O  O280  1  0.86996414  0.00716378  0.75544809  1
  O  O281  1  0.86978022  0.50473154  0.25939866  1
  O  O282  1  0.86709453  0.51620481  0.74557704  1
  O  O283  1  0.11548461  0.36440454  0.37060295  1
  O  O284  1  0.12750408  0.36781939  0.86764432  1
  O  O285  1  0.11580768  0.86947064  0.36732073  1
  O  O286  1  0.12283278  0.86906094  0.86515708  1
  O  O287  1  0.61561203  0.37879296  0.37593698  1
  O  O288  1  0.62634452  0.36092197  0.87922829  1
  O  O289  1  0.61571803  0.86296458  0.37352933  1
  O  O290  1  0.63037345  0.87075910  0.85837777  1
  O  O291  1  0.37984901  0.12987866  0.13655959  1
  O  O292  1  0.38179563  0.12725761  0.63536857  1
  O  O293  1  0.37813991  0.63485001  0.12128163  1
  O  O294  1  0.38063032  0.63727381  0.61918883  1
  O  O295  1  0.88256181  0.12694178  0.13141014  1
  O  O296  1  0.88337646  0.13365140  0.63074905  1
  O  O297  1  0.87748549  0.61989747  0.14033888  1
  O  O298  1  0.88407641  0.63235195  0.62774079  1
  O  O299  1  0.25556870  0.25866985  0.12142974  1
  O  O300  1  0.25225593  0.25701954  0.61864324  1
  O  O301  1  0.24291891  0.76805186  0.12364839  1
  O  O302  1  0.25845996  0.75819312  0.62091423  1
  O  O303  1  0.75538291  0.25352049  0.12337510  1
  O  O304  1  0.76436927  0.26234816  0.63617407  1
  O  O305  1  0.74475347  0.74513164  0.11113168  1
  O  O306  1  0.75481938  0.75882103  0.62338220  1
  O  O307  1  0.23988057  0.24992649  0.38362920  1
  O  O308  1  0.24841014  0.24550906  0.88075583  1
  O  O309  1  0.24441497  0.74171341  0.37542670  1
  O  O310  1  0.22927448  0.75213653  0.85931821  1
  O  O311  1  0.75573270  0.23731381  0.37408353  1
  O  O312  1  0.74467888  0.24671748  0.88426456  1
  O  O313  1  0.73720184  0.74656506  0.38386075  1
  O  O314  1  0.74502746  0.74236719  0.86452842  1
  O  O315  1  0.00851780  0.12314190  0.00475299  1
  O  O316  1  -0.00375573  0.11689917  0.50791440  1
  O  O317  1  0.01817945  0.63105026  0.00450012  1
  O  O318  1  0.00278581  0.61655355  0.50662709  1
  O  O319  1  0.50730904  0.12167225  0.00910177  1
  O  O320  1  0.50313381  0.11816307  0.50433774  1
  O  O321  1  0.51924868  0.66512362  0.01290402  1
  O  O322  1  0.50150444  0.62434412  0.51577402  1
  O  O323  1  0.49260885  0.37266979  0.50152694  1
  O  O324  1  0.49324412  0.36158735  0.99437850  1
  O  O325  1  0.49096582  0.88122255  0.49474295  1
  O  O326  1  0.51436129  0.87558155  0.98889115  1
  O  O327  1  1.00330763  0.38134997  0.49272010  1
  O  O328  1  0.99710086  0.35698670  0.99656829  1
  O  O329  1  0.99617195  0.88545141  0.48830565  1
  O  O330  1  0.99370991  0.88553575  0.99345348  1
  O  O331  1  0.49048416  0.49629726  0.37787052  1
  O  O332  1  0.48399505  0.50520613  0.86589367  1
  O  O333  1  0.49777121  0.99194525  0.38330629  1
  O  O334  1  0.48366853  1.00023542  0.87414060  1
  O  O335  1  0.99850033  0.49078240  0.37859252  1
  O  O336  1  0.99549149  0.49866516  0.86238592  1
  O  O337  1  0.99070447  0.99603056  0.38045288  1
  O  O338  1  0.99169581  1.00437312  0.88467090  1
  O  O339  1  -0.00290001  0.01318303  0.10761750  1
  O  O340  1  0.00138468  0.00895940  0.61463162  1
  O  O341  1  0.01225956  0.49378049  0.12975279  1
  O  O342  1  -0.00441057  0.50997399  0.61599521  1
  O  O343  1  0.50727643  0.00817682  0.12642194  1
  O  O344  1  0.50467391  0.00510671  0.61862858  1
  O  O345  1  0.48388781  0.48531787  0.09427276  1
  O  O346  1  0.49151403  0.51559809  0.63387941  1
  O  O347  1  0.24208272  0.37780030  0.24167896  1
  O  O348  1  0.24591323  0.37585640  0.74477920  1
  O  O349  1  0.23809609  0.88443092  0.24532061  1
  O  O350  1  0.24171163  0.88486685  0.73933695  1
  O  O351  1  0.74385766  0.37466619  0.24545619  1
  O  O352  1  0.75492661  0.39026293  0.74491919  1
  O  O353  1  0.74355805  0.88685419  0.25585850  1
  O  O354  1  0.74360566  0.88178305  0.73732263  1
  O  O355  1  0.25637461  0.11976317  0.25092295  1
  O  O356  1  0.25781632  0.12252846  0.75355914  1
  O  O357  1  0.24260582  0.61542584  0.26066851  1
  O  O358  1  0.24693206  0.61421071  0.74427554  1
  O  O359  1  0.75272946  0.11809802  0.25994091  1
  O  O360  1  0.75689666  0.11967631  0.75010707  1
  O  O361  1  0.76040985  0.61401500  0.25287638  1
  O  O362  1  0.75758328  0.61990117  0.74960708  1
  O  O363  1  0.37210838  0.12568787  0.36346848  1
  O  O364  1  0.37056359  0.11837932  0.86965002  1
  O  O365  1  0.36660843  0.61022927  0.38152827  1
  O  O366  1  0.37602903  0.61800684  0.88377589  1
  O  O367  1  0.86693726  0.11790578  0.37275957  1
  O  O368  1  0.87346259  0.11471339  0.86948321  1
  O  O369  1  0.87630077  0.61798907  0.36458060  1
  O  O370  1  0.87136236  0.63161977  0.86356630  1
  O  O371  1  0.13599987  0.37854131  0.12833092  1
  O  O372  1  0.13881774  0.37231503  0.63454956  1
  O  O373  1  0.12960077  0.87824124  0.13478935  1
  O  O374  1  0.12803773  0.88231876  0.62785796  1
  O  O375  1  0.63338401  0.37724611  0.13514277  1
  O  O376  1  0.64244608  0.36781392  0.62797530  1
  O  O377  1  0.62013186  0.88619353  0.12564087  1
  O  O378  1  0.62924954  0.87874093  0.63227830  1
  O  O379  1  0.11927300  0.25354128  0.25747052  1
  O  O380  1  0.11967341  0.25882044  0.75405187  1
  O  O381  1  0.12926612  0.76081352  0.26165554  1
  O  O382  1  0.12352533  0.76551383  0.74765138  1
  O  O383  1  0.61634635  0.26047190  0.24876675  1
  O  O384  1  0.61517314  0.23988619  0.76292097  1
  O  O385  1  0.63177988  0.74416006  0.26592747  1
  O  O386  1  0.61875276  0.75812234  0.75453750  1
  O  O387  1  0.37905726  0.24646142  0.24544232  1
  O  O388  1  0.38166777  0.23952006  0.75546692  1
  O  O389  1  0.35555996  0.75145069  0.22796903  1
  O  O390  1  0.38416578  0.75861162  0.73894098  1
  O  O391  1  0.88235630  0.24138724  0.24536762  1
  O  O392  1  0.88414663  0.24521599  0.74570178  1
  O  O393  1  0.86918991  0.73880700  0.25367052  1
  O  O394  1  0.87155983  0.74106080  0.73451893  1
  O  O395  1  0.36809988  0.48700409  0.49483659  1
  O  O396  1  0.36216901  0.49819496  0.98538840  1
  O  O397  1  0.38595674  0.99426185  0.49832385  1
  O  O398  1  0.37548721  1.00672369  0.98640914  1
  O  O399  1  0.88832162  0.50462886  0.48519127  1
  O  O400  1  0.83850926  0.48912816  0.98907858  1
  O  O401  1  0.88203291  0.99987630  0.48971734  1
  O  O402  1  0.87896031  0.99415743  0.99218921  1
  O  O403  1  0.11694116  0.01383617  -0.00970304  1
  O  O404  1  0.11291131  -0.00327685  0.50313255  1
  O  O405  1  0.12758244  0.50843925  0.00554190  1
  O  O406  1  0.11159212  0.50157430  0.49476339  1
  O  O407  1  0.62838148  0.00723423  0.00851264  1
  O  O408  1  0.61264879  0.00279387  0.50508551  1
  O  O409  1  0.63218769  0.49958908  -0.01570767  1
  O  O410  1  0.61327330  0.48730928  0.48800933  1
  O  O411  1  0.36287647  0.37305284  0.11831383  1
  O  O412  1  0.36461788  0.37296620  0.62050955  1
  O  O413  1  0.35991605  0.87641357  0.12811700  1
  O  O414  1  0.37198755  0.86969532  0.61604361  1
  O  O415  1  0.86853314  0.36433754  0.12686085  1
  O  O416  1  0.87560908  0.36379673  0.63341188  1
  O  O417  1  0.87631767  0.88099028  0.11507663  1
  O  O418  1  0.86743939  0.86904380  0.62402937  1
  O  O419  1  0.12305320  0.13779980  0.37141000  1
  O  O420  1  0.13274294  0.13142862  0.87936518  1
  O  O421  1  0.13037444  0.63334414  0.37332710  1
  O  O422  1  0.12627615  0.63450530  0.88356024  1
  O  O423  1  0.63310423  0.12012501  0.38436640  1
  O  O424  1  0.62636190  0.12692472  0.88977318  1
  O  O425  1  0.62417300  0.63111419  0.37925540  1
  O  O426  1  0.63532370  0.63720922  0.87165580  1
