# generated using pymatgen
data_V85Zn86O256
_symmetry_space_group_name_H-M   'P 1'
_cell_length_a   16.94392581
_cell_length_b   16.94759408
_cell_length_c   16.94994673
_cell_angle_alpha   89.97253153
_cell_angle_beta   90.03077957
_cell_angle_gamma   89.96476550
_symmetry_Int_Tables_number   1
_chemical_formula_structural   V85Zn86O256
_chemical_formula_sum   'V85 Zn86 O256'
_cell_volume   4867.32378831
_cell_formula_units_Z   1
loop_
 _symmetry_equiv_pos_site_id
 _symmetry_equiv_pos_as_xyz
  1  'x, y, z'
loop_
 _atom_site_type_symbol
 _atom_site_label
 _atom_site_symmetry_multiplicity
 _atom_site_fract_x
 _atom_site_fract_y
 _atom_site_fract_z
 _atom_site_occupancy
  V  V0  1  0.12611287  0.75933877  0.37196469  1
  V  V1  1  0.87381996  0.62266574  0.25490944  1
  V  V2  1  0.74856236  -0.00195673  0.24977524  1
  V  V3  1  0.88041629  0.87336274  0.50546617  1
  V  V4  1  0.12506174  0.12814576  0.49711629  1
  V  V5  1  0.37968724  0.74864478  0.12978026  1
  V  V6  1  -0.01581939  0.49433889  0.00210219  1
  V  V7  1  0.74309384  0.25177459  0.49450928  1
  V  V8  1  0.37408409  0.12602736  0.74252364  1
  V  V9  1  0.62333030  0.36222167  0.25734038  1
  V  V10  1  0.12536762  0.25123068  0.37532322  1
  V  V11  1  0.35522808  0.49971745  0.87017170  1
  V  V12  1  0.00388380  0.25544712  0.75168554  1
  V  V13  1  0.75035660  0.75303892  0.51141573  1
  V  V14  1  0.50050462  0.49661587  -0.01132191  1
  V  V15  1  0.37762557  0.86746846  -0.00821708  1
  V  V16  1  0.62040571  0.49708279  0.12862023  1
  V  V17  1  0.11820564  0.87583459  0.75468337  1
  V  V18  1  0.75078982  0.12477747  0.88409634  1
  V  V19  1  0.62236817  0.74897069  0.37239656  1
  V  V20  1  0.49620364  0.87267359  0.37621553  1
  V  V21  1  0.49847135  0.62643105  0.63233090  1
  V  V22  1  0.87680871  0.25240971  0.62192749  1
  V  V23  1  0.25353638  0.62827607  0.37283470  1
  V  V24  1  0.75482525  0.62304875  0.38099969  1
  V  V25  1  0.74921066  0.75050480  0.00097036  1
  V  V26  1  0.24075419  0.87280810  0.11952145  1
  V  V27  1  0.62551471  0.62577942  0.50485619  1
  V  V28  1  0.56212115  0.06755991  0.67627388  1
  V  V29  1  0.12901860  0.61885910  -0.01001156  1
  V  V30  1  -0.01780873  0.37496735  0.88467063  1
  V  V31  1  -0.00597427  0.64078103  0.62825239  1
  V  V32  1  0.75752105  0.61857780  0.87466524  1
  V  V33  1  0.25711655  0.37509559  0.12377678  1
  V  V34  1  0.12050854  0.88376737  0.24273874  1
  V  V35  1  0.73562063  0.88614140  0.62919061  1
  V  V36  1  0.87505958  0.12337656  0.25081234  1
  V  V37  1  0.25622534  0.75220297  0.49690531  1
  V  V38  1  0.74166341  0.12655790  0.37374242  1
  V  V39  1  0.37682245  -0.00707241  0.86937431  1
  V  V40  1  0.00363813  0.62167930  0.12736484  1
  V  V41  1  0.25199811  0.13065889  0.87427238  1
  V  V42  1  0.12382724  0.00529821  0.62330382  1
  V  V43  1  0.50194872  0.00017708  -0.00244018  1
  V  V44  1  0.87498243  0.12372544  0.74823265  1
  V  V45  1  0.87331523  0.75091576  0.12788554  1
  V  V46  1  0.49424107  0.49279489  0.50147315  1
  V  V47  1  0.25530196  0.50252407  0.24996489  1
  V  V48  1  0.87997630  0.87281183  -0.00372310  1
  V  V49  1  -0.00141931  0.25144307  0.25012864  1
  V  V50  1  -0.00236601  0.38122228  0.37415032  1
  V  V51  1  0.61976700  0.87196522  0.24711797  1
  V  V52  1  0.12466012  0.62509076  0.49979620  1
  V  V53  1  0.61956600  0.76105462  0.87285227  1
  V  V54  1  -0.00420488  0.50534132  0.49739584  1
  V  V55  1  0.75370791  0.37902675  0.62482169  1
  V  V56  1  0.62258227  0.25251484  0.88443640  1
  V  V57  1  0.75435465  0.25819296  -0.00047097  1
  V  V58  1  0.26162301  0.11812163  0.37040673  1
  V  V59  1  0.62162031  0.62535236  -0.00047727  1
  V  V60  1  0.35689053  0.62374176  0.75374587  1
  V  V61  1  0.87936115  -0.00578788  0.87220991  1
  V  V62  1  0.31100688  0.20593780  0.05802721  1
  V  V63  1  0.62475206  0.00847356  0.12065492  1
  V  V64  1  0.62786609  0.50190331  0.63052046  1
  V  V65  1  0.75008599  0.49915437  0.25639350  1
  V  V66  1  0.37679858  0.37468746  -0.00341512  1
  V  V67  1  0.12678274  0.37738387  0.24928882  1
  V  V68  1  0.87672973  0.25528222  0.12031651  1
  V  V69  1  0.87334349  0.38137814  0.49503639  1
  V  V70  1  0.00383690  0.11905340  0.12571397  1
  V  V71  1  0.49856380  0.76090795  0.75387571  1
  V  V72  1  -0.00180820  0.75373714  0.25511409  1
  V  V73  1  0.62570943  0.38064226  0.75757685  1
  V  V74  1  0.87922666  -0.00534327  0.37547259  1
  V  V75  1  0.25490639  0.26256721  0.49651746  1
  V  V76  1  0.12641136  0.12946764  0.00142969  1
  V  V77  1  0.24542927  0.37864514  0.64119071  1
  V  V78  1  0.50404211  0.25703305  0.74831601  1
  V  V79  1  0.48067383  0.23993352  0.24784306  1
  V  V80  1  0.38004458  0.25658669  0.61982291  1
  V  V81  1  0.24861986  0.87762035  0.62330798  1
  V  V82  1  0.13037368  0.25995422  0.87460277  1
  V  V83  1  0.50181058  0.01036455  0.48690178  1
  V  V84  1  0.00859372  -0.00330016  -0.00266734  1
  Zn  Zn85  1  -0.00007815  0.12900658  0.62194398  1
  Zn  Zn86  1  0.37255000  0.49298350  0.38200708  1
  Zn  Zn87  1  0.50190266  0.62871900  0.13151888  1
  Zn  Zn88  1  0.24823914  0.00318458  0.74838603  1
  Zn  Zn89  1  0.26031867  0.00751234  0.24263748  1
  Zn  Zn90  1  0.12408294  0.74617568  0.87152610  1
  Zn  Zn91  1  0.13181273  0.50297483  0.63453388  1
  Zn  Zn92  1  0.87735941  0.63207124  0.74679701  1
  Zn  Zn93  1  0.49727857  0.36295643  0.38111844  1
  Zn  Zn94  1  0.74815811  0.87575884  0.12447137  1
  Zn  Zn95  1  -0.02977252  0.78273776  0.78354537  1
  Zn  Zn96  1  0.62369452  0.12729284  0.50118638  1
  Zn  Zn97  1  0.37408544  0.88682732  0.49893914  1
  Zn  Zn98  1  0.77108415  0.49328237  0.75823364  1
  Zn  Zn99  1  0.25234795  0.74014443  -0.00842103  1
  Zn  Zn100  1  0.37336522  0.75080552  0.62889313  1
  Zn  Zn101  1  0.12517459  0.49814524  0.12459358  1
  Zn  Zn102  1  0.73978858  0.00101162  0.74949576  1
  Zn  Zn103  1  0.00160289  0.00012253  0.49435189  1
  Zn  Zn104  1  0.38707482  0.63096525  0.25723436  1
  Zn  Zn105  1  0.75259639  0.37785598  0.12443493  1
  Zn  Zn106  1  0.48936955  0.12787050  0.12086675  1
  Zn  Zn107  1  0.18284538  0.18462491  0.19301809  1
  Zn  Zn108  1  0.18964429  0.19305302  0.68654803  1
  Zn  Zn109  1  0.18993220  0.69227308  0.18468157  1
  Zn  Zn110  1  0.18092868  0.69345865  0.68407092  1
  Zn  Zn111  1  0.68878117  0.18520015  0.18373166  1
  Zn  Zn112  1  0.69680628  0.19635147  0.69327285  1
  Zn  Zn113  1  0.68533472  0.68609194  0.18868578  1
  Zn  Zn114  1  0.68895271  0.69167100  0.69285250  1
  Zn  Zn115  1  0.31645635  0.31612199  0.31705100  1
  Zn  Zn116  1  0.31712126  0.31325307  0.81517975  1
  Zn  Zn117  1  0.32999118  0.84991924  0.29021351  1
  Zn  Zn118  1  0.30323922  0.80808626  0.81185860  1
  Zn  Zn119  1  0.81212790  0.31247923  0.31245977  1
  Zn  Zn120  1  0.81338837  0.31089950  0.81108464  1
  Zn  Zn121  1  0.80789525  0.81308216  0.31798860  1
  Zn  Zn122  1  0.80063958  0.81152643  0.81033687  1
  Zn  Zn123  1  0.18572464  0.44101178  0.43749885  1
  Zn  Zn124  1  0.18370698  0.43551406  0.94395999  1
  Zn  Zn125  1  0.18661694  0.93911008  0.43525689  1
  Zn  Zn126  1  0.19244677  0.93854261  0.93447012  1
  Zn  Zn127  1  0.68131344  0.43941940  0.43742967  1
  Zn  Zn128  1  0.68905334  0.43761076  0.93948188  1
  Zn  Zn129  1  0.68419242  0.93974399  0.43991991  1
  Zn  Zn130  1  0.69184918  0.93795823  0.93895497  1
  Zn  Zn131  1  0.30836507  0.04125989  0.05858002  1
  Zn  Zn132  1  0.31425066  0.06760017  0.55734769  1
  Zn  Zn133  1  0.31519190  0.56016013  0.06414538  1
  Zn  Zn134  1  0.31228196  0.56309499  0.56747832  1
  Zn  Zn135  1  0.81502508  0.06278488  0.06225011  1
  Zn  Zn136  1  0.81008211  0.06164019  0.56112776  1
  Zn  Zn137  1  0.80852584  0.56525910  0.06760495  1
  Zn  Zn138  1  0.81848403  0.56097090  0.56830613  1
  Zn  Zn139  1  0.43909970  0.43581004  0.18983352  1
  Zn  Zn140  1  0.43590014  0.43709041  0.68981271  1
  Zn  Zn141  1  0.43837998  0.93738412  0.18220886  1
  Zn  Zn142  1  0.43311384  0.93531626  0.68349388  1
  Zn  Zn143  1  0.93415730  0.43903060  0.18902807  1
  Zn  Zn144  1  0.97194555  0.46193355  0.70912314  1
  Zn  Zn145  1  0.93689523  0.93664587  0.18414006  1
  Zn  Zn146  1  0.93555267  0.94218536  0.67870183  1
  Zn  Zn147  1  0.06396463  0.06231595  0.31409939  1
  Zn  Zn148  1  0.06247631  0.06517068  0.81280793  1
  Zn  Zn149  1  0.06654473  0.56410287  0.31411078  1
  Zn  Zn150  1  0.06334250  0.55852586  0.81055489  1
  Zn  Zn151  1  0.55812480  0.06373499  0.30743486  1
  Zn  Zn152  1  0.56189373  0.06770582  0.83885975  1
  Zn  Zn153  1  0.56318168  0.56349115  0.31426631  1
  Zn  Zn154  1  0.56355703  0.56758246  0.81310510  1
  Zn  Zn155  1  0.43855149  0.19137168  0.43290017  1
  Zn  Zn156  1  0.44422370  0.18170846  0.93015707  1
  Zn  Zn157  1  0.43879415  0.68550997  0.44030588  1
  Zn  Zn158  1  0.43683823  0.68189033  0.93552877  1
  Zn  Zn159  1  0.93448437  0.18888338  0.43503517  1
  Zn  Zn160  1  0.93829683  0.18568646  0.93723307  1
  Zn  Zn161  1  0.93647038  0.69412563  0.43804740  1
  Zn  Zn162  1  0.94320943  0.68718106  0.93899885  1
  Zn  Zn163  1  0.06642500  0.31083837  0.06260421  1
  Zn  Zn164  1  0.06343023  0.31591427  0.56275762  1
  Zn  Zn165  1  0.05885343  0.80505290  0.05844346  1
  Zn  Zn166  1  0.06711524  0.81707754  0.55801649  1
  Zn  Zn167  1  0.55954227  0.31305164  0.06867214  1
  Zn  Zn168  1  0.56658724  0.31300882  0.56887959  1
  Zn  Zn169  1  0.55944812  0.81639094  0.06060575  1
  Zn  Zn170  1  0.55949209  0.81344212  0.56143358  1
  O  O171  1  0.11570005  0.12911817  0.11621899  1
  O  O172  1  0.12722577  0.12185633  0.61567010  1
  O  O173  1  0.11202284  0.62259892  0.12615808  1
  O  O174  1  0.11914696  0.62552161  0.61153971  1
  O  O175  1  0.62353806  0.11063904  0.12610276  1
  O  O176  1  0.62580443  0.12938589  0.62593979  1
  O  O177  1  0.62599896  0.61886240  0.11375322  1
  O  O178  1  0.61925949  0.62156654  0.62559600  1
  O  O179  1  0.38510607  0.38097198  0.37468050  1
  O  O180  1  0.37365186  0.38886144  0.88183440  1
  O  O181  1  0.39436196  0.85453581  0.38491104  1
  O  O182  1  0.36787978  0.88301799  0.87740648  1
  O  O183  1  0.88234895  0.36951695  0.38600407  1
  O  O184  1  0.88349543  0.36576818  0.88476730  1
  O  O185  1  0.86541753  0.88441633  0.38944524  1
  O  O186  1  0.86810794  0.88476891  0.88126306  1
  O  O187  1  0.24677725  0.01559433  0.37629921  1
  O  O188  1  0.26235990  0.01042038  0.87286638  1
  O  O189  1  0.25067254  0.51031142  0.36927028  1
  O  O190  1  0.25674913  0.49637632  0.87590169  1
  O  O191  1  0.75785625  0.00658617  0.37062744  1
  O  O192  1  0.75724136  0.00814698  0.87221984  1
  O  O193  1  0.74270992  0.51137934  0.36913578  1
  O  O194  1  0.74685390  0.51437543  0.87678499  1
  O  O195  1  0.24875848  0.49230320  0.13298158  1
  O  O196  1  0.25038955  0.48348888  0.62161158  1
  O  O197  1  0.24528023  0.98017720  0.12705903  1
  O  O198  1  0.24030575  0.99656900  0.62079576  1
  O  O199  1  0.73758314  0.50013476  0.13368876  1
  O  O200  1  0.74372361  0.49530366  0.62680233  1
  O  O201  1  0.74344139  0.99887705  0.12931606  1
  O  O202  1  0.74587355  0.99146356  0.62651236  1
  O  O203  1  0.00501116  0.37284039  0.25467688  1
  O  O204  1  -0.01289764  0.35903219  0.76860607  1
  O  O205  1  0.00561471  0.86384795  0.24220089  1
  O  O206  1  0.01283618  0.88106631  0.73913331  1
  O  O207  1  0.51159457  0.36386880  0.24702389  1
  O  O208  1  0.51068086  0.36693718  0.74730844  1
  O  O209  1  0.51371218  0.87690568  0.25898994  1
  O  O210  1  0.49357567  0.86012534  0.74471799  1
  O  O211  1  0.49492686  0.13418134  0.24379147  1
  O  O212  1  0.49999042  0.12649594  0.74176339  1
  O  O213  1  0.49949620  0.62136795  0.24520979  1
  O  O214  1  0.49553969  0.63026152  0.74178568  1
  O  O215  1  0.99782937  0.12888032  0.24217303  1
  O  O216  1  0.98905627  0.13587401  0.75142061  1
  O  O217  1  0.99416856  0.62866283  0.24639770  1
  O  O218  1  1.00475233  0.63442133  0.73241115  1
  O  O219  1  0.37756268  0.25657724  -0.00878567  1
  O  O220  1  0.36853231  0.24449512  0.50940511  1
  O  O221  1  0.37393259  0.75355694  0.00157512  1
  O  O222  1  0.36227907  0.74672797  0.50480938  1
  O  O223  1  0.86776268  0.24305396  0.00954866  1
  O  O224  1  0.86752599  0.25605019  0.50492526  1
  O  O225  1  0.87221436  0.75713535  0.00569151  1
  O  O226  1  0.86538506  0.76597863  0.49413065  1
  O  O227  1  0.13299129  0.24575825  0.49526531  1
  O  O228  1  0.12093503  0.23646535  0.99126304  1
  O  O229  1  0.13411475  0.74703926  0.49031207  1
  O  O230  1  0.12230894  0.72623381  1.00491298  1
  O  O231  1  0.63888615  0.25052894  0.50346036  1
  O  O232  1  0.62963763  0.25843925  0.98955060  1
  O  O233  1  0.63224682  0.74384676  0.49662686  1
  O  O234  1  0.62544846  0.74347801  0.99418334  1
  O  O235  1  0.50624821  0.24376193  0.14080906  1
  O  O236  1  0.49368306  0.25279008  0.63510467  1
  O  O237  1  0.48371488  0.75084820  0.11896509  1
  O  O238  1  0.49806513  0.74269236  0.63268880  1
  O  O239  1  0.99452721  0.24125024  0.12865574  1
  O  O240  1  0.99638141  0.25163075  0.63416442  1
  O  O241  1  0.99299233  0.73992837  0.13502900  1
  O  O242  1  1.00622837  0.73895242  0.61318431  1
  O  O243  1  0.00458256  0.25829184  0.36915464  1
  O  O244  1  0.00556853  0.25668613  0.87326356  1
  O  O245  1  0.00921346  0.74515202  0.36291239  1
  O  O246  1  0.01128354  0.75414859  0.88261472  1
  O  O247  1  0.50053561  0.24745821  0.35536415  1
  O  O248  1  0.51183056  0.24261407  0.86052478  1
  O  O249  1  0.51598804  0.75350241  0.38572863  1
  O  O250  1  0.51153367  0.74378561  0.87004390  1
  O  O251  1  0.24138510  0.13441308  0.49083399  1
  O  O252  1  0.24750866  0.13090474  0.99976655  1
  O  O253  1  0.24353200  0.63087998  0.49545301  1
  O  O254  1  0.23130604  0.61652177  1.00658472  1
  O  O255  1  0.74887087  0.13353492  0.49167662  1
  O  O256  1  0.75605651  0.13336693  0.98931790  1
  O  O257  1  0.74770794  0.63253669  0.49818947  1
  O  O258  1  0.74213180  0.63027102  0.99404672  1
  O  O259  1  0.26273966  0.37744279  0.00920749  1
  O  O260  1  0.24915495  0.36436166  0.49761923  1
  O  O261  1  0.25913927  0.87523661  0.00332746  1
  O  O262  1  0.25150956  0.86950852  0.50307840  1
  O  O263  1  0.74926937  0.36278238  0.00359186  1
  O  O264  1  0.75522836  0.37098322  0.49939373  1
  O  O265  1  0.76232134  0.86868633  0.00172246  1
  O  O266  1  0.75373320  0.87069496  0.50768352  1
  O  O267  1  0.13735560  0.49505298  0.24974437  1
  O  O268  1  0.08392451  0.48324796  0.73456090  1
  O  O269  1  0.12532846  0.98528408  0.25424504  1
  O  O270  1  0.12572181  0.99807158  0.73938343  1
  O  O271  1  0.63215366  0.49321037  0.24499249  1
  O  O272  1  0.62593182  0.49385279  0.74711623  1
  O  O273  1  0.62914531  0.99285640  0.24185564  1
  O  O274  1  0.61632959  1.01528173  0.74571000  1
  O  O275  1  0.36070169  -0.04257216  0.25717684  1
  O  O276  1  0.37448709  0.00817750  0.75219331  1
  O  O277  1  0.36370001  0.50333772  0.24990840  1
  O  O278  1  0.37777326  0.50547691  0.76438383  1
  O  O279  1  0.86858123  0.00161736  0.25540333  1
  O  O280  1  0.87581898  0.00759564  0.75618133  1
  O  O281  1  0.85811706  0.50528652  0.24682795  1
  O  O282  1  0.87961207  0.51673466  0.74053881  1
  O  O283  1  0.11925473  0.37021191  0.36974453  1
  O  O284  1  0.11733092  0.36169781  0.88409239  1
  O  O285  1  0.12825415  0.86418225  0.36656558  1
  O  O286  1  0.12668037  0.88724310  0.85511100  1
  O  O287  1  0.61805710  0.37969703  0.36074302  1
  O  O288  1  0.63194937  0.36887031  0.86481670  1
  O  O289  1  0.61965621  0.86758973  0.37005776  1
  O  O290  1  0.62897170  0.85957670  0.88026906  1
  O  O291  1  0.36485261  0.13103152  0.10864313  1
  O  O292  1  0.36786598  0.13847525  0.63605775  1
  O  O293  1  0.37401430  0.63940164  0.12339652  1
  O  O294  1  0.38212046  0.62602995  0.63597347  1
  O  O295  1  0.88297779  0.13193213  0.13159516  1
  O  O296  1  0.87607934  0.13027981  0.63184029  1
  O  O297  1  0.88346395  0.63058719  0.13397848  1
  O  O298  1  0.89082395  0.63448497  0.61638417  1
  O  O299  1  0.24808003  0.25607244  0.12609488  1
  O  O300  1  0.25744692  0.26030655  0.61696172  1
  O  O301  1  0.25796511  0.75583453  0.11365948  1
  O  O302  1  0.24616574  0.76109027  0.61410012  1
  O  O303  1  0.75829070  0.24769848  0.11564777  1
  O  O304  1  0.75758578  0.25879168  0.61694128  1
  O  O305  1  0.75559484  0.74899462  0.11854139  1
  O  O306  1  0.74492798  0.75934454  0.61591208  1
  O  O307  1  0.24485857  0.24382094  0.37993330  1
  O  O308  1  0.24194297  0.24519129  0.87031063  1
  O  O309  1  0.24308659  0.74317112  0.38044698  1
  O  O310  1  0.23656514  0.75205654  0.88033071  1
  O  O311  1  0.75698204  0.24017927  0.38359705  1
  O  O312  1  0.74625159  0.24487459  0.88223268  1
  O  O313  1  0.73987167  0.74482964  0.38720377  1
  O  O314  1  0.73590916  0.74151779  0.88206134  1
  O  O315  1  0.00742836  0.11793791  0.00581390  1
  O  O316  1  0.01353541  0.12959499  0.49881886  1
  O  O317  1  0.00479723  0.61362891  0.01000020  1
  O  O318  1  0.00739941  0.62315626  0.49621698  1
  O  O319  1  0.49678255  0.10741292  -0.00019925  1
  O  O320  1  0.50499787  0.11596892  0.49102329  1
  O  O321  1  0.50706228  0.61535413  0.00484443  1
  O  O322  1  0.50526369  0.62007029  0.51522874  1
  O  O323  1  0.50992287  0.38981380  0.50299139  1
  O  O324  1  0.48614066  0.38184216  1.00757222  1
  O  O325  1  0.50067391  0.88638235  0.49280405  1
  O  O326  1  0.48476043  0.88308726  1.00149529  1
  O  O327  1  0.99337663  0.38441359  0.49597200  1
  O  O328  1  1.00087230  0.37860140  0.99418705  1
  O  O329  1  0.98459259  0.87753248  0.50289030  1
  O  O330  1  0.98921929  0.88344892  1.00609613  1
  O  O331  1  0.50332681  0.50555338  0.39646392  1
  O  O332  1  0.50175777  0.50158822  0.88728026  1
  O  O333  1  0.50205574  0.99152917  0.38119395  1
  O  O334  1  0.48698986  0.99813457  0.88083101  1
  O  O335  1  1.00539602  0.49427634  0.38416994  1
  O  O336  1  0.99812724  0.48127383  0.88595595  1
  O  O337  1  0.98405604  1.00525574  0.37474962  1
  O  O338  1  0.98869189  1.00670965  0.88381283  1
  O  O339  1  -0.00630155  0.01219135  0.11457340  1
  O  O340  1  0.01208440  0.00784933  0.61836021  1
  O  O341  1  0.00126776  0.50538991  0.12249589  1
  O  O342  1  -0.00032240  0.51787161  0.60385030  1
  O  O343  1  0.50543134  0.00239120  0.11658191  1
  O  O344  1  0.50502889  0.00408286  0.62033378  1
  O  O345  1  0.51097320  0.49889819  0.11813221  1
  O  O346  1  0.50577115  0.50582733  0.62065448  1
  O  O347  1  0.24687077  0.38225005  0.24460120  1
  O  O348  1  0.24934426  0.37001482  0.73956108  1
  O  O349  1  0.23033793  0.86075118  0.23501312  1
  O  O350  1  0.23959038  0.88140170  0.73800619  1
  O  O351  1  0.74087658  0.38219205  0.25204946  1
  O  O352  1  0.74548329  0.37720513  0.74547794  1
  O  O353  1  0.73936322  0.88166951  0.25057574  1
  O  O354  1  0.74789112  0.88132658  0.73416452  1
  O  O355  1  0.24485806  0.12201061  0.26405156  1
  O  O356  1  0.25903235  0.12544059  0.75367802  1
  O  O357  1  0.25075039  0.61986074  0.25756740  1
  O  O358  1  0.25755587  0.62789706  0.74005351  1
  O  O359  1  0.75588928  0.11854041  0.25497685  1
  O  O360  1  0.76159402  0.12488766  0.75983195  1
  O  O361  1  0.75207554  0.61878254  0.26024841  1
  O  O362  1  0.74680362  0.62436413  0.76746867  1
  O  O363  1  0.35952968  0.12707327  0.37704366  1
  O  O364  1  0.37254552  0.11948297  0.86081381  1
  O  O365  1  0.36398774  0.62330006  0.37587487  1
  O  O366  1  0.37521606  0.60908310  0.86871024  1
  O  O367  1  0.86698930  0.11805935  0.36834642  1
  O  O368  1  0.86984775  0.11817395  0.86828944  1
  O  O369  1  0.86144194  0.63233906  0.37190522  1
  O  O370  1  0.85830402  0.62931424  0.88333255  1
  O  O371  1  0.13728303  0.37474070  0.13017824  1
  O  O372  1  0.14335039  0.37332355  0.61958093  1
  O  O373  1  0.12877823  0.86588679  0.12836690  1
  O  O374  1  0.13188614  0.88613222  0.62667956  1
  O  O375  1  0.62907506  0.38239042  0.13640396  1
  O  O376  1  0.63397391  0.38072163  0.63743239  1
  O  O377  1  0.62560853  0.88054106  0.13268857  1
  O  O378  1  0.63739460  0.87545372  0.61986835  1
  O  O379  1  0.11715327  0.25772679  0.25554903  1
  O  O380  1  0.11412247  0.24274529  0.76047634  1
  O  O381  1  0.11534309  0.75250442  0.25558334  1
  O  O382  1  0.12339666  0.77041747  0.74710516  1
  O  O383  1  0.63285751  0.26244960  0.24884770  1
  O  O384  1  0.62213617  0.25949908  0.75755438  1
  O  O385  1  0.63264354  0.75853704  0.26083288  1
  O  O386  1  0.61610094  0.74612818  0.76567689  1
  O  O387  1  0.38257002  0.25190580  0.24474496  1
  O  O388  1  0.38707685  0.24440906  0.74714065  1
  O  O389  1  0.36890100  0.75279404  0.23223999  1
  O  O390  1  0.38056966  0.74001846  0.75209217  1
  O  O391  1  0.88081005  0.24276922  0.24469946  1
  O  O392  1  0.87904498  0.24243399  0.74210903  1
  O  O393  1  0.87975533  0.74641259  0.24988894  1
  O  O394  1  0.87110945  0.74624976  0.75346163  1
  O  O395  1  0.39162619  0.50547205  0.50465580  1
  O  O396  1  0.38029320  0.49568721  0.98919261  1
  O  O397  1  0.39504668  1.00266715  0.50765510  1
  O  O398  1  0.38071585  0.98899795  0.98821084  1
  O  O399  1  0.88100950  0.49228256  0.49684061  1
  O  O400  1  0.88484612  0.50138814  1.01106580  1
  O  O401  1  0.87569645  0.99223339  0.49276900  1
  O  O402  1  0.88289504  0.99339501  0.99257170  1
  O  O403  1  0.11462057  0.00893776  -0.00861120  1
  O  O404  1  0.12277615  0.00966951  0.50357095  1
  O  O405  1  0.11369065  0.50697703  0.00495991  1
  O  O406  1  0.11855269  0.51188717  0.50003514  1
  O  O407  1  0.61521131  -0.01025997  0.00726980  1
  O  O408  1  0.60900453  0.00502182  0.49943080  1
  O  O409  1  0.61936727  0.50398100  0.00734601  1
  O  O410  1  0.61882831  0.50792305  0.51104344  1
  O  O411  1  0.36480121  0.37790216  0.11767098  1
  O  O412  1  0.36555724  0.36365463  0.63075426  1
  O  O413  1  0.36686242  0.86252317  0.11217430  1
  O  O414  1  0.36043334  0.87269027  0.62100865  1
  O  O415  1  0.87200853  0.35907893  0.13341901  1
  O  O416  1  0.86948547  0.37062687  0.60921590  1
  O  O417  1  0.87159503  0.86798468  0.11666517  1
  O  O418  1  0.86284917  0.88293685  0.60945618  1
  O  O419  1  0.12890621  0.13288320  0.38097351  1
  O  O420  1  0.13231905  0.13121338  0.88260545  1
  O  O421  1  0.13433965  0.63404743  0.38246974  1
  O  O422  1  0.11956967  0.61843773  0.88735077  1
  O  O423  1  0.63928422  0.11927204  0.37212034  1
  O  O424  1  0.63889366  0.13948394  0.87352771  1
  O  O425  1  0.63498182  0.63147119  0.38308903  1
  O  O426  1  0.63123141  0.62984076  0.88762016  1
