# generated using pymatgen
data_V85Zn86O256
_symmetry_space_group_name_H-M   'P 1'
_cell_length_a   16.94769844
_cell_length_b   16.96954762
_cell_length_c   16.97436467
_cell_angle_alpha   90.04167187
_cell_angle_beta   90.12812708
_cell_angle_gamma   89.94945285
_symmetry_Int_Tables_number   1
_chemical_formula_structural   V85Zn86O256
_chemical_formula_sum   'V85 Zn86 O256'
_cell_volume   4881.72321281
_cell_formula_units_Z   1
loop_
 _symmetry_equiv_pos_site_id
 _symmetry_equiv_pos_as_xyz
  1  'x, y, z'
loop_
 _atom_site_type_symbol
 _atom_site_label
 _atom_site_symmetry_multiplicity
 _atom_site_fract_x
 _atom_site_fract_y
 _atom_site_fract_z
 _atom_site_occupancy
  V  V0  1  0.87629932  0.38184753  -0.00667688  1
  V  V1  1  0.49759287  0.23931048  0.24775360  1
  V  V2  1  0.74629295  0.11387215  0.87450719  1
  V  V3  1  0.52198999  0.86368942  0.37238206  1
  V  V4  1  0.62295607  0.49377875  0.13453133  1
  V  V5  1  0.87610204  0.62343718  0.75711584  1
  V  V6  1  0.87315269  0.37858096  0.49849722  1
  V  V7  1  0.00106437  -0.00228260  0.00245883  1
  V  V8  1  0.00107778  0.37739414  0.37276332  1
  V  V9  1  0.75489274  0.50084620  0.75701090  1
  V  V10  1  0.61824498  0.11988399  0.50711559  1
  V  V11  1  0.18321236  0.32919996  0.68980747  1
  V  V12  1  0.00693437  0.87155228  0.88094653  1
  V  V13  1  0.37712874  0.87236155  0.00527097  1
  V  V14  1  0.13198643  0.24890486  0.38410264  1
  V  V15  1  0.49170965  0.62950675  0.12175183  1
  V  V16  1  0.49616220  0.24853865  0.74324636  1
  V  V17  1  0.25852011  0.00045731  0.25716000  1
  V  V18  1  0.37154844  0.50202157  0.37575301  1
  V  V19  1  0.62883424  0.88331207  0.75648359  1
  V  V20  1  0.61615491  0.12298284  0.01207013  1
  V  V21  1  0.73602626  0.00684540  0.23268927  1
  V  V22  1  0.86282032  0.50142691  0.36900080  1
  V  V23  1  0.12479984  0.87930431  0.75091151  1
  V  V24  1  0.37840452  0.64108164  0.24699428  1
  V  V25  1  0.75137381  0.88222397  0.62912251  1
  V  V26  1  0.75061395  0.62825782  0.88202104  1
  V  V27  1  0.00066293  0.25019542  0.74667869  1
  V  V28  1  0.87314916  0.75258695  0.62287296  1
  V  V29  1  0.62409409  0.24907806  0.37912834  1
  V  V30  1  0.25564117  0.11740470  0.87704921  1
  V  V31  1  0.00708332  0.12481866  0.12393028  1
  V  V32  1  0.13080130  0.50100612  0.62912346  1
  V  V33  1  0.12905753  -0.00255617  0.12697631  1
  V  V34  1  0.12177248  0.87535961  0.25397721  1
  V  V35  1  0.49941302  0.38192772  0.88126653  1
  V  V36  1  0.74485295  0.74611870  0.50069516  1
  V  V37  1  0.25396234  0.25496365  0.00028930  1
  V  V38  1  0.39080999  0.87129910  0.50095066  1
  V  V39  1  0.87411686  -0.00273472  0.87406203  1
  V  V40  1  -0.01960184  0.89031910  0.38152397  1
  V  V41  1  0.25803606  0.86504817  0.13033464  1
  V  V42  1  0.62369954  0.50277585  0.62593478  1
  V  V43  1  0.49244582  0.88526038  0.87481761  1
  V  V44  1  0.37482564  0.11718918  0.74485518  1
  V  V45  1  0.12684565  0.25504152  0.87270662  1
  V  V46  1  0.75244798  0.25132904  -0.00258573  1
  V  V47  1  0.87086032  0.12218865  0.75185130  1
  V  V48  1  0.00170764  0.38124273  0.86732271  1
  V  V49  1  -0.00118713  0.50150089  -0.00435451  1
  V  V50  1  0.75021848  0.37779276  0.62701444  1
  V  V51  1  -0.00060789  0.50387556  0.49795097  1
  V  V52  1  0.86261215  0.62112195  0.25017872  1
  V  V53  1  0.39308728  0.00361883  0.38088230  1
  V  V54  1  0.25344821  0.50393412  0.24952217  1
  V  V55  1  -0.00028297  0.62686374  0.62488797  1
  V  V56  1  0.25121441  0.63820847  0.37788304  1
  V  V57  1  0.49822740  0.62813967  0.62448508  1
  V  V58  1  0.24637115  0.63223024  0.86949938  1
  V  V59  1  0.12858289  0.63360772  0.50008209  1
  V  V60  1  0.62488553  0.75221468  0.88065583  1
  V  V61  1  0.12588196  0.50228819  0.12322368  1
  V  V62  1  0.00352757  0.75091240  0.75505653  1
  V  V63  1  0.12401223  0.63563209  -0.00423846  1
  V  V64  1  0.62500235  0.24728681  0.87334256  1
  V  V65  1  0.49650713  0.37583095  0.37047912  1
  V  V66  1  0.85671516  0.87512169  0.00368369  1
  V  V67  1  0.74690321  0.24936349  0.50030777  1
  V  V68  1  0.62455133  0.37432569  0.75001815  1
  V  V69  1  0.36252944  0.36952272  0.50701779  1
  V  V70  1  0.12803221  0.37731291  0.25027421  1
  V  V71  1  -0.00621649  0.75163887  0.25359524  1
  V  V72  1  0.25495544  -0.01096670  0.75401487  1
  V  V73  1  0.61651130  0.61179708  -0.00390022  1
  V  V74  1  -0.00350306  0.10737546  0.61681164  1
  V  V75  1  0.49784469  0.75085702  0.75216172  1
  V  V76  1  0.23997934  0.86826540  0.60980754  1
  V  V77  1  0.01094856  0.24814062  0.24713086  1
  V  V78  1  0.87912310  0.25249807  0.12188837  1
  V  V79  1  0.49728494  0.49892478  0.50160863  1
  V  V80  1  0.87467562  0.25085204  0.62552469  1
  V  V81  1  0.86305955  0.75473861  0.11921048  1
  V  V82  1  -0.00266120  0.62636550  0.12540566  1
  V  V83  1  0.12887694  0.12269117  -0.00303392  1
  V  V84  1  0.25503448  0.12571187  0.38556456  1
  Zn  Zn85  1  0.25103791  0.74932137  0.00125235  1
  Zn  Zn86  1  0.25178323  0.49658056  0.74933896  1
  Zn  Zn87  1  0.64221025  0.37593792  0.26022716  1
  Zn  Zn88  1  0.37289987  0.50408300  0.87745071  1
  Zn  Zn89  1  0.37094716  0.74772167  0.62007725  1
  Zn  Zn90  1  0.62047634  0.00022003  0.62953228  1
  Zn  Zn91  1  0.75858269  0.38452990  0.13472998  1
  Zn  Zn92  1  0.37361661  0.62228707  0.74926732  1
  Zn  Zn93  1  0.38265505  0.24807215  0.12354282  1
  Zn  Zn94  1  0.25612429  0.37854066  0.12292487  1
  Zn  Zn95  1  0.42429414  0.08178108  0.20292103  1
  Zn  Zn96  1  0.62418011  0.62630813  0.49296562  1
  Zn  Zn97  1  0.87435741  0.12131746  0.24803743  1
  Zn  Zn98  1  0.63523409  0.85949952  0.23444108  1
  Zn  Zn99  1  0.35673727  0.24966513  0.62320393  1
  Zn  Zn100  1  0.80097272  0.07928330  0.39111488  1
  Zn  Zn101  1  0.11338488  0.11120874  0.49692052  1
  Zn  Zn102  1  0.38370986  0.38225350  0.00858727  1
  Zn  Zn103  1  0.12079729  0.75469840  0.38054866  1
  Zn  Zn104  1  0.69516058  0.67869033  0.33851496  1
  Zn  Zn105  1  0.48601075  0.11381611  0.61763003  1
  Zn  Zn106  1  0.49169888  0.01036236  0.00462998  1
  Zn  Zn107  1  0.22720900  0.16529933  0.17044293  1
  Zn  Zn108  1  0.18318381  0.16326599  0.68569028  1
  Zn  Zn109  1  0.18381667  0.68789000  0.19171124  1
  Zn  Zn110  1  0.18411182  0.69284785  0.68819192  1
  Zn  Zn111  1  0.69087866  0.19925954  0.19085886  1
  Zn  Zn112  1  0.68885413  0.18649626  0.68768042  1
  Zn  Zn113  1  0.68484086  0.68669328  0.17155764  1
  Zn  Zn114  1  0.68543864  0.68986880  0.69050062  1
  Zn  Zn115  1  0.31428942  0.31288482  0.31179687  1
  Zn  Zn116  1  0.31938718  0.30647758  0.81814086  1
  Zn  Zn117  1  0.31850553  0.81903083  0.31891831  1
  Zn  Zn118  1  0.31426705  0.80514289  0.81563913  1
  Zn  Zn119  1  0.81823280  0.29518557  0.31462556  1
  Zn  Zn120  1  0.81406990  0.31077543  0.81393221  1
  Zn  Zn121  1  0.79812531  0.81688005  0.30203209  1
  Zn  Zn122  1  0.81223940  0.81121900  0.81422194  1
  Zn  Zn123  1  0.18607191  0.44432568  0.43754435  1
  Zn  Zn124  1  0.18979688  0.44235199  0.93483144  1
  Zn  Zn125  1  0.18124805  0.93861604  0.43486551  1
  Zn  Zn126  1  0.19135462  0.93374072  0.93987402  1
  Zn  Zn127  1  0.68366526  0.43933241  0.43893574  1
  Zn  Zn128  1  0.68840812  0.43701534  0.93806536  1
  Zn  Zn129  1  0.71769478  0.94462051  0.44158413  1
  Zn  Zn130  1  0.67531247  0.93879300  1.06734496  1
  Zn  Zn131  1  0.33294815  0.04711189  0.07048492  1
  Zn  Zn132  1  0.27458604  0.03701326  0.54604559  1
  Zn  Zn133  1  0.31437870  0.56102893  0.05638282  1
  Zn  Zn134  1  0.31164882  0.56182523  0.56246234  1
  Zn  Zn135  1  0.81460807  0.06905586  0.06154032  1
  Zn  Zn136  1  0.81080918  0.05834492  0.56586012  1
  Zn  Zn137  1  0.80992816  0.56144261  0.06312455  1
  Zn  Zn138  1  0.81384277  0.56481198  0.56515123  1
  Zn  Zn139  1  0.44029169  0.43918715  0.18424654  1
  Zn  Zn140  1  0.43310534  0.43810394  0.69124730  1
  Zn  Zn141  1  0.49055425  0.92036940  0.16667410  1
  Zn  Zn142  1  0.43566065  0.93733279  0.68452212  1
  Zn  Zn143  1  0.93818721  0.43784538  0.18636339  1
  Zn  Zn144  1  0.93974526  0.44042791  0.68679694  1
  Zn  Zn145  1  0.92674017  0.94053283  0.19465723  1
  Zn  Zn146  1  0.93312127  0.93501324  0.69216286  1
  Zn  Zn147  1  0.06438698  0.06243728  0.31322572  1
  Zn  Zn148  1  0.06222347  0.06070984  0.81040906  1
  Zn  Zn149  1  0.05989163  0.56639973  0.31299092  1
  Zn  Zn150  1  0.06733874  0.56309939  0.81257553  1
  Zn  Zn151  1  0.59469087  0.05077294  0.32419838  1
  Zn  Zn152  1  0.55888219  0.06152055  0.81306661  1
  Zn  Zn153  1  0.55698985  0.56110172  0.30907586  1
  Zn  Zn154  1  0.56316755  0.56340941  0.80848164  1
  Zn  Zn155  1  0.43669569  0.18950642  0.43786400  1
  Zn  Zn156  1  0.43570039  0.19282846  0.93223246  1
  Zn  Zn157  1  0.44155857  0.69077113  0.43592594  1
  Zn  Zn158  1  0.43348812  0.68836443  0.93873738  1
  Zn  Zn159  1  0.93876985  0.19093846  0.43573730  1
  Zn  Zn160  1  0.94157644  0.18822370  0.93658804  1
  Zn  Zn161  1  0.93082593  0.68972586  0.43488986  1
  Zn  Zn162  1  0.93630876  0.68970732  0.93845208  1
  Zn  Zn163  1  0.06830627  0.31549461  0.05857104  1
  Zn  Zn164  1  0.05566176  0.30914864  0.55740510  1
  Zn  Zn165  1  0.05792764  0.81404005  0.06971060  1
  Zn  Zn166  1  0.05623293  0.81770260  0.56070306  1
  Zn  Zn167  1  0.56542411  0.30839550  0.06437851  1
  Zn  Zn168  1  0.55637158  0.31446768  0.56276566  1
  Zn  Zn169  1  0.55698897  0.79931657  0.05345268  1
  Zn  Zn170  1  0.56793702  0.81445748  0.56491694  1
  O  O171  1  0.12754646  0.11588121  0.11788456  1
  O  O172  1  0.09941437  0.12427661  0.62298913  1
  O  O173  1  0.11926430  0.61703431  0.12101561  1
  O  O174  1  0.11943601  0.62094916  0.61876252  1
  O  O175  1  0.62604026  0.14497360  0.10726719  1
  O  O176  1  0.62444230  0.12599469  0.61640271  1
  O  O177  1  0.61713017  0.61463108  0.11522120  1
  O  O178  1  0.61444235  0.61739621  0.62729872  1
  O  O179  1  0.37911807  0.38109620  0.38308149  1
  O  O180  1  0.39362502  0.37264404  0.87420940  1
  O  O181  1  0.39001144  0.88194786  0.38436961  1
  O  O182  1  0.38599453  0.86742093  0.88101067  1
  O  O183  1  0.88367812  0.37869940  0.38002780  1
  O  O184  1  0.88664026  0.36810592  0.88515124  1
  O  O185  1  0.88381967  0.87175842  0.36428540  1
  O  O186  1  0.88023864  0.88147582  0.88262771  1
  O  O187  1  0.26000462  0.00442600  0.37169814  1
  O  O188  1  0.24225973  0.00693928  0.86586177  1
  O  O189  1  0.25290275  0.51138222  0.36650720  1
  O  O190  1  0.24303887  0.51671883  0.86838407  1
  O  O191  1  0.71390473  0.01659814  0.34891549  1
  O  O192  1  0.76046024  0.01355444  0.87962442  1
  O  O193  1  0.76426385  0.49212570  0.37906255  1
  O  O194  1  0.74478898  0.50662978  0.86170769  1
  O  O195  1  0.24178974  0.50345981  0.13334433  1
  O  O196  1  0.23799182  0.50292563  0.62816764  1
  O  O197  1  0.24870044  0.98608251  0.13714694  1
  O  O198  1  0.25666963  0.97500662  0.64394797  1
  O  O199  1  0.73058313  0.49907523  0.11626429  1
  O  O200  1  0.74325554  0.49805201  0.63459158  1
  O  O201  1  0.75099910  1.00190792  0.12358462  1
  O  O202  1  0.74601061  0.98498712  0.63267826  1
  O  O203  1  0.00889601  0.37100370  0.25323989  1
  O  O204  1  -0.00687583  0.36816571  0.75974817  1
  O  O205  1  0.00545888  0.86974700  0.25431192  1
  O  O206  1  0.00462944  0.87018479  0.75851482  1
  O  O207  1  0.50154711  0.37239748  0.26386701  1
  O  O208  1  0.50666680  0.36696864  0.75536995  1
  O  O209  1  0.51941428  0.87330603  0.26710409  1
  O  O210  1  0.50425906  0.86804159  0.75790585  1
  O  O211  1  0.50671676  0.13805648  0.26066294  1
  O  O212  1  0.48903927  0.13172788  0.75419002  1
  O  O213  1  0.48785541  0.61764168  0.23715502  1
  O  O214  1  0.49917427  0.63274008  0.74220603  1
  O  O215  1  1.00326690  0.13420272  0.24202294  1
  O  O216  1  0.98930174  0.12810966  0.74215072  1
  O  O217  1  0.99301146  0.63414993  0.24394431  1
  O  O218  1  0.99449047  0.63257322  0.74909591  1
  O  O219  1  0.36623406  0.25453437  0.00078630  1
  O  O220  1  0.37687806  0.26499329  0.50361424  1
  O  O221  1  0.36929000  0.76511098  -0.00417428  1
  O  O222  1  0.37694651  0.76678857  0.49802982  1
  O  O223  1  0.87714836  0.25760618  0.00575046  1
  O  O224  1  0.86624613  0.25896070  0.50705046  1
  O  O225  1  0.88282990  0.76060553  0.01161016  1
  O  O226  1  0.86975247  0.74279582  0.51857530  1
  O  O227  1  0.11995424  0.24696806  0.48578302  1
  O  O228  1  0.12909648  0.24258868  0.98822049  1
  O  O229  1  0.11761716  0.73695926  0.50056705  1
  O  O230  1  0.12192893  0.73754366  1.00975763  1
  O  O231  1  0.62942358  0.24996935  0.49890694  1
  O  O232  1  0.62975033  0.24671086  0.98619079  1
  O  O233  1  0.64007733  0.74503181  0.50696618  1
  O  O234  1  0.62163877  0.73326464  0.98598043  1
  O  O235  1  0.50277468  0.25223118  0.14345816  1
  O  O236  1  0.49965529  0.24692812  0.63805823  1
  O  O237  1  0.50474349  0.72803999  0.12837802  1
  O  O238  1  0.50118763  0.74284409  0.63178159  1
  O  O239  1  1.00302157  0.24642431  0.12730393  1
  O  O240  1  0.99036944  0.24601902  0.63027392  1
  O  O241  1  0.99246566  0.74478151  0.13650353  1
  O  O242  1  0.99229939  0.74691674  0.63288531  1
  O  O243  1  0.01069899  0.25701445  0.36480984  1
  O  O244  1  0.00957592  0.25369656  0.86586408  1
  O  O245  1  -0.00337843  0.75323147  0.36203246  1
  O  O246  1  -0.00699787  0.76089508  0.86742742  1
  O  O247  1  0.50473128  0.25866119  0.37070171  1
  O  O248  1  0.50805804  0.25696491  0.86288985  1
  O  O249  1  0.51028248  0.76403397  0.38188410  1
  O  O250  1  0.50562834  0.75113855  0.86778183  1
  O  O251  1  0.25768940  0.13609757  0.48615658  1
  O  O252  1  0.24572469  0.13026749  0.98983654  1
  O  O253  1  0.24106566  0.62074932  0.49010223  1
  O  O254  1  0.23996229  0.62867094  0.99208068  1
  O  O255  1  0.73943325  0.14433735  0.50873508  1
  O  O256  1  0.74124448  0.13271161  0.99068093  1
  O  O257  1  0.74741820  0.64055264  0.51252452  1
  O  O258  1  0.74320296  0.61796702  0.98497588  1
  O  O259  1  0.24691568  0.36522970  -0.00275924  1
  O  O260  1  0.26422696  0.38103260  0.49397582  1
  O  O261  1  0.25550017  0.87062639  0.01179419  1
  O  O262  1  0.25119974  0.86957441  0.50920773  1
  O  O263  1  0.76178236  0.36959029  -0.00345571  1
  O  O264  1  0.75300704  0.37122994  0.50972075  1
  O  O265  1  0.75807009  0.88152240  0.00015965  1
  O  O266  1  0.74397327  0.86062975  0.52278301  1
  O  O267  1  0.13316947  0.50063682  0.24391183  1
  O  O268  1  0.12244209  0.50139208  0.73332561  1
  O  O269  1  0.13213826  0.99055606  0.24699893  1
  O  O270  1  0.12992567  0.98580849  0.75154165  1
  O  O271  1  0.62437498  0.49425376  0.23746966  1
  O  O272  1  0.63267691  0.49594330  0.74071746  1
  O  O273  1  0.63010184  1.00669161  0.22500581  1
  O  O274  1  0.62655431  0.98567942  0.75834721  1
  O  O275  1  0.37038200  -0.00276109  0.26950516  1
  O  O276  1  0.36698542  0.00475968  0.75426507  1
  O  O277  1  0.36402145  0.50526289  0.25445475  1
  O  O278  1  0.37048507  0.50419190  0.75764032  1
  O  O279  1  0.85707994  0.00785474  0.24749674  1
  O  O280  1  0.87947016  0.00659622  0.76614907  1
  O  O281  1  0.88233567  0.50910205  0.25691008  1
  O  O282  1  0.86686233  0.51082109  0.74568001  1
  O  O283  1  0.12234733  0.37006364  0.37052997  1
  O  O284  1  0.11668369  0.36257853  0.87865723  1
  O  O285  1  0.11960181  0.87357444  0.36426779  1
  O  O286  1  0.11313808  0.87746658  0.87001915  1
  O  O287  1  0.61323022  0.36917328  0.37900793  1
  O  O288  1  0.61970465  0.36698425  0.86906520  1
  O  O289  1  0.61783891  0.88256479  0.39307918  1
  O  O290  1  0.61167512  0.86215438  0.86997427  1
  O  O291  1  0.34369722  0.13731719  0.13804812  1
  O  O292  1  0.36813020  0.12866216  0.63874019  1
  O  O293  1  0.38447050  0.62043187  0.13048695  1
  O  O294  1  0.38553250  0.62734057  0.62484223  1
  O  O295  1  0.89046739  0.13757424  0.11884566  1
  O  O296  1  0.87796413  0.12709590  0.63242535  1
  O  O297  1  0.87930966  0.63307763  0.12738398  1
  O  O298  1  0.88082003  0.63126806  0.63875691  1
  O  O299  1  0.23875726  0.25836867  0.10736412  1
  O  O300  1  0.23781425  0.25507541  0.63824142  1
  O  O301  1  0.24493044  0.76273682  0.12935278  1
  O  O302  1  0.25388178  0.76585881  0.63283679  1
  O  O303  1  0.76543362  0.25261360  0.11373202  1
  O  O304  1  0.75548554  0.25943676  0.62302416  1
  O  O305  1  0.76517670  0.74562333  0.11150708  1
  O  O306  1  0.75660626  0.75495225  0.62512068  1
  O  O307  1  0.24130589  0.23883141  0.36182821  1
  O  O308  1  0.24317027  0.24333688  0.88127899  1
  O  O309  1  0.24610135  0.74050116  0.37021610  1
  O  O310  1  0.24432951  0.73711833  0.87800898  1
  O  O311  1  0.73531186  0.26366842  0.39092128  1
  O  O312  1  0.74299822  0.24250621  0.87754767  1
  O  O313  1  0.76555533  0.75338280  0.39933708  1
  O  O314  1  0.73913570  0.73918812  0.86825364  1
  O  O315  1  0.00990749  0.11844644  0.00259299  1
  O  O316  1  -0.00698467  0.12458024  0.51183238  1
  O  O317  1  0.00471496  0.62012194  0.00308023  1
  O  O318  1  0.00424557  0.62098599  0.50375314  1
  O  O319  1  0.51206897  0.13108565  -0.00925409  1
  O  O320  1  0.51341771  0.13408303  0.50523648  1
  O  O321  1  0.50281960  0.62472540  0.00966620  1
  O  O322  1  0.50068598  0.61819334  0.50852236  1
  O  O323  1  0.49152671  0.38174233  0.49125446  1
  O  O324  1  0.50433973  0.36595023  0.98334807  1
  O  O325  1  0.49367694  0.87643163  0.49880271  1
  O  O326  1  0.48882328  0.87387885  0.99230963  1
  O  O327  1  0.99315835  0.38322235  0.49335262  1
  O  O328  1  0.99695454  0.38091930  0.98932398  1
  O  O329  1  0.99843220  0.87166558  0.48027382  1
  O  O330  1  0.99762034  0.88039706  0.99432662  1
  O  O331  1  0.48951065  0.49304958  0.37996001  1
  O  O332  1  0.50580134  0.48339038  0.86812400  1
  O  O333  1  0.49468711  0.99725807  0.37467986  1
  O  O334  1  0.50199162  0.98731554  0.88031465  1
  O  O335  1  0.99611952  0.49508422  0.38103965  1
  O  O336  1  1.00696753  0.48895747  0.87822729  1
  O  O337  1  0.99684504  0.98985494  0.36908735  1
  O  O338  1  0.99424162  0.99296664  0.88145200  1
  O  O339  1  0.00725915  0.00436951  0.12163687  1
  O  O340  1  -0.01191819  0.00894159  0.62428744  1
  O  O341  1  0.00701844  0.50738532  0.11881837  1
  O  O342  1  0.00458284  0.50873433  0.61745991  1
  O  O343  1  0.45966742  0.01509074  0.11722689  1
  O  O344  1  0.50714814  0.00443365  0.63432766  1
  O  O345  1  0.51425481  0.50787327  0.12479446  1
  O  O346  1  0.50636248  0.50662102  0.62448156  1
  O  O347  1  0.24440893  0.38653508  0.24980878  1
  O  O348  1  0.24715788  0.37498805  0.75737151  1
  O  O349  1  0.24549370  0.88113265  0.24985267  1
  O  O350  1  0.24092715  0.87496624  0.75610090  1
  O  O351  1  0.75304724  0.35643643  0.24447025  1
  O  O352  1  0.74686571  0.38259630  0.74775551  1
  O  O353  1  0.74569083  0.89938563  0.24447851  1
  O  O354  1  0.73989584  0.86528628  0.74243281  1
  O  O355  1  0.24148645  0.10513646  0.26465072  1
  O  O356  1  0.25350317  0.10948668  0.75573394  1
  O  O357  1  0.25539782  0.62035228  0.25615512  1
  O  O358  1  0.24676932  0.62839584  0.75998121  1
  O  O359  1  0.75417192  0.11773452  0.23497996  1
  O  O360  1  0.76315501  0.12990606  0.75794034  1
  O  O361  1  0.76164780  0.62176661  0.24431214  1
  O  O362  1  0.75670411  0.61926519  0.75711778  1
  O  O363  1  0.37365869  0.11116597  0.38117844  1
  O  O364  1  0.36025603  0.13294444  0.86325792  1
  O  O365  1  0.36945619  0.62225729  0.36952501  1
  O  O366  1  0.35928765  0.62717115  0.87310863  1
  O  O367  1  0.86313558  0.16443101  0.35770785  1
  O  O368  1  0.87190693  0.11963423  0.87014226  1
  O  O369  1  0.87813112  0.61480345  0.36287235  1
  O  O370  1  0.86716419  0.63142947  0.86503093  1
  O  O371  1  0.12553340  0.39058164  0.12915280  1
  O  O372  1  0.12100260  0.38220824  0.62172825  1
  O  O373  1  0.13093292  0.87895379  0.13741083  1
  O  O374  1  0.13430651  0.86976434  0.63126622  1
  O  O375  1  0.62563988  0.38697653  0.12291710  1
  O  O376  1  0.62813211  0.38214112  0.63241842  1
  O  O377  1  0.59787655  0.87757562  0.12337441  1
  O  O378  1  0.63443947  0.87454701  0.63865760  1
  O  O379  1  0.11749149  0.25810369  0.25332442  1
  O  O380  1  0.12331236  0.25407211  0.75102405  1
  O  O381  1  0.11236516  0.75792161  0.25240693  1
  O  O382  1  0.10988749  0.76082356  0.74694920  1
  O  O383  1  0.61501269  0.25401776  0.26242920  1
  O  O384  1  0.62073287  0.25243847  0.75832842  1
  O  O385  1  0.67668491  0.75591590  0.25895781  1
  O  O386  1  0.61440406  0.75407949  0.75891102  1
  O  O387  1  0.39371744  0.25161773  0.25432010  1
  O  O388  1  0.38156607  0.24244011  0.74550600  1
  O  O389  1  0.37150785  0.73965643  0.25455655  1
  O  O390  1  0.38823755  0.74772486  0.74600441  1
  O  O391  1  0.89489237  0.25655359  0.23079856  1
  O  O392  1  0.88010174  0.24150032  0.74540564  1
  O  O393  1  0.87547128  0.74475130  0.23783166  1
  O  O394  1  0.88397967  0.74418943  0.74434524  1
  O  O395  1  0.37980530  0.49297409  0.49561812  1
  O  O396  1  0.36897647  0.49239549  0.98989292  1
  O  O397  1  0.36786025  0.98427266  0.48847266  1
  O  O398  1  0.36830760  0.97807489  0.98811096  1
  O  O399  1  0.88037935  0.49818683  0.49432539  1
  O  O400  1  0.88363366  0.49218792  1.00248306  1
  O  O401  1  0.81709863  1.00248030  0.47184387  1
  O  O402  1  0.88166621  0.99444882  0.99214809  1
  O  O403  1  0.12205050  0.00303317  0.00597869  1
  O  O404  1  0.16330094  0.01162913  0.51484429  1
  O  O405  1  0.11915561  0.50892794  0.00775462  1
  O  O406  1  0.11828115  0.51018911  0.50765679  1
  O  O407  1  0.61650970  0.01926897  0.00575071  1
  O  O408  1  0.63365002  0.02024243  0.50228561  1
  O  O409  1  0.62301666  0.50882440  -0.00022860  1
  O  O410  1  0.61840383  0.49788009  0.51556327  1
  O  O411  1  0.37337063  0.36840705  0.12494192  1
  O  O412  1  0.37689448  0.37343617  0.61149688  1
  O  O413  1  0.37180612  0.87260373  0.11331352  1
  O  O414  1  0.36861378  0.87227508  0.61085078  1
  O  O415  1  0.88025972  0.37055320  0.11015823  1
  O  O416  1  0.87042570  0.37286673  0.61891628  1
  O  O417  1  0.88106656  0.86243790  0.11728203  1
  O  O418  1  0.86131203  0.86647765  0.63606980  1
  O  O419  1  0.13146971  0.13210000  0.37928926  1
  O  O420  1  0.13335548  0.13445007  0.87336014  1
  O  O421  1  0.13225805  0.62739769  0.38288588  1
  O  O422  1  0.13144236  0.62615771  0.88442707  1
  O  O423  1  0.61942080  0.14246927  0.39271888  1
  O  O424  1  0.63193946  0.13113392  0.87624228  1
  O  O425  1  0.62769542  0.60516727  0.38175916  1
  O  O426  1  0.62970592  0.62802970  0.87847051  1
