# generated using pymatgen
data_V85Zn86O256
_symmetry_space_group_name_H-M   'P 1'
_cell_length_a   16.92756688
_cell_length_b   16.92405917
_cell_length_c   16.92936673
_cell_angle_alpha   90.01441876
_cell_angle_beta   89.95884507
_cell_angle_gamma   90.01697581
_symmetry_Int_Tables_number   1
_chemical_formula_structural   V85Zn86O256
_chemical_formula_sum   'V85 Zn86 O256'
_cell_volume   4849.97658235
_cell_formula_units_Z   1
loop_
 _symmetry_equiv_pos_site_id
 _symmetry_equiv_pos_as_xyz
  1  'x, y, z'
loop_
 _atom_site_type_symbol
 _atom_site_label
 _atom_site_symmetry_multiplicity
 _atom_site_fract_x
 _atom_site_fract_y
 _atom_site_fract_z
 _atom_site_occupancy
  V  V0  1  0.25137154  0.62832892  0.87486895  1
  V  V1  1  0.50016382  0.24985984  0.24369161  1
  V  V2  1  0.50007858  0.37830547  0.37675416  1
  V  V3  1  0.62656503  0.50616672  0.12897100  1
  V  V4  1  0.62552759  0.00641879  0.62528261  1
  V  V5  1  0.50558014  0.25481790  0.75051117  1
  V  V6  1  0.24370759  0.37023165  0.62907063  1
  V  V7  1  0.25216074  0.50225042  0.25248597  1
  V  V8  1  0.37770134  0.37837522  0.50016720  1
  V  V9  1  0.25114812  0.24414951  0.50069531  1
  V  V10  1  0.49217928  0.75030175  0.74958596  1
  V  V11  1  0.24628033  0.49689446  0.75108529  1
  V  V12  1  0.12386482  0.49622883  0.62772218  1
  V  V13  1  0.73482213  0.63179596  0.37721152  1
  V  V14  1  0.87476010  0.12433034  0.24626483  1
  V  V15  1  -0.00021933  -0.00986577  0.49599020  1
  V  V16  1  0.61900470  0.75146750  0.87424753  1
  V  V17  1  0.73552486  0.49470233  0.75244706  1
  V  V18  1  0.12326937  0.49913378  0.12528263  1
  V  V19  1  0.62843903  0.24740327  0.37420210  1
  V  V20  1  0.50376645  0.11872044  0.11314578  1
  V  V21  1  -0.00722753  0.12697986  0.62716086  1
  V  V22  1  0.37519703  0.50176863  0.87562530  1
  V  V23  1  0.00072785  0.24756399  0.24969692  1
  V  V24  1  -0.00103652  0.62372590  0.62802095  1
  V  V25  1  -0.00104390  0.38030382  0.89262253  1
  V  V26  1  0.87447397  0.74882875  0.62174221  1
  V  V27  1  0.00319778  0.12466763  0.11709157  1
  V  V28  1  0.61910269  0.87798531  0.75490491  1
  V  V29  1  0.62765921  0.25861998  0.87696022  1
  V  V30  1  0.37286639  0.12240383  0.24624910  1
  V  V31  1  0.37471607  0.62937876  0.73593522  1
  V  V32  1  0.38698671  0.00142026  0.87705560  1
  V  V33  1  0.25221958  0.11776200  0.37323014  1
  V  V34  1  -0.00468211  0.75083550  0.76434978  1
  V  V35  1  0.12837447  0.25474501  0.88520851  1
  V  V36  1  0.00072882  0.62361369  0.12578969  1
  V  V37  1  0.49961828  0.00712208  0.49539279  1
  V  V38  1  0.87754343  0.00126897  0.87260248  1
  V  V39  1  0.00322636  0.26249704  0.74538437  1
  V  V40  1  0.49741773  0.50256079  0.00631700  1
  V  V41  1  0.74422261  0.12396263  0.87933699  1
  V  V42  1  0.25419611  0.87733076  0.12887464  1
  V  V43  1  0.24793782  -0.00122850  0.75231390  1
  V  V44  1  0.12569465  0.12100247  0.50148466  1
  V  V45  1  0.37881783  -0.00293069  0.36451532  1
  V  V46  1  0.86483887  0.50206937  0.37149038  1
  V  V47  1  0.74625463  -0.00037174  0.24940347  1
  V  V48  1  -0.00108029  0.49888361  0.50004400  1
  V  V49  1  0.38897813  0.62993447  0.24826242  1
  V  V50  1  0.75209174  0.87489190  0.12440804  1
  V  V51  1  0.61780761  0.62891060  0.00375249  1
  V  V52  1  0.63279656  0.37711701  0.24728599  1
  V  V53  1  0.12400698  0.75500523  0.37664664  1
  V  V54  1  0.37443942  0.24349806  0.62672693  1
  V  V55  1  0.62498114  0.86159132  0.25415775  1
  V  V56  1  0.25448660  0.75513496  -0.00010954  1
  V  V57  1  0.62442683  0.00171300  0.11001793  1
  V  V58  1  0.12983115  0.00293141  0.12306973  1
  V  V59  1  0.25087581  0.36875842  0.12174805  1
  V  V60  1  0.75449051  0.37140127  0.63025108  1
  V  V61  1  0.25081296  0.75826926  0.51407470  1
  V  V62  1  0.61304337  0.48900743  0.61365602  1
  V  V63  1  0.37421717  0.36730485  -0.00152492  1
  V  V64  1  0.39101835  0.87960812  -0.00563633  1
  V  V65  1  0.87829126  -0.01143493  0.37149818  1
  V  V66  1  0.12591902  0.62498943  0.49937192  1
  V  V67  1  0.87546964  0.74982139  0.12414918  1
  V  V68  1  0.12892746  0.62274773  0.00241221  1
  V  V69  1  0.12448439  -0.00596709  0.62788636  1
  V  V70  1  0.86965430  0.61936930  0.75144402  1
  V  V71  1  0.50562242  0.86384741  0.37525092  1
  V  V72  1  0.12872200  0.88029115  0.25322098  1
  V  V73  1  0.00525350  -0.00356016  -0.00531286  1
  V  V74  1  0.00009606  0.37558582  0.37460899  1
  V  V75  1  0.24196313  0.12504566  0.88960302  1
  V  V76  1  0.88009683  0.86900415  -0.01072120  1
  V  V77  1  0.00018383  0.75609654  0.25438879  1
  V  V78  1  0.11945535  0.87434616  0.75857043  1
  V  V79  1  0.12579350  0.24707853  0.37452956  1
  V  V80  1  0.75805523  0.38098740  0.12094389  1
  V  V81  1  0.55394588  0.67016645  0.56758705  1
  V  V82  1  0.75477792  0.25094522  0.00083597  1
  V  V83  1  0.75119834  0.87562805  0.62358356  1
  V  V84  1  0.75914025  0.24849688  0.50362256  1
  Zn  Zn85  1  0.37376587  0.86983996  0.50855681  1
  Zn  Zn86  1  0.87468835  0.13224603  0.74957997  1
  Zn  Zn87  1  0.74439951  0.62156193  0.87677446  1
  Zn  Zn88  1  0.50089531  0.12782890  0.62536540  1
  Zn  Zn89  1  0.12871010  0.37416421  0.25136320  1
  Zn  Zn90  1  0.75127100  0.00273843  0.74979770  1
  Zn  Zn91  1  0.37671792  0.50094842  0.37776356  1
  Zn  Zn92  1  0.74858445  0.74919765  -0.00327047  1
  Zn  Zn93  1  0.25050873  0.62510927  0.37434980  1
  Zn  Zn94  1  0.62782579  0.12793842  0.49936262  1
  Zn  Zn95  1  0.11831695  0.75365633  0.88197118  1
  Zn  Zn96  1  0.87932570  0.25775516  0.11907688  1
  Zn  Zn97  1  0.87452170  0.86925439  0.49454815  1
  Zn  Zn98  1  0.73317355  0.74376545  0.50178594  1
  Zn  Zn99  1  0.87672109  0.37098412  0.50338478  1
  Zn  Zn100  1  0.75238819  0.12423787  0.37536529  1
  Zn  Zn101  1  0.50371210  0.37872451  0.87256601  1
  Zn  Zn102  1  0.38865929  0.73895443  0.12254855  1
  Zn  Zn103  1  0.86857465  0.48877662  0.88667099  1
  Zn  Zn104  1  0.37035364  0.24487587  0.11847013  1
  Zn  Zn105  1  0.37154202  0.12741226  0.75292895  1
  Zn  Zn106  1  0.87013250  0.62280125  0.25082400  1
  Zn  Zn107  1  0.18770687  0.18519101  0.18763212  1
  Zn  Zn108  1  0.18154473  0.18307209  0.69395320  1
  Zn  Zn109  1  0.19398309  0.69116183  0.18810713  1
  Zn  Zn110  1  0.18358095  0.68679651  0.69098530  1
  Zn  Zn111  1  0.68801203  0.18788699  0.18215078  1
  Zn  Zn112  1  0.69123436  0.18977296  0.69281026  1
  Zn  Zn113  1  0.69136724  0.68141448  0.19059611  1
  Zn  Zn114  1  0.68737325  0.68678529  0.69042230  1
  Zn  Zn115  1  0.31329212  0.31009121  0.30988271  1
  Zn  Zn116  1  0.31143416  0.31195311  0.81335271  1
  Zn  Zn117  1  0.31168075  0.81094057  0.31620124  1
  Zn  Zn118  1  0.31063288  0.81718234  0.81156625  1
  Zn  Zn119  1  0.81388798  0.31273630  0.31163288  1
  Zn  Zn120  1  0.81876816  0.31290788  0.81281483  1
  Zn  Zn121  1  0.80826537  0.80691585  0.31289535  1
  Zn  Zn122  1  0.80725718  0.81023370  0.80975179  1
  Zn  Zn123  1  0.18896095  0.43507449  0.43877117  1
  Zn  Zn124  1  0.18702418  0.43621921  0.93862119  1
  Zn  Zn125  1  0.18871469  0.93788797  0.43535192  1
  Zn  Zn126  1  0.18792934  0.93720969  0.93709501  1
  Zn  Zn127  1  0.68784886  0.43369289  0.44106884  1
  Zn  Zn128  1  0.68666471  0.43781782  0.94169161  1
  Zn  Zn129  1  0.68780328  0.93636664  0.43781746  1
  Zn  Zn130  1  0.69173598  0.93348200  0.93539827  1
  Zn  Zn131  1  0.31511445  0.05891899  0.06188459  1
  Zn  Zn132  1  0.32416271  0.03482469  0.57346411  1
  Zn  Zn133  1  0.31283473  0.56092706  0.06732401  1
  Zn  Zn134  1  0.30992569  0.56120991  0.56043644  1
  Zn  Zn135  1  0.81370670  0.06241983  0.05856372  1
  Zn  Zn136  1  0.81313929  0.06180408  0.55890068  1
  Zn  Zn137  1  0.80928575  0.56308179  0.05864150  1
  Zn  Zn138  1  0.80652968  0.55839405  0.56062657  1
  Zn  Zn139  1  0.43777059  0.43855788  0.18713936  1
  Zn  Zn140  1  0.43183051  0.43311227  0.68924308  1
  Zn  Zn141  1  0.45473625  0.91054992  0.17220101  1
  Zn  Zn142  1  0.43493765  0.93816962  0.68722725  1
  Zn  Zn143  1  0.94043821  0.43916478  0.19057667  1
  Zn  Zn144  1  0.93213677  0.43728143  0.69175149  1
  Zn  Zn145  1  0.94015915  0.93564493  0.18394143  1
  Zn  Zn146  1  0.93975158  0.93491605  0.68796666  1
  Zn  Zn147  1  0.06119711  0.05991780  0.31058507  1
  Zn  Zn148  1  0.06224972  0.06834730  0.81350550  1
  Zn  Zn149  1  0.06301016  0.56376814  0.31123903  1
  Zn  Zn150  1  0.06389684  0.56275763  0.81477005  1
  Zn  Zn151  1  0.56237939  0.06218036  0.30551267  1
  Zn  Zn152  1  0.56383511  0.07270043  0.80926591  1
  Zn  Zn153  1  0.56250367  0.55989513  0.31350211  1
  Zn  Zn154  1  0.55837206  0.56551208  0.81143612  1
  Zn  Zn155  1  0.43949064  0.18914445  0.43606174  1
  Zn  Zn156  1  0.43778122  0.18539148  0.93339140  1
  Zn  Zn157  1  0.42758039  0.68765890  0.43397264  1
  Zn  Zn158  1  0.43817637  0.68894248  0.93354489  1
  Zn  Zn159  1  0.93760361  0.17993618  0.43509508  1
  Zn  Zn160  1  0.93701987  0.18943859  0.93511107  1
  Zn  Zn161  1  0.93827143  0.68571103  0.43719656  1
  Zn  Zn162  1  0.92598491  0.65688033  0.94920037  1
  Zn  Zn163  1  0.06587590  0.31061416  0.06263373  1
  Zn  Zn164  1  0.06256146  0.30960110  0.56121335  1
  Zn  Zn165  1  0.06375362  0.81297119  0.06330961  1
  Zn  Zn166  1  0.06301342  0.81177051  0.56975193  1
  Zn  Zn167  1  0.56670588  0.31274014  0.05899732  1
  Zn  Zn168  1  0.56551393  0.31288116  0.56216139  1
  Zn  Zn169  1  0.56222429  0.81457210  0.06510014  1
  Zn  Zn170  1  0.55726776  0.83133238  0.56664173  1
  O  O171  1  0.11608981  0.11522232  0.13087558  1
  O  O172  1  0.11305032  0.11836912  0.62006933  1
  O  O173  1  0.12386009  0.61961438  0.12247088  1
  O  O174  1  0.11915450  0.61757090  0.61915770  1
  O  O175  1  0.61677159  0.11321775  0.13167726  1
  O  O176  1  0.62837766  0.11427264  0.62650563  1
  O  O177  1  0.62615649  0.61637599  0.12019883  1
  O  O178  1  0.61978268  0.61241299  0.62541851  1
  O  O179  1  0.38259429  0.37057817  0.38245549  1
  O  O180  1  0.37304755  0.38364701  0.88290671  1
  O  O181  1  0.38378481  0.88280445  0.37745183  1
  O  O182  1  0.36910590  0.89227161  0.88056742  1
  O  O183  1  0.88144383  0.38491884  0.37617185  1
  O  O184  1  0.89343468  0.37454719  0.87736951  1
  O  O185  1  0.87167111  0.88403378  0.37420482  1
  O  O186  1  0.86847717  0.87805348  0.88459370  1
  O  O187  1  0.25996879  0.01040396  0.37748145  1
  O  O188  1  0.24964903  0.01196269  0.87173009  1
  O  O189  1  0.25150466  0.49930607  0.36650283  1
  O  O190  1  0.25333202  0.50540109  0.86773523  1
  O  O191  1  0.75758470  0.00134513  0.36681261  1
  O  O192  1  0.75814821  0.00711392  0.87483333  1
  O  O193  1  0.76147587  0.50350559  0.38047304  1
  O  O194  1  0.74869779  0.50031947  0.86739969  1
  O  O195  1  0.24115702  0.49196831  0.13229469  1
  O  O196  1  0.24553250  0.49003736  0.63113800  1
  O  O197  1  0.23558542  0.99745482  0.12026283  1
  O  O198  1  0.22984303  1.01345237  0.63783937  1
  O  O199  1  0.74011538  0.49429187  0.11924001  1
  O  O200  1  0.74021249  0.49182122  0.63184000  1
  O  O201  1  0.74694262  0.99597359  0.13136899  1
  O  O202  1  0.74519521  0.99275845  0.62534457  1
  O  O203  1  0.00248944  0.36834219  0.26144753  1
  O  O204  1  0.00276703  0.36457717  0.74934344  1
  O  O205  1  0.01027562  0.86265899  0.24255900  1
  O  O206  1  0.00527724  0.86290355  0.74988323  1
  O  O207  1  0.50821593  0.36626224  0.25231820  1
  O  O208  1  0.49099589  0.36026725  0.75553151  1
  O  O209  1  0.51260880  0.88564420  0.26977241  1
  O  O210  1  0.50586754  0.86265426  0.73801153  1
  O  O211  1  0.49087714  0.13234187  0.24360085  1
  O  O212  1  0.49332253  0.13885857  0.74550453  1
  O  O213  1  0.48811342  0.62375648  0.25386234  1
  O  O214  1  0.48905858  0.63830373  0.75244948  1
  O  O215  1  0.99378062  0.12682048  0.24022829  1
  O  O216  1  0.99782106  0.13204351  0.74167311  1
  O  O217  1  1.00370401  0.63748341  0.24025444  1
  O  O218  1  0.99103470  0.62728049  0.74556845  1
  O  O219  1  0.37967836  0.26327532  -0.00071898  1
  O  O220  1  0.36917547  0.25461312  0.50663170  1
  O  O221  1  0.37086856  0.75917450  0.00012282  1
  O  O222  1  0.35558456  0.75155717  0.49961236  1
  O  O223  1  0.86223583  0.24760481  0.00186197  1
  O  O224  1  0.86316899  0.24834385  0.49185251  1
  O  O225  1  0.87617895  0.75290557  0.00704185  1
  O  O226  1  0.88001880  0.75038960  0.51336300  1
  O  O227  1  0.13062990  0.24081132  0.49356978  1
  O  O228  1  0.12212492  0.24640490  0.98470645  1
  O  O229  1  0.12689750  0.74494613  0.49557263  1
  O  O230  1  0.13564199  0.74288018  1.00249928  1
  O  O231  1  0.63486092  0.25054556  0.48943895  1
  O  O232  1  0.63870473  0.25125603  0.99112402  1
  O  O233  1  0.61289221  0.73856135  0.51616893  1
  O  O234  1  0.61985679  0.74653396  0.99357403  1
  O  O235  1  0.50352003  0.24355342  0.13343162  1
  O  O236  1  0.49214064  0.25076122  0.63070260  1
  O  O237  1  0.48040009  0.80024345  0.13793689  1
  O  O238  1  0.50391042  0.74149218  0.62736249  1
  O  O239  1  0.99983128  0.24209140  0.12964159  1
  O  O240  1  1.00622543  0.24360662  0.63639561  1
  O  O241  1  0.99260525  0.74612378  0.13198350  1
  O  O242  1  0.99303861  0.74164222  0.63418370  1
  O  O243  1  0.00407971  0.25447397  0.37104212  1
  O  O244  1  0.00966955  0.25946680  0.87149612  1
  O  O245  1  0.01175448  0.74629857  0.36790669  1
  O  O246  1  -0.00345350  0.73751155  0.86533097  1
  O  O247  1  0.50733499  0.25612793  0.36274053  1
  O  O248  1  0.51015007  0.24921900  0.86954567  1
  O  O249  1  0.49464486  0.76589865  0.38086504  1
  O  O250  1  0.50896009  0.75200156  0.86427212  1
  O  O251  1  0.24488937  0.12672584  0.49179015  1
  O  O252  1  0.25162753  0.12477028  0.98827206  1
  O  O253  1  0.23835936  0.63231309  0.50015437  1
  O  O254  1  0.24846779  0.63594244  0.99893047  1
  O  O255  1  0.74725996  0.13200319  0.49589787  1
  O  O256  1  0.75360607  0.13320418  0.99116891  1
  O  O257  1  0.75495873  0.62649236  0.48454863  1
  O  O258  1  0.73064404  0.63114652  0.99859108  1
  O  O259  1  0.26066615  0.38257443  0.00995016  1
  O  O260  1  0.25558571  0.36389213  0.50692389  1
  O  O261  1  0.25214677  0.86542559  0.00389444  1
  O  O262  1  0.24581477  0.86123976  0.49829050  1
  O  O263  1  0.74876929  0.36875771  0.01079266  1
  O  O264  1  0.75338487  0.36583602  0.50773341  1
  O  O265  1  0.76012637  0.86930955  0.00659760  1
  O  O266  1  0.74878392  0.86837391  0.51157717  1
  O  O267  1  0.13287031  0.49737488  0.24353402  1
  O  O268  1  0.13863263  0.50677211  0.74367004  1
  O  O269  1  0.11825214  0.98703828  0.24086587  1
  O  O270  1  0.12506460  0.99399661  0.74711811  1
  O  O271  1  0.61908554  0.49089472  0.23858718  1
  O  O272  1  0.63243408  0.50291598  0.74454169  1
  O  O273  1  0.63871063  0.99441833  0.24804698  1
  O  O274  1  0.62378745  0.99483260  0.74340767  1
  O  O275  1  0.38338321  0.00806937  0.26004160  1
  O  O276  1  0.36506368  0.00260127  0.76239942  1
  O  O277  1  0.36852510  0.50755410  0.25097168  1
  O  O278  1  0.36529111  0.50665520  0.75432133  1
  O  O279  1  0.86796992  0.00183179  0.25202211  1
  O  O280  1  0.87730642  -0.00381134  0.76469402  1
  O  O281  1  0.88166279  0.50242194  0.26778413  1
  O  O282  1  0.86528392  0.50744649  0.75664124  1
  O  O283  1  0.11721224  0.36692019  0.37554363  1
  O  O284  1  0.11983080  0.36277284  0.87871680  1
  O  O285  1  0.12776977  0.86941525  0.36480212  1
  O  O286  1  0.12456286  0.87262295  0.86441472  1
  O  O287  1  0.62114497  0.36673540  0.36733091  1
  O  O288  1  0.62414602  0.36324068  0.87814513  1
  O  O289  1  0.61546746  0.87436334  0.37147395  1
  O  O290  1  0.62662592  0.87224549  0.86087850  1
  O  O291  1  0.38074094  0.12438445  0.13061152  1
  O  O292  1  0.37233529  0.13539150  0.62365288  1
  O  O293  1  0.37431981  0.62400220  0.14058378  1
  O  O294  1  0.36921793  0.62079417  0.63693506  1
  O  O295  1  0.88302951  0.12181414  0.13462315  1
  O  O296  1  0.88876805  0.11791549  0.62564154  1
  O  O297  1  0.88402503  0.63183257  0.13019757  1
  O  O298  1  0.87617818  0.62952991  0.63263013  1
  O  O299  1  0.24959552  0.26410915  0.13028115  1
  O  O300  1  0.25262702  0.25309175  0.62437301  1
  O  O301  1  0.25862241  0.76077422  0.11773832  1
  O  O302  1  0.23969700  0.74980205  0.61251461  1
  O  O303  1  0.75174198  0.25893001  0.11728561  1
  O  O304  1  0.74513071  0.25781382  0.61661483  1
  O  O305  1  0.76403929  0.75218651  0.12636106  1
  O  O306  1  0.75608429  0.75519199  0.62318341  1
  O  O307  1  0.24648574  0.23841785  0.37819749  1
  O  O308  1  0.23738841  0.24008947  0.86912245  1
  O  O309  1  0.23613427  0.74696794  0.38289695  1
  O  O310  1  0.24816878  0.74580455  0.88355879  1
  O  O311  1  0.74367377  0.24939371  0.38023275  1
  O  O312  1  0.74663377  0.24600165  0.87986215  1
  O  O313  1  0.74944405  0.73782318  0.38293391  1
  O  O314  1  0.73190828  0.74983124  0.87369788  1
  O  O315  1  -0.00747483  0.11655206  0.01176688  1
  O  O316  1  0.00590636  0.11523237  0.50560342  1
  O  O317  1  0.01720346  0.63630786  0.01897604  1
  O  O318  1  0.01016101  0.62082041  0.50664495  1
  O  O319  1  0.49554884  0.12852540  0.01439192  1
  O  O320  1  0.50793314  0.12250349  0.50193588  1
  O  O321  1  0.50752677  0.61959777  -0.00081045  1
  O  O322  1  0.49228787  0.62312556  0.50506822  1
  O  O323  1  0.48977733  0.36286986  0.48919741  1
  O  O324  1  0.49265641  0.38377214  0.99778881  1
  O  O325  1  0.49592107  0.88743374  0.48929161  1
  O  O326  1  0.48979241  0.87749434  0.99256119  1
  O  O327  1  0.99834153  0.37642932  0.48964385  1
  O  O328  1  1.00272156  0.37701606  0.99221536  1
  O  O329  1  0.99832228  0.88700825  0.50724889  1
  O  O330  1  0.99166232  0.88291960  1.00423659  1
  O  O331  1  0.49814588  0.48191433  0.37044620  1
  O  O332  1  0.49367607  0.49985725  0.88474423  1
  O  O333  1  0.49826152  0.99730222  0.37958169  1
  O  O334  1  0.48516486  1.01025526  0.86874518  1
  O  O335  1  0.99754045  0.49182432  0.38020148  1
  O  O336  1  1.00657020  0.48040880  0.86859896  1
  O  O337  1  0.99203466  1.00256573  0.38364554  1
  O  O338  1  0.99437568  1.00747863  0.88676242  1
  O  O339  1  0.00768014  0.00485776  0.11663540  1
  O  O340  1  0.00702339  0.00603271  0.61987772  1
  O  O341  1  0.01372956  0.50820328  0.13274507  1
  O  O342  1  0.00318587  0.50289819  0.62087119  1
  O  O343  1  0.51385684  0.00512756  0.13043445  1
  O  O344  1  0.51015207  0.00493801  0.61532674  1
  O  O345  1  0.50916233  0.49453618  0.11310335  1
  O  O346  1  0.51405077  0.48755984  0.63080754  1
  O  O347  1  0.25186126  0.38531471  0.24341479  1
  O  O348  1  0.25474944  0.38383791  0.74069500  1
  O  O349  1  0.24324287  0.87127021  0.24085079  1
  O  O350  1  0.23974449  0.89044785  0.75532593  1
  O  O351  1  0.73803826  0.36997389  0.24337972  1
  O  O352  1  0.75517980  0.38254701  0.74410773  1
  O  O353  1  0.74567734  0.88131236  0.24576188  1
  O  O354  1  0.74031683  0.87715546  0.73830871  1
  O  O355  1  0.26418436  0.12884757  0.25609950  1
  O  O356  1  0.24840028  0.11414635  0.76058641  1
  O  O357  1  0.25069518  0.61182494  0.25052511  1
  O  O358  1  0.25484149  0.62025907  0.75555126  1
  O  O359  1  0.75842092  0.11736233  0.24834969  1
  O  O360  1  0.75736133  0.12268982  0.76003963  1
  O  O361  1  0.75401583  0.62671064  0.26956988  1
  O  O362  1  0.75324698  0.61266068  0.74775207  1
  O  O363  1  0.37000606  0.12309428  0.36547213  1
  O  O364  1  0.36243999  0.11766796  0.87492311  1
  O  O365  1  0.36964609  0.61880458  0.36379266  1
  O  O366  1  0.36814033  0.61917362  0.86880217  1
  O  O367  1  0.87581338  0.11283872  0.35993525  1
  O  O368  1  0.86753673  0.11580860  0.87520823  1
  O  O369  1  0.87586418  0.61191242  0.37415226  1
  O  O370  1  0.86232608  0.64276610  0.85338432  1
  O  O371  1  0.13107370  0.38290034  0.12594186  1
  O  O372  1  0.13678326  0.37857134  0.61879383  1
  O  O373  1  0.13592610  0.88004277  0.13047204  1
  O  O374  1  0.11941741  0.88483059  0.63963888  1
  O  O375  1  0.63336997  0.38284837  0.13029713  1
  O  O376  1  0.63547765  0.38264189  0.62381720  1
  O  O377  1  0.63468696  0.88399989  0.13307614  1
  O  O378  1  0.63112002  0.88770630  0.63349048  1
  O  O379  1  0.11891631  0.25044097  0.25734588  1
  O  O380  1  0.10977696  0.24386940  0.76330888  1
  O  O381  1  0.12197368  0.75801265  0.25681733  1
  O  O382  1  0.11407751  0.75612633  0.75371273  1
  O  O383  1  0.62005015  0.25665974  0.25346665  1
  O  O384  1  0.61668663  0.24706159  0.76023520  1
  O  O385  1  0.62966422  0.76282612  0.24381964  1
  O  O386  1  0.61641548  0.75679758  0.75397641  1
  O  O387  1  0.38456573  0.24282826  0.24449840  1
  O  O388  1  0.37825303  0.24806780  0.74181194  1
  O  O389  1  0.36657066  0.73183573  0.25180602  1
  O  O390  1  0.37970712  0.74485642  0.75314761  1
  O  O391  1  0.88121656  0.24005967  0.24731316  1
  O  O392  1  0.89690737  0.24782718  0.75760968  1
  O  O393  1  0.88470167  0.75001737  0.24411271  1
  O  O394  1  0.87872174  0.74740909  0.73818600  1
  O  O395  1  0.36720907  0.48247805  0.49903197  1
  O  O396  1  0.38165719  0.49598313  0.99724265  1
  O  O397  1  0.39130713  1.01548515  0.47922634  1
  O  O398  1  0.37211570  0.99541307  0.98415024  1
  O  O399  1  0.88311549  0.49813510  0.48952164  1
  O  O400  1  0.88566644  0.54962946  0.97960014  1
  O  O401  1  0.88203638  0.99712969  0.48883094  1
  O  O402  1  0.88179984  0.99020642  0.99059573  1
  O  O403  1  0.11470305  -0.00687882  0.00799651  1
  O  O404  1  0.11927751  0.00122333  0.50723652  1
  O  O405  1  0.13412275  0.51406017  0.00990562  1
  O  O406  1  0.12075402  0.50680230  0.50554044  1
  O  O407  1  0.63171604  -0.00477387  0.01091128  1
  O  O408  1  0.61707206  0.00209188  0.50561459  1
  O  O409  1  0.61636315  0.50853430  0.00634725  1
  O  O410  1  0.62294461  0.49513697  0.51406672  1
  O  O411  1  0.36793839  0.37413161  0.11727622  1
  O  O412  1  0.36517511  0.36290019  0.61861712  1
  O  O413  1  0.35729002  0.89864034  0.10923392  1
  O  O414  1  0.36204670  0.92678561  0.60519297  1
  O  O415  1  0.86273208  0.37805617  0.13317587  1
  O  O416  1  0.86048090  0.38034783  0.62121288  1
  O  O417  1  0.87218588  0.86767540  0.11600106  1
  O  O418  1  0.86663991  0.86774889  0.62406960  1
  O  O419  1  0.13362042  0.12489588  0.37754189  1
  O  O420  1  0.13510206  0.13328044  0.87691885  1
  O  O421  1  0.12516584  0.63182345  0.38443607  1
  O  O422  1  0.13179417  0.62721277  0.88596456  1
  O  O423  1  0.62682931  0.13851503  0.36949096  1
  O  O424  1  0.63868068  0.13390271  0.87205858  1
  O  O425  1  0.63616350  0.61855296  0.37670111  1
  O  O426  1  0.62191642  0.63451608  0.88267307  1
