# generated using pymatgen
data_V85Zn86O256
_symmetry_space_group_name_H-M   'P 1'
_cell_length_a   16.95154805
_cell_length_b   16.93760125
_cell_length_c   16.92863183
_cell_angle_alpha   89.97582171
_cell_angle_beta   90.10769526
_cell_angle_gamma   89.97920273
_symmetry_Int_Tables_number   1
_chemical_formula_structural   V85Zn86O256
_chemical_formula_sum   'V85 Zn86 O256'
_cell_volume   4860.51508036
_cell_formula_units_Z   1
loop_
 _symmetry_equiv_pos_site_id
 _symmetry_equiv_pos_as_xyz
  1  'x, y, z'
loop_
 _atom_site_type_symbol
 _atom_site_label
 _atom_site_symmetry_multiplicity
 _atom_site_fract_x
 _atom_site_fract_y
 _atom_site_fract_z
 _atom_site_occupancy
  V  V0  1  0.90653602  0.08608490  0.77614088  1
  V  V1  1  0.87416947  0.24799852  0.63316717  1
  V  V2  1  0.50093185  0.62506634  0.62468622  1
  V  V3  1  0.87612270  0.38148548  0.49725363  1
  V  V4  1  0.38247628  0.87855236  0.50017424  1
  V  V5  1  0.12942792  0.61773479  0.50468478  1
  V  V6  1  0.76369244  0.50339033  0.25448941  1
  V  V7  1  0.11767617  0.11632571  -0.00427559  1
  V  V8  1  0.74735262  -0.00971669  0.25154028  1
  V  V9  1  0.88024462  0.12579943  0.25221337  1
  V  V10  1  0.41873787  0.30390363  0.06800144  1
  V  V11  1  0.38278531  0.48787060  0.89193137  1
  V  V12  1  0.75528514  0.24756483  0.00149661  1
  V  V13  1  0.24711816  0.50698998  0.24600691  1
  V  V14  1  -0.00748074  0.74118293  0.25432629  1
  V  V15  1  0.24184757  0.74963409  0.00547879  1
  V  V16  1  0.62514189  0.25046747  0.37510713  1
  V  V17  1  0.49254019  0.62223022  0.12954060  1
  V  V18  1  0.12154890  -0.00362138  0.61750007  1
  V  V19  1  0.51013708  0.87829412  0.37305812  1
  V  V20  1  0.50054931  0.50223262  0.49696040  1
  V  V21  1  0.62694382  0.74975533  0.88326438  1
  V  V22  1  0.88549666  0.25050087  0.12959877  1
  V  V23  1  0.24858138  0.12720786  0.37354331  1
  V  V24  1  0.87936490  0.50139497  0.88225480  1
  V  V25  1  0.50774142  0.75297707  0.24920399  1
  V  V26  1  0.37941824  0.00224013  0.37836058  1
  V  V27  1  0.88612134  0.88882348  -0.00852155  1
  V  V28  1  0.62444149  0.49998123  0.62545466  1
  V  V29  1  0.87421822  0.74785238  0.11651700  1
  V  V30  1  0.25273392  -0.00109190  0.74736340  1
  V  V31  1  -0.00240005  0.12469169  0.61886836  1
  V  V32  1  0.61567031  0.11954226  0.49955764  1
  V  V33  1  0.37009298  0.87507442  0.00828816  1
  V  V34  1  0.12212615  0.38850046  0.74731925  1
  V  V35  1  0.86993792  0.63182852  0.74601631  1
  V  V36  1  0.00010074  0.62388014  0.10860980  1
  V  V37  1  0.75014003  0.62472442  0.88292001  1
  V  V38  1  0.74841298  0.37457716  0.62700627  1
  V  V39  1  0.37345177  0.13407393  0.24780340  1
  V  V40  1  0.49782525  0.74844968  0.75217548  1
  V  V41  1  0.00017253  0.62260654  0.62665232  1
  V  V42  1  0.11584215  0.37446379  0.24719739  1
  V  V43  1  0.61860748  0.62227644  0.00195423  1
  V  V44  1  0.49702440  0.25171346  0.75636421  1
  V  V45  1  0.75398710  0.37590667  0.12753815  1
  V  V46  1  0.62369804  0.50151648  0.12542499  1
  V  V47  1  0.62545886  0.25005494  0.87586719  1
  V  V48  1  0.88370466  -0.00128671  0.38573154  1
  V  V49  1  -0.00251161  0.11026631  0.12259294  1
  V  V50  1  0.37306247  0.25293511  0.62394955  1
  V  V51  1  0.00792935  0.25617266  0.75238836  1
  V  V52  1  0.00629355  0.37792916  0.88342256  1
  V  V53  1  0.24953763  -0.00615178  0.24210042  1
  V  V54  1  0.24515126  0.13026080  0.87332854  1
  V  V55  1  0.37386107  0.62148329  0.75486040  1
  V  V56  1  0.25222838  0.63113538  0.37685070  1
  V  V57  1  0.74562586  0.86784978  0.11921198  1
  V  V58  1  0.88525271  0.86800936  0.51037762  1
  V  V59  1  0.49960490  0.37622369  0.37418182  1
  V  V60  1  0.37255015  0.74681021  0.61682216  1
  V  V61  1  0.12228236  0.50546574  0.10942280  1
  V  V62  1  0.24102848  0.24966759  0.00000537  1
  V  V63  1  0.24406118  0.62490251  0.88069950  1
  V  V64  1  0.37485416  0.50706917  0.36748147  1
  V  V65  1  0.61818157  -0.00370106  0.62005014  1
  V  V66  1  0.24604844  0.36964330  0.12233816  1
  V  V67  1  0.24923677  0.87000235  0.61578841  1
  V  V68  1  0.74258562  0.00357919  0.75643321  1
  V  V69  1  0.50007048  0.12045100  0.12535015  1
  V  V70  1  0.62374493  0.87185786  0.74983870  1
  V  V71  1  0.75098731  0.12156351  0.37642682  1
  V  V72  1  0.12320675  0.12319170  0.49769401  1
  V  V73  1  0.62025084  0.37657745  0.75508342  1
  V  V74  1  0.24363615  0.38543096  0.62291523  1
  V  V75  1  0.36893013  0.74991288  0.13356289  1
  V  V76  1  0.62733456  0.62823978  0.49413319  1
  V  V77  1  0.11508420  0.25130467  0.36859331  1
  V  V78  1  0.76563411  0.62675495  0.37278450  1
  V  V79  1  0.12498183  0.86728446  0.75689911  1
  V  V80  1  0.37265189  0.12578330  0.74753756  1
  V  V81  1  0.37226672  0.37696612  0.49827499  1
  V  V82  1  0.12821334  0.75045720  0.37863182  1
  V  V83  1  0.49579806  0.87527772  0.87815637  1
  V  V84  1  0.75022092  0.24715207  0.50268936  1
  Zn  Zn85  1  0.00218442  0.50026196  0.49543843  1
  Zn  Zn86  1  0.24650797  0.25316578  0.49816727  1
  Zn  Zn87  1  0.62359371  -0.00676205  0.12817574  1
  Zn  Zn88  1  0.49483889  0.12090328  0.62178369  1
  Zn  Zn89  1  0.62692875  0.37855900  0.25341248  1
  Zn  Zn90  1  0.74921979  0.49936836  0.75350930  1
  Zn  Zn91  1  0.63233439  0.75463283  0.37053006  1
  Zn  Zn92  1  0.50160006  -0.00107574  0.00282024  1
  Zn  Zn93  1  0.37354643  -0.00130113  0.87889420  1
  Zn  Zn94  1  0.75680752  0.86941132  0.62845331  1
  Zn  Zn95  1  0.12520581  0.87050107  0.24567609  1
  Zn  Zn96  1  0.24885734  0.50297496  0.75062917  1
  Zn  Zn97  1  0.62537106  0.12127336  0.00194949  1
  Zn  Zn98  1  0.75672655  0.74863560  0.50736730  1
  Zn  Zn99  1  0.49795392  0.25174703  0.24968222  1
  Zn  Zn100  1  0.00658408  0.87785257  0.37629352  1
  Zn  Zn101  1  -0.01022618  0.38079565  0.36514853  1
  Zn  Zn102  1  0.88026433  0.37923515  0.00240363  1
  Zn  Zn103  1  0.12684757  -0.00991043  0.11745577  1
  Zn  Zn104  1  -0.00893635  0.75246127  0.74878768  1
  Zn  Zn105  1  0.11567861  0.74655420  0.88540902  1
  Zn  Zn106  1  0.75360830  0.12307966  0.87713000  1
  Zn  Zn107  1  0.18251005  0.18475707  0.18534591  1
  Zn  Zn108  1  0.18566635  0.19269003  0.68447830  1
  Zn  Zn109  1  0.18130087  0.68803163  0.18833225  1
  Zn  Zn110  1  0.18929426  0.68451286  0.68389390  1
  Zn  Zn111  1  0.69087755  0.18541065  0.19050632  1
  Zn  Zn112  1  0.68458303  0.18380623  0.68808433  1
  Zn  Zn113  1  0.68875116  0.68722912  0.18966165  1
  Zn  Zn114  1  0.68977586  0.68882168  0.69011413  1
  Zn  Zn115  1  0.30471054  0.31518001  0.31135716  1
  Zn  Zn116  1  0.30682106  0.31458380  0.81304988  1
  Zn  Zn117  1  0.31761393  0.81241944  0.31306251  1
  Zn  Zn118  1  0.30964209  0.80884148  0.81319461  1
  Zn  Zn119  1  0.81085997  0.31104052  0.31193569  1
  Zn  Zn120  1  0.81394389  0.31445111  0.81489512  1
  Zn  Zn121  1  0.81742429  0.81281163  0.31403958  1
  Zn  Zn122  1  0.80784957  0.81295484  0.81646294  1
  Zn  Zn123  1  0.18483112  0.43938118  0.43265801  1
  Zn  Zn124  1  0.19310200  0.43622842  0.93235961  1
  Zn  Zn125  1  0.19177869  0.93766915  0.43443794  1
  Zn  Zn126  1  0.19169827  0.93784572  0.93751312  1
  Zn  Zn127  1  0.69169447  0.43998659  0.43720851  1
  Zn  Zn128  1  0.68864688  0.43676430  0.94009611  1
  Zn  Zn129  1  0.69547010  0.93665384  0.44325115  1
  Zn  Zn130  1  0.68696229  0.93672382  0.94351723  1
  Zn  Zn131  1  0.31638141  0.06626667  0.06159618  1
  Zn  Zn132  1  0.30988114  0.06206844  0.55894948  1
  Zn  Zn133  1  0.31155427  0.56324656  0.06161014  1
  Zn  Zn134  1  0.31240489  0.56345292  0.55799248  1
  Zn  Zn135  1  0.81150675  0.05850671  0.06404233  1
  Zn  Zn136  1  0.80845705  0.05897499  0.56960717  1
  Zn  Zn137  1  0.81265682  0.56648219  0.06310593  1
  Zn  Zn138  1  0.81110107  0.56416099  0.56565663  1
  Zn  Zn139  1  0.43918486  0.44232625  0.19120649  1
  Zn  Zn140  1  0.43697093  0.43786568  0.68991334  1
  Zn  Zn141  1  0.43444820  0.93795266  0.19138872  1
  Zn  Zn142  1  0.43894703  0.93607212  0.68678987  1
  Zn  Zn143  1  0.93971593  0.44365680  0.18258609  1
  Zn  Zn144  1  0.93567781  0.44578500  0.68817056  1
  Zn  Zn145  1  0.93354428  0.92867860  0.19277162  1
  Zn  Zn146  1  0.94393337  0.93954810  0.69644050  1
  Zn  Zn147  1  0.06192183  0.06283300  0.30819237  1
  Zn  Zn148  1  0.07376824  0.06071208  0.80731141  1
  Zn  Zn149  1  0.05969759  0.56069266  0.31295029  1
  Zn  Zn150  1  0.05853903  0.56582209  0.81514802  1
  Zn  Zn151  1  0.56213616  0.06238386  0.30957354  1
  Zn  Zn152  1  0.56117488  0.06423190  0.81310661  1
  Zn  Zn153  1  0.56699169  0.56633629  0.30774375  1
  Zn  Zn154  1  0.55833681  0.55949945  0.81654744  1
  Zn  Zn155  1  0.43621698  0.18979373  0.43673464  1
  Zn  Zn156  1  0.43803722  0.18036267  0.93241030  1
  Zn  Zn157  1  0.43895463  0.69067757  0.43413773  1
  Zn  Zn158  1  0.43354087  0.68637349  0.94288060  1
  Zn  Zn159  1  0.93759117  0.19215778  0.43958881  1
  Zn  Zn160  1  0.94149228  0.19215885  0.93837548  1
  Zn  Zn161  1  0.94325992  0.68778910  0.44183829  1
  Zn  Zn162  1  0.93558905  0.69845324  0.93249052  1
  Zn  Zn163  1  0.06460378  0.30663182  0.06267820  1
  Zn  Zn164  1  0.06199883  0.31176620  0.56166388  1
  Zn  Zn165  1  0.05991518  0.81888751  0.06814465  1
  Zn  Zn166  1  0.05900285  0.80474674  0.56203873  1
  Zn  Zn167  1  0.57934913  0.31322343  0.06286081  1
  Zn  Zn168  1  0.56007226  0.31082328  0.56313066  1
  Zn  Zn169  1  0.56028065  0.81075195  0.06309975  1
  Zn  Zn170  1  0.56427240  0.81025760  0.56102494  1
  O  O171  1  0.11377228  0.11863960  0.11709172  1
  O  O172  1  0.12107254  0.12000225  0.61631285  1
  O  O173  1  0.11175701  0.61824937  0.12530445  1
  O  O174  1  0.11757396  0.62614940  0.61730127  1
  O  O175  1  0.60991719  0.13005274  0.12879417  1
  O  O176  1  0.62163739  0.11801780  0.61572428  1
  O  O177  1  0.61969464  0.62068910  0.11962310  1
  O  O178  1  0.61915216  0.61813153  0.61821879  1
  O  O179  1  0.38016957  0.38203228  0.37862883  1
  O  O180  1  0.36948237  0.38968910  0.87026193  1
  O  O181  1  0.38127142  0.88235215  0.38327041  1
  O  O182  1  0.38147540  0.87451130  0.88051293  1
  O  O183  1  0.87352294  0.36323117  0.39309594  1
  O  O184  1  0.88393186  0.38458049  0.87590198  1
  O  O185  1  0.87835789  0.88715175  0.38516550  1
  O  O186  1  0.86645620  0.86996082  0.89359294  1
  O  O187  1  0.26147198  0.00787136  0.36834704  1
  O  O188  1  0.25156936  0.00956504  0.86324104  1
  O  O189  1  0.25673249  0.50801505  0.36685826  1
  O  O190  1  0.26183042  0.50910855  0.87278668  1
  O  O191  1  0.76047671  0.00399254  0.37052241  1
  O  O192  1  0.74015768  0.00171110  0.86082843  1
  O  O193  1  0.74777789  0.50940777  0.36279431  1
  O  O194  1  0.75409540  0.50738907  0.87450684  1
  O  O195  1  0.24514915  0.49360699  0.12999733  1
  O  O196  1  0.25827453  0.48841907  0.62742920  1
  O  O197  1  0.25156417  1.00872299  0.13998148  1
  O  O198  1  0.24135871  0.99405548  0.62798064  1
  O  O199  1  0.74642338  0.49933666  0.13612786  1
  O  O200  1  0.74074871  0.49372545  0.62875451  1
  O  O201  1  0.75029576  0.98686783  0.13472959  1
  O  O202  1  0.73302530  0.99515341  0.63308098  1
  O  O203  1  0.01183442  0.37784835  0.24544365  1
  O  O204  1  0.00566433  0.37376322  0.75269186  1
  O  O205  1  0.00192841  0.85959514  0.25543963  1
  O  O206  1  0.02254087  0.86802718  0.73771066  1
  O  O207  1  0.50223169  0.37289179  0.26247514  1
  O  O208  1  0.51209955  0.36675978  0.74399329  1
  O  O209  1  0.49563050  0.86758895  0.26114637  1
  O  O210  1  0.50267312  0.86784293  0.75851555  1
  O  O211  1  0.49152421  0.13042671  0.24572411  1
  O  O212  1  0.49084059  0.13381564  0.74704565  1
  O  O213  1  0.50167692  0.63458967  0.23984151  1
  O  O214  1  0.49385643  0.62980924  0.74519926  1
  O  O215  1  0.98735530  0.12310487  0.24245416  1
  O  O216  1  1.00295877  0.13917049  0.73837416  1
  O  O217  1  1.00477558  0.63810681  0.24366740  1
  O  O218  1  0.99003980  0.62128782  0.73988996  1
  O  O219  1  0.36429026  0.24144531  0.00485433  1
  O  O220  1  0.37304209  0.25816123  0.50719484  1
  O  O221  1  0.36859240  0.75646681  0.01235276  1
  O  O222  1  0.37943504  0.75632286  0.51139714  1
  O  O223  1  0.86937269  0.25270446  0.00911060  1
  O  O224  1  0.86931806  0.25390481  0.51427114  1
  O  O225  1  0.87453053  0.75469545  0.01376145  1
  O  O226  1  0.87762325  0.76487912  0.49845318  1
  O  O227  1  0.12532155  0.23912866  0.49373052  1
  O  O228  1  0.13518236  0.23554450  1.00223730  1
  O  O229  1  0.12082041  0.73935444  0.48562029  1
  O  O230  1  0.13888755  0.75844150  1.00223507  1
  O  O231  1  0.62941962  0.24461975  0.49224653  1
  O  O232  1  0.63491978  0.24626551  0.99179266  1
  O  O233  1  0.62351928  0.73652252  0.49462760  1
  O  O234  1  0.61975588  0.74138847  0.99016357  1
  O  O235  1  0.49150362  0.24951907  0.12513426  1
  O  O236  1  0.48751092  0.25006373  0.63351221  1
  O  O237  1  0.49359238  0.74378766  0.13213633  1
  O  O238  1  0.49307170  0.74337813  0.63073639  1
  O  O239  1  0.98832364  0.24027913  0.12224443  1
  O  O240  1  0.99222550  0.24426482  0.62992685  1
  O  O241  1  0.99475805  0.74043344  0.13317159  1
  O  O242  1  1.00254579  0.73155746  0.63091831  1
  O  O243  1  0.01127077  0.25669734  0.37791625  1
  O  O244  1  -0.00605521  0.26282177  0.86193492  1
  O  O245  1  0.00696510  0.74793336  0.36622490  1
  O  O246  1  0.00740874  0.73987857  0.86064375  1
  O  O247  1  0.50756414  0.25990132  0.37659242  1
  O  O248  1  0.50499537  0.24770293  0.86337681  1
  O  O249  1  0.50020439  0.75974450  0.36596907  1
  O  O250  1  0.50195073  0.75844717  0.87361660  1
  O  O251  1  0.24094256  0.12867692  0.49219735  1
  O  O252  1  0.24442272  0.12856849  0.99160105  1
  O  O253  1  0.24415097  0.62458168  0.48947181  1
  O  O254  1  0.25570541  0.63601276  0.99182667  1
  O  O255  1  0.74174034  0.12918884  0.49632990  1
  O  O256  1  0.74994383  0.13563380  1.00027777  1
  O  O257  1  0.74441816  0.62363368  0.48896215  1
  O  O258  1  0.73677650  0.62239808  0.99094737  1
  O  O259  1  0.24484649  0.36284448  0.00861997  1
  O  O260  1  0.25355175  0.37529855  0.50527789  1
  O  O261  1  0.26355642  0.86711980  -0.00556462  1
  O  O262  1  0.26244990  0.87936240  0.50970815  1
  O  O263  1  0.75184951  0.36367880  0.00854649  1
  O  O264  1  0.75682437  0.36749458  0.50578016  1
  O  O265  1  0.75718528  0.87657846  0.01611798  1
  O  O266  1  0.76784627  0.87281210  0.50320996  1
  O  O267  1  0.13225342  0.49255948  0.24055409  1
  O  O268  1  0.12582671  0.49178027  0.74886848  1
  O  O269  1  0.14230749  1.00169557  0.25348364  1
  O  O270  1  0.13827296  0.98921400  0.73854065  1
  O  O271  1  0.63484966  0.50057337  0.23960081  1
  O  O272  1  0.62290002  0.49133881  0.74670342  1
  O  O273  1  0.64313342  1.00632002  0.25046379  1
  O  O274  1  0.62896687  0.99509384  0.74447817  1
  O  O275  1  0.36580036  0.01058297  0.25720119  1
  O  O276  1  0.36291465  0.00390532  0.74467715  1
  O  O277  1  0.36505353  0.49595374  0.26096320  1
  O  O278  1  0.37556905  0.51368278  0.75108208  1
  O  O279  1  0.86734562  0.00504991  0.26164748  1
  O  O280  1  0.84917104  -0.00062401  0.73319446  1
  O  O281  1  0.86226270  0.49879142  0.24766159  1
  O  O282  1  0.87039168  0.51062528  0.76205793  1
  O  O283  1  0.12755563  0.36697052  0.36352402  1
  O  O284  1  0.11727021  0.37987095  0.86328844  1
  O  O285  1  0.12713912  0.86612158  0.37292209  1
  O  O286  1  0.13240668  0.87631318  0.85883952  1
  O  O287  1  0.61806887  0.36881859  0.37789348  1
  O  O288  1  0.62785909  0.36312232  0.86825984  1
  O  O289  1  0.61331736  0.87644393  0.38459575  1
  O  O290  1  0.61773726  0.86599486  0.87357205  1
  O  O291  1  0.38734210  0.12228735  0.13540097  1
  O  O292  1  0.37238329  0.13445763  0.62816368  1
  O  O293  1  0.38616660  0.63177791  0.12060861  1
  O  O294  1  0.37913256  0.63111540  0.62922961  1
  O  O295  1  0.87907659  0.12905518  0.13275970  1
  O  O296  1  0.88402123  0.12813273  0.63368841  1
  O  O297  1  0.88743525  0.63177187  0.12220925  1
  O  O298  1  0.88226368  0.62146585  0.63415827  1
  O  O299  1  0.24531589  0.25884012  0.11765074  1
  O  O300  1  0.26083801  0.26031670  0.62420798  1
  O  O301  1  0.25911109  0.73988354  0.12030958  1
  O  O302  1  0.26065162  0.75892032  0.62739418  1
  O  O303  1  0.75806871  0.25402328  0.12031934  1
  O  O304  1  0.75557413  0.25237046  0.62368065  1
  O  O305  1  0.75963887  0.75960226  0.13472399  1
  O  O306  1  0.74108102  0.75636237  0.62060288  1
  O  O307  1  0.23810465  0.24402834  0.37646695  1
  O  O308  1  0.25344623  0.23806975  0.88197126  1
  O  O309  1  0.24626209  0.73840982  0.36656646  1
  O  O310  1  0.24877901  0.74181349  0.88563559  1
  O  O311  1  0.74280048  0.24235499  0.38136238  1
  O  O312  1  0.74469056  0.24886846  0.88309959  1
  O  O313  1  0.75088902  0.73849047  0.37583069  1
  O  O314  1  0.73591322  0.73895538  0.87224668  1
  O  O315  1  0.00686282  0.12703244  0.00691077  1
  O  O316  1  0.00551019  0.12931929  0.51167407  1
  O  O317  1  -0.00020311  0.63225753  0.01052022  1
  O  O318  1  0.00805755  0.62314353  0.50970754  1
  O  O319  1  0.49957995  0.12264884  0.01014164  1
  O  O320  1  0.51206190  0.13075322  0.50104220  1
  O  O321  1  0.51100231  0.62915188  0.01095179  1
  O  O322  1  0.50684623  0.62012572  0.50233992  1
  O  O323  1  0.49571006  0.38150654  0.49037243  1
  O  O324  1  0.48133754  0.35669260  1.01342448  1
  O  O325  1  0.48877374  0.87056808  0.49280365  1
  O  O326  1  0.48915432  0.87369317  0.99401650  1
  O  O327  1  0.98361216  0.37473148  0.50508195  1
  O  O328  1  1.00217930  0.36791740  0.98713637  1
  O  O329  1  0.99032199  0.87463599  0.49675033  1
  O  O330  1  0.98577575  0.87334138  1.00091961  1
  O  O331  1  0.49385941  0.49652069  0.37485531  1
  O  O332  1  0.48211303  0.50298087  0.87616026  1
  O  O333  1  0.48774011  0.99389854  0.36715409  1
  O  O334  1  0.49803625  0.98606652  0.87374424  1
  O  O335  1  1.00519826  0.49211966  0.38080825  1
  O  O336  1  0.99114796  0.49201270  0.87278766  1
  O  O337  1  0.98636685  1.00076810  0.37079251  1
  O  O338  1  0.97374904  1.00952502  0.80850287  1
  O  O339  1  -0.00277774  0.00856969  0.13265614  1
  O  O340  1  0.01504527  0.00971473  0.62992242  1
  O  O341  1  0.00637733  0.51483737  0.12333139  1
  O  O342  1  -0.00366105  0.51467648  0.61789350  1
  O  O343  1  0.50405291  0.00700294  0.12970181  1
  O  O344  1  0.51166870  0.00338548  0.63037616  1
  O  O345  1  0.50907325  0.50962148  0.13207666  1
  O  O346  1  0.50375695  0.50541095  0.61761169  1
  O  O347  1  0.24146019  0.38378280  0.23999610  1
  O  O348  1  0.23905902  0.37686035  0.74171516  1
  O  O349  1  0.25580000  0.89221162  0.25531487  1
  O  O350  1  0.24749570  0.88166004  0.73821174  1
  O  O351  1  0.74943069  0.38734594  0.24816007  1
  O  O352  1  0.73662980  0.37367189  0.74526003  1
  O  O353  1  0.75898860  0.88165149  0.24076861  1
  O  O354  1  0.73979181  0.88362435  0.75040107  1
  O  O355  1  0.25578860  0.12020839  0.25492163  1
  O  O356  1  0.25011180  0.12042688  0.75338372  1
  O  O357  1  0.24433518  0.61240748  0.25606695  1
  O  O358  1  0.25895177  0.62472895  0.75660108  1
  O  O359  1  0.76172941  0.11774467  0.25716930  1
  O  O360  1  0.74721733  0.11098616  0.75225642  1
  O  O361  1  0.74930022  0.61612195  0.26204239  1
  O  O362  1  0.75264275  0.62114231  0.76198665  1
  O  O363  1  0.37129544  0.11904009  0.37157377  1
  O  O364  1  0.36600934  0.11990884  0.86446141  1
  O  O365  1  0.36770042  0.61721361  0.37970675  1
  O  O366  1  0.36798911  0.62177266  0.86938461  1
  O  O367  1  0.87361716  0.11789477  0.37246627  1
  O  O368  1  0.87384111  0.13186326  0.86335109  1
  O  O369  1  0.86399670  0.62540611  0.38241006  1
  O  O370  1  0.86489895  0.62026858  0.87338822  1
  O  O371  1  0.12986962  0.37998530  0.12876490  1
  O  O372  1  0.13380138  0.37152650  0.62994238  1
  O  O373  1  0.12724612  0.87915508  0.13226489  1
  O  O374  1  0.13355078  0.87980059  0.62239431  1
  O  O375  1  0.63450250  0.38373162  0.13076827  1
  O  O376  1  0.62871526  0.37913533  0.63021770  1
  O  O377  1  0.64092286  0.87018675  0.12201884  1
  O  O378  1  0.61897005  0.88103749  0.63312066  1
  O  O379  1  0.12902011  0.25943629  0.25643835  1
  O  O380  1  0.11255311  0.26143059  0.74268484  1
  O  O381  1  0.11690774  0.74909541  0.26210919  1
  O  O382  1  0.13800652  0.76461143  0.74994784  1
  O  O383  1  0.62540786  0.25200212  0.26477090  1
  O  O384  1  0.61662687  0.25471438  0.75469308  1
  O  O385  1  0.61266765  0.74849641  0.25184619  1
  O  O386  1  0.61510718  0.75116632  0.76293989  1
  O  O387  1  0.37399390  0.23788916  0.25908224  1
  O  O388  1  0.37970376  0.24881740  0.74423454  1
  O  O389  1  0.38388492  0.75315239  0.23874636  1
  O  O390  1  0.37863286  0.73995682  0.74216011  1
  O  O391  1  0.86829312  0.23933318  0.24201382  1
  O  O392  1  0.88345967  0.25693917  0.73893050  1
  O  O393  1  0.88837939  0.75221392  0.24265840  1
  O  O394  1  0.86967247  0.73606377  0.75549765  1
  O  O395  1  0.38090345  0.49570984  0.48817490  1
  O  O396  1  0.37243225  0.49647519  0.99177645  1
  O  O397  1  0.37403708  0.99263857  0.49157327  1
  O  O398  1  0.37767944  0.99041213  0.99949177  1
  O  O399  1  0.86854839  0.48264708  0.50374134  1
  O  O400  1  0.86885731  0.49835751  0.98759970  1
  O  O401  1  0.87087817  0.99784534  0.48939547  1
  O  O402  1  0.87456875  0.98924738  1.00055346  1
  O  O403  1  0.12977774  0.01106871  -0.00068404  1
  O  O404  1  0.13034123  0.01223094  0.50369140  1
  O  O405  1  0.13317153  0.49651441  0.01114591  1
  O  O406  1  0.12780051  0.51372727  0.49808123  1
  O  O407  1  0.62102281  0.00363936  0.00778376  1
  O  O408  1  0.62827475  0.00830428  0.50653183  1
  O  O409  1  0.62916201  0.50561021  0.01506432  1
  O  O410  1  0.62068611  0.50939514  0.50280872  1
  O  O411  1  0.36697842  0.36988655  0.13094884  1
  O  O412  1  0.36960316  0.37031465  0.61934658  1
  O  O413  1  0.37859673  0.86532727  0.11845619  1
  O  O414  1  0.37133119  0.86840637  0.61880000  1
  O  O415  1  0.87291582  0.36745537  0.12445147  1
  O  O416  1  0.86743312  0.36834620  0.62010024  1
  O  O417  1  0.86756604  0.86692560  0.11799262  1
  O  O418  1  0.87999615  0.88535623  0.61251857  1
  O  O419  1  0.12558611  0.13108935  0.37952573  1
  O  O420  1  0.13232506  0.12269529  0.88028134  1
  O  O421  1  0.13481381  0.62992404  0.38074407  1
  O  O422  1  0.14074368  0.62405609  0.86976774  1
  O  O423  1  0.62817189  0.13092412  0.38135201  1
  O  O424  1  0.62622430  0.13866215  0.87523237  1
  O  O425  1  0.63351350  0.62641458  0.38190787  1
  O  O426  1  0.62644361  0.62817814  0.88351211  1
