# generated using pymatgen
data_V85Zn86O256
_symmetry_space_group_name_H-M   'P 1'
_cell_length_a   16.91542496
_cell_length_b   16.92078553
_cell_length_c   16.90964785
_cell_angle_alpha   90.06298068
_cell_angle_beta   89.98006510
_cell_angle_gamma   90.01165651
_symmetry_Int_Tables_number   1
_chemical_formula_structural   V85Zn86O256
_chemical_formula_sum   'V85 Zn86 O256'
_cell_volume   4839.91460968
_cell_formula_units_Z   1
loop_
 _symmetry_equiv_pos_site_id
 _symmetry_equiv_pos_as_xyz
  1  'x, y, z'
loop_
 _atom_site_type_symbol
 _atom_site_label
 _atom_site_symmetry_multiplicity
 _atom_site_fract_x
 _atom_site_fract_y
 _atom_site_fract_z
 _atom_site_occupancy
  V  V0  1  0.75352227  0.74832771  0.00363023  1
  V  V1  1  0.00346058  0.12420816  0.61966347  1
  V  V2  1  0.12289105  0.36954193  0.24621771  1
  V  V3  1  0.12329634  0.24964914  0.87409766  1
  V  V4  1  0.49857211  0.75230605  0.75008657  1
  V  V5  1  0.37373972  -0.00535706  0.37186934  1
  V  V6  1  0.74299120  0.13246194  0.38680452  1
  V  V7  1  0.00002091  0.25055285  0.74827139  1
  V  V8  1  0.12010015  0.12635213  0.00617626  1
  V  V9  1  0.75080936  0.49562206  0.75159305  1
  V  V10  1  0.12322844  0.86039425  0.25253548  1
  V  V11  1  0.24868617  0.11825163  0.38073305  1
  V  V12  1  0.24308865  0.75810649  0.49552152  1
  V  V13  1  0.12627348  0.50473134  0.61613245  1
  V  V14  1  0.37441980  0.37469312  -0.00122625  1
  V  V15  1  0.50096596  0.61989097  0.62019010  1
  V  V16  1  0.75671710  0.62157173  0.87416794  1
  V  V17  1  0.60685503  0.25336464  0.37991888  1
  V  V18  1  0.61960489  0.11963607  -0.00172309  1
  V  V19  1  0.62429205  0.24817462  0.87489388  1
  V  V20  1  0.89229358  0.74527550  0.13108143  1
  V  V21  1  0.87998321  -0.00432761  0.87208894  1
  V  V22  1  0.00437026  0.00055624  0.49515303  1
  V  V23  1  0.23631167  0.62693775  0.38624408  1
  V  V24  1  0.25076126  0.88297819  0.12929015  1
  V  V25  1  0.37798238  0.25456762  0.13678977  1
  V  V26  1  0.88275967  0.87245502  -0.00425348  1
  V  V27  1  0.75581477  0.37205354  0.60925750  1
  V  V28  1  0.00151769  0.00017292  0.00329952  1
  V  V29  1  0.37753712  0.25280300  0.62400361  1
  V  V30  1  0.13187349  0.24474558  0.38791925  1
  V  V31  1  0.63005407  0.74474803  0.38082535  1
  V  V32  1  0.24883027  0.50337877  0.24816506  1
  V  V33  1  0.12875515  0.61881568  -0.00974544  1
  V  V34  1  0.87780201  0.62023748  0.75014697  1
  V  V35  1  0.87553017  0.25228049  0.60856919  1
  V  V36  1  0.12807151  0.00450241  0.61931604  1
  V  V37  1  0.87463548  0.12610200  0.74967341  1
  V  V38  1  0.06664783  0.55637240  0.17180317  1
  V  V39  1  0.36940748  0.62803227  0.75597694  1
  V  V40  1  0.86959410  0.86915850  0.49668968  1
  V  V41  1  0.24668455  0.50283264  0.75458722  1
  V  V42  1  0.24940996  0.25204256  0.00237857  1
  V  V43  1  0.87420349  -0.00289869  0.37351468  1
  V  V44  1  0.75230061  0.49563731  0.24470564  1
  V  V45  1  0.12457744  0.00547441  0.13618866  1
  V  V46  1  0.50179913  0.74873881  0.25391210  1
  V  V47  1  0.38475459  0.00419264  0.87771165  1
  V  V48  1  0.25124965  0.74812275  -0.00723110  1
  V  V49  1  0.38291289  0.13347768  0.74872792  1
  V  V50  1  0.50059359  0.62621915  0.12405283  1
  V  V51  1  0.24803668  0.37351267  0.61424090  1
  V  V52  1  0.49651017  0.87110134  0.38892511  1
  V  V53  1  0.87280972  0.37542150  0.00304297  1
  V  V54  1  0.25741313  0.87675947  0.62312176  1
  V  V55  1  0.50033189  0.12872175  0.13207957  1
  V  V56  1  0.62718029  0.62377900  0.00033760  1
  V  V57  1  0.37481451  0.75231964  0.12435468  1
  V  V58  1  0.25085895  0.12646302  0.87526187  1
  V  V59  1  -0.00649614  0.37857964  0.87257606  1
  V  V60  1  0.50099867  0.50143220  -0.00443945  1
  V  V61  1  0.00334058  0.85967568  0.37154400  1
  V  V62  1  -0.00173921  0.50409650  -0.00642055  1
  V  V63  1  0.75108221  0.87215008  0.12577395  1
  V  V64  1  0.86975953  0.74617938  0.62158785  1
  V  V65  1  0.00165330  0.24150577  0.24298937  1
  V  V66  1  0.38565635  0.50295382  0.38301084  1
  V  V67  1  0.74648885  0.87316849  0.62303078  1
  V  V68  1  0.11838817  0.87881670  0.75401107  1
  V  V69  1  0.38052308  0.88232875  0.00016717  1
  V  V70  1  0.49880853  0.37219726  0.86772538  1
  V  V71  1  0.62582159  0.36962496  0.74770005  1
  V  V72  1  0.61701033  -0.00357507  0.12036722  1
  V  V73  1  0.25109494  0.00283678  0.74997053  1
  V  V74  1  0.87727100  0.12027167  0.24145060  1
  V  V75  1  0.62714365  0.75230578  0.87403976  1
  V  V76  1  0.87205607  0.49385059  0.38261239  1
  V  V77  1  0.00375747  0.62750313  0.61669780  1
  V  V78  1  0.49983998  0.01260998  0.50542516  1
  V  V79  1  0.39096060  0.37734239  0.49725050  1
  V  V80  1  0.11881821  0.75465362  0.87546160  1
  V  V81  1  0.37162021  0.62691535  0.25388821  1
  V  V82  1  0.75074681  0.62423514  0.37740132  1
  V  V83  1  -0.00503997  0.36719114  0.38349323  1
  V  V84  1  0.74555126  0.00022285  0.25124600  1
  Zn  Zn85  1  0.37245189  0.12509228  0.25249832  1
  Zn  Zn86  1  0.62433304  0.49297323  0.12566046  1
  Zn  Zn87  1  0.50521567  0.87978008  0.87873774  1
  Zn  Zn88  1  0.63235693  0.01303242  0.62019937  1
  Zn  Zn89  1  0.62059212  0.61616524  0.49284927  1
  Zn  Zn90  1  0.88436016  0.62495700  0.24747486  1
  Zn  Zn91  1  0.62629864  0.87655105  0.74739134  1
  Zn  Zn92  1  0.87512775  0.24301862  0.12184979  1
  Zn  Zn93  1  -0.00183797  0.75318335  0.75225290  1
  Zn  Zn94  1  0.61940355  0.49225486  0.61675200  1
  Zn  Zn95  1  0.51163404  0.14114821  0.62599587  1
  Zn  Zn96  1  0.74836629  -0.00154043  0.74917212  1
  Zn  Zn97  1  0.62439416  0.87271764  0.25255135  1
  Zn  Zn98  1  0.74312983  0.36588624  0.12729015  1
  Zn  Zn99  1  0.75023526  0.24681913  0.00301710  1
  Zn  Zn100  1  0.59441083  0.35545658  0.24721927  1
  Zn  Zn101  1  0.36752557  0.50497521  0.87654733  1
  Zn  Zn102  1  -0.00488218  0.49475483  0.50453720  1
  Zn  Zn103  1  0.75058824  0.12361418  0.87615799  1
  Zn  Zn104  1  0.24572981  0.38149625  0.12384068  1
  Zn  Zn105  1  0.12514465  0.37654871  0.74827925  1
  Zn  Zn106  1  0.37565954  0.75316993  0.62000117  1
  Zn  Zn107  1  0.19458080  0.18708206  0.19223206  1
  Zn  Zn108  1  0.19156239  0.18915848  0.68447569  1
  Zn  Zn109  1  0.19350287  0.69230859  0.18530637  1
  Zn  Zn110  1  0.18712245  0.69055880  0.68563856  1
  Zn  Zn111  1  0.68662500  0.18871516  0.19081347  1
  Zn  Zn112  1  0.69124945  0.19015240  0.68440609  1
  Zn  Zn113  1  0.69038095  0.68143019  0.19228751  1
  Zn  Zn114  1  0.68661009  0.68744780  0.68621588  1
  Zn  Zn115  1  0.31047638  0.31656357  0.31966256  1
  Zn  Zn116  1  0.30975031  0.31574367  0.80873791  1
  Zn  Zn117  1  0.30998989  0.81351750  0.31457993  1
  Zn  Zn118  1  0.31035079  0.81645355  0.81230372  1
  Zn  Zn119  1  0.81170842  0.30924623  0.31176576  1
  Zn  Zn120  1  0.81247417  0.30937248  0.81375525  1
  Zn  Zn121  1  0.81349445  0.80964640  0.30968702  1
  Zn  Zn122  1  0.81393798  0.81105269  0.81037547  1
  Zn  Zn123  1  0.18664946  0.43709153  0.43511049  1
  Zn  Zn124  1  0.18303428  0.43639498  0.93569897  1
  Zn  Zn125  1  0.18782419  0.93626486  0.43472304  1
  Zn  Zn126  1  0.19159705  0.93903485  0.93851604  1
  Zn  Zn127  1  0.67729048  0.43500169  0.43304072  1
  Zn  Zn128  1  0.68914887  0.43700251  0.93614341  1
  Zn  Zn129  1  0.68303629  0.93657909  0.43759995  1
  Zn  Zn130  1  0.69418162  0.93822538  0.93775822  1
  Zn  Zn131  1  0.31199740  0.06545434  0.06406296  1
  Zn  Zn132  1  0.31780925  0.06447536  0.55631390  1
  Zn  Zn133  1  0.31150064  0.56341788  0.06301836  1
  Zn  Zn134  1  0.31424207  0.56512355  0.56569909  1
  Zn  Zn135  1  0.80636207  0.06023281  0.06109442  1
  Zn  Zn136  1  0.81687077  0.05859765  0.56256943  1
  Zn  Zn137  1  0.81907446  0.56139720  0.06304452  1
  Zn  Zn138  1  0.80674957  0.55937876  0.56120698  1
  Zn  Zn139  1  0.43537813  0.44034143  0.18684268  1
  Zn  Zn140  1  0.43332466  0.43929043  0.68841548  1
  Zn  Zn141  1  0.44000290  0.93707446  0.19311339  1
  Zn  Zn142  1  0.43935923  0.94026111  0.69096897  1
  Zn  Zn143  1  0.93058444  0.42840554  0.19428174  1
  Zn  Zn144  1  0.93576285  0.43873899  0.68618263  1
  Zn  Zn145  1  0.94051814  0.93470328  0.18578239  1
  Zn  Zn146  1  0.93733483  0.93631889  0.68333008  1
  Zn  Zn147  1  0.06404517  0.06161758  0.31533703  1
  Zn  Zn148  1  0.06026034  0.06251159  0.81400231  1
  Zn  Zn149  1  0.05895579  0.56208290  0.33563385  1
  Zn  Zn150  1  0.06429835  0.56435614  0.80957062  1
  Zn  Zn151  1  0.56250944  0.06411073  0.31459807  1
  Zn  Zn152  1  0.56563636  0.06166532  0.80433661  1
  Zn  Zn153  1  0.55503765  0.53848690  0.30427969  1
  Zn  Zn154  1  0.56422232  0.56257858  0.80824742  1
  Zn  Zn155  1  0.42918677  0.19013137  0.43931653  1
  Zn  Zn156  1  0.44219186  0.18889732  0.94167321  1
  Zn  Zn157  1  0.42812115  0.68929183  0.43989242  1
  Zn  Zn158  1  0.43735777  0.69017237  0.93487576  1
  Zn  Zn159  1  0.93802180  0.18055041  0.42933241  1
  Zn  Zn160  1  0.93804282  0.18711284  0.93748762  1
  Zn  Zn161  1  0.93337473  0.68400536  0.43775281  1
  Zn  Zn162  1  0.94030327  0.68592019  0.93869215  1
  Zn  Zn163  1  0.05954493  0.31496747  0.06390001  1
  Zn  Zn164  1  0.06435320  0.31341860  0.56411859  1
  Zn  Zn165  1  0.06642964  0.81561401  0.06083304  1
  Zn  Zn166  1  0.06305530  0.81421797  0.56321280  1
  Zn  Zn167  1  0.56276008  0.31113702  0.06076499  1
  Zn  Zn168  1  0.56732956  0.30697550  0.55820218  1
  Zn  Zn169  1  0.56305703  0.81189909  0.06244279  1
  Zn  Zn170  1  0.56300197  0.80525096  0.56088180  1
  O  O171  1  0.13400249  0.11742847  0.11800381  1
  O  O172  1  0.12139012  0.11232769  0.62950138  1
  O  O173  1  0.12464028  0.62246715  0.11789397  1
  O  O174  1  0.11463669  0.61843353  0.63100605  1
  O  O175  1  0.61857920  0.11741506  0.11893733  1
  O  O176  1  0.62272581  0.12641274  0.62808121  1
  O  O177  1  0.61811388  0.62460442  0.11662625  1
  O  O178  1  0.61041751  0.62602196  0.62605472  1
  O  O179  1  0.37193888  0.38531342  0.38921723  1
  O  O180  1  0.38228005  0.37609751  0.88105885  1
  O  O181  1  0.38367645  0.88061615  0.37130387  1
  O  O182  1  0.37402235  0.88612510  0.88314342  1
  O  O183  1  0.88398966  0.37921348  0.36922623  1
  O  O184  1  0.88701998  0.36929574  0.88328042  1
  O  O185  1  0.88113772  0.87684408  0.37961020  1
  O  O186  1  0.87404302  0.88066638  0.88356586  1
  O  O187  1  0.25707435  0.00847924  0.37848051  1
  O  O188  1  0.25857377  0.00865694  0.87084916  1
  O  O189  1  0.24811502  0.51300072  0.36870314  1
  O  O190  1  0.24698690  0.49527359  0.85965882  1
  O  O191  1  0.75175828  0.00262205  0.36706906  1
  O  O192  1  0.76610879  0.00175432  0.87228387  1
  O  O193  1  0.75599316  0.50268027  0.36478375  1
  O  O194  1  0.74523501  0.50885999  0.86263792  1
  O  O195  1  0.25460061  0.50094728  0.14225373  1
  O  O196  1  0.24293912  0.49618043  0.63151552  1
  O  O197  1  0.24183807  0.98961675  0.11968229  1
  O  O198  1  0.24549492  0.99774108  0.62633482  1
  O  O199  1  0.75460265  0.49791615  0.13477415  1
  O  O200  1  0.75170272  0.48687730  0.63520267  1
  O  O201  1  0.73996972  0.99269083  0.13171144  1
  O  O202  1  0.75267192  0.98773898  0.62580453  1
  O  O203  1  0.00616166  0.36503451  0.25991331  1
  O  O204  1  -0.00077865  0.36978086  0.75646230  1
  O  O205  1  0.01302350  0.87810951  0.25697635  1
  O  O206  1  0.01410061  0.87470967  0.74439613  1
  O  O207  1  0.51384742  0.43256295  0.26285586  1
  O  O208  1  0.50719380  0.38247909  0.76097079  1
  O  O209  1  0.50113757  0.86003132  0.25758253  1
  O  O210  1  0.50134367  0.86372789  0.75366930  1
  O  O211  1  0.49628333  0.11981999  0.23607013  1
  O  O212  1  0.48577177  0.12299189  0.74686838  1
  O  O213  1  0.49318473  0.63303824  0.24630660  1
  O  O214  1  0.49517589  0.63586472  0.74570778  1
  O  O215  1  0.99111421  0.12958565  0.25659901  1
  O  O216  1  0.99272055  0.12921796  0.74252407  1
  O  O217  1  1.00956709  0.60966697  0.23794054  1
  O  O218  1  0.99134286  0.62651907  0.74163114  1
  O  O219  1  0.37149245  0.26192151  0.00511906  1
  O  O220  1  0.37379314  0.26858362  0.50568981  1
  O  O221  1  0.36821163  0.75602752  0.00397667  1
  O  O222  1  0.35342372  0.74534753  0.50609081  1
  O  O223  1  0.87528436  0.25796296  0.00114676  1
  O  O224  1  0.88343343  0.24325811  0.50976234  1
  O  O225  1  0.87338428  0.75585004  0.00583322  1
  O  O226  1  0.87859785  0.75838095  0.50803848  1
  O  O227  1  0.12081443  0.24885389  0.48619331  1
  O  O228  1  0.12758568  0.24378881  0.99750872  1
  O  O229  1  0.14219808  0.75014168  0.50978368  1
  O  O230  1  0.13163684  0.74498353  0.99455133  1
  O  O231  1  0.62579048  0.24872076  0.48150994  1
  O  O232  1  0.62574830  0.24090747  0.99158452  1
  O  O233  1  0.62084122  0.73934145  0.48469899  1
  O  O234  1  0.63209433  0.74388948  0.99383299  1
  O  O235  1  0.48973294  0.24175714  0.12010879  1
  O  O236  1  0.48411862  0.25640825  0.62281929  1
  O  O237  1  0.49468968  0.74600863  0.13263980  1
  O  O238  1  0.49672638  0.74397932  0.63448636  1
  O  O239  1  0.99952865  0.24984113  0.13898459  1
  O  O240  1  0.99595182  0.24571573  0.62998803  1
  O  O241  1  0.99049720  0.75272630  0.11987701  1
  O  O242  1  0.99046907  0.74439887  0.62739133  1
  O  O243  1  0.01000231  0.25028123  0.36715359  1
  O  O244  1  0.00467750  0.25533860  0.86786802  1
  O  O245  1  -0.00274013  0.76031090  0.37874534  1
  O  O246  1  0.01405931  0.74909463  0.87452225  1
  O  O247  1  0.50640268  0.24550313  0.37563315  1
  O  O248  1  0.51116807  0.26022735  0.87898940  1
  O  O249  1  0.50236153  0.75202273  0.37040243  1
  O  O250  1  0.51051825  0.75188186  0.86899798  1
  O  O251  1  0.25474657  0.12735847  0.48237972  1
  O  O252  1  0.24062273  0.13133507  0.99475781  1
  O  O253  1  0.24904457  0.63024219  0.49048476  1
  O  O254  1  0.24163879  0.63477747  1.00501767  1
  O  O255  1  0.75603365  0.11601096  0.48410674  1
  O  O256  1  0.73568870  0.12403064  0.99668905  1
  O  O257  1  0.75292988  0.62287623  0.48182631  1
  O  O258  1  0.74889979  0.62652261  0.99155656  1
  O  O259  1  0.25708728  0.37270971  0.00125343  1
  O  O260  1  0.25026783  0.37853000  0.51154490  1
  O  O261  1  0.25882419  0.86931832  0.00797840  1
  O  O262  1  0.24708335  0.86665558  0.50599934  1
  O  O263  1  0.76099717  0.37531984  0.00051153  1
  O  O264  1  0.75059818  0.37700480  0.51178422  1
  O  O265  1  0.76315800  0.86949482  0.00615516  1
  O  O266  1  0.76271518  0.87896474  0.50306899  1
  O  O267  1  0.12322007  0.49853250  0.24463996  1
  O  O268  1  0.13127225  0.49960041  0.73982411  1
  O  O269  1  0.12109062  0.99478482  0.23838895  1
  O  O270  1  0.13056168  0.99659788  0.74562165  1
  O  O271  1  0.64895377  0.51241370  0.24315390  1
  O  O272  1  0.63274244  0.48861082  0.74575142  1
  O  O273  1  0.63132766  0.99678529  0.24352862  1
  O  O274  1  0.62916112  0.99303888  0.74200787  1
  O  O275  1  0.38038275  0.00166458  0.26611038  1
  O  O276  1  0.36884042  0.00801555  0.75834067  1
  O  O277  1  0.36319591  0.50752970  0.26195415  1
  O  O278  1  0.36509849  0.50875856  0.75254317  1
  O  O279  1  0.86892166  0.00080803  0.25354853  1
  O  O280  1  0.88036981  0.00624262  0.75691796  1
  O  O281  1  0.86928789  0.50275987  0.25778265  1
  O  O282  1  0.86741151  0.51211138  0.74717216  1
  O  O283  1  0.12013444  0.36348704  0.36765948  1
  O  O284  1  0.11295288  0.36651446  0.87297150  1
  O  O285  1  0.12010867  0.87703049  0.36007863  1
  O  O286  1  0.13096582  0.86948464  0.86694044  1
  O  O287  1  0.62914618  0.35715689  0.36668742  1
  O  O288  1  0.61837623  0.36879280  0.86972732  1
  O  O289  1  0.61636876  0.86337426  0.37331926  1
  O  O290  1  0.62711524  0.86309844  0.87749636  1
  O  O291  1  0.38099867  0.13504765  0.12601407  1
  O  O292  1  0.37336743  0.13653528  0.63169125  1
  O  O293  1  0.37997603  0.63251469  0.13114228  1
  O  O294  1  0.38476090  0.62718427  0.63725617  1
  O  O295  1  0.87222927  0.11851040  0.13729320  1
  O  O296  1  0.88221721  0.13076254  0.63047960  1
  O  O297  1  0.87664757  0.64116624  0.12412316  1
  O  O298  1  0.87761869  0.62949073  0.62991722  1
  O  O299  1  0.25888040  0.25466855  0.11804214  1
  O  O300  1  0.25990812  0.26298083  0.62909484  1
  O  O301  1  0.25561236  0.76175702  0.11494465  1
  O  O302  1  0.25085052  0.76132406  0.61926850  1
  O  O303  1  0.75552595  0.24871725  0.12247828  1
  O  O304  1  0.76187925  0.26439520  0.62907100  1
  O  O305  1  0.75442340  0.75439405  0.11991441  1
  O  O306  1  0.76268777  0.75317873  0.62726758  1
  O  O307  1  0.23678824  0.24502171  0.37528886  1
  O  O308  1  0.24363509  0.24756383  0.88133948  1
  O  O309  1  0.25001550  0.74144237  0.38564120  1
  O  O310  1  0.24241739  0.75632829  0.88758286  1
  O  O311  1  0.75401701  0.23317770  0.37419478  1
  O  O312  1  0.73714928  0.24703271  0.87772484  1
  O  O313  1  0.74084502  0.74016437  0.36505471  1
  O  O314  1  0.74555299  0.74306089  0.88117440  1
  O  O315  1  0.01308339  0.11911861  -0.00170016  1
  O  O316  1  -0.00427172  0.10890964  0.50278714  1
  O  O317  1  0.00896180  0.61282441  -0.00389240  1
  O  O318  1  -0.00541635  0.62064005  0.51310613  1
  O  O319  1  0.51153897  0.12513074  0.01065291  1
  O  O320  1  0.49456220  0.11503824  0.50329714  1
  O  O321  1  0.50471619  0.61954780  0.00044605  1
  O  O322  1  0.49466248  0.63290084  0.51854608  1
  O  O323  1  0.48897436  0.38133194  0.50661547  1
  O  O324  1  0.49380635  0.38273133  0.99039816  1
  O  O325  1  0.49790085  0.87242921  0.49117474  1
  O  O326  1  0.48459275  0.86888252  0.99919671  1
  O  O327  1  1.00202719  0.37261965  0.48750731  1
  O  O328  1  0.99629292  0.38301265  0.99282193  1
  O  O329  1  0.99407391  0.88138976  0.49344804  1
  O  O330  1  0.99078079  0.88255219  1.00215234  1
  O  O331  1  0.48211585  0.52485378  0.39206309  1
  O  O332  1  0.49952090  0.49537188  0.88306909  1
  O  O333  1  0.49641577  0.99110815  0.38296278  1
  O  O334  1  0.48837255  0.99940447  0.87097308  1
  O  O335  1  0.99134250  0.48622785  0.37969593  1
  O  O336  1  1.00516231  0.49101332  0.88098782  1
  O  O337  1  0.99581303  0.99118315  0.38043942  1
  O  O338  1  0.99054658  1.00320272  0.88768398  1
  O  O339  1  0.00933751  -0.00338662  0.11258267  1
  O  O340  1  0.00785527  0.00252840  0.61592556  1
  O  O341  1  0.00292352  0.49549641  0.11928692  1
  O  O342  1  0.00709308  0.50671574  0.62462758  1
  O  O343  1  0.51164864  0.00279650  0.12780870  1
  O  O344  1  0.49638587  -0.00088172  0.61086564  1
  O  O345  1  0.49725216  0.50899417  0.10777130  1
  O  O346  1  0.50077067  0.51631507  0.63453165  1
  O  O347  1  0.23937356  0.38694654  0.25491567  1
  O  O348  1  0.24901907  0.38601356  0.73863763  1
  O  O349  1  0.23748226  0.87066518  0.24183371  1
  O  O350  1  0.24095196  0.88339491  0.74306567  1
  O  O351  1  0.75725567  0.38926563  0.24728460  1
  O  O352  1  0.74468136  0.38175697  0.75077927  1
  O  O353  1  0.74975890  0.88461861  0.24458932  1
  O  O354  1  0.75150827  0.87490888  0.73802722  1
  O  O355  1  0.25553209  0.13058907  0.26893982  1
  O  O356  1  0.25838093  0.12129596  0.75646267  1
  O  O357  1  0.25101756  0.62292346  0.25895782  1
  O  O358  1  0.25807896  0.61785806  0.74300130  1
  O  O359  1  0.75623080  0.11120956  0.25481980  1
  O  O360  1  0.76592401  0.12388802  0.75111315  1
  O  O361  1  0.76081624  0.61604385  0.25770996  1
  O  O362  1  0.75503261  0.61798139  0.75480303  1
  O  O363  1  0.36600677  0.11848138  0.37376979  1
  O  O364  1  0.37221030  0.12307851  0.87117513  1
  O  O365  1  0.36072234  0.62174209  0.37062683  1
  O  O366  1  0.37783661  0.62438922  0.86170020  1
  O  O367  1  0.86626957  0.11427325  0.36410466  1
  O  O368  1  0.87697646  0.11720570  0.86652477  1
  O  O369  1  0.87244611  0.61478077  0.36915047  1
  O  O370  1  0.86461048  0.63105642  0.86714006  1
  O  O371  1  0.12664908  0.37116103  0.14025686  1
  O  O372  1  0.13119326  0.38266176  0.62747808  1
  O  O373  1  0.13129858  0.88182542  0.13316651  1
  O  O374  1  0.13301096  0.88729082  0.63215809  1
  O  O375  1  0.62415705  0.37544402  0.13184839  1
  O  O376  1  0.63715525  0.37076183  0.63167973  1
  O  O377  1  0.63094240  0.88007427  0.12597454  1
  O  O378  1  0.64055764  0.86720083  0.61990692  1
  O  O379  1  0.11978339  0.25453392  0.25698965  1
  O  O380  1  0.11684826  0.25013792  0.75414980  1
  O  O381  1  0.12184435  0.76190053  0.24274557  1
  O  O382  1  0.12611947  0.75963504  0.75881686  1
  O  O383  1  0.62498151  0.24598030  0.26572223  1
  O  O384  1  0.62954675  0.26275606  0.75772898  1
  O  O385  1  0.61573685  0.74802283  0.25712869  1
  O  O386  1  0.61844247  0.75192708  0.75816976  1
  O  O387  1  0.37150205  0.25739162  0.23950215  1
  O  O388  1  0.37045405  0.24357335  0.74217773  1
  O  O389  1  0.37969040  0.74604133  0.24488624  1
  O  O390  1  0.38064163  0.74603094  0.75010334  1
  O  O391  1  0.88413215  0.23735254  0.25006842  1
  O  O392  1  0.88329421  0.24250467  0.74526509  1
  O  O393  1  0.87946211  0.74918088  0.23542351  1
  O  O394  1  0.87714060  0.73831014  0.74298265  1
  O  O395  1  0.36475512  0.48792003  0.49547067  1
  O  O396  1  0.37888159  0.49146901  0.99659577  1
  O  O397  1  0.38874792  0.99949258  0.48794388  1
  O  O398  1  0.36889247  0.99386842  0.99158437  1
  O  O399  1  0.87367965  0.49919618  0.48686949  1
  O  O400  1  0.88768486  0.49190504  1.00099280  1
  O  O401  1  0.88424552  0.98891873  0.49378898  1
  O  O402  1  0.88229270  0.99365954  0.99613184  1
  O  O403  1  0.11962555  0.00597202  0.00642495  1
  O  O404  1  0.11734923  -0.00656584  0.50769545  1
  O  O405  1  0.11891662  0.50889601  -0.00089987  1
  O  O406  1  0.12216698  0.49751725  0.51190434  1
  O  O407  1  0.62855297  0.00468856  0.00795512  1
  O  O408  1  0.60488932  -0.00679842  0.50101607  1
  O  O409  1  0.61760746  0.50547003  0.00036858  1
  O  O410  1  0.63029234  0.50448848  0.50503299  1
  O  O411  1  0.37477247  0.37166223  0.11685108  1
  O  O412  1  0.36819414  0.37445181  0.61655156  1
  O  O413  1  0.36867738  0.87446734  0.12127278  1
  O  O414  1  0.36032642  0.87747473  0.63277796  1
  O  O415  1  0.87698156  0.36971860  0.11231257  1
  O  O416  1  0.86492448  0.36791223  0.62641054  1
  O  O417  1  0.87184298  0.86510171  0.11814167  1
  O  O418  1  0.86895150  0.86650706  0.61701136  1
  O  O419  1  0.13448794  0.13416185  0.37312402  1
  O  O420  1  0.12960428  0.13054056  0.88248441  1
  O  O421  1  0.13693395  0.62965270  0.37642803  1
  O  O422  1  0.12559223  0.63438111  0.88386552  1
  O  O423  1  0.63707532  0.13060673  0.37261611  1
  O  O424  1  0.62240443  0.13085328  0.87971885  1
  O  O425  1  0.63345158  0.62859465  0.36905736  1
  O  O426  1  0.63492915  0.63446953  0.87752336  1
