# generated using pymatgen
data_V85Zn86O256
_symmetry_space_group_name_H-M   'P 1'
_cell_length_a   16.92172833
_cell_length_b   16.92374313
_cell_length_c   16.92530206
_cell_angle_alpha   89.99353473
_cell_angle_beta   90.06841545
_cell_angle_gamma   89.98213666
_symmetry_Int_Tables_number   1
_chemical_formula_structural   V85Zn86O256
_chemical_formula_sum   'V85 Zn86 O256'
_cell_volume   4847.04707856
_cell_formula_units_Z   1
loop_
 _symmetry_equiv_pos_site_id
 _symmetry_equiv_pos_as_xyz
  1  'x, y, z'
loop_
 _atom_site_type_symbol
 _atom_site_label
 _atom_site_symmetry_multiplicity
 _atom_site_fract_x
 _atom_site_fract_y
 _atom_site_fract_z
 _atom_site_occupancy
  V  V0  1  0.61302414  0.00550226  0.11710743  1
  V  V1  1  0.25118240  0.37720174  0.61664697  1
  V  V2  1  0.73895433  0.11272362  0.87314724  1
  V  V3  1  0.86150404  0.86875397  0.50171738  1
  V  V4  1  0.86594675  0.37519786  -0.00834787  1
  V  V5  1  0.00052688  0.75622998  0.25292911  1
  V  V6  1  -0.00351037  0.63078695  0.63586257  1
  V  V7  1  0.36690148  0.11207017  0.74485512  1
  V  V8  1  0.12568476  0.37050470  0.75752656  1
  V  V9  1  0.24914449  0.61965159  0.37363443  1
  V  V10  1  0.12278636  0.75565846  0.37678148  1
  V  V11  1  0.00200193  0.12253972  0.12238532  1
  V  V12  1  0.76661261  0.62039204  0.87406930  1
  V  V13  1  0.49970416  0.87949168  0.37866003  1
  V  V14  1  0.75192857  0.37435010  0.62574495  1
  V  V15  1  0.37341243  0.00335646  0.36918074  1
  V  V16  1  0.37644246  0.88273427  0.50025729  1
  V  V17  1  0.37176293  0.61569108  0.25273227  1
  V  V18  1  0.62590263  0.87438109  0.24746349  1
  V  V19  1  0.25257213  0.25119106  0.49621709  1
  V  V20  1  0.62985845  -0.00414104  0.61428444  1
  V  V21  1  0.37163425  0.48777701  0.37834811  1
  V  V22  1  0.00256083  -0.00872786  0.50000090  1
  V  V23  1  0.62637199  0.49980131  0.62835160  1
  V  V24  1  0.12813826  0.88255000  0.75964327  1
  V  V25  1  0.12213323  0.50079620  0.62459870  1
  V  V26  1  0.88166320  -0.00784354  0.37434098  1
  V  V27  1  0.74957315  0.50533959  0.25504833  1
  V  V28  1  0.49699442  0.48990399  0.50060082  1
  V  V29  1  0.62670802  0.62906158  0.50253866  1
  V  V30  1  0.87678231  0.11387934  0.75620727  1
  V  V31  1  0.87912072  0.24771322  0.62470523  1
  V  V32  1  0.74503172  0.24212144  0.49768954  1
  V  V33  1  0.87682877  0.62491811  0.25419547  1
  V  V34  1  0.62405725  0.74803925  0.87515026  1
  V  V35  1  0.76324739  0.50104876  0.75482395  1
  V  V36  1  0.24877367  0.50094928  0.74860846  1
  V  V37  1  0.37292557  0.74845561  0.12850328  1
  V  V38  1  0.62667295  0.62472695  -0.00121179  1
  V  V39  1  0.87652197  0.12361404  0.25063347  1
  V  V40  1  0.49970774  0.11897775  0.61695309  1
  V  V41  1  0.87929573  0.87719693  -0.01253235  1
  V  V42  1  0.50127184  0.37043464  0.87323113  1
  V  V43  1  0.37714762  0.25594421  0.62480576  1
  V  V44  1  0.39066586  0.12768152  0.24316068  1
  V  V45  1  0.50110731  0.49802484  -0.00120538  1
  V  V46  1  0.75303811  0.75079971  0.00166270  1
  V  V47  1  0.24826067  0.62728457  0.87627396  1
  V  V48  1  0.37429194  0.62689245  0.75022762  1
  V  V49  1  0.12322109  0.25232800  0.37272292  1
  V  V50  1  0.12321967  0.39140936  0.24727906  1
  V  V51  1  0.38352612  0.25367749  0.12640902  1
  V  V52  1  0.12353614  0.88252188  0.25534583  1
  V  V53  1  0.62699017  0.36695272  0.75388316  1
  V  V54  1  0.00219641  0.24735806  0.76143318  1
  V  V55  1  0.73750879  0.24539121  -0.01326746  1
  V  V56  1  -0.01124228  0.37876789  0.37311031  1
  V  V57  1  0.24900706  0.87689278  0.13211230  1
  V  V58  1  0.13384746  0.00042924  0.62555506  1
  V  V59  1  0.73674166  0.34106584  0.15516991  1
  V  V60  1  0.62976482  0.49677265  0.13122282  1
  V  V61  1  0.86217565  0.75291069  0.63101192  1
  V  V62  1  0.24170257  0.24968857  -0.00532832  1
  V  V63  1  0.24293583  0.38405048  0.12771701  1
  V  V64  1  0.50003286  0.74764759  0.25261565  1
  V  V65  1  0.37722498  0.87986364  0.00343910  1
  V  V66  1  -0.01111498  0.50243700  0.49789590  1
  V  V67  1  0.24852985  0.12512495  0.36222099  1
  V  V68  1  0.00271398  0.61364244  0.12947475  1
  V  V69  1  0.75145666  -0.00390557  0.24578182  1
  V  V70  1  0.62936434  0.75010590  0.37884749  1
  V  V71  1  0.12235581  0.62727550  0.50165501  1
  V  V72  1  0.49868291  0.62439145  0.62460999  1
  V  V73  1  0.00009934  -0.00501680  -0.01395263  1
  V  V74  1  0.12482923  0.61517082  0.00642219  1
  V  V75  1  0.49910443  0.74850307  0.75058536  1
  V  V76  1  0.49646792  0.88051094  0.87829761  1
  V  V77  1  0.11737165  0.75327071  0.87842194  1
  V  V78  1  0.51836146  0.36777019  0.36231385  1
  V  V79  1  0.75601539  0.62504814  0.38406379  1
  V  V80  1  0.62976590  0.87666216  0.74646918  1
  V  V81  1  -0.00007135  0.25148052  0.24889854  1
  V  V82  1  0.50069010  0.62327873  0.12672854  1
  V  V83  1  0.25085555  0.75366029  0.50219642  1
  V  V84  1  0.12909755  0.00297722  0.12433034  1
  Zn  Zn85  1  0.12201417  0.12445775  0.49828060  1
  Zn  Zn86  1  -0.00363515  0.75577766  0.75412386  1
  Zn  Zn87  1  0.37491218  0.75314401  0.62447412  1
  Zn  Zn88  1  0.24633165  0.74958235  0.00416166  1
  Zn  Zn89  1  0.50311169  0.24552004  0.74959803  1
  Zn  Zn90  1  0.87878505  0.75304137  0.12456123  1
  Zn  Zn91  1  -0.00913799  0.49835104  -0.00187034  1
  Zn  Zn92  1  0.61276902  0.12450455  0.48906545  1
  Zn  Zn93  1  0.75265557  0.87679545  0.12042932  1
  Zn  Zn94  1  0.87537270  0.24495120  0.11628584  1
  Zn  Zn95  1  0.87137352  0.37495820  0.49665226  1
  Zn  Zn96  1  0.24573931  0.11115801  0.86345849  1
  Zn  Zn97  1  0.75696624  -0.00950343  0.74636007  1
  Zn  Zn98  1  0.58772281  0.12172698  -0.00710678  1
  Zn  Zn99  1  0.37106439  0.37768415  -0.00163920  1
  Zn  Zn100  1  0.37644185  0.50152695  0.87495662  1
  Zn  Zn101  1  0.40115530  0.03626194  0.91936983  1
  Zn  Zn102  1  0.74399220  0.12501606  0.37220109  1
  Zn  Zn103  1  -0.00535673  0.38067123  0.87427664  1
  Zn  Zn104  1  0.12137629  0.13101083  -0.01323859  1
  Zn  Zn105  1  0.00058355  0.12231869  0.62326527  1
  Zn  Zn106  1  0.25605500  0.88187726  0.63228596  1
  Zn  Zn107  1  0.18782624  0.19554699  0.18272051  1
  Zn  Zn108  1  0.18567230  0.18780464  0.68439497  1
  Zn  Zn109  1  0.18498070  0.68644373  0.19049643  1
  Zn  Zn110  1  0.18456865  0.69335075  0.68934852  1
  Zn  Zn111  1  0.68868117  0.17526531  0.18119713  1
  Zn  Zn112  1  0.68923394  0.18212463  0.68375554  1
  Zn  Zn113  1  0.68818271  0.68665120  0.18794184  1
  Zn  Zn114  1  0.68890934  0.68493547  0.69209827  1
  Zn  Zn115  1  0.31123898  0.31226180  0.30528884  1
  Zn  Zn116  1  0.31512088  0.31340859  0.81037439  1
  Zn  Zn117  1  0.30977316  0.81092868  0.31314064  1
  Zn  Zn118  1  0.30924612  0.81468035  0.81578299  1
  Zn  Zn119  1  0.80310461  0.30554630  0.30909954  1
  Zn  Zn120  1  0.81134412  0.30539621  0.81175994  1
  Zn  Zn121  1  0.81316529  0.81175818  0.31607885  1
  Zn  Zn122  1  0.81205862  0.80917550  0.81445618  1
  Zn  Zn123  1  0.17995378  0.43862422  0.43613439  1
  Zn  Zn124  1  0.18724362  0.43835202  0.93791553  1
  Zn  Zn125  1  0.19148623  0.94102273  0.43680512  1
  Zn  Zn126  1  0.19956305  0.94508508  0.93899162  1
  Zn  Zn127  1  0.68910116  0.43935411  0.44075313  1
  Zn  Zn128  1  0.68778093  0.43699787  0.93656353  1
  Zn  Zn129  1  0.69072343  0.94130956  0.43336025  1
  Zn  Zn130  1  0.68555019  0.93641337  0.93636469  1
  Zn  Zn131  1  0.31098666  0.06569875  0.06448076  1
  Zn  Zn132  1  0.31323336  0.06727873  0.55527678  1
  Zn  Zn133  1  0.31284337  0.56171522  0.06149204  1
  Zn  Zn134  1  0.31355350  0.56346156  0.56048616  1
  Zn  Zn135  1  0.81343527  0.06027324  0.05886628  1
  Zn  Zn136  1  0.81470760  0.06029581  0.56561927  1
  Zn  Zn137  1  0.81395404  0.56488891  0.06673713  1
  Zn  Zn138  1  0.81301466  0.56648867  0.56862246  1
  Zn  Zn139  1  0.43740534  0.43410265  0.18884460  1
  Zn  Zn140  1  0.43605290  0.43734268  0.68882129  1
  Zn  Zn141  1  0.43511856  0.93895005  0.19315872  1
  Zn  Zn142  1  0.44477478  0.93743868  0.68480381  1
  Zn  Zn143  1  0.92252685  0.43363674  0.18449444  1
  Zn  Zn144  1  0.93987371  0.43476508  0.68622631  1
  Zn  Zn145  1  0.93813408  0.93484859  0.17955275  1
  Zn  Zn146  1  0.94519906  0.93325138  0.68561355  1
  Zn  Zn147  1  0.06167785  0.06183698  0.31302618  1
  Zn  Zn148  1  0.06781877  0.06521440  0.81019997  1
  Zn  Zn149  1  0.05904188  0.56469582  0.31770847  1
  Zn  Zn150  1  0.05896240  0.55913855  0.81791482  1
  Zn  Zn151  1  0.56406418  0.06156747  0.31232777  1
  Zn  Zn152  1  0.55920575  0.06147424  0.80364917  1
  Zn  Zn153  1  0.56165452  0.55819384  0.31664623  1
  Zn  Zn154  1  0.56810850  0.55878199  0.81293036  1
  Zn  Zn155  1  0.43536723  0.19373001  0.43545399  1
  Zn  Zn156  1  0.43000858  0.20052653  0.93633627  1
  Zn  Zn157  1  0.43787471  0.68713764  0.43896268  1
  Zn  Zn158  1  0.43634163  0.69026197  0.93948304  1
  Zn  Zn159  1  0.93593436  0.18420263  0.43794011  1
  Zn  Zn160  1  0.93220228  0.18528089  0.93606527  1
  Zn  Zn161  1  0.93816595  0.69297211  0.44020639  1
  Zn  Zn162  1  0.94083041  0.68681415  0.94190821  1
  Zn  Zn163  1  0.05990686  0.31528177  0.06256045  1
  Zn  Zn164  1  0.06291923  0.31348418  0.56195787  1
  Zn  Zn165  1  0.06176324  0.81040106  0.06523863  1
  Zn  Zn166  1  0.06115391  0.81777168  0.56784855  1
  Zn  Zn167  1  0.56641339  0.31287051  0.06010376  1
  Zn  Zn168  1  0.56374407  0.31227037  0.56296730  1
  Zn  Zn169  1  0.56419777  0.81477963  0.06397749  1
  Zn  Zn170  1  0.56222451  0.81315114  0.56271413  1
  O  O171  1  0.11885318  0.11810920  0.12445032  1
  O  O172  1  0.12188418  0.11609018  0.62041767  1
  O  O173  1  0.11708235  0.62740473  0.11954782  1
  O  O174  1  0.11825014  0.62231920  0.61943136  1
  O  O175  1  0.61918818  0.11104945  0.11953531  1
  O  O176  1  0.61699345  0.11364750  0.62142947  1
  O  O177  1  0.61855726  0.61850504  0.11975403  1
  O  O178  1  0.62005149  0.62087684  0.61996420  1
  O  O179  1  0.37332931  0.38641757  0.36913102  1
  O  O180  1  0.38420874  0.38245979  0.87524754  1
  O  O181  1  0.37955052  0.88284573  0.37567946  1
  O  O182  1  0.38168593  0.86444251  0.89083035  1
  O  O183  1  0.88641390  0.36891506  0.37392138  1
  O  O184  1  0.86963135  0.37218619  0.88817775  1
  O  O185  1  0.87424427  0.87846216  0.38862898  1
  O  O186  1  0.87562558  0.87012404  0.88710875  1
  O  O187  1  0.26302291  0.01062679  0.37605725  1
  O  O188  1  0.28359702  0.01083732  0.90632647  1
  O  O189  1  0.25677752  0.50968759  0.38440754  1
  O  O190  1  0.25027083  0.51197170  0.86934282  1
  O  O191  1  0.76291239  -0.00145516  0.36236773  1
  O  O192  1  0.74946220  0.00921466  0.87054955  1
  O  O193  1  0.74361088  0.51554399  0.37026058  1
  O  O194  1  0.74585757  0.50931256  0.86808791  1
  O  O195  1  0.25687189  0.48323113  0.12287814  1
  O  O196  1  0.24464894  0.49498559  0.62682355  1
  O  O197  1  0.23700207  0.99328316  0.12221191  1
  O  O198  1  0.23765460  1.00072143  0.61242348  1
  O  O199  1  0.73834975  0.50951107  0.13567504  1
  O  O200  1  0.74520165  0.49566180  0.63207836  1
  O  O201  1  0.74497068  1.00007836  0.13401752  1
  O  O202  1  0.73444149  1.00413502  0.62844891  1
  O  O203  1  0.00088213  0.37256331  0.25291435  1
  O  O204  1  0.00836618  0.36690187  0.74966188  1
  O  O205  1  0.00908724  0.86699609  0.24489970  1
  O  O206  1  0.02125741  0.87267520  0.74852226  1
  O  O207  1  0.50430436  0.38036060  0.26279564  1
  O  O208  1  0.50917236  0.37744206  0.75612391  1
  O  O209  1  0.50347644  0.86753717  0.26123282  1
  O  O210  1  0.50685767  0.86527320  0.75529571  1
  O  O211  1  0.48906542  0.12713598  0.24977069  1
  O  O212  1  0.49044957  0.12776003  0.73586985  1
  O  O213  1  0.49221122  0.62791868  0.24739801  1
  O  O214  1  0.49499571  0.62809386  0.74650046  1
  O  O215  1  0.99481819  0.12866659  0.24262199  1
  O  O216  1  0.99256237  0.13104632  0.74784675  1
  O  O217  1  0.99433051  0.63089355  0.24788757  1
  O  O218  1  1.00648175  0.62752894  0.73807798  1
  O  O219  1  0.36400756  0.25773473  0.01299805  1
  O  O220  1  0.36045510  0.24884966  0.50898246  1
  O  O221  1  0.37434437  0.75369245  0.01743552  1
  O  O222  1  0.36772095  0.76079634  0.49697109  1
  O  O223  1  0.86360792  0.25704395  -0.00273456  1
  O  O224  1  0.86879944  0.25023807  0.50932962  1
  O  O225  1  0.86898802  0.75604974  0.00124049  1
  O  O226  1  0.87717056  0.76308026  0.50796941  1
  O  O227  1  0.13382773  0.24979363  0.49246190  1
  O  O228  1  0.13683126  0.25200087  1.00489689  1
  O  O229  1  0.13058621  0.74920361  0.49616064  1
  O  O230  1  0.12569551  0.74235433  0.99484965  1
  O  O231  1  0.64189917  0.24446329  0.51192768  1
  O  O232  1  0.63352080  0.23803675  0.99986758  1
  O  O233  1  0.61937152  0.73818822  0.49435318  1
  O  O234  1  0.63261409  0.74543110  0.99553852  1
  O  O235  1  0.48340921  0.25997475  0.11939512  1
  O  O236  1  0.49095744  0.24622658  0.62455286  1
  O  O237  1  0.49376771  0.74426482  0.13298869  1
  O  O238  1  0.49893884  0.74291915  0.63350933  1
  O  O239  1  0.99852961  0.23709497  0.12817921  1
  O  O240  1  0.98946307  0.24940912  0.62817593  1
  O  O241  1  1.00191241  0.74053085  0.13936007  1
  O  O242  1  0.99403926  0.74370715  0.62656879  1
  O  O243  1  0.00418440  0.25651247  0.37042038  1
  O  O244  1  -0.00482186  0.25540662  0.86414945  1
  O  O245  1  0.00894570  0.74486571  0.36324036  1
  O  O246  1  0.01351093  0.74580273  0.87460845  1
  O  O247  1  0.49704944  0.27043504  0.38075263  1
  O  O248  1  0.49695844  0.26617171  0.86884726  1
  O  O249  1  0.50966918  0.75357329  0.37067350  1
  O  O250  1  0.50456857  0.75317383  0.86737892  1
  O  O251  1  0.24840582  0.13562249  0.48504894  1
  O  O252  1  0.24737376  0.14367486  1.00736133  1
  O  O253  1  0.24522197  0.63277917  0.49217423  1
  O  O254  1  0.24438498  0.62659245  0.99438856  1
  O  O255  1  0.75358722  0.13584378  0.50129486  1
  O  O256  1  0.75601214  0.12893786  0.98228035  1
  O  O257  1  0.74046408  0.62079170  0.49461581  1
  O  O258  1  0.74678874  0.62989492  0.99399178  1
  O  O259  1  0.24842548  0.37062490  0.01019825  1
  O  O260  1  0.24213317  0.37078231  0.50990735  1
  O  O261  1  0.25752357  0.86892701  0.01637396  1
  O  O262  1  0.25930291  0.86821061  0.49955195  1
  O  O263  1  0.75030523  0.35760871  -0.00491204  1
  O  O264  1  0.75152685  0.36609396  0.50745477  1
  O  O265  1  0.75703914  0.86652074  -0.00267257  1
  O  O266  1  0.76252251  0.87704783  0.49936566  1
  O  O267  1  0.12087678  0.49074120  0.25526764  1
  O  O268  1  0.13098888  0.49441935  0.74250242  1
  O  O269  1  0.11962875  0.98982824  0.24261912  1
  O  O270  1  0.12607548  0.99029810  0.74246633  1
  O  O271  1  0.63373786  0.50853948  0.24173689  1
  O  O272  1  0.63231431  0.49105007  0.74261967  1
  O  O273  1  0.63460603  0.99368697  0.24257348  1
  O  O274  1  0.62627376  0.99009914  0.73957066  1
  O  O275  1  0.37332599  0.01704419  0.25279875  1
  O  O276  1  0.37492322  0.01264063  0.73941067  1
  O  O277  1  0.37857165  0.51106283  0.25809178  1
  O  O278  1  0.36710528  0.51048615  0.74992107  1
  O  O279  1  0.87266669  0.00033218  0.25472107  1
  O  O280  1  0.87512522  0.00807583  0.73933377  1
  O  O281  1  0.86990653  0.51881215  0.24786172  1
  O  O282  1  0.86241780  0.49577369  0.74470411  1
  O  O283  1  0.11475574  0.37059662  0.36632320  1
  O  O284  1  0.12789980  0.37641010  0.86012051  1
  O  O285  1  0.13264675  0.87105381  0.36482255  1
  O  O286  1  0.13653533  0.87032729  0.86851502  1
  O  O287  1  0.61779605  0.37866488  0.37528835  1
  O  O288  1  0.61676009  0.38064770  0.86426194  1
  O  O289  1  0.61882284  0.86981724  0.37138158  1
  O  O290  1  0.61575187  0.86815756  0.86927476  1
  O  O291  1  0.37088374  0.13720898  0.13641780  1
  O  O292  1  0.37925901  0.13189754  0.62837099  1
  O  O293  1  0.37833253  0.62859065  0.13384552  1
  O  O294  1  0.38099623  0.62814580  0.63132937  1
  O  O295  1  0.88370525  0.12036164  0.13428791  1
  O  O296  1  0.87594845  0.13195086  0.63559530  1
  O  O297  1  0.88314440  0.63204177  0.13460353  1
  O  O298  1  0.88371577  0.64255144  0.61823055  1
  O  O299  1  0.25674665  0.26268778  0.11786229  1
  O  O300  1  0.25356451  0.25839456  0.61546197  1
  O  O301  1  0.25761016  0.75522516  0.12841170  1
  O  O302  1  0.25174654  0.74974232  0.61104074  1
  O  O303  1  0.75239445  0.23881103  0.10058996  1
  O  O304  1  0.76124058  0.25269959  0.61995298  1
  O  O305  1  0.74946441  0.74781649  0.11067260  1
  O  O306  1  0.76304103  0.74502568  0.62747832  1
  O  O307  1  0.24520008  0.24850484  0.37946113  1
  O  O308  1  0.25835666  0.25608432  0.89377739  1
  O  O309  1  0.24478550  0.74325449  0.38520052  1
  O  O310  1  0.24218510  0.73864464  0.87859689  1
  O  O311  1  0.75718989  0.24637032  0.39517099  1
  O  O312  1  0.74732698  0.23648898  0.88071345  1
  O  O313  1  0.73626346  0.74213938  0.37228073  1
  O  O314  1  0.74480158  0.74078721  0.88444273  1
  O  O315  1  -0.00038917  0.11618173  0.00577265  1
  O  O316  1  -0.00127123  0.10953879  0.50031997  1
  O  O317  1  0.00671790  0.62337195  0.01282244  1
  O  O318  1  0.00453492  0.61988547  0.50547191  1
  O  O319  1  0.47763173  0.10877952  -0.02489279  1
  O  O320  1  0.49515670  0.13043321  0.51178484  1
  O  O321  1  0.50489190  0.61874669  0.00663416  1
  O  O322  1  0.50688309  0.61710398  0.50434296  1
  O  O323  1  0.50577377  0.38727470  0.49537578  1
  O  O324  1  0.50198903  0.38258853  0.99157814  1
  O  O325  1  0.49229609  0.86838872  0.48600749  1
  O  O326  1  0.49266881  0.86496603  0.98948101  1
  O  O327  1  0.99893883  0.38389558  0.49117968  1
  O  O328  1  0.97831417  0.37289289  1.00575307  1
  O  O329  1  0.99079147  0.88621359  0.50227746  1
  O  O330  1  0.99639418  0.88737817  1.00472159  1
  O  O331  1  0.49249477  0.49147879  0.38265915  1
  O  O332  1  0.50111028  0.49458906  0.88417418  1
  O  O333  1  0.48658043  0.99093966  0.36793837  1
  O  O334  1  0.49461563  0.98294998  0.86310215  1
  O  O335  1  1.00151488  0.49241083  0.38580222  1
  O  O336  1  1.00096411  0.49372994  0.88419145  1
  O  O337  1  0.98792875  1.00084027  0.37946499  1
  O  O338  1  1.00451303  1.00172762  0.88818273  1
  O  O339  1  0.00991801  0.00926589  0.12122518  1
  O  O340  1  0.01272129  -0.00039690  0.61641947  1
  O  O341  1  -0.00948890  0.51074790  0.12482165  1
  O  O342  1  0.00354631  0.50832389  0.61934724  1
  O  O343  1  0.51601141  -0.00844257  0.13223749  1
  O  O344  1  0.51344439  0.00781763  0.62508006  1
  O  O345  1  0.50986354  0.50123302  0.12029320  1
  O  O346  1  0.50425563  0.50430061  0.61854920  1
  O  O347  1  0.23752346  0.37244792  0.23780419  1
  O  O348  1  0.24383778  0.37931906  0.73962522  1
  O  O349  1  0.24171409  0.87105478  0.24020450  1
  O  O350  1  0.23671909  0.87011549  0.74709083  1
  O  O351  1  0.76843561  0.40210889  0.25200437  1
  O  O352  1  0.74464426  0.37937508  0.74684978  1
  O  O353  1  0.74592136  0.87978231  0.24791223  1
  O  O354  1  0.73389801  0.87176456  0.75650668  1
  O  O355  1  0.25408954  0.13431058  0.25976248  1
  O  O356  1  0.26281154  0.12627559  0.74257730  1
  O  O357  1  0.25662367  0.63019103  0.26441748  1
  O  O358  1  0.25358226  0.62291792  0.75639963  1
  O  O359  1  0.76099001  0.11251000  0.24930529  1
  O  O360  1  0.75520062  0.12261358  0.76088711  1
  O  O361  1  0.75752511  0.62369377  0.25896981  1
  O  O362  1  0.74606320  0.61416821  0.76229679  1
  O  O363  1  0.37164670  0.12255875  0.36370741  1
  O  O364  1  0.37244498  0.13459106  0.84984144  1
  O  O365  1  0.36863818  0.61810898  0.37033629  1
  O  O366  1  0.36650427  0.62522643  0.87028754  1
  O  O367  1  0.87394765  0.11535840  0.36264491  1
  O  O368  1  0.86471257  0.12744353  0.86137526  1
  O  O369  1  0.86467326  0.63355098  0.37141032  1
  O  O370  1  0.86580581  0.62783949  0.87831849  1
  O  O371  1  0.13339681  0.37524131  0.13201008  1
  O  O372  1  0.13114989  0.38240331  0.63077709  1
  O  O373  1  0.13167610  0.88097624  0.13186521  1
  O  O374  1  0.13142701  0.88280106  0.63427733  1
  O  O375  1  0.64030111  0.38226692  0.12028363  1
  O  O376  1  0.63211784  0.38195192  0.63058976  1
  O  O377  1  0.63049229  0.88122693  0.13138391  1
  O  O378  1  0.61864555  0.88628825  0.63063623  1
  O  O379  1  0.11589994  0.25826200  0.25429005  1
  O  O380  1  0.11362032  0.25893620  0.73939003  1
  O  O381  1  0.11943881  0.75967271  0.25638481  1
  O  O382  1  0.12364995  0.75964996  0.76117759  1
  O  O383  1  0.70422113  0.27553816  0.23360420  1
  O  O384  1  0.62496985  0.26315411  0.74009703  1
  O  O385  1  0.62060630  0.75422699  0.25728157  1
  O  O386  1  0.61809548  0.75401644  0.75458534  1
  O  O387  1  0.37236517  0.24104108  0.23789181  1
  O  O388  1  0.37471252  0.24693259  0.73392304  1
  O  O389  1  0.37838324  0.73974111  0.24526439  1
  O  O390  1  0.38034117  0.74334548  0.74961240  1
  O  O391  1  0.88107793  0.23820032  0.24671285  1
  O  O392  1  0.88319588  0.24322329  0.74287280  1
  O  O393  1  0.88268981  0.74348465  0.25123295  1
  O  O394  1  0.87832636  0.75757254  0.73607112  1
  O  O395  1  0.38558695  0.50563855  0.49076262  1
  O  O396  1  0.39014574  0.49917631  1.00114755  1
  O  O397  1  0.37276308  0.98928218  0.48971005  1
  O  O398  1  0.38148579  0.97972683  1.02749838  1
  O  O399  1  0.88535523  0.49830073  0.50633809  1
  O  O400  1  0.86434143  0.47868347  1.00983926  1
  O  O401  1  0.87831565  0.99014116  0.49443835  1
  O  O402  1  0.89095374  0.99319422  1.00308284  1
  O  O403  1  0.11480261  0.00032591  0.00822752  1
  O  O404  1  0.11781289  -0.00103598  0.50369121  1
  O  O405  1  0.12418513  0.51275666  -0.00000179  1
  O  O406  1  0.11434345  0.50719314  0.50644009  1
  O  O407  1  0.62684386  -0.00081317  0.01357040  1
  O  O408  1  0.62744522  -0.00117727  0.51062337  1
  O  O409  1  0.61801288  0.50391122  0.00850250  1
  O  O410  1  0.61793570  0.51033508  0.50722651  1
  O  O411  1  0.36474100  0.36714692  0.12829498  1
  O  O412  1  0.36402501  0.36967275  0.62690825  1
  O  O413  1  0.36877276  0.86478290  0.13031415  1
  O  O414  1  0.37550761  0.87431531  0.61482606  1
  O  O415  1  0.84819564  0.36353377  0.12288203  1
  O  O416  1  0.86866495  0.36560660  0.62370901  1
  O  O417  1  0.87160650  0.87068327  0.11232060  1
  O  O418  1  0.87753839  0.86404765  0.61481145  1
  O  O419  1  0.13165168  0.13229341  0.37360354  1
  O  O420  1  0.13479933  0.12589921  0.87392782  1
  O  O421  1  0.13247409  0.63179849  0.38125938  1
  O  O422  1  0.13158640  0.63262600  0.88259321  1
  O  O423  1  0.63085443  0.11847696  0.37823982  1
  O  O424  1  0.63488931  0.11703231  0.87463515  1
  O  O425  1  0.62908731  0.63173438  0.38374802  1
  O  O426  1  0.62869831  0.63082009  0.88297417  1
