# generated using pymatgen
data_V85Zn86O256
_symmetry_space_group_name_H-M   'P 1'
_cell_length_a   16.92049532
_cell_length_b   16.91614351
_cell_length_c   16.91313974
_cell_angle_alpha   90.05082531
_cell_angle_beta   89.98329990
_cell_angle_gamma   90.03436452
_symmetry_Int_Tables_number   1
_chemical_formula_structural   V85Zn86O256
_chemical_formula_sum   'V85 Zn86 O256'
_cell_volume   4841.03700876
_cell_formula_units_Z   1
loop_
 _symmetry_equiv_pos_site_id
 _symmetry_equiv_pos_as_xyz
  1  'x, y, z'
loop_
 _atom_site_type_symbol
 _atom_site_label
 _atom_site_symmetry_multiplicity
 _atom_site_fract_x
 _atom_site_fract_y
 _atom_site_fract_z
 _atom_site_occupancy
  V  V0  1  0.74882180  0.49952612  0.25135664  1
  V  V1  1  0.37613156  0.87472873  0.00044105  1
  V  V2  1  0.49788448  0.74190243  0.25483874  1
  V  V3  1  0.61939069  0.62742954  0.50738695  1
  V  V4  1  0.25164310  0.00610634  0.74819504  1
  V  V5  1  0.75859776  -0.00217278  0.76335467  1
  V  V6  1  0.25181433  0.87554454  0.62531933  1
  V  V7  1  0.75515935  0.62488475  0.38560500  1
  V  V8  1  0.87249005  0.74952455  0.12517038  1
  V  V9  1  0.37461538  0.74194113  0.13123236  1
  V  V10  1  0.12822178  0.87718477  0.24919121  1
  V  V11  1  0.50207002  0.00413426  0.00168105  1
  V  V12  1  -0.00671003  0.12449834  0.62465390  1
  V  V13  1  0.87276916  0.24990412  0.12550229  1
  V  V14  1  0.75019417  0.87210254  0.62058311  1
  V  V15  1  0.12031026  0.51816689  0.61662545  1
  V  V16  1  -0.00451143  0.87699315  0.87465279  1
  V  V17  1  0.25405239  0.87625548  0.12414700  1
  V  V18  1  0.50127700  0.12062499  0.62975003  1
  V  V19  1  0.74744430  0.12301493  0.37114296  1
  V  V20  1  0.87251128  0.86891707  0.49863176  1
  V  V21  1  0.00226271  0.87504043  0.37625347  1
  V  V22  1  0.37406421  0.24397944  0.62781899  1
  V  V23  1  0.87704917  0.12294929  0.75964376  1
  V  V24  1  0.10994835  0.37278827  0.25256325  1
  V  V25  1  0.00047815  0.74339972  0.74480083  1
  V  V26  1  0.11808284  0.37220335  0.74619531  1
  V  V27  1  0.25084168  0.74987157  -0.00102110  1
  V  V28  1  0.74684780  0.37103732  0.11699588  1
  V  V29  1  0.87790870  0.48004448  0.37762658  1
  V  V30  1  0.12598467  0.74267762  0.37894110  1
  V  V31  1  0.00459858  0.01183757  -0.00461544  1
  V  V32  1  0.12037091  0.50034673  0.12541875  1
  V  V33  1  0.63059264  0.74900944  0.38036515  1
  V  V34  1  0.87530542  0.74049715  0.62162028  1
  V  V35  1  0.62639660  0.75033341  0.87628950  1
  V  V36  1  0.00035019  0.74790198  0.24858368  1
  V  V37  1  0.12256356  0.12549595  0.49921766  1
  V  V38  1  0.75158176  0.26011015  0.50754600  1
  V  V39  1  0.61548620  0.49974493  0.62797359  1
  V  V40  1  0.38543228  0.37402461  0.49662251  1
  V  V41  1  0.37440728  0.25162973  0.12654597  1
  V  V42  1  0.11667812  0.24964144  0.87146205  1
  V  V43  1  0.24638409  0.37597582  0.12619107  1
  V  V44  1  0.49814233  0.73688462  0.74857160  1
  V  V45  1  0.25638440  0.62544352  0.87186230  1
  V  V46  1  -0.00962815  0.49604106  -0.01059230  1
  V  V47  1  0.12550037  0.75090024  0.87320079  1
  V  V48  1  0.12354747  -0.00009748  0.62363583  1
  V  V49  1  0.25032964  0.50402122  0.74627888  1
  V  V50  1  0.12432426  0.62310087  -0.00118558  1
  V  V51  1  0.86883602  -0.00401542  0.36593892  1
  V  V52  1  0.24224437  0.24571085  -0.00029612  1
  V  V53  1  0.37945235  0.73419924  0.62835208  1
  V  V54  1  0.50106026  0.49804618  -0.00168426  1
  V  V55  1  0.38007814  0.00320234  0.37979224  1
  V  V56  1  0.61779795  0.25485988  0.38076444  1
  V  V57  1  0.24737129  0.12608171  0.87568468  1
  V  V58  1  0.50240044  0.87709588  0.37976143  1
  V  V59  1  0.50188906  0.13046128  0.12395649  1
  V  V60  1  0.10842057  0.25305169  0.37152431  1
  V  V61  1  0.75916957  0.62136457  0.87337889  1
  V  V62  1  0.37965343  0.87605852  0.50343280  1
  V  V63  1  0.61744889  0.37550852  0.25431239  1
  V  V64  1  0.37542776  0.00533900  0.87014698  1
  V  V65  1  0.25459271  0.62266638  0.36771653  1
  V  V66  1  0.49408992  0.25219340  0.76003659  1
  V  V67  1  0.00787005  0.13147320  0.13406633  1
  V  V68  1  0.24751388  0.37499626  0.62256268  1
  V  V69  1  0.64065410  0.13155357  -0.00624146  1
  V  V70  1  0.24857485  0.25150205  0.49859404  1
  V  V71  1  0.37852680  0.49882402  0.86759555  1
  V  V72  1  0.37752759  0.37515731  -0.00595627  1
  V  V73  1  0.38301651  0.49771555  0.36688705  1
  V  V74  1  0.75760736  0.49213564  0.74515639  1
  V  V75  1  0.24895673  0.74355501  0.50133752  1
  V  V76  1  -0.00498760  0.50137115  0.49907461  1
  V  V77  1  0.87762918  0.25963415  0.62288584  1
  V  V78  1  0.62591876  0.62650913  0.00310602  1
  V  V79  1  0.24888938  0.12633055  0.37260005  1
  V  V80  1  0.62533712  0.11694539  0.50669344  1
  V  V81  1  0.62606858  0.87544874  0.75103660  1
  V  V82  1  0.87318250  0.88142664  0.00000333  1
  V  V83  1  0.61739161  0.37490374  0.75368473  1
  V  V84  1  0.50114152  0.87554899  0.87516096  1
  Zn  Zn85  1  0.25013874  0.50283767  0.24933743  1
  Zn  Zn86  1  -0.01228777  0.37329963  0.86537851  1
  Zn  Zn87  1  0.13016640  0.00628939  0.12055214  1
  Zn  Zn88  1  0.62400653  0.50062696  0.12610074  1
  Zn  Zn89  1  0.87920931  0.62042884  0.74918951  1
  Zn  Zn90  1  0.49570699  0.25486763  0.25734505  1
  Zn  Zn91  1  -0.00243814  0.62386134  0.12302792  1
  Zn  Zn92  1  0.86322752  0.36941179  -0.01134664  1
  Zn  Zn93  1  0.49885793  0.50123463  0.50200757  1
  Zn  Zn94  1  0.25645221  0.00084729  0.24753581  1
  Zn  Zn95  1  0.75039921  0.75202867  0.00209102  1
  Zn  Zn96  1  0.62567590  0.00017959  0.62806415  1
  Zn  Zn97  1  0.49810021  0.62365733  0.12881936  1
  Zn  Zn98  1  0.12340114  0.87632347  0.74912357  1
  Zn  Zn99  1  0.63255392  0.88063117  0.25124623  1
  Zn  Zn100  1  0.64054211  0.25356893  0.88126013  1
  Zn  Zn101  1  0.75584583  0.88611975  0.14127370  1
  Zn  Zn102  1  0.87600712  0.62235693  0.25254721  1
  Zn  Zn103  1  0.64098363  0.00456984  0.13313586  1
  Zn  Zn104  1  -0.00302607  -0.00177925  0.49903054  1
  Zn  Zn105  1  0.37608405  0.12644092  0.25080769  1
  Zn  Zn106  1  0.87178627  0.12629329  0.24897851  1
  Zn  Zn107  1  0.18601719  0.18943854  0.19134112  1
  Zn  Zn108  1  0.18521967  0.18593102  0.68864691  1
  Zn  Zn109  1  0.18664469  0.68727627  0.18822471  1
  Zn  Zn110  1  0.19152102  0.68966937  0.68996275  1
  Zn  Zn111  1  0.68543046  0.19021914  0.18768674  1
  Zn  Zn112  1  0.69625828  0.19452722  0.70703603  1
  Zn  Zn113  1  0.68812625  0.69003176  0.19279721  1
  Zn  Zn114  1  0.69002436  0.68684652  0.68821658  1
  Zn  Zn115  1  0.30715174  0.31589094  0.31177323  1
  Zn  Zn116  1  0.30876226  0.31484747  0.81024931  1
  Zn  Zn117  1  0.31530643  0.81338722  0.31278836  1
  Zn  Zn118  1  0.31524204  0.81571404  0.80898182  1
  Zn  Zn119  1  0.80533714  0.30645319  0.30733475  1
  Zn  Zn120  1  0.81128286  0.30546200  0.81076369  1
  Zn  Zn121  1  0.81133117  0.80930249  0.31277162  1
  Zn  Zn122  1  0.81447431  0.80945934  0.81183781  1
  Zn  Zn123  1  0.18558736  0.43674315  0.43724747  1
  Zn  Zn124  1  0.18513095  0.43508374  0.93627148  1
  Zn  Zn125  1  0.19131798  0.93656718  0.43809888  1
  Zn  Zn126  1  0.18360857  0.93810850  0.93659212  1
  Zn  Zn127  1  0.68639611  0.43840084  0.44040324  1
  Zn  Zn128  1  0.68606154  0.44028824  0.93042722  1
  Zn  Zn129  1  0.68992845  0.93671376  0.43858379  1
  Zn  Zn130  1  0.68769518  0.94135160  0.94466152  1
  Zn  Zn131  1  0.31401446  0.06390022  0.06002635  1
  Zn  Zn132  1  0.31388284  0.06416963  0.56063719  1
  Zn  Zn133  1  0.31102732  0.56096037  0.05995564  1
  Zn  Zn134  1  0.31021843  0.56042456  0.55560690  1
  Zn  Zn135  1  0.81940773  0.06407110  0.06046810  1
  Zn  Zn136  1  0.80920565  0.05712630  0.55909195  1
  Zn  Zn137  1  0.81135023  0.56327262  0.06539035  1
  Zn  Zn138  1  0.80844323  0.55503000  0.56248022  1
  Zn  Zn139  1  0.43776605  0.43795735  0.18433607  1
  Zn  Zn140  1  0.43713091  0.43494724  0.68507404  1
  Zn  Zn141  1  0.47224451  0.95545770  0.20864849  1
  Zn  Zn142  1  0.43893538  0.93458853  0.68929806  1
  Zn  Zn143  1  0.93266306  0.43694729  0.18403599  1
  Zn  Zn144  1  0.94100454  0.44027783  0.68210141  1
  Zn  Zn145  1  0.93972931  0.94060132  0.18334734  1
  Zn  Zn146  1  0.93651715  0.93513296  0.68729462  1
  Zn  Zn147  1  0.06215723  0.05975453  0.31223509  1
  Zn  Zn148  1  0.06220476  0.06394843  0.81155922  1
  Zn  Zn149  1  0.06075574  0.56103506  0.31593144  1
  Zn  Zn150  1  0.06605566  0.56204558  0.81042258  1
  Zn  Zn151  1  0.56263990  0.06698317  0.31595902  1
  Zn  Zn152  1  0.56590096  0.06623413  0.81007328  1
  Zn  Zn153  1  0.56377914  0.56378772  0.31630727  1
  Zn  Zn154  1  0.56623433  0.56123531  0.81726357  1
  Zn  Zn155  1  0.44019752  0.18510573  0.44497742  1
  Zn  Zn156  1  0.43359296  0.18664140  0.93773710  1
  Zn  Zn157  1  0.43694088  0.68458938  0.43913858  1
  Zn  Zn158  1  0.43920630  0.68604913  0.93776284  1
  Zn  Zn159  1  0.93179905  0.18429166  0.44009472  1
  Zn  Zn160  1  0.93264743  0.19217712  0.94178653  1
  Zn  Zn161  1  0.94078921  0.68146518  0.44097969  1
  Zn  Zn162  1  0.93895873  0.68932592  0.93875401  1
  Zn  Zn163  1  0.05919271  0.31274043  0.06007832  1
  Zn  Zn164  1  0.05815312  0.31603110  0.55805746  1
  Zn  Zn165  1  0.06175492  0.81487155  0.06158538  1
  Zn  Zn166  1  0.06196288  0.81096216  0.56261356  1
  Zn  Zn167  1  0.56415901  0.31323208  0.06014723  1
  Zn  Zn168  1  0.56588670  0.31019254  0.57159851  1
  Zn  Zn169  1  0.56565240  0.81488957  0.06893703  1
  Zn  Zn170  1  0.56272732  0.80933938  0.56458232  1
  O  O171  1  0.11336338  0.12589973  0.12716675  1
  O  O172  1  0.11303653  0.12114194  0.62199402  1
  O  O173  1  0.12413154  0.61668674  0.11895776  1
  O  O174  1  0.12965214  0.61601460  0.62589119  1
  O  O175  1  0.61671528  0.12699890  0.11494130  1
  O  O176  1  0.62001153  0.12649576  0.62314003  1
  O  O177  1  0.62626716  0.62531476  0.11411416  1
  O  O178  1  0.62969046  0.62019897  0.61589742  1
  O  O179  1  0.36724304  0.38695410  0.38270401  1
  O  O180  1  0.36550617  0.38405770  0.88612300  1
  O  O181  1  0.38010953  0.88122777  0.38426172  1
  O  O182  1  0.38115305  0.88234925  0.88090782  1
  O  O183  1  0.86823257  0.38210403  0.37240170  1
  O  O184  1  0.87557238  0.36451664  0.87587042  1
  O  O185  1  0.88064297  0.87717946  0.38127826  1
  O  O186  1  0.88858247  0.86759721  0.88257742  1
  O  O187  1  0.25611718  0.01188153  0.37441311  1
  O  O188  1  0.25348058  0.00578754  0.86962731  1
  O  O189  1  0.25640633  0.50809974  0.37467409  1
  O  O190  1  0.25434012  0.50622255  0.86740964  1
  O  O191  1  0.75731711  0.00922382  0.38064727  1
  O  O192  1  0.75117685  -0.00460865  0.86222361  1
  O  O193  1  0.76023089  0.50309940  0.37231089  1
  O  O194  1  0.74412600  0.50943268  0.85798213  1
  O  O195  1  0.23911125  0.49346241  0.12354107  1
  O  O196  1  0.24235106  0.49774387  0.62933136  1
  O  O197  1  0.25038383  0.99173649  0.12543257  1
  O  O198  1  0.24666793  0.99843219  0.63152628  1
  O  O199  1  0.74854729  0.49420500  0.13642626  1
  O  O200  1  0.73690461  0.50607507  0.63964282  1
  O  O201  1  0.75343472  0.99953874  0.12116107  1
  O  O202  1  0.75134475  0.98417607  0.63174811  1
  O  O203  1  0.01091237  0.37864352  0.24442639  1
  O  O204  1  0.01373603  0.38141923  0.74904284  1
  O  O205  1  0.00845885  0.86592568  0.25315786  1
  O  O206  1  0.00069551  0.86685649  0.75849424  1
  O  O207  1  0.51280289  0.37398791  0.24465143  1
  O  O208  1  0.50181107  0.36455162  0.74986701  1
  O  O209  1  0.49754359  0.85960071  0.26929531  1
  O  O210  1  0.50810997  0.87051911  0.75805198  1
  O  O211  1  0.49690293  0.13320920  0.23655612  1
  O  O212  1  0.50240678  0.13958392  0.74399783  1
  O  O213  1  0.50342189  0.63647678  0.24941925  1
  O  O214  1  0.50334370  0.63787616  0.75846874  1
  O  O215  1  0.99859027  0.12078842  0.23641561  1
  O  O216  1  0.98605853  0.11657329  0.74122490  1
  O  O217  1  1.00264632  0.63793037  0.24898850  1
  O  O218  1  0.99836647  0.63812186  0.75713493  1
  O  O219  1  0.36596605  0.25816329  0.00640880  1
  O  O220  1  0.36842798  0.25590010  0.50602610  1
  O  O221  1  0.37027893  0.75647546  0.00480974  1
  O  O222  1  0.36979603  0.75584075  0.50730539  1
  O  O223  1  0.87482828  0.25348879  0.01642632  1
  O  O224  1  0.86194755  0.24554974  0.50947080  1
  O  O225  1  0.87660526  0.75762110  0.01006116  1
  O  O226  1  0.88286314  0.75969582  0.50564795  1
  O  O227  1  0.13036180  0.24512393  0.49298752  1
  O  O228  1  0.13741384  0.25872424  0.99102289  1
  O  O229  1  0.13595264  0.75729485  0.49055192  1
  O  O230  1  0.13057423  0.74437488  0.99405879  1
  O  O231  1  0.63457838  0.24413491  0.49963211  1
  O  O232  1  0.62411209  0.23827710  0.99691427  1
  O  O233  1  0.62205885  0.74267409  0.49037991  1
  O  O234  1  0.62608416  0.74328753  0.99514308  1
  O  O235  1  0.48990356  0.24624162  0.12282139  1
  O  O236  1  0.48886505  0.24273355  0.63128192  1
  O  O237  1  0.49109311  0.75026399  0.13517414  1
  O  O238  1  0.49090641  0.75315550  0.63563327  1
  O  O239  1  0.99629281  0.23683966  0.11963648  1
  O  O240  1  0.98626896  0.24113525  0.61430957  1
  O  O241  1  0.99291904  0.74967555  0.13218939  1
  O  O242  1  0.99127099  0.75525284  0.63418715  1
  O  O243  1  0.00950978  0.24392705  0.38023206  1
  O  O244  1  0.01428095  0.24970606  0.88113710  1
  O  O245  1  0.00881345  0.75397047  0.36908915  1
  O  O246  1  0.00657641  0.75686713  0.86963329  1
  O  O247  1  0.51316939  0.24536077  0.37761612  1
  O  O248  1  0.49580343  0.24686296  0.86148070  1
  O  O249  1  0.50470337  0.75387626  0.37275683  1
  O  O250  1  0.50531201  0.75596135  0.87055679  1
  O  O251  1  0.24316390  0.13135469  0.49333873  1
  O  O252  1  0.25120969  0.13486849  0.99163026  1
  O  O253  1  0.25295693  0.63786752  0.48901869  1
  O  O254  1  0.24421658  0.63005342  0.99184396  1
  O  O255  1  0.74261828  0.13151896  0.49361685  1
  O  O256  1  0.73918545  0.12391878  0.99765924  1
  O  O257  1  0.73930916  0.61709460  0.49029038  1
  O  O258  1  0.74307124  0.62442541  0.99295851  1
  O  O259  1  0.25511780  0.37035896  0.00928960  1
  O  O260  1  0.25605276  0.36805880  0.50457323  1
  O  O261  1  0.25327569  0.86954423  0.00506955  1
  O  O262  1  0.26106221  0.86510092  0.50331203  1
  O  O263  1  0.74557254  0.38633533  0.01310500  1
  O  O264  1  0.74589565  0.35892041  0.50129538  1
  O  O265  1  0.76584865  0.87364841  -0.00366351  1
  O  O266  1  0.75879294  0.87319719  0.50802149  1
  O  O267  1  0.12619264  0.49488891  0.24170151  1
  O  O268  1  0.13114894  0.49611402  0.73740476  1
  O  O269  1  0.12762682  0.98617518  0.24733763  1
  O  O270  1  0.13283088  0.99934608  0.74102087  1
  O  O271  1  0.63086211  0.49405002  0.25153256  1
  O  O272  1  0.62656035  0.49493729  0.74552540  1
  O  O273  1  0.58632665  0.99071739  0.23721620  1
  O  O274  1  0.63790533  0.99429373  0.75015314  1
  O  O275  1  0.37798877  0.00180216  0.26610044  1
  O  O276  1  0.36835037  -0.00554334  0.76275795  1
  O  O277  1  0.37126829  0.49296045  0.26243412  1
  O  O278  1  0.36751203  0.49330027  0.76000609  1
  O  O279  1  0.88140552  0.00070384  0.26301435  1
  O  O280  1  0.86824631  0.00474977  0.75113841  1
  O  O281  1  0.86791802  0.49929902  0.26097457  1
  O  O282  1  0.86262919  0.50227245  0.74007319  1
  O  O283  1  0.13212843  0.36495403  0.36434796  1
  O  O284  1  0.12645303  0.36680000  0.86385737  1
  O  O285  1  0.12499878  0.86670645  0.36748847  1
  O  O286  1  0.11514889  0.86788738  0.87365780  1
  O  O287  1  0.62985457  0.36694188  0.36870058  1
  O  O288  1  0.62585465  0.37101545  0.86065229  1
  O  O289  1  0.61684783  0.86727705  0.38149012  1
  O  O290  1  0.62059028  0.87052394  0.87347017  1
  O  O291  1  0.37969533  0.13677960  0.12444142  1
  O  O292  1  0.38157257  0.13646468  0.61950052  1
  O  O293  1  0.37402858  0.63810988  0.11832105  1
  O  O294  1  0.37000903  0.63515250  0.62058570  1
  O  O295  1  0.88684208  0.13218364  0.12699676  1
  O  O296  1  0.88549468  0.12170737  0.62310180  1
  O  O297  1  0.87782997  0.63335673  0.13057566  1
  O  O298  1  0.86785252  0.63758890  0.62100489  1
  O  O299  1  0.25354220  0.25542319  0.11781771  1
  O  O300  1  0.25608894  0.25203793  0.62052100  1
  O  O301  1  0.25548847  0.75486258  0.12042764  1
  O  O302  1  0.25676033  0.75526727  0.61928892  1
  O  O303  1  0.75456208  0.26191881  0.12873518  1
  O  O304  1  0.76097092  0.24289609  0.61432159  1
  O  O305  1  0.76346933  0.75162977  0.12653657  1
  O  O306  1  0.76035709  0.76287451  0.63381897  1
  O  O307  1  0.24757567  0.23891810  0.37915921  1
  O  O308  1  0.24627060  0.24346482  0.88056128  1
  O  O309  1  0.24682994  0.74536939  0.38134683  1
  O  O310  1  0.24845966  0.74376113  0.87648820  1
  O  O311  1  0.74212654  0.24292259  0.38757038  1
  O  O312  1  0.72880949  0.23362447  0.81417162  1
  O  O313  1  0.74207607  0.73732381  0.37363313  1
  O  O314  1  0.74191330  0.74219374  0.87539955  1
  O  O315  1  -0.00235027  0.11461353  0.00435705  1
  O  O316  1  0.00565066  0.11962761  0.50608241  1
  O  O317  1  0.00658520  0.61409678  -0.00087787  1
  O  O318  1  0.00868359  0.60449894  0.48846284  1
  O  O319  1  0.49992147  0.12154078  0.00804728  1
  O  O320  1  0.51289140  0.13124834  0.51515054  1
  O  O321  1  0.50849197  0.61841799  0.00217081  1
  O  O322  1  0.51447924  0.62158245  0.49567133  1
  O  O323  1  0.48783253  0.37298055  0.50583002  1
  O  O324  1  0.48862992  0.38316803  1.00344880  1
  O  O325  1  0.48820213  0.86856859  0.49426472  1
  O  O326  1  0.49643989  0.88495906  0.99573464  1
  O  O327  1  1.01326675  0.39862298  0.49598705  1
  O  O328  1  1.00020525  0.38936075  0.99638873  1
  O  O329  1  0.99382594  0.87544676  0.49225153  1
  O  O330  1  0.99329938  0.88139160  0.99402289  1
  O  O331  1  0.48612832  0.50022589  0.37663973  1
  O  O332  1  0.48892361  0.50544591  0.88550864  1
  O  O333  1  0.49268606  0.99057931  0.37933765  1
  O  O334  1  0.49269589  1.00011246  0.88208397  1
  O  O335  1  0.98303231  0.49932856  0.37634919  1
  O  O336  1  1.00546931  0.49835605  0.88627382  1
  O  O337  1  0.99407655  0.99120847  0.37674107  1
  O  O338  1  1.00640047  0.99311176  0.88579733  1
  O  O339  1  0.00367689  0.01252573  0.11525741  1
  O  O340  1  0.00726849  0.00417500  0.62267900  1
  O  O341  1  0.00848307  0.50092539  0.11624557  1
  O  O342  1  0.01202766  0.50455077  0.61747372  1
  O  O343  1  0.48628660  0.01243413  0.10875805  1
  O  O344  1  0.50063757  0.01563376  0.63604446  1
  O  O345  1  0.49954166  0.50449022  0.11277432  1
  O  O346  1  0.50997287  0.50188625  0.62532776  1
  O  O347  1  0.24264847  0.37667001  0.23520174  1
  O  O348  1  0.24233280  0.38750201  0.74368203  1
  O  O349  1  0.24508311  0.87576391  0.24251367  1
  O  O350  1  0.24844271  0.88739321  0.74456265  1
  O  O351  1  0.73954817  0.38442635  0.24424212  1
  O  O352  1  0.74108864  0.39051294  0.74858280  1
  O  O353  1  0.74643297  0.87783784  0.25690266  1
  O  O354  1  0.74843474  0.88280787  0.74610171  1
  O  O355  1  0.25432181  0.12264319  0.25839971  1
  O  O356  1  0.25027298  0.11305271  0.75472149  1
  O  O357  1  0.24938959  0.62535698  0.26263216  1
  O  O358  1  0.24844300  0.61304304  0.75670493  1
  O  O359  1  0.74538325  0.12950962  0.26683119  1
  O  O360  1  0.76663421  0.10293774  0.73597540  1
  O  O361  1  0.74781342  0.61187557  0.26077418  1
  O  O362  1  0.75162956  0.61683271  0.75790521  1
  O  O363  1  0.36945797  0.11942765  0.37839624  1
  O  O364  1  0.36144888  0.11723251  0.87739067  1
  O  O365  1  0.36865913  0.60881909  0.38055285  1
  O  O366  1  0.36336159  0.61577112  0.88103997  1
  O  O367  1  0.86568090  0.11534660  0.37420823  1
  O  O368  1  0.87884822  0.13263306  0.85813745  1
  O  O369  1  0.86561151  0.62177024  0.37303094  1
  O  O370  1  0.86233154  0.63061278  0.87468857  1
  O  O371  1  0.12929896  0.38074181  0.12857022  1
  O  O372  1  0.13131279  0.37774881  0.63023472  1
  O  O373  1  0.13774593  0.87227524  0.13161327  1
  O  O374  1  0.13367638  0.88261572  0.62420599  1
  O  O375  1  0.63120292  0.37661148  0.13296903  1
  O  O376  1  0.62185530  0.38644489  0.63735764  1
  O  O377  1  0.63268664  0.88052601  0.12841427  1
  O  O378  1  0.63237247  0.87492906  0.63145842  1
  O  O379  1  0.12674690  0.25954718  0.25980956  1
  O  O380  1  0.13211036  0.26058475  0.75773427  1
  O  O381  1  0.12102541  0.75942973  0.25563084  1
  O  O382  1  0.11948400  0.75334314  0.75447761  1
  O  O383  1  0.62421625  0.25837042  0.26249928  1
  O  O384  1  0.60194066  0.26157005  0.73628420  1
  O  O385  1  0.61716967  0.75054054  0.26475407  1
  O  O386  1  0.61908136  0.75620611  0.75608455  1
  O  O387  1  0.37451873  0.25386517  0.23788938  1
  O  O388  1  0.38222207  0.25705288  0.74090905  1
  O  O389  1  0.38180524  0.75143475  0.24224446  1
  O  O390  1  0.38431482  0.75405790  0.74036676  1
  O  O391  1  0.87081959  0.24655506  0.23522780  1
  O  O392  1  0.87264770  0.23098986  0.72986502  1
  O  O393  1  0.88576161  0.74868414  0.24445394  1
  O  O394  1  0.88344525  0.74717559  0.74032053  1
  O  O395  1  0.37660508  0.49039917  0.49190478  1
  O  O396  1  0.37885657  0.49349133  0.99164875  1
  O  O397  1  0.36888004  0.99023882  0.49037595  1
  O  O398  1  0.37899334  0.99525938  0.98804634  1
  O  O399  1  0.88016461  0.49865605  0.48909888  1
  O  O400  1  0.88884842  0.49970284  1.00398409  1
  O  O401  1  0.87533054  0.98587551  0.49030680  1
  O  O402  1  0.89213958  0.99229280  1.00038043  1
  O  O403  1  0.10946965  -0.00598309  0.00405954  1
  O  O404  1  0.12729300  0.00648430  0.50786715  1
  O  O405  1  0.11914908  0.50360406  0.00646313  1
  O  O406  1  0.12765672  0.50166622  0.51386150  1
  O  O407  1  0.61522154  0.01226946  0.00263500  1
  O  O408  1  0.62987123  0.01278864  0.50605215  1
  O  O409  1  0.61572673  0.50687426  -0.00098778  1
  O  O410  1  0.62264274  0.50538280  0.50964009  1
  O  O411  1  0.36634738  0.37115415  0.11629658  1
  O  O412  1  0.36721304  0.36705943  0.61652277  1
  O  O413  1  0.36316152  0.86512443  0.11976063  1
  O  O414  1  0.37030398  0.87146244  0.61829608  1
  O  O415  1  0.86369468  0.36945843  0.12230935  1
  O  O416  1  0.87932734  0.35829903  0.62887368  1
  O  O417  1  0.87794538  0.86821392  0.11689960  1
  O  O418  1  0.87039240  0.86764076  0.61629512  1
  O  O419  1  0.13155935  0.13034530  0.37718471  1
  O  O420  1  0.13766556  0.13342233  0.86727529  1
  O  O421  1  0.13327774  0.63747687  0.36991365  1
  O  O422  1  0.13747056  0.62967761  0.87786679  1
  O  O423  1  0.62877011  0.13065894  0.38604299  1
  O  O424  1  0.61961897  0.12639378  0.89187948  1
  O  O425  1  0.63273434  0.63030164  0.38337606  1
  O  O426  1  0.63244279  0.63057326  0.88627479  1
