# generated using pymatgen
data_V85Zn86O256
_symmetry_space_group_name_H-M   'P 1'
_cell_length_a   16.93067705
_cell_length_b   16.92780843
_cell_length_c   16.92725931
_cell_angle_alpha   89.96332402
_cell_angle_beta   90.03068269
_cell_angle_gamma   90.00367365
_symmetry_Int_Tables_number   1
_chemical_formula_structural   V85Zn86O256
_chemical_formula_sum   'V85 Zn86 O256'
_cell_volume   4851.33825277
_cell_formula_units_Z   1
loop_
 _symmetry_equiv_pos_site_id
 _symmetry_equiv_pos_as_xyz
  1  'x, y, z'
loop_
 _atom_site_type_symbol
 _atom_site_label
 _atom_site_symmetry_multiplicity
 _atom_site_fract_x
 _atom_site_fract_y
 _atom_site_fract_z
 _atom_site_occupancy
  V  V0  1  0.12292822  0.86262094  0.75259007  1
  V  V1  1  0.25631007  0.37656056  0.10761589  1
  V  V2  1  0.37825890  0.87741730  0.00098255  1
  V  V3  1  0.12316557  0.00169434  0.12570289  1
  V  V4  1  0.05643079  0.16590293  0.06716670  1
  V  V5  1  0.74906177  -0.00909539  0.74339532  1
  V  V6  1  0.37492695  0.12892356  0.75174639  1
  V  V7  1  0.87747014  0.60981007  0.25846989  1
  V  V8  1  0.74600058  0.38269495  0.11781924  1
  V  V9  1  0.62362859  0.38223241  0.74751360  1
  V  V10  1  0.12100174  0.63303841  -0.00585577  1
  V  V11  1  0.62351442  0.75183011  0.36570506  1
  V  V12  1  0.38281069  0.87949738  0.50181636  1
  V  V13  1  -0.00185603  0.50226309  0.49061955  1
  V  V14  1  0.87120677  0.62014871  0.74941261  1
  V  V15  1  0.12623712  0.12700181  0.50002973  1
  V  V16  1  0.24684187  0.49774917  0.75137293  1
  V  V17  1  0.87026121  0.87700889  0.50472448  1
  V  V18  1  -0.01221788  0.75260261  0.24688305  1
  V  V19  1  -0.00843202  0.62944374  0.12158150  1
  V  V20  1  0.25226601  0.00287035  0.25201606  1
  V  V21  1  0.38205934  0.13845238  0.25281412  1
  V  V22  1  0.50806986  0.48679296  -0.00456682  1
  V  V23  1  0.87395548  0.12237429  0.74658254  1
  V  V24  1  0.38081010  0.25745283  0.10860478  1
  V  V25  1  0.74837316  0.12566525  0.37408871  1
  V  V26  1  0.00034332  0.62796286  0.62762073  1
  V  V27  1  0.61570594  0.12289568  0.49907107  1
  V  V28  1  0.87190254  0.38053427  0.49244440  1
  V  V29  1  0.38853392  0.62796295  0.25091989  1
  V  V30  1  0.25228265  0.49842775  0.24870091  1
  V  V31  1  0.24841099  -0.00054517  0.75121396  1
  V  V32  1  0.00147905  0.24649885  0.24808459  1
  V  V33  1  0.62261921  -0.00753931  0.62053752  1
  V  V34  1  0.37803131  0.00190780  0.88233363  1
  V  V35  1  -0.00539231  0.49182862  -0.00875141  1
  V  V36  1  0.74796166  0.25177694  0.50241225  1
  V  V37  1  0.12412360  0.25397687  0.37572261  1
  V  V38  1  0.74983796  0.86969837  0.12851140  1
  V  V39  1  0.60862322  0.25174667  0.86646250  1
  V  V40  1  0.12542044  0.87614214  0.25084446  1
  V  V41  1  0.12581294  0.75101411  0.37450464  1
  V  V42  1  0.37704839  0.25900663  0.62643195  1
  V  V43  1  0.50455383  0.87333371  0.36316266  1
  V  V44  1  0.87401387  0.00081521  0.37368969  1
  V  V45  1  0.49793899  0.37227140  0.36543450  1
  V  V46  1  0.87451011  0.86537458  0.00452255  1
  V  V47  1  0.74693057  0.12436753  0.87613223  1
  V  V48  1  0.87549234  -0.00510922  0.87538976  1
  V  V49  1  0.49924844  0.61789327  0.62579417  1
  V  V50  1  0.50349871  0.87830496  0.87905880  1
  V  V51  1  0.74324513  0.74397572  0.00313607  1
  V  V52  1  0.24935657  0.75105372  -0.00026918  1
  V  V53  1  0.12536050  0.50518044  0.12370925  1
  V  V54  1  0.24943731  0.63007257  0.87584172  1
  V  V55  1  0.51541959  0.62102956  0.11563812  1
  V  V56  1  0.00320220  0.25556953  0.75575760  1
  V  V57  1  0.25218228  0.62665781  0.37545633  1
  V  V58  1  0.87076474  0.48619609  0.87122318  1
  V  V59  1  0.37503174  0.75109887  0.62456505  1
  V  V60  1  0.87590793  0.12381915  0.24056921  1
  V  V61  1  0.74544043  0.62102895  0.87587945  1
  V  V62  1  0.12578902  -0.00219451  0.62482006  1
  V  V63  1  0.37775302  0.61710737  0.75630369  1
  V  V64  1  0.61894406  -0.00402948  0.12086912  1
  V  V65  1  0.49869004  0.48797922  0.50462296  1
  V  V66  1  0.87293891  0.25300861  0.11562008  1
  V  V67  1  0.00005037  0.12581730  0.62449618  1
  V  V68  1  0.50195422  0.74998893  0.75261790  1
  V  V69  1  0.25223690  0.87477148  0.12588319  1
  V  V70  1  -0.00097474  0.87729117  0.37532369  1
  V  V71  1  0.62402859  0.62461923  0.49893827  1
  V  V72  1  0.37524450  0.49528988  0.38214171  1
  V  V73  1  0.49788505  0.12343827  0.62836678  1
  V  V74  1  0.62021919  0.25099611  0.36583891  1
  V  V75  1  0.74227027  -0.00412151  0.24893846  1
  V  V76  1  0.87482764  0.75369373  0.63278818  1
  V  V77  1  0.00338721  -0.00419048  0.00195800  1
  V  V78  1  0.25253611  0.26147680  0.50247697  1
  V  V79  1  0.00382191  0.85963491  0.87240227  1
  V  V80  1  0.74710820  0.75312728  0.50599218  1
  V  V81  1  0.38515132  0.75112748  0.13010421  1
  V  V82  1  0.38143567  0.00244252  0.37875350  1
  V  V83  1  0.23618199  0.12508661  0.88977876  1
  V  V84  1  0.61590923  0.12116440  -0.00165298  1
  Zn  Zn85  1  0.62157579  0.37942397  0.24162565  1
  Zn  Zn86  1  -0.00635801  0.38027016  0.36779390  1
  Zn  Zn87  1  0.75445197  0.38828544  0.62940475  1
  Zn  Zn88  1  0.25137712  0.75267577  0.49929940  1
  Zn  Zn89  1  0.12553256  0.62506090  0.50135697  1
  Zn  Zn90  1  0.50297569  0.12907032  0.12718792  1
  Zn  Zn91  1  0.12070036  0.25684530  0.89106580  1
  Zn  Zn92  1  -0.00032435  0.00055365  0.49861091  1
  Zn  Zn93  1  0.24657020  0.37927887  0.62597910  1
  Zn  Zn94  1  0.11581966  0.38241017  0.75593611  1
  Zn  Zn95  1  0.24988180  0.87482503  0.62327583  1
  Zn  Zn96  1  0.75015082  0.25313980  -0.00370198  1
  Zn  Zn97  1  0.12497366  0.37635824  0.24849087  1
  Zn  Zn98  1  0.87400678  0.25168223  0.62266817  1
  Zn  Zn99  1  0.75702754  0.61989562  0.37925093  1
  Zn  Zn100  1  0.62838267  0.87183774  0.74782925  1
  Zn  Zn101  1  0.36686188  0.46726753  0.90675273  1
  Zn  Zn102  1  0.12242002  0.49953844  0.62532938  1
  Zn  Zn103  1  0.63583081  0.50443435  0.63048629  1
  Zn  Zn104  1  0.74143686  0.49496185  0.25613862  1
  Zn  Zn105  1  0.62372743  0.74632335  0.87841715  1
  Zn  Zn106  1  0.25309609  0.12774478  0.37699076  1
  Zn  Zn107  1  0.19983879  0.19442408  0.19029601  1
  Zn  Zn108  1  0.18883073  0.18782970  0.68911624  1
  Zn  Zn109  1  0.18832790  0.68765322  0.18810599  1
  Zn  Zn110  1  0.18984370  0.68411271  0.68645536  1
  Zn  Zn111  1  0.68934764  0.18822681  0.18449458  1
  Zn  Zn112  1  0.68795058  0.18410638  0.68611063  1
  Zn  Zn113  1  0.69493417  0.68692155  0.18916053  1
  Zn  Zn114  1  0.68970877  0.68493450  0.68748388  1
  Zn  Zn115  1  0.31103365  0.31675113  0.31438039  1
  Zn  Zn116  1  0.30023487  0.30646632  0.82169047  1
  Zn  Zn117  1  0.31621278  0.81403062  0.31246406  1
  Zn  Zn118  1  0.31338794  0.81204245  0.81266454  1
  Zn  Zn119  1  0.81006154  0.31361911  0.30874186  1
  Zn  Zn120  1  0.80834140  0.30852033  0.80738560  1
  Zn  Zn121  1  0.80811892  0.81124571  0.31654089  1
  Zn  Zn122  1  0.81277034  0.80920746  0.81617949  1
  Zn  Zn123  1  0.18232553  0.43916546  0.43843856  1
  Zn  Zn124  1  0.17944426  0.44260075  0.93032067  1
  Zn  Zn125  1  0.19312202  0.93828363  0.43892422  1
  Zn  Zn126  1  0.18612782  0.93727711  0.93659511  1
  Zn  Zn127  1  0.68705772  0.44016872  0.43379859  1
  Zn  Zn128  1  0.68439494  0.43498937  0.93879241  1
  Zn  Zn129  1  0.68580284  0.93743618  0.43809752  1
  Zn  Zn130  1  0.68705041  0.93598871  0.93781183  1
  Zn  Zn131  1  0.31580918  0.06539323  0.06674031  1
  Zn  Zn132  1  0.31135948  0.06473010  0.56231307  1
  Zn  Zn133  1  0.31636779  0.56540010  0.06330879  1
  Zn  Zn134  1  0.31276097  0.56262550  0.56418658  1
  Zn  Zn135  1  0.80981543  0.05852563  0.06023730  1
  Zn  Zn136  1  0.80758787  0.06255960  0.56115118  1
  Zn  Zn137  1  0.81384274  0.56119729  0.06117945  1
  Zn  Zn138  1  0.81303148  0.56209942  0.55939767  1
  Zn  Zn139  1  0.44084988  0.44248270  0.18201239  1
  Zn  Zn140  1  0.42267125  0.40510693  0.74450146  1
  Zn  Zn141  1  0.43825660  0.94148447  0.19069204  1
  Zn  Zn142  1  0.43951172  0.94075573  0.69109600  1
  Zn  Zn143  1  0.93675953  0.43388831  0.17933359  1
  Zn  Zn144  1  0.93150814  0.44010574  0.67995760  1
  Zn  Zn145  1  0.93526732  0.93858006  0.18487634  1
  Zn  Zn146  1  0.94128872  0.93636842  0.68745101  1
  Zn  Zn147  1  0.06223425  0.06605313  0.31219841  1
  Zn  Zn148  1  0.06059765  0.05620248  0.81280070  1
  Zn  Zn149  1  0.06404702  0.56511093  0.31123618  1
  Zn  Zn150  1  0.05888449  0.56966494  0.81204600  1
  Zn  Zn151  1  0.56061869  0.06025523  0.31226915  1
  Zn  Zn152  1  0.56143733  0.06192562  0.80876060  1
  Zn  Zn153  1  0.56725829  0.55865859  0.31427547  1
  Zn  Zn154  1  0.56031104  0.55675916  0.82188967  1
  Zn  Zn155  1  0.43768033  0.19144885  0.44218845  1
  Zn  Zn156  1  0.43593575  0.18543835  0.93736173  1
  Zn  Zn157  1  0.44031445  0.68911144  0.43849732  1
  Zn  Zn158  1  0.43721656  0.68669214  0.94023747  1
  Zn  Zn159  1  0.93587485  0.19025547  0.43492656  1
  Zn  Zn160  1  0.93115523  0.18634974  0.93031619  1
  Zn  Zn161  1  0.93851130  0.69111675  0.44031403  1
  Zn  Zn162  1  0.93042372  0.68427114  0.93557715  1
  Zn  Zn163  1  0.06466451  0.32954802  0.06461810  1
  Zn  Zn164  1  0.06103086  0.31850830  0.56734376  1
  Zn  Zn165  1  0.06250722  0.81240182  0.06437349  1
  Zn  Zn166  1  0.06009732  0.81184582  0.56214251  1
  Zn  Zn167  1  0.56568436  0.30841918  0.05735644  1
  Zn  Zn168  1  0.56379012  0.31109815  0.56948064  1
  Zn  Zn169  1  0.56456811  0.81225529  0.06455041  1
  Zn  Zn170  1  0.55807538  0.81185787  0.55958280  1
  O  O171  1  0.12852126  0.12081854  0.13008661  1
  O  O172  1  0.11909428  0.12044627  0.61845793  1
  O  O173  1  0.11595591  0.62206695  0.11931953  1
  O  O174  1  0.11469184  0.62744495  0.62173889  1
  O  O175  1  0.62534812  0.11895126  0.11589383  1
  O  O176  1  0.61638335  0.11873059  0.61838786  1
  O  O177  1  0.61223285  0.63371077  0.13076716  1
  O  O178  1  0.61608809  0.62824321  0.61570132  1
  O  O179  1  0.38013036  0.38724999  0.37526656  1
  O  O180  1  0.38093439  0.37613554  0.84675449  1
  O  O181  1  0.38426300  0.88160583  0.37981444  1
  O  O182  1  0.38005743  0.88303860  0.88016560  1
  O  O183  1  0.87685536  0.36561042  0.38723122  1
  O  O184  1  0.86930649  0.38707771  0.86871277  1
  O  O185  1  0.87898989  0.88127153  0.38138274  1
  O  O186  1  0.88149839  0.87808173  0.88248586  1
  O  O187  1  0.25916969  0.00358211  0.36772423  1
  O  O188  1  0.25595457  0.00606481  0.86969987  1
  O  O189  1  0.25616767  0.50592140  0.37115050  1
  O  O190  1  0.25580649  0.51355849  0.87095478  1
  O  O191  1  0.75342774  0.00374049  0.36646682  1
  O  O192  1  0.75460179  0.00675513  0.86767413  1
  O  O193  1  0.74883022  0.50758198  0.37106995  1
  O  O194  1  0.76415756  0.50548698  0.88313157  1
  O  O195  1  0.24809746  0.49914754  0.13301653  1
  O  O196  1  0.24724599  0.50249246  0.63501075  1
  O  O197  1  0.24605227  0.99498612  0.13225839  1
  O  O198  1  0.24487816  0.99831457  0.63356431  1
  O  O199  1  0.75814398  0.48549060  0.12679968  1
  O  O200  1  0.74931316  0.50310943  0.62764822  1
  O  O201  1  0.74240419  0.99288723  0.13156984  1
  O  O202  1  0.73813568  1.00510478  0.63307345  1
  O  O203  1  0.00179800  0.36118759  0.24630284  1
  O  O204  1  -0.00785364  0.35700437  0.74234857  1
  O  O205  1  0.00409291  0.86959151  0.25384364  1
  O  O206  1  0.00986680  0.87878966  0.76004936  1
  O  O207  1  0.49795404  0.37879854  0.26227565  1
  O  O208  1  0.52581903  0.35797835  0.74102159  1
  O  O209  1  0.49577837  0.87300274  0.26409960  1
  O  O210  1  0.49779592  0.86622047  0.76128947  1
  O  O211  1  0.48555735  0.12053650  0.24728049  1
  O  O212  1  0.48707377  0.12099841  0.74230898  1
  O  O213  1  0.49061816  0.62068626  0.24287092  1
  O  O214  1  0.49494400  0.62931718  0.74587270  1
  O  O215  1  0.99110115  0.13609782  0.25196920  1
  O  O216  1  0.99223506  0.12561589  0.74275547  1
  O  O217  1  0.99264338  0.63191241  0.24392393  1
  O  O218  1  0.98587244  0.62552298  0.74081898  1
  O  O219  1  0.37234993  0.24742407  0.01027483  1
  O  O220  1  0.36255138  0.24295827  0.51210633  1
  O  O221  1  0.36879104  0.75628974  0.01032780  1
  O  O222  1  0.37580927  0.75760369  0.50869492  1
  O  O223  1  0.87548605  0.24147996  0.01198482  1
  O  O224  1  0.86459398  0.25334876  0.49992872  1
  O  O225  1  0.86759349  0.76087668  -0.00147168  1
  O  O226  1  0.86658879  0.75740657  0.50658691  1
  O  O227  1  0.12840802  0.24580556  0.49473190  1
  O  O228  1  0.10703240  0.23853322  1.00847743  1
  O  O229  1  0.12761206  0.75145294  0.48601942  1
  O  O230  1  0.13205288  0.74016351  1.00680322  1
  O  O231  1  0.63033515  0.24167768  0.49387466  1
  O  O232  1  0.62833681  0.24001175  0.98417182  1
  O  O233  1  0.63075892  0.74610196  0.49681935  1
  O  O234  1  0.63923879  0.75377566  0.99782058  1
  O  O235  1  0.48596996  0.24950227  0.12184976  1
  O  O236  1  0.49001292  0.23484891  0.61717512  1
  O  O237  1  0.49058864  0.74404737  0.12387480  1
  O  O238  1  0.49127018  0.74265656  0.63106220  1
  O  O239  1  0.99878258  0.24378906  0.12709880  1
  O  O240  1  0.99784699  0.23705011  0.63171417  1
  O  O241  1  1.00466432  0.74239298  0.13571985  1
  O  O242  1  0.98839823  0.73795218  0.61571036  1
  O  O243  1  0.00768398  0.25124781  0.36557708  1
  O  O244  1  0.00092801  0.24120464  0.85939409  1
  O  O245  1  0.00772503  0.75669730  0.36824757  1
  O  O246  1  -0.00310237  0.76055140  0.87980552  1
  O  O247  1  0.50633263  0.26133245  0.38272812  1
  O  O248  1  0.51026219  0.24462356  0.87356347  1
  O  O249  1  0.50759897  0.76312011  0.37943728  1
  O  O250  1  0.50147468  0.75502711  0.86785314  1
  O  O251  1  0.23743154  0.13355394  0.49999254  1
  O  O252  1  0.24873978  0.11588633  0.98797248  1
  O  O253  1  0.25096360  0.62841331  0.48627878  1
  O  O254  1  0.24188648  0.62912052  0.99487913  1
  O  O255  1  0.74134597  0.13089675  0.49135459  1
  O  O256  1  0.74153308  0.12298571  0.99026999  1
  O  O257  1  0.74037127  0.63452351  0.49903946  1
  O  O258  1  0.75976251  0.63423542  0.99206673  1
  O  O259  1  0.25134710  0.39075834  0.00869012  1
  O  O260  1  0.24598201  0.36531614  0.50304023  1
  O  O261  1  0.25615033  0.87140951  0.00578798  1
  O  O262  1  0.26514324  0.87260954  0.50154163  1
  O  O263  1  0.74956046  0.37150859  0.01146337  1
  O  O264  1  0.75387787  0.36688668  0.50041449  1
  O  O265  1  0.75778634  0.86883234  0.00543611  1
  O  O266  1  0.76164601  0.86929727  0.49567996  1
  O  O267  1  0.13391554  0.50262442  0.24291885  1
  O  O268  1  0.13310045  0.50640218  0.75011409  1
  O  O269  1  0.13145495  0.99682707  0.24751820  1
  O  O270  1  0.13194859  0.99359314  0.74349575  1
  O  O271  1  0.62559902  0.49418525  0.24850422  1
  O  O272  1  0.62027285  0.48646901  0.75253133  1
  O  O273  1  0.63756237  1.00610881  0.24309291  1
  O  O274  1  0.63300672  0.99882110  0.74049966  1
  O  O275  1  0.37068491  0.00837819  0.25962029  1
  O  O276  1  0.36630153  0.00559737  0.75995961  1
  O  O277  1  0.37000782  0.50871810  0.25786595  1
  O  O278  1  0.36943541  0.51344728  0.74344696  1
  O  O279  1  0.86755705  0.00736423  0.25261199  1
  O  O280  1  0.86986142  0.00601039  0.75143312  1
  O  O281  1  0.88315114  0.50926552  0.25102578  1
  O  O282  1  0.88007472  0.50573166  0.76274404  1
  O  O283  1  0.12226180  0.36389439  0.37128068  1
  O  O284  1  0.12551750  0.36839603  0.86913877  1
  O  O285  1  0.12144315  0.87098996  0.37018953  1
  O  O286  1  0.11592145  0.87863753  0.86601396  1
  O  O287  1  0.61462016  0.36543949  0.37592834  1
  O  O288  1  0.63150128  0.35811335  0.86440411  1
  O  O289  1  0.61190311  0.86975575  0.38039462  1
  O  O290  1  0.61652280  0.87312764  0.87065514  1
  O  O291  1  0.37521439  0.13877110  0.13487734  1
  O  O292  1  0.38010185  0.12614236  0.63266948  1
  O  O293  1  0.38131519  0.63483797  0.13425620  1
  O  O294  1  0.38170059  0.63343791  0.63186905  1
  O  O295  1  0.86826201  0.12814424  0.13575787  1
  O  O296  1  0.88259028  0.12284031  0.63017414  1
  O  O297  1  0.88738863  0.62181082  0.13472877  1
  O  O298  1  0.87919862  0.63329443  0.63065101  1
  O  O299  1  0.26393435  0.26503438  0.12793124  1
  O  O300  1  0.25638366  0.25143669  0.61895504  1
  O  O301  1  0.25869359  0.75622736  0.12174477  1
  O  O302  1  0.26452611  0.75116454  0.62489052  1
  O  O303  1  0.75984304  0.25448199  0.12099029  1
  O  O304  1  0.75078737  0.24327654  0.60970374  1
  O  O305  1  0.74989511  0.75909469  0.11843548  1
  O  O306  1  0.75680628  0.74885332  0.61374534  1
  O  O307  1  0.24307250  0.24976964  0.38331976  1
  O  O308  1  0.23869054  0.23006071  0.87499396  1
  O  O309  1  0.24421286  0.74350887  0.37259214  1
  O  O310  1  0.25511197  0.73930763  0.88252728  1
  O  O311  1  0.74099771  0.24486102  0.38237640  1
  O  O312  1  0.75215737  0.23255613  0.87562916  1
  O  O313  1  0.74264392  0.74598338  0.38755787  1
  O  O314  1  0.74927050  0.74134725  0.88406619  1
  O  O315  1  -0.00673996  0.11288999  0.00014927  1
  O  O316  1  0.00982702  0.12666017  0.50576221  1
  O  O317  1  0.00414821  0.62518547  0.00576737  1
  O  O318  1  -0.00040699  0.61844459  0.50487916  1
  O  O319  1  0.51178687  0.12399945  0.00177762  1
  O  O320  1  0.51058718  0.12408899  0.50470799  1
  O  O321  1  0.50359462  0.62989725  0.01384659  1
  O  O322  1  0.50510245  0.62043353  0.50824872  1
  O  O323  1  0.50421567  0.38578317  0.49732007  1
  O  O324  1  0.50221903  0.38682458  1.00419607  1
  O  O325  1  0.48725505  0.87472036  0.49126718  1
  O  O326  1  0.49413181  0.86830947  0.98735872  1
  O  O327  1  0.99198688  0.38424812  0.49790813  1
  O  O328  1  0.99749569  0.39291341  0.99935295  1
  O  O329  1  0.98874064  0.87664522  0.49285073  1
  O  O330  1  0.99371877  0.87792840  0.99611472  1
  O  O331  1  0.49225970  0.49410124  0.38500968  1
  O  O332  1  0.48870819  0.50592108  0.89144020  1
  O  O333  1  0.49391442  0.98737893  0.37291311  1
  O  O334  1  0.48949185  0.99143729  0.86917012  1
  O  O335  1  1.00594411  0.49921647  0.38521645  1
  O  O336  1  0.98890438  0.50711355  0.88445213  1
  O  O337  1  0.99332396  0.99532572  0.37525571  1
  O  O338  1  0.99311496  0.99148923  0.88378529  1
  O  O339  1  0.00889777  -0.00237808  0.11739206  1
  O  O340  1  0.00631438  0.01118316  0.62233954  1
  O  O341  1  0.00331675  0.50775312  0.11287773  1
  O  O342  1  -0.00236028  0.51351634  0.61586698  1
  O  O343  1  0.51524004  0.00051397  0.13032801  1
  O  O344  1  0.50689012  0.01199143  0.62837668  1
  O  O345  1  0.50102724  0.51475858  0.11585637  1
  O  O346  1  0.50209586  0.51316037  0.61986524  1
  O  O347  1  0.25048993  0.39009925  0.24744644  1
  O  O348  1  0.24904209  0.39152376  0.75071991  1
  O  O349  1  0.24634001  0.88238934  0.24607620  1
  O  O350  1  0.24540015  0.88554031  0.75094765  1
  O  O351  1  0.74868184  0.37383991  0.23576933  1
  O  O352  1  0.73132809  0.35777018  0.74201125  1
  O  O353  1  0.75733283  0.88429983  0.24220953  1
  O  O354  1  0.75051794  0.88700928  0.75517957  1
  O  O355  1  0.26372640  0.11992687  0.25397487  1
  O  O356  1  0.25265383  0.11236732  0.75642826  1
  O  O357  1  0.25703159  0.61702227  0.25903502  1
  O  O358  1  0.25723899  0.61984654  0.75775892  1
  O  O359  1  0.75672815  0.11841725  0.25514249  1
  O  O360  1  0.75783170  0.11479647  0.75392746  1
  O  O361  1  0.77086888  0.62377538  0.24785332  1
  O  O362  1  0.76339125  0.63071571  0.75770480  1
  O  O363  1  0.37781515  0.12015685  0.36853008  1
  O  O364  1  0.36610686  0.11847281  0.87028525  1
  O  O365  1  0.37130406  0.62026300  0.36920580  1
  O  O366  1  0.36774044  0.63068289  0.86616280  1
  O  O367  1  0.86941600  0.11994638  0.36528627  1
  O  O368  1  0.86743501  0.11442739  0.86561824  1
  O  O369  1  0.87973583  0.63024705  0.36060562  1
  O  O370  1  0.86760747  0.61849108  0.86556189  1
  O  O371  1  0.13825853  0.38645946  0.12868787  1
  O  O372  1  0.12664982  0.37986493  0.63628573  1
  O  O373  1  0.13149139  0.88041161  0.13291350  1
  O  O374  1  0.12528588  0.88058121  0.63027686  1
  O  O375  1  0.64193998  0.36277519  0.12506612  1
  O  O376  1  0.63009878  0.37886560  0.63323041  1
  O  O377  1  0.63742594  0.88249229  0.12049743  1
  O  O378  1  0.61512675  0.88834186  0.62528686  1
  O  O379  1  0.11981550  0.24880775  0.25769949  1
  O  O380  1  0.10810754  0.24503892  0.74877454  1
  O  O381  1  0.11860364  0.75485235  0.25934642  1
  O  O382  1  0.13328063  0.76383344  0.74627401  1
  O  O383  1  0.62697952  0.24874939  0.26319134  1
  O  O384  1  0.62705422  0.23750759  0.76602021  1
  O  O385  1  0.63469162  0.74706626  0.26689917  1
  O  O386  1  0.61206671  0.75144672  0.74719830  1
  O  O387  1  0.37170076  0.23975421  0.25237535  1
  O  O388  1  0.36164756  0.23287110  0.74232807  1
  O  O389  1  0.36991600  0.74053502  0.24194922  1
  O  O390  1  0.38472733  0.74344607  0.74442145  1
  O  O391  1  0.88266831  0.24261666  0.24021838  1
  O  O392  1  0.88257846  0.23601369  0.74731094  1
  O  O393  1  0.88587653  0.74754034  0.25415791  1
  O  O394  1  0.87053062  0.74683955  0.73677713  1
  O  O395  1  0.38440684  0.50782204  0.49169935  1
  O  O396  1  0.39290866  0.50752452  1.00731337  1
  O  O397  1  0.36979513  0.99677446  0.48675106  1
  O  O398  1  0.37246552  0.99572916  0.99020807  1
  O  O399  1  0.88429019  0.49258389  0.49865420  1
  O  O400  1  0.88750740  0.50660632  0.98713718  1
  O  O401  1  0.87440732  0.99383665  0.49448838  1
  O  O402  1  0.88331578  0.98897436  0.99715831  1
  O  O403  1  0.11119823  -0.00608456  0.00593808  1
  O  O404  1  0.12512092  0.00877150  0.50470332  1
  O  O405  1  0.11239229  0.51318805  0.00177831  1
  O  O406  1  0.11458790  0.50414161  0.50335002  1
  O  O407  1  0.63116253  0.00736247  0.00927891  1
  O  O408  1  0.63206461  0.01062590  0.50812274  1
  O  O409  1  0.60980778  0.50207400  -0.00695977  1
  O  O410  1  0.61487492  0.50978674  0.50184420  1
  O  O411  1  0.37112306  0.36450427  0.13006152  1
  O  O412  1  0.37586316  0.36011479  0.64041049  1
  O  O413  1  0.37366787  0.87059543  0.12243003  1
  O  O414  1  0.37768708  0.87014656  0.61957822  1
  O  O415  1  0.86483646  0.36307506  0.12547262  1
  O  O416  1  0.87182200  0.36996924  0.61025020  1
  O  O417  1  0.86310012  0.88045299  0.11591129  1
  O  O418  1  0.88179950  0.86806199  0.61596335  1
  O  O419  1  0.12592192  0.13620390  0.38282160  1
  O  O420  1  0.13434055  0.11833580  0.87616103  1
  O  O421  1  0.13442400  0.63463901  0.37402505  1
  O  O422  1  0.13260737  0.62537724  0.88455099  1
  O  O423  1  0.62599499  0.12980600  0.38133847  1
  O  O424  1  0.62977789  0.12621690  0.87969235  1
  O  O425  1  0.61736212  0.63532759  0.38823443  1
  O  O426  1  0.64162517  0.62581975  0.86565458  1
