# generated using pymatgen
data_V85Zn86O256
_symmetry_space_group_name_H-M   'P 1'
_cell_length_a   16.93277093
_cell_length_b   16.94357514
_cell_length_c   16.94488636
_cell_angle_alpha   90.04069665
_cell_angle_beta   90.00506052
_cell_angle_gamma   90.01535317
_symmetry_Int_Tables_number   1
_chemical_formula_structural   V85Zn86O256
_chemical_formula_sum   'V85 Zn86 O256'
_cell_volume   4861.51488537
_cell_formula_units_Z   1
loop_
 _symmetry_equiv_pos_site_id
 _symmetry_equiv_pos_as_xyz
  1  'x, y, z'
loop_
 _atom_site_type_symbol
 _atom_site_label
 _atom_site_symmetry_multiplicity
 _atom_site_fract_x
 _atom_site_fract_y
 _atom_site_fract_z
 _atom_site_occupancy
  V  V0  1  0.37709816  0.37119135  0.50325437  1
  V  V1  1  0.00889891  0.25946801  0.25454931  1
  V  V2  1  0.49943356  0.60850146  0.12551132  1
  V  V3  1  0.12237434  0.63142112  -0.01313083  1
  V  V4  1  0.00392861  0.75326508  0.75611166  1
  V  V5  1  0.62552282  0.37669896  0.24823201  1
  V  V6  1  0.23622217  0.12749309  0.37604486  1
  V  V7  1  0.87622951  0.49809353  0.37901292  1
  V  V8  1  0.00053220  0.01118042  0.49670810  1
  V  V9  1  0.37599829  0.12467474  0.25053690  1
  V  V10  1  0.50048127  0.37216373  0.37482672  1
  V  V11  1  0.72297026  0.52450471  0.72144146  1
  V  V12  1  0.37975698  0.38235646  0.00235122  1
  V  V13  1  0.49668685  0.87346899  0.37354668  1
  V  V14  1  0.24558084  0.63096262  0.37477228  1
  V  V15  1  0.50425993  0.74656442  0.74077503  1
  V  V16  1  0.12743819  0.87713716  0.75896849  1
  V  V17  1  0.37358915  0.49735442  0.37304668  1
  V  V18  1  0.36540368  0.61670332  0.24465105  1
  V  V19  1  -0.00174951  0.48785837  -0.00689104  1
  V  V20  1  0.24173908  0.37576667  0.11445344  1
  V  V21  1  0.61490588  0.62598649  0.00076259  1
  V  V22  1  0.74806245  0.49645583  0.25437811  1
  V  V23  1  0.49834493  0.00095891  0.49996792  1
  V  V24  1  0.65193362  0.47707306  0.09096908  1
  V  V25  1  0.37442851  0.24478062  0.63173675  1
  V  V26  1  0.87215196  0.76323702  0.62718399  1
  V  V27  1  0.75316561  0.11454595  0.37392478  1
  V  V28  1  0.23663688  0.24364485  0.49898866  1
  V  V29  1  0.24471292  0.75031904  -0.01804077  1
  V  V30  1  0.62372299  0.12508299  0.49798809  1
  V  V31  1  0.62138385  0.74261944  0.38039429  1
  V  V32  1  0.61734405  0.76034463  0.87500364  1
  V  V33  1  0.12497542  0.00083035  0.12333332  1
  V  V34  1  0.12201896  0.87230814  0.25034679  1
  V  V35  1  0.62346961  0.87269981  0.24880559  1
  V  V36  1  0.87457580  0.12411254  0.25019301  1
  V  V37  1  0.51078685  0.50748885  0.51105660  1
  V  V38  1  0.49769354  0.11956009  0.11784052  1
  V  V39  1  0.24856804  -0.00045818  0.24932833  1
  V  V40  1  0.12244742  0.75351203  0.38261799  1
  V  V41  1  0.37138326  0.74422459  0.12266185  1
  V  V42  1  0.87658058  0.87502210  0.00071809  1
  V  V43  1  0.62839077  0.87967756  0.74908111  1
  V  V44  1  0.24858046  0.87062415  0.12295035  1
  V  V45  1  0.74769304  0.62562578  0.38112818  1
  V  V46  1  0.38826396  -0.00150030  0.87332780  1
  V  V47  1  0.24797694  0.87302635  0.62331831  1
  V  V48  1  0.49783797  0.12229342  0.63284177  1
  V  V49  1  0.87847186  0.12515774  0.74970443  1
  V  V50  1  0.25411968  0.00820134  0.74989593  1
  V  V51  1  -0.01247952  0.87823260  0.37679052  1
  V  V52  1  0.12694888  0.25664301  0.87702586  1
  V  V53  1  0.62104301  -0.00320312  0.11893904  1
  V  V54  1  0.87430058  0.49044766  0.87251680  1
  V  V55  1  0.36989160  0.24767534  0.11596075  1
  V  V56  1  0.38561889  0.87632907  -0.00373298  1
  V  V57  1  0.74637953  0.37136583  0.62513290  1
  V  V58  1  0.12625806  0.62736916  0.50957557  1
  V  V59  1  0.19042866  0.44022843  0.30019820  1
  V  V60  1  0.74859285  0.62415981  0.87826643  1
  V  V61  1  -0.00185834  0.50192432  0.51084709  1
  V  V62  1  0.74949287  0.87453352  0.12497788  1
  V  V63  1  0.25777688  0.12843879  0.87767571  1
  V  V64  1  0.63668248  -0.00316277  0.62180650  1
  V  V65  1  0.49739001  0.74467883  0.25002499  1
  V  V66  1  0.62194157  0.37219357  0.74568026  1
  V  V67  1  0.37716195  0.74358658  0.62003950  1
  V  V68  1  -0.00247241  0.12906689  0.12348735  1
  V  V69  1  0.50110129  0.37472480  0.88028136  1
  V  V70  1  0.00027166  0.26006607  0.75583190  1
  V  V71  1  0.36792713  0.87132139  0.49927871  1
  V  V72  1  0.62957128  0.12844853  0.00157172  1
  V  V73  1  0.87837823  0.24716016  0.62260678  1
  V  V74  1  0.74628833  0.75759004  0.50521181  1
  V  V75  1  0.37366863  0.00027120  0.37440683  1
  V  V76  1  0.74917415  0.74884708  0.00075776  1
  V  V77  1  0.75453513  0.13159402  0.88041757  1
  V  V78  1  0.13050495  0.13011038  -0.00078858  1
  V  V79  1  0.75069757  0.24942781  0.49383180  1
  V  V80  1  0.87552597  0.62694849  0.74926059  1
  V  V81  1  0.86326659  0.26453424  0.11478472  1
  V  V82  1  -0.00340535  0.62441597  0.12387004  1
  V  V83  1  0.87798684  -0.00055571  0.87522905  1
  V  V84  1  0.24391311  0.37828325  0.63184550  1
  Zn  Zn85  1  0.01614931  0.13004665  0.62033499  1
  Zn  Zn86  1  0.01121016  0.37667393  0.37512743  1
  Zn  Zn87  1  0.24321005  0.51840146  0.74137805  1
  Zn  Zn88  1  0.00156560  0.62724450  0.62739807  1
  Zn  Zn89  1  0.00266289  0.00056728  -0.00145162  1
  Zn  Zn90  1  0.87259911  0.62465257  0.24900848  1
  Zn  Zn91  1  0.75422030  -0.00315231  0.25129843  1
  Zn  Zn92  1  0.62727463  0.24857603  0.87772458  1
  Zn  Zn93  1  -0.00504993  0.74914004  0.25066879  1
  Zn  Zn94  1  0.75667189  -0.00394714  0.74467977  1
  Zn  Zn95  1  0.00612384  0.87336446  0.87909125  1
  Zn  Zn96  1  0.87747587  0.37507809  0.49841839  1
  Zn  Zn97  1  0.11838960  0.38340922  0.75241915  1
  Zn  Zn98  1  0.12560343  0.50019094  0.12499777  1
  Zn  Zn99  1  0.87350273  0.74734666  0.12625698  1
  Zn  Zn100  1  0.12856316  0.00633026  0.61953421  1
  Zn  Zn101  1  0.87093781  0.88268839  0.50119635  1
  Zn  Zn102  1  0.49826102  0.24623968  0.75226678  1
  Zn  Zn103  1  0.62559668  0.24755659  0.37060467  1
  Zn  Zn104  1  0.37362649  0.50516967  0.86812415  1
  Zn  Zn105  1  0.37217397  0.62769728  0.75448344  1
  Zn  Zn106  1  0.50157892  0.24849278  0.24854021  1
  Zn  Zn107  1  0.18802112  0.19034732  0.18715052  1
  Zn  Zn108  1  0.18704282  0.18885368  0.69092029  1
  Zn  Zn109  1  0.18194637  0.68511994  0.18608662  1
  Zn  Zn110  1  0.19112671  0.69400713  0.69351349  1
  Zn  Zn111  1  0.68878573  0.18926327  0.18608913  1
  Zn  Zn112  1  0.68856484  0.18537943  0.68780416  1
  Zn  Zn113  1  0.68669832  0.68242153  0.18842547  1
  Zn  Zn114  1  0.68682858  0.69328921  0.68629427  1
  Zn  Zn115  1  0.31552363  0.30418180  0.31365629  1
  Zn  Zn116  1  0.31500268  0.31172033  0.81474189  1
  Zn  Zn117  1  0.30897418  0.80810510  0.31106708  1
  Zn  Zn118  1  0.31848343  0.81618792  0.80694039  1
  Zn  Zn119  1  0.81673512  0.31147196  0.30741234  1
  Zn  Zn120  1  0.80750031  0.31175369  0.80869483  1
  Zn  Zn121  1  0.81033221  0.80728564  0.30965148  1
  Zn  Zn122  1  0.80875827  0.81394677  0.81311541  1
  Zn  Zn123  1  0.18710978  0.44093334  0.46627005  1
  Zn  Zn124  1  0.18913604  0.44268902  0.93467434  1
  Zn  Zn125  1  0.18359216  0.93971010  0.43699654  1
  Zn  Zn126  1  0.19357824  0.94150563  0.93763961  1
  Zn  Zn127  1  0.68526663  0.43472888  0.43786718  1
  Zn  Zn128  1  0.68146896  0.44525069  0.92392949  1
  Zn  Zn129  1  0.68453410  0.93419615  0.43588519  1
  Zn  Zn130  1  0.69047813  0.94269826  0.93650579  1
  Zn  Zn131  1  0.31302443  0.05849881  0.05761063  1
  Zn  Zn132  1  0.31037524  0.06269299  0.56246551  1
  Zn  Zn133  1  0.29619407  0.54593109  0.02995961  1
  Zn  Zn134  1  0.31456123  0.55998409  0.55828836  1
  Zn  Zn135  1  0.81328369  0.06230709  0.06469637  1
  Zn  Zn136  1  0.81963664  0.06384321  0.55791661  1
  Zn  Zn137  1  0.81018293  0.54622506  0.05856752  1
  Zn  Zn138  1  0.79942709  0.57041160  0.56680961  1
  Zn  Zn139  1  0.43630900  0.43595411  0.18549593  1
  Zn  Zn140  1  0.43332776  0.43971554  0.69106825  1
  Zn  Zn141  1  0.43630442  0.93532671  0.18383197  1
  Zn  Zn142  1  0.44144553  0.93359177  0.68923366  1
  Zn  Zn143  1  0.93715055  0.43930227  0.18683687  1
  Zn  Zn144  1  0.92791826  0.43846888  0.68798817  1
  Zn  Zn145  1  0.93766629  0.94019852  0.18748948  1
  Zn  Zn146  1  0.94466402  0.94143996  0.68458942  1
  Zn  Zn147  1  0.05666308  0.06024776  0.31038996  1
  Zn  Zn148  1  0.06470306  0.06545672  0.81041169  1
  Zn  Zn149  1  0.05463880  0.56818072  0.31762599  1
  Zn  Zn150  1  0.06283047  0.56061068  0.81026379  1
  Zn  Zn151  1  0.56432387  0.06077101  0.30834219  1
  Zn  Zn152  1  0.56754503  0.06197788  0.81189856  1
  Zn  Zn153  1  0.55919931  0.55872882  0.31636981  1
  Zn  Zn154  1  0.53754869  0.57694302  0.82563034  1
  Zn  Zn155  1  0.43472426  0.18797419  0.43911727  1
  Zn  Zn156  1  0.44083515  0.18721106  0.93727445  1
  Zn  Zn157  1  0.43379826  0.68390046  0.43891869  1
  Zn  Zn158  1  0.43506018  0.69223427  0.93618448  1
  Zn  Zn159  1  0.93730193  0.18865817  0.43120063  1
  Zn  Zn160  1  0.94041727  0.19188959  0.93976499  1
  Zn  Zn161  1  0.93519705  0.68858122  0.44048362  1
  Zn  Zn162  1  0.93671948  0.68657392  0.93658853  1
  Zn  Zn163  1  0.05913704  0.30846289  0.06300221  1
  Zn  Zn164  1  0.06014309  0.31378518  0.56274796  1
  Zn  Zn165  1  0.06049531  0.80927812  0.06254198  1
  Zn  Zn166  1  0.05986713  0.81723438  0.56532334  1
  Zn  Zn167  1  0.56097425  0.30482011  0.06431153  1
  Zn  Zn168  1  0.56226666  0.31162442  0.56243620  1
  Zn  Zn169  1  0.55992562  0.80567031  0.06542384  1
  Zn  Zn170  1  0.56194757  0.81729831  0.56124084  1
  O  O171  1  0.12063484  0.12287894  0.11796735  1
  O  O172  1  0.12933182  0.12075009  0.62582061  1
  O  O173  1  0.11079681  0.62176184  0.11905478  1
  O  O174  1  0.12597403  0.63871317  0.61163386  1
  O  O175  1  0.61857018  0.11707804  0.12180493  1
  O  O176  1  0.61812073  0.11873936  0.61741840  1
  O  O177  1  0.61882206  0.62004602  0.11537389  1
  O  O178  1  0.68856463  0.58884924  0.64226179  1
  O  O179  1  0.37981026  0.37653563  0.38059396  1
  O  O180  1  0.38418296  0.37223828  0.88485131  1
  O  O181  1  0.37594738  0.87843165  0.37938247  1
  O  O182  1  0.37268512  0.88783827  0.88243539  1
  O  O183  1  0.87266464  0.38879627  0.37707934  1
  O  O184  1  0.86138345  0.39160768  0.86903838  1
  O  O185  1  0.88536230  0.87136708  0.37215736  1
  O  O186  1  0.87355549  0.88341454  0.88409159  1
  O  O187  1  0.25563919  0.00592403  0.36934430  1
  O  O188  1  0.25808154  0.00982862  0.86814058  1
  O  O189  1  0.24889574  0.49951927  0.36801639  1
  O  O190  1  0.27303928  0.51227863  0.91950883  1
  O  O191  1  0.74450705  0.01065467  0.37288153  1
  O  O192  1  0.76411934  0.01017684  0.87186151  1
  O  O193  1  0.75326138  0.50714621  0.37334745  1
  O  O194  1  0.75208446  0.51583826  0.86357624  1
  O  O195  1  0.24775181  0.48179246  0.12089557  1
  O  O196  1  0.25230797  0.48084554  0.61726342  1
  O  O197  1  0.24506462  0.99219998  0.12965814  1
  O  O198  1  0.25534555  0.99153609  0.63414616  1
  O  O199  1  0.73993830  0.52023344  0.14940292  1
  O  O200  1  0.77257915  0.47439879  0.62835348  1
  O  O201  1  0.74175144  0.98985542  0.12636059  1
  O  O202  1  0.73995545  1.00912376  0.62270347  1
  O  O203  1  -0.00026137  0.36431379  0.25129735  1
  O  O204  1  -0.00276085  0.36389866  0.74517128  1
  O  O205  1  0.00617666  0.87657788  0.25722431  1
  O  O206  1  0.01026662  0.87203456  0.75172110  1
  O  O207  1  0.50524574  0.37381653  0.25813678  1
  O  O208  1  0.50652124  0.37009699  0.75567727  1
  O  O209  1  0.50109872  0.86625820  0.25501036  1
  O  O210  1  0.51777893  0.86649907  0.74511378  1
  O  O211  1  0.49175876  0.12350199  0.24045832  1
  O  O212  1  0.50591459  0.12535849  0.73607015  1
  O  O213  1  0.49203103  0.62661431  0.24504170  1
  O  O214  1  0.51760973  0.64533269  0.73334377  1
  O  O215  1  0.99316725  0.13243993  0.24379957  1
  O  O216  1  0.98932286  0.13377450  0.74922350  1
  O  O217  1  0.99611349  0.62303134  0.23660351  1
  O  O218  1  0.99238143  0.63369745  0.74888970  1
  O  O219  1  0.37873783  0.25389768  0.01258716  1
  O  O220  1  0.36995706  0.25881830  0.50658924  1
  O  O221  1  0.36438759  0.75401501  0.00344371  1
  O  O222  1  0.37898762  0.76379965  0.50284975  1
  O  O223  1  0.88145197  0.25068537  0.01548453  1
  O  O224  1  0.86863730  0.24906425  0.50615948  1
  O  O225  1  0.86761880  0.75865645  0.00057742  1
  O  O226  1  0.86695390  0.75295386  0.51073901  1
  O  O227  1  0.13825599  0.25316779  0.50001693  1
  O  O228  1  0.11997502  0.23766351  0.99361829  1
  O  O229  1  0.11895440  0.74685491  0.48896516  1
  O  O230  1  0.12966631  0.74220169  0.99967370  1
  O  O231  1  0.63417924  0.24256946  0.49768963  1
  O  O232  1  0.62547239  0.23320437  1.00131486  1
  O  O233  1  0.63035675  0.75522763  0.49134623  1
  O  O234  1  0.62914633  0.74590147  0.99252574  1
  O  O235  1  0.48988437  0.23820399  0.12940889  1
  O  O236  1  0.49196942  0.24013259  0.62303958  1
  O  O237  1  0.49144928  0.74122340  0.13559050  1
  O  O238  1  0.48938676  0.75946940  0.62733882  1
  O  O239  1  0.99486855  0.24222029  0.13396086  1
  O  O240  1  0.99327493  0.24737477  0.63070831  1
  O  O241  1  0.99636368  0.73745979  0.12653400  1
  O  O242  1  0.98930473  0.75030870  0.63520634  1
  O  O243  1  -0.00417534  0.25673784  0.36024018  1
  O  O244  1  0.01153818  0.24500037  0.86648183  1
  O  O245  1  0.00517517  0.75804225  0.37359682  1
  O  O246  1  -0.00908700  0.75519328  0.86019819  1
  O  O247  1  0.49869592  0.26010027  0.37224309  1
  O  O248  1  0.50371686  0.25660980  0.87021547  1
  O  O249  1  0.50342499  0.75140725  0.37026468  1
  O  O250  1  0.51380441  0.75340477  0.86439056  1
  O  O251  1  0.25500733  0.13623959  0.49141798  1
  O  O252  1  0.24197317  0.12183174  0.99181595  1
  O  O253  1  0.24055376  0.61464320  0.48418058  1
  O  O254  1  0.22973277  0.63914626  1.01058251  1
  O  O255  1  0.74671321  0.13073086  0.49181010  1
  O  O256  1  0.74324519  0.11774996  0.99206912  1
  O  O257  1  0.75064767  0.63892443  0.48744889  1
  O  O258  1  0.74012607  0.62777696  0.99500538  1
  O  O259  1  0.26058247  0.36919516  0.01130637  1
  O  O260  1  0.25747982  0.36243506  0.50844196  1
  O  O261  1  0.25357826  0.86642261  0.00585546  1
  O  O262  1  0.25820781  0.88347340  0.50743620  1
  O  O263  1  0.73151326  0.44349897  0.02618814  1
  O  O264  1  0.75076229  0.36433631  0.50507602  1
  O  O265  1  0.75748239  0.87125796  0.00535482  1
  O  O266  1  0.75397679  0.86274158  0.49098294  1
  O  O267  1  0.12557018  0.49986732  0.24844499  1
  O  O268  1  0.13462237  0.49367599  0.76107584  1
  O  O269  1  0.13004397  0.99331913  0.24347592  1
  O  O270  1  0.13600188  0.99459084  0.74902714  1
  O  O271  1  0.63042973  0.48719218  0.25790589  1
  O  O272  1  0.63069931  0.48919382  0.75600240  1
  O  O273  1  0.62669496  0.99065395  0.23828165  1
  O  O274  1  0.62911722  0.99623207  0.73984048  1
  O  O275  1  0.36895820  0.00802639  0.25167747  1
  O  O276  1  0.36904700  -0.00821272  0.76350960  1
  O  O277  1  0.37821873  0.50988443  0.25572041  1
  O  O278  1  0.36186304  0.50325151  0.75030148  1
  O  O279  1  0.87228055  0.01751450  0.24207815  1
  O  O280  1  0.87725714  0.00754824  0.75561525  1
  O  O281  1  0.86587640  0.50227062  0.25865198  1
  O  O282  1  0.86656832  0.51307098  0.75425660  1
  O  O283  1  0.13581718  0.38823800  0.36877999  1
  O  O284  1  0.13663538  0.35954899  0.87809735  1
  O  O285  1  0.11853332  0.86874941  0.36923473  1
  O  O286  1  0.12617973  0.88205681  0.86361718  1
  O  O287  1  0.61594286  0.36979493  0.36863495  1
  O  O288  1  0.61808944  0.36918190  0.86842236  1
  O  O289  1  0.61653500  0.86469144  0.36845001  1
  O  O290  1  0.63124768  0.87010571  0.86878017  1
  O  O291  1  0.37885393  0.12656107  0.12846714  1
  O  O292  1  0.38560432  0.13208545  0.61631131  1
  O  O293  1  0.38019643  0.62494509  0.13131271  1
  O  O294  1  0.36912458  0.64175734  0.61664832  1
  O  O295  1  0.88356686  0.13065568  0.12894844  1
  O  O296  1  0.87605770  0.13523387  0.63251635  1
  O  O297  1  0.88672198  0.62103141  0.11991075  1
  O  O298  1  0.87139174  0.63573459  0.63912780  1
  O  O299  1  0.25865777  0.26248235  0.13291149  1
  O  O300  1  0.25712771  0.25323221  0.61535663  1
  O  O301  1  0.25464739  0.75589710  0.12351264  1
  O  O302  1  0.26056968  0.76754462  0.62780544  1
  O  O303  1  0.76405454  0.24763622  0.12495713  1
  O  O304  1  0.75634942  0.25267577  0.61522598  1
  O  O305  1  0.74757477  0.75692836  0.11835287  1
  O  O306  1  0.75625038  0.75144088  0.61499780  1
  O  O307  1  0.25456504  0.24165330  0.38894942  1
  O  O308  1  0.24562418  0.23497695  0.86751712  1
  O  O309  1  0.23911407  0.74064256  0.37373987  1
  O  O310  1  0.25629608  0.75456206  0.88346795  1
  O  O311  1  0.75137818  0.24399951  0.38403545  1
  O  O312  1  0.74997645  0.23595856  0.87303653  1
  O  O313  1  0.74002107  0.74391460  0.38013453  1
  O  O314  1  0.74139302  0.74194527  0.88121013  1
  O  O315  1  0.00810818  0.12304247  0.00924490  1
  O  O316  1  -0.00275865  0.11509601  0.49576911  1
  O  O317  1  0.00727978  0.62491827  0.00626017  1
  O  O318  1  0.00695434  0.62069563  0.50318827  1
  O  O319  1  0.50717726  0.12439972  0.01224565  1
  O  O320  1  0.50521561  0.11892286  0.50414409  1
  O  O321  1  0.50627315  0.64045213  0.01556591  1
  O  O322  1  0.49295553  0.60626146  0.49525817  1
  O  O323  1  0.49298079  0.37653503  0.49277927  1
  O  O324  1  0.49681290  0.36371477  0.98775293  1
  O  O325  1  0.49145714  0.88271294  0.49102957  1
  O  O326  1  0.48453875  0.86637138  1.00513780  1
  O  O327  1  0.99932147  0.38484714  0.49602627  1
  O  O328  1  1.00571727  0.38979105  1.00071668  1
  O  O329  1  0.99474898  0.88090580  0.49119453  1
  O  O330  1  0.99014556  0.87709429  0.99907427  1
  O  O331  1  0.49221249  0.48711465  0.38139936  1
  O  O332  1  0.49988596  0.47646076  0.87032572  1
  O  O333  1  0.49330807  0.99455628  0.37755923  1
  O  O334  1  0.48714715  1.00486913  0.87102626  1
  O  O335  1  0.99100892  0.49887139  0.38474780  1
  O  O336  1  0.98968054  0.50355235  0.88438882  1
  O  O337  1  1.00233880  0.99119794  0.38407986  1
  O  O338  1  0.98906656  1.00007623  0.87585957  1
  O  O339  1  0.00730165  0.01305748  0.12516719  1
  O  O340  1  0.00268708  0.00685389  0.61141096  1
  O  O341  1  0.00070243  0.50663192  0.11258491  1
  O  O342  1  -0.01001744  0.50448913  0.61479127  1
  O  O343  1  0.50782704  0.00647949  0.12857576  1
  O  O344  1  0.50519711  0.00610411  0.61844132  1
  O  O345  1  0.51177374  0.50818681  0.13205356  1
  O  O346  1  0.49492516  0.49166026  0.60921299  1
  O  O347  1  0.24995579  0.37639331  0.24530481  1
  O  O348  1  0.25146410  0.36912265  0.73531074  1
  O  O349  1  0.24292519  0.87929054  0.24434958  1
  O  O350  1  0.24518672  0.88375947  0.74378694  1
  O  O351  1  0.74067598  0.38512397  0.25718833  1
  O  O352  1  0.73869623  0.37746702  0.74066000  1
  O  O353  1  0.74238916  0.87460076  0.24262477  1
  O  O354  1  0.73696615  0.87874094  0.75125389  1
  O  O355  1  0.25686703  0.12059302  0.25499158  1
  O  O356  1  0.25172189  0.11361627  0.75791331  1
  O  O357  1  0.25453610  0.62575446  0.25904043  1
  O  O358  1  0.25841578  0.63086500  0.75081290  1
  O  O359  1  0.75520672  0.12487794  0.25784701  1
  O  O360  1  0.76375690  0.12335075  0.75600293  1
  O  O361  1  0.74805734  0.62044526  0.26639546  1
  O  O362  1  0.75703451  0.63041951  0.76387591  1
  O  O363  1  0.37050904  0.11957997  0.36589899  1
  O  O364  1  0.36934989  0.11195205  0.88422149  1
  O  O365  1  0.36329917  0.61860140  0.36863968  1
  O  O366  1  0.42383451  0.61282425  0.85972725  1
  O  O367  1  0.86447234  0.12933693  0.36365173  1
  O  O368  1  0.87294869  0.12031345  0.87054880  1
  O  O369  1  0.86636086  0.61532109  0.37551027  1
  O  O370  1  0.86590747  0.62250723  0.86765877  1
  O  O371  1  0.13814861  0.37350974  0.11965106  1
  O  O372  1  0.14085859  0.36835979  0.62638714  1
  O  O373  1  0.12788747  0.87901403  0.13039095  1
  O  O374  1  0.13401808  0.88037339  0.63306791  1
  O  O375  1  0.61767383  0.38218612  0.13115081  1
  O  O376  1  0.63394350  0.36971464  0.63166001  1
  O  O377  1  0.62791597  0.87906197  0.12713052  1
  O  O378  1  0.62381714  0.88859463  0.62950081  1
  O  O379  1  0.10738351  0.24598704  0.24710440  1
  O  O380  1  0.11684827  0.25465052  0.75919321  1
  O  O381  1  0.12085305  0.75689443  0.25991266  1
  O  O382  1  0.11473276  0.76377704  0.74421046  1
  O  O383  1  0.62363211  0.26258265  0.24885170  1
  O  O384  1  0.62460439  0.25953417  0.75131573  1
  O  O385  1  0.61717891  0.75357277  0.25615703  1
  O  O386  1  0.62514568  0.76003922  0.75525033  1
  O  O387  1  0.37595734  0.23552069  0.24221661  1
  O  O388  1  0.37619341  0.25024746  0.73534128  1
  O  O389  1  0.37733031  0.73620093  0.24590525  1
  O  O390  1  0.38797681  0.75267283  0.73913667  1
  O  O391  1  0.88276347  0.24135743  0.24022055  1
  O  O392  1  0.88033866  0.24430708  0.74446257  1
  O  O393  1  0.87618696  0.74270614  0.24444167  1
  O  O394  1  0.87780322  0.74699769  0.74515008  1
  O  O395  1  0.37627349  0.48476826  0.49185857  1
  O  O396  1  0.39407167  0.48062180  1.01847614  1
  O  O397  1  0.37859230  0.99165278  0.49343855  1
  O  O398  1  0.37126487  0.98827052  0.98740095  1
  O  O399  1  0.87877142  0.50269277  0.49467791  1
  O  O400  1  0.88998892  0.50586512  0.98759130  1
  O  O401  1  0.89056693  0.99735288  0.50089203  1
  O  O402  1  0.87714272  0.99208604  0.99357356  1
  O  O403  1  0.12474498  0.00939945  0.00564346  1
  O  O404  1  0.10687734  -0.00677577  0.50100013  1
  O  O405  1  0.11189395  0.51263732  -0.00135593  1
  O  O406  1  0.11140481  0.51464933  0.49987129  1
  O  O407  1  0.62785855  0.00711516  0.01229923  1
  O  O408  1  0.61923090  0.00360063  0.50487724  1
  O  O409  1  0.60767703  0.51760728  -0.00525332  1
  O  O410  1  0.61024427  0.49611153  0.49648042  1
  O  O411  1  0.36967071  0.36444385  0.12300311  1
  O  O412  1  0.36806737  0.36500660  0.61803855  1
  O  O413  1  0.36733141  0.86760013  0.11838065  1
  O  O414  1  0.36992912  0.87191681  0.61556760  1
  O  O415  1  0.87451622  0.36393381  0.12873893  1
  O  O416  1  0.86969657  0.35812243  0.62339397  1
  O  O417  1  0.86898667  0.87552476  0.11612053  1
  O  O418  1  0.87546796  0.86638384  0.62769420  1
  O  O419  1  0.13762570  0.11970827  0.36786383  1
  O  O420  1  0.13372612  0.13076558  0.88190435  1
  O  O421  1  0.12774839  0.63456776  0.38073484  1
  O  O422  1  0.11635718  0.63028857  0.88863492  1
  O  O423  1  0.63161920  0.12714566  0.37866119  1
  O  O424  1  0.63523935  0.12174712  0.88398427  1
  O  O425  1  0.62788796  0.63633512  0.37163510  1
  O  O426  1  0.62737146  0.63485450  0.88205726  1
