# generated using pymatgen
data_V85Zn86O256
_symmetry_space_group_name_H-M   'P 1'
_cell_length_a   16.99632144
_cell_length_b   16.99864916
_cell_length_c   16.99157610
_cell_angle_alpha   89.94517239
_cell_angle_beta   90.02859064
_cell_angle_gamma   89.94829951
_symmetry_Int_Tables_number   1
_chemical_formula_structural   V85Zn86O256
_chemical_formula_sum   'V85 Zn86 O256'
_cell_volume   4909.10794047
_cell_formula_units_Z   1
loop_
 _symmetry_equiv_pos_site_id
 _symmetry_equiv_pos_as_xyz
  1  'x, y, z'
loop_
 _atom_site_type_symbol
 _atom_site_label
 _atom_site_symmetry_multiplicity
 _atom_site_fract_x
 _atom_site_fract_y
 _atom_site_fract_z
 _atom_site_occupancy
  V  V0  1  0.12166619  0.25789519  0.87788423  1
  V  V1  1  0.74671896  0.50199434  0.75373400  1
  V  V2  1  0.62389933  0.87422948  0.75538035  1
  V  V3  1  0.36650574  0.00354772  0.88716183  1
  V  V4  1  0.49966093  -0.00436787  0.50616543  1
  V  V5  1  0.75579285  0.49433330  0.24466986  1
  V  V6  1  0.12840103  0.62225605  -0.00061823  1
  V  V7  1  0.62489965  0.37653584  0.24791641  1
  V  V8  1  0.50226131  0.87337815  0.87850336  1
  V  V9  1  -0.00578555  -0.00081163  0.50100587  1
  V  V10  1  0.36924325  0.87414552  0.49829410  1
  V  V11  1  0.74653624  0.74632604  0.49275516  1
  V  V12  1  -0.00847617  -0.00103293  -0.00012505  1
  V  V13  1  0.12116827  0.12662777  0.00222998  1
  V  V14  1  0.72279770  0.25418630  -0.01426547  1
  V  V15  1  0.25751547  0.87085496  0.62980658  1
  V  V16  1  0.36639861  0.37570888  -0.00275502  1
  V  V17  1  0.75270886  0.37034935  0.62886845  1
  V  V18  1  0.25093108  0.75161188  -0.00124955  1
  V  V19  1  0.75138540  -0.00099402  0.75349838  1
  V  V20  1  0.24773378  0.36394479  0.61579313  1
  V  V21  1  0.63215626  0.24647790  0.37154477  1
  V  V22  1  0.12048927  0.87246625  0.25132555  1
  V  V23  1  0.50448116  0.10808764  0.12700267  1
  V  V24  1  0.56911071  0.17536745  0.55571335  1
  V  V25  1  0.12822219  0.50056682  0.62580949  1
  V  V26  1  -0.00374689  0.75021880  0.25042572  1
  V  V27  1  0.87509877  0.13043566  0.75267368  1
  V  V28  1  0.87908376  0.87059032  0.50523688  1
  V  V29  1  -0.00467703  0.12467493  0.12634783  1
  V  V30  1  0.49902309  0.24744530  0.24403352  1
  V  V31  1  0.87154651  0.25422335  0.10623705  1
  V  V32  1  0.24858047  0.12684414  0.88233551  1
  V  V33  1  -0.00045530  0.37373136  0.37599974  1
  V  V34  1  0.11926395  -0.00185073  0.12630163  1
  V  V35  1  -0.00194299  0.25471122  0.25035381  1
  V  V36  1  0.25193974  0.49416232  0.24947720  1
  V  V37  1  0.11795188  0.62459140  0.50416679  1
  V  V38  1  0.11990505  -0.00377722  0.62928252  1
  V  V39  1  0.62875642  -0.00127263  0.61884999  1
  V  V40  1  0.24846555  0.62410274  0.37963230  1
  V  V41  1  0.37695503  0.75105343  0.12943021  1
  V  V42  1  0.50100610  0.62728238  0.12117448  1
  V  V43  1  0.62432319  0.50492918  0.11839626  1
  V  V44  1  0.38198065  0.87620186  0.00407588  1
  V  V45  1  0.75555079  0.23838820  0.50266637  1
  V  V46  1  0.00160547  0.74408431  0.74484787  1
  V  V47  1  0.37241524  0.36135624  0.50298267  1
  V  V48  1  0.62911533  0.61939479  0.48804722  1
  V  V49  1  0.24975464  0.74562973  0.50614385  1
  V  V50  1  0.87517743  0.13203424  0.25927832  1
  V  V51  1  0.12885760  0.75078238  0.87309116  1
  V  V52  1  0.87506804  0.36890727  0.50473857  1
  V  V53  1  0.25455632  0.61275058  0.86707078  1
  V  V54  1  0.88131400  0.61808131  0.24185477  1
  V  V55  1  0.75045705  0.86922342  0.62706798  1
  V  V56  1  0.49977578  0.49511991  0.49733722  1
  V  V57  1  0.70674568  0.06812868  0.32117988  1
  V  V58  1  -0.00223699  0.26038708  0.75213345  1
  V  V59  1  0.12970679  0.37382239  0.24881326  1
  V  V60  1  0.24813807  0.87578831  0.12570179  1
  V  V61  1  0.12833146  0.24773406  0.37758089  1
  V  V62  1  0.49197739  0.49748418  -0.00725801  1
  V  V63  1  0.27376494  0.02457339  0.72693250  1
  V  V64  1  0.86624776  0.62476631  0.75515584  1
  V  V65  1  0.75367006  0.62841903  0.36474069  1
  V  V66  1  -0.00300033  0.87413269  0.87304839  1
  V  V67  1  0.55869323  0.05639117  -0.05599105  1
  V  V68  1  0.86730797  -0.01834704  0.35207070  1
  V  V69  1  -0.00259994  0.13227315  0.62800502  1
  V  V70  1  0.87879194  0.48993085  0.87873798  1
  V  V71  1  0.87630049  0.73657109  0.62399510  1
  V  V72  1  0.37368576  0.62700869  0.25409648  1
  V  V73  1  0.12386381  0.12801504  0.50306782  1
  V  V74  1  -0.00340788  0.50169822  0.50413882  1
  V  V75  1  0.24738537  0.12119682  0.37449178  1
  V  V76  1  0.00487259  0.62795268  0.12204529  1
  V  V77  1  0.13459927  0.38097751  0.75275983  1
  V  V78  1  0.51125241  0.74812363  0.25865126  1
  V  V79  1  0.50889617  0.86311648  0.37750732  1
  V  V80  1  0.50028813  0.37129303  0.37465851  1
  V  V81  1  0.62775065  0.73242339  0.88389435  1
  V  V82  1  0.13119354  0.49460511  0.12382513  1
  V  V83  1  0.37531587  0.49669566  0.37696002  1
  V  V84  1  0.63090815  0.49508314  0.61812300  1
  Zn  Zn85  1  0.64502867  0.99879879  0.13972379  1
  Zn  Zn86  1  0.88108713  0.84898508  0.01139817  1
  Zn  Zn87  1  0.24204404  0.26031966  0.01212032  1
  Zn  Zn88  1  0.24832020  -0.00337115  0.25303698  1
  Zn  Zn89  1  0.36712408  0.25367314  0.12761489  1
  Zn  Zn90  1  0.00532265  0.48652308  -0.01270798  1
  Zn  Zn91  1  0.56033205  0.34144388  0.84117798  1
  Zn  Zn92  1  0.38096319  0.62635969  0.75733703  1
  Zn  Zn93  1  0.37319806  -0.00099072  0.37289061  1
  Zn  Zn94  1  0.40870942  0.16772080  0.69935430  1
  Zn  Zn95  1  0.13092729  0.87845772  0.75232122  1
  Zn  Zn96  1  0.12370847  0.74847782  0.37540721  1
  Zn  Zn97  1  0.76413236  0.73517710  -0.01206621  1
  Zn  Zn98  1  0.87161733  -0.00284769  0.87597336  1
  Zn  Zn99  1  0.49810227  0.74144384  0.74584126  1
  Zn  Zn100  1  0.87698525  0.49551940  0.37137852  1
  Zn  Zn101  1  0.00462286  0.87022998  0.38070520  1
  Zn  Zn102  1  0.74618636  0.86514289  0.11486891  1
  Zn  Zn103  1  0.74863757  0.37726927  0.10990680  1
  Zn  Zn104  1  0.49021700  0.62420753  0.63147346  1
  Zn  Zn105  1  0.73627183  0.12520287  0.87603584  1
  Zn  Zn106  1  0.36926353  0.12263061  0.24552036  1
  Zn  Zn107  1  0.18519047  0.18634177  0.18886172  1
  Zn  Zn108  1  0.23640618  0.22689421  0.72484718  1
  Zn  Zn109  1  0.18893318  0.68831988  0.18899752  1
  Zn  Zn110  1  0.18509439  0.68612766  0.68662514  1
  Zn  Zn111  1  0.68493074  0.19078570  0.17502005  1
  Zn  Zn112  1  0.69410144  0.19442529  0.69529099  1
  Zn  Zn113  1  0.70120081  0.68283678  0.15820978  1
  Zn  Zn114  1  0.66449523  0.69177503  0.67644089  1
  Zn  Zn115  1  0.31294742  0.30825606  0.31387550  1
  Zn  Zn116  1  0.40092543  0.31661340  0.80754572  1
  Zn  Zn117  1  0.31158665  0.81170100  0.31618447  1
  Zn  Zn118  1  0.32114978  0.81180798  0.80563793  1
  Zn  Zn119  1  0.81146930  0.31501291  0.31541773  1
  Zn  Zn120  1  0.80875832  0.31427198  0.81462767  1
  Zn  Zn121  1  0.79869692  0.80456492  0.28287694  1
  Zn  Zn122  1  0.81054608  0.80763672  0.81789485  1
  Zn  Zn123  1  0.18738702  0.43754518  0.43927090  1
  Zn  Zn124  1  0.19383917  0.43576213  0.93561097  1
  Zn  Zn125  1  0.18296470  0.93790552  0.43916747  1
  Zn  Zn126  1  0.18535540  0.93820185  0.93975011  1
  Zn  Zn127  1  0.69362968  0.43304185  0.43269722  1
  Zn  Zn128  1  0.68697216  0.44215122  0.93526566  1
  Zn  Zn129  1  0.68649924  0.92844318  0.44186358  1
  Zn  Zn130  1  0.69754005  0.92641872  0.94033197  1
  Zn  Zn131  1  0.31039939  0.06607466  0.06948230  1
  Zn  Zn132  1  0.30711743  0.06016597  0.55325824  1
  Zn  Zn133  1  0.31340551  0.56457282  0.06342809  1
  Zn  Zn134  1  0.32135899  0.55753840  0.58615522  1
  Zn  Zn135  1  0.80345518  0.07361919  0.05696408  1
  Zn  Zn136  1  0.81660723  0.06041645  0.56885568  1
  Zn  Zn137  1  0.81219340  0.57068608  0.05613370  1
  Zn  Zn138  1  0.81275175  0.56003618  0.56046292  1
  Zn  Zn139  1  0.43561520  0.43710005  0.18390417  1
  Zn  Zn140  1  0.42679280  0.45166779  0.68808880  1
  Zn  Zn141  1  0.43605711  0.93415221  0.19675727  1
  Zn  Zn142  1  0.47467109  0.99644076  0.72514610  1
  Zn  Zn143  1  0.94635915  0.42951087  0.15755203  1
  Zn  Zn144  1  0.93715152  0.43942330  0.68506113  1
  Zn  Zn145  1  0.86036807  0.95638641  0.17701136  1
  Zn  Zn146  1  0.93631879  0.93338313  0.68967746  1
  Zn  Zn147  1  0.05380808  0.05828558  0.31305981  1
  Zn  Zn148  1  0.06470313  0.06422829  0.81211284  1
  Zn  Zn149  1  0.06354205  0.55961126  0.31518902  1
  Zn  Zn150  1  0.05976733  0.56351125  0.80959401  1
  Zn  Zn151  1  0.54440896  0.05884155  0.31701593  1
  Zn  Zn152  1  0.55259063  0.17569741  0.79771045  1
  Zn  Zn153  1  0.56492979  0.56326931  0.30834367  1
  Zn  Zn154  1  0.56438253  0.54102965  0.81306318  1
  Zn  Zn155  1  0.43571886  0.18656306  0.42898387  1
  Zn  Zn156  1  0.43502156  0.19493633  0.94236293  1
  Zn  Zn157  1  0.42674735  0.67540902  0.46239747  1
  Zn  Zn158  1  0.43919882  0.68953880  0.93518837  1
  Zn  Zn159  1  0.93383720  0.18309113  0.43517543  1
  Zn  Zn160  1  0.93849016  0.18699274  0.93094376  1
  Zn  Zn161  1  0.93518041  0.68490062  0.43101785  1
  Zn  Zn162  1  0.94580413  0.67680792  0.93019454  1
  Zn  Zn163  1  0.05881913  0.31708649  0.06366249  1
  Zn  Zn164  1  0.06257146  0.31173008  0.56478002  1
  Zn  Zn165  1  0.05882912  0.81155170  0.06230290  1
  Zn  Zn166  1  0.06509234  0.80971792  0.56751084  1
  Zn  Zn167  1  0.55309321  0.32032273  0.06511989  1
  Zn  Zn168  1  0.55797016  0.32207741  0.67469135  1
  Zn  Zn169  1  0.57004705  0.81892613  0.06671737  1
  Zn  Zn170  1  0.56158531  0.80873675  0.56294382  1
  O  O171  1  0.11391877  0.11956869  0.12006828  1
  O  O172  1  0.11345159  0.11219672  0.61317496  1
  O  O173  1  0.12740422  0.62114110  0.11456749  1
  O  O174  1  0.12711720  0.61755251  0.61233245  1
  O  O175  1  0.61234311  0.11410393  0.13169562  1
  O  O176  1  0.62990462  0.11939252  0.61911799  1
  O  O177  1  0.60841169  0.61387150  0.14313803  1
  O  O178  1  0.64235065  0.60749702  0.59693140  1
  O  O179  1  0.37927504  0.37783152  0.38061049  1
  O  O180  1  0.37201174  0.38214772  0.89637895  1
  O  O181  1  0.37712584  0.87813040  0.38676438  1
  O  O182  1  0.38303631  0.88026050  0.88527739  1
  O  O183  1  0.88223109  0.37577247  0.38480628  1
  O  O184  1  0.87551354  0.39127891  0.86867662  1
  O  O185  1  0.88443001  0.87487918  0.39874837  1
  O  O186  1  0.88923663  0.87455589  0.87373140  1
  O  O187  1  0.24689540  0.00793458  0.37526350  1
  O  O188  1  0.25403482  0.00680600  0.87573155  1
  O  O189  1  0.25283071  0.50861871  0.37064234  1
  O  O190  1  0.24716506  0.51479666  0.87343876  1
  O  O191  1  0.75565036  0.00956310  0.39321493  1
  O  O192  1  0.75142327  0.00227540  0.86572567  1
  O  O193  1  0.75535462  0.50602098  0.36237341  1
  O  O194  1  0.76224249  0.50129172  0.85831706  1
  O  O195  1  0.24060585  0.50919524  0.13708234  1
  O  O196  1  0.23034633  0.48780297  0.60580934  1
  O  O197  1  0.23758507  0.99315368  0.12765486  1
  O  O198  1  0.23607616  0.98755755  0.62239819  1
  O  O199  1  0.74199973  0.49558151  0.12896838  1
  O  O200  1  0.74906754  0.48842608  0.62514201  1
  O  O201  1  0.76157348  1.00004232  0.12814503  1
  O  O202  1  0.74608129  0.99021772  0.62801515  1
  O  O203  1  0.00504725  0.36616105  0.25209645  1
  O  O204  1  0.00772309  0.36248966  0.73865675  1
  O  O205  1  0.01243985  0.86260093  0.25082905  1
  O  O206  1  0.00258391  0.86447834  0.75682116  1
  O  O207  1  0.50506932  0.36601126  0.25509901  1
  O  O208  1  0.48337321  0.37494015  0.74342856  1
  O  O209  1  0.49487921  0.86459376  0.26923690  1
  O  O210  1  0.51132589  0.88923499  0.76320783  1
  O  O211  1  0.49658225  0.12951646  0.24219402  1
  O  O212  1  0.49377843  0.10690410  0.73319958  1
  O  O213  1  0.48794860  0.63006455  0.24960121  1
  O  O214  1  0.50143461  0.61694560  0.74774856  1
  O  O215  1  0.99758969  0.14152249  0.24788555  1
  O  O216  1  0.99675315  0.13326726  0.74444659  1
  O  O217  1  0.99880830  0.62889333  0.24644836  1
  O  O218  1  0.99217445  0.63926497  0.75121044  1
  O  O219  1  0.37120059  0.26513254  0.00342357  1
  O  O220  1  0.38018959  0.26278188  0.49351696  1
  O  O221  1  0.36981873  0.75809762  0.00669560  1
  O  O222  1  0.35428779  0.76220217  0.49013427  1
  O  O223  1  0.88204270  0.25333329  0.00694234  1
  O  O224  1  0.86838847  0.25795256  0.49345098  1
  O  O225  1  0.87900582  0.73638989  -0.00769052  1
  O  O226  1  0.87082398  0.75122959  0.50685201  1
  O  O227  1  0.11222071  0.23639436  0.49032815  1
  O  O228  1  0.11716334  0.24455918  0.99753060  1
  O  O229  1  0.13030965  0.74152284  0.49896375  1
  O  O230  1  0.12828281  0.74186729  0.99227069  1
  O  O231  1  0.62798123  0.23491491  0.49340834  1
  O  O232  1  0.62441414  0.25503124  0.99705341  1
  O  O233  1  0.64204471  0.73858747  0.49542602  1
  O  O234  1  0.61757470  0.75212736  0.98371578  1
  O  O235  1  0.50640858  0.24058596  0.13752565  1
  O  O236  1  0.50984407  0.23511984  0.60977671  1
  O  O237  1  0.49630620  0.74504406  0.13712478  1
  O  O238  1  0.54750740  0.72868346  0.63794495  1
  O  O239  1  0.98793536  0.24511127  0.13338355  1
  O  O240  1  1.00623004  0.23699639  0.63359645  1
  O  O241  1  1.01071536  0.73409753  0.13298044  1
  O  O242  1  0.98883060  0.75421898  0.63354161  1
  O  O243  1  0.00725430  0.25307627  0.36829758  1
  O  O244  1  0.01205605  0.24753429  0.86527281  1
  O  O245  1  0.00412371  0.74997995  0.36573838  1
  O  O246  1  0.01305701  0.75424261  0.86823818  1
  O  O247  1  0.51292740  0.24793390  0.36385092  1
  O  O248  1  0.49120994  0.25308353  0.86201556  1
  O  O249  1  0.48902723  0.75929184  0.37663226  1
  O  O250  1  0.50738526  0.76173950  0.87102638  1
  O  O251  1  0.23353598  0.12034741  0.48879815  1
  O  O252  1  0.23172141  0.11916750  0.99778213  1
  O  O253  1  0.24076135  0.63084659  0.49523514  1
  O  O254  1  0.24293294  0.63083483  0.99197963  1
  O  O255  1  0.76252463  0.13953458  0.50857949  1
  O  O256  1  0.75103682  0.14753596  0.98977696  1
  O  O257  1  0.75345044  0.62803855  0.48391855  1
  O  O258  1  0.73508731  0.64854727  1.05381722  1
  O  O259  1  0.26141569  0.37938477  0.00668174  1
  O  O260  1  0.26394653  0.37543401  0.49773723  1
  O  O261  1  0.25545583  0.86881536  0.00666633  1
  O  O262  1  0.25090205  0.86771577  0.50397611  1
  O  O263  1  0.74317942  0.36144828  -0.00576285  1
  O  O264  1  0.75877638  0.36623590  0.50460308  1
  O  O265  1  0.76124416  0.85664878  -0.00256104  1
  O  O266  1  0.75915713  0.86276695  0.50412265  1
  O  O267  1  0.13543805  0.49433102  0.24816705  1
  O  O268  1  0.11410094  0.49368311  0.73703705  1
  O  O269  1  0.11907336  0.98971525  0.24351907  1
  O  O270  1  0.13086401  1.00224772  0.73689746  1
  O  O271  1  0.63349543  0.49359371  0.24317651  1
  O  O272  1  0.64011571  0.51527281  0.72635386  1
  O  O273  1  0.64284432  1.00860049  0.26978291  1
  O  O274  1  0.64012117  0.98962410  0.73575381  1
  O  O275  1  0.36774659  0.00342969  0.25505062  1
  O  O276  1  0.36684287  -0.00651567  0.77403115  1
  O  O277  1  0.36867400  0.50425387  0.25587597  1
  O  O278  1  0.35750802  0.53473300  0.69512300  1
  O  O279  1  0.90573606  0.02582751  0.25203004  1
  O  O280  1  0.86316454  0.00317121  0.74817701  1
  O  O281  1  0.87089427  0.49981191  0.24362553  1
  O  O282  1  0.87049976  0.50782084  0.75086310  1
  O  O283  1  0.11993502  0.36589002  0.37114336  1
  O  O284  1  0.12859773  0.37037906  0.86725538  1
  O  O285  1  0.12303111  0.87208415  0.36618249  1
  O  O286  1  0.11609957  0.86811598  0.87368517  1
  O  O287  1  0.61963972  0.36417023  0.36950959  1
  O  O288  1  0.61202788  0.43565781  0.85483742  1
  O  O289  1  0.60796600  0.86899917  0.38462896  1
  O  O290  1  0.61535070  0.87909572  0.87015455  1
  O  O291  1  0.39068577  0.12785882  0.12423150  1
  O  O292  1  0.33111739  0.09040974  0.65817667  1
  O  O293  1  0.37942289  0.63204680  0.13481557  1
  O  O294  1  0.39689366  0.63828917  0.56880327  1
  O  O295  1  0.87724021  0.14145861  0.13306357  1
  O  O296  1  0.88630759  0.11966463  0.64064419  1
  O  O297  1  0.89234167  0.61336503  0.13467071  1
  O  O298  1  0.87412195  0.63333744  0.62830964  1
  O  O299  1  0.25366786  0.23905168  0.12221863  1
  O  O300  1  0.23024016  0.26568733  0.61399243  1
  O  O301  1  0.25605092  0.75547262  0.11924253  1
  O  O302  1  0.24095552  0.75858548  0.61669834  1
  O  O303  1  0.75532881  0.25035270  0.10551876  1
  O  O304  1  0.74610244  0.26198564  0.61622935  1
  O  O305  1  0.73958729  0.77939897  0.19183441  1
  O  O306  1  0.75505858  0.75146645  0.61470730  1
  O  O307  1  0.23378743  0.24169685  0.37017294  1
  O  O308  1  0.23144841  0.23898811  0.89035644  1
  O  O309  1  0.24564908  0.73619190  0.38019487  1
  O  O310  1  0.23797274  0.75425690  0.87934495  1
  O  O311  1  0.73739300  0.25547142  0.38523998  1
  O  O312  1  0.74188496  0.24926756  0.88132498  1
  O  O313  1  0.76327881  0.73615317  0.37761161  1
  O  O314  1  0.73336197  0.74515540  0.87377274  1
  O  O315  1  0.00628179  0.11980117  0.00257903  1
  O  O316  1  -0.00045566  0.11699165  0.50793584  1
  O  O317  1  0.01521163  0.61553060  0.00644048  1
  O  O318  1  0.00660941  0.61527802  0.49269106  1
  O  O319  1  0.50373774  0.11979497  0.00726750  1
  O  O320  1  0.50375383  0.11666326  0.49786639  1
  O  O321  1  0.48908793  0.62245601  0.01788218  1
  O  O322  1  0.52057801  0.60857007  0.47809511  1
  O  O323  1  0.48892249  0.38228205  0.48961116  1
  O  O324  1  0.49593377  0.39150483  0.99517755  1
  O  O325  1  0.49044848  0.87451525  0.49709625  1
  O  O326  1  0.48748054  0.86911202  0.99585337  1
  O  O327  1  0.99285944  0.37841493  0.49658883  1
  O  O328  1  0.98459528  0.39733263  1.04935118  1
  O  O329  1  0.99587779  0.88118972  0.50631252  1
  O  O330  1  0.99849928  0.88231756  0.99236417  1
  O  O331  1  0.49674859  0.49094314  0.37664692  1
  O  O332  1  0.48487655  0.52301938  0.89884193  1
  O  O333  1  0.49780309  0.98576744  0.39009291  1
  O  O334  1  0.49092472  0.99413683  0.89063820  1
  O  O335  1  1.00101242  0.48967052  0.38466530  1
  O  O336  1  0.98590333  0.50288832  0.87379299  1
  O  O337  1  0.98570801  0.99354821  0.38459449  1
  O  O338  1  1.00211514  0.98965235  0.88005746  1
  O  O339  1  0.00401506  0.00900156  0.11428608  1
  O  O340  1  0.00388756  0.00421310  0.62198346  1
  O  O341  1  0.02362748  0.51799933  0.14033242  1
  O  O342  1  0.00857367  0.49475057  0.60983652  1
  O  O343  1  0.50096361  0.00756686  0.13410958  1
  O  O344  1  0.51127553  -0.00749267  0.61204650  1
  O  O345  1  0.50551528  0.51000836  0.12347133  1
  O  O346  1  0.51378278  0.50105569  0.60705396  1
  O  O347  1  0.24811818  0.38791636  0.25878019  1
  O  O348  1  0.23459955  0.37751227  0.73343671  1
  O  O349  1  0.23702306  0.87159829  0.24431957  1
  O  O350  1  0.25209552  0.88540674  0.73999768  1
  O  O351  1  0.74394623  0.38490898  0.25193515  1
  O  O352  1  0.75839646  0.38541807  0.73653090  1
  O  O353  1  0.81139228  0.92000063  0.28409371  1
  O  O354  1  0.74661988  0.88020642  0.74761877  1
  O  O355  1  0.24341393  0.12009530  0.26445580  1
  O  O356  1  0.23514638  0.11880685  0.77379760  1
  O  O357  1  0.25336327  0.61675862  0.26006964  1
  O  O358  1  0.24328715  0.63193530  0.76733547  1
  O  O359  1  0.75774793  0.12996246  0.25286286  1
  O  O360  1  0.75797597  0.11835387  0.75351040  1
  O  O361  1  0.76268013  0.61223473  0.24908665  1
  O  O362  1  0.75925534  0.61636748  0.73552917  1
  O  O363  1  0.36015889  0.12218035  0.37522757  1
  O  O364  1  0.35995562  0.11636295  0.89252726  1
  O  O365  1  0.36519706  0.61662910  0.37431820  1
  O  O366  1  0.35683224  0.63148024  0.87822995  1
  O  O367  1  0.87369711  0.11112977  0.36592294  1
  O  O368  1  0.87893903  0.11832000  0.86045818  1
  O  O369  1  0.87219185  0.61613630  0.35964772  1
  O  O370  1  0.87692652  0.61643798  0.85784253  1
  O  O371  1  0.12845326  0.38425214  0.13623131  1
  O  O372  1  0.12703996  0.38311680  0.62739034  1
  O  O373  1  0.12679268  0.87896875  0.13052779  1
  O  O374  1  0.13134926  0.88253193  0.62798912  1
  O  O375  1  0.62509456  0.38459167  0.13258547  1
  O  O376  1  0.63683160  0.38686406  0.61831307  1
  O  O377  1  0.63202238  0.88881921  0.12287260  1
  O  O378  1  0.63249094  0.88058239  0.63118137  1
  O  O379  1  0.11613192  0.25467745  0.25709535  1
  O  O380  1  0.12401579  0.26132585  0.76158006  1
  O  O381  1  0.11759390  0.75377888  0.25188276  1
  O  O382  1  0.11757072  0.75240624  0.75607358  1
  O  O383  1  0.62370111  0.25504944  0.25537472  1
  O  O384  1  0.61793652  0.25725114  0.75015473  1
  O  O385  1  0.60646580  0.73480136  0.26142609  1
  O  O386  1  0.62680965  0.76600230  0.76423122  1
  O  O387  1  0.38617114  0.24500878  0.25098986  1
  O  O388  1  0.34683954  0.24791653  0.74034034  1
  O  O389  1  0.37619751  0.74386639  0.24663471  1
  O  O390  1  0.38398804  0.74235670  0.74811643  1
  O  O391  1  0.88125984  0.24407132  0.25550748  1
  O  O392  1  0.88552534  0.24339257  0.75694117  1
  O  O393  1  0.89198615  0.73435955  0.25324244  1
  O  O394  1  0.87825521  0.74267666  0.74338816  1
  O  O395  1  0.38534034  0.49007899  0.49182656  1
  O  O396  1  0.38540484  0.49160414  1.01448739  1
  O  O397  1  0.38307782  0.99257518  0.49855463  1
  O  O398  1  0.36420771  0.98803282  0.99662251  1
  O  O399  1  0.88238586  0.49166792  0.49705192  1
  O  O400  1  0.87022584  0.50884897  0.98038465  1
  O  O401  1  0.88454555  0.98926191  0.50687466  1
  O  O402  1  0.88764208  1.00844932  0.99589994  1
  O  O403  1  0.11303065  0.00667011  0.00502559  1
  O  O404  1  0.10976907  0.00428188  0.50574295  1
  O  O405  1  0.12804029  0.50471558  0.00801636  1
  O  O406  1  0.11529705  0.50611848  0.50227659  1
  O  O407  1  0.62490969  0.00234571  -0.00468870  1
  O  O408  1  0.62020430  -0.00674839  0.51161239  1
  O  O409  1  0.61127207  0.50039586  0.01443825  1
  O  O410  1  0.62249100  0.49956887  0.49619858  1
  O  O411  1  0.39034521  0.36770952  0.10993910  1
  O  O412  1  0.36359778  0.37688755  0.60748522  1
  O  O413  1  0.37074703  0.87032552  0.12092340  1
  O  O414  1  0.35925904  0.87814490  0.60940930  1
  O  O415  1  0.86115588  0.35199209  0.13996458  1
  O  O416  1  0.86904516  0.37707366  0.61221608  1
  O  O417  1  0.86722600  0.86303640  0.12304294  1
  O  O418  1  0.86973572  0.86284984  0.62029669  1
  O  O419  1  0.12345117  0.12887683  0.38216232  1
  O  O420  1  0.12457535  0.13067492  0.88712454  1
  O  O421  1  0.13253259  0.62229254  0.38678807  1
  O  O422  1  0.13063469  0.63109191  0.88189834  1
  O  O423  1  0.63477180  0.12655230  0.36799684  1
  O  O424  1  0.61256671  0.11186172  0.87768029  1
  O  O425  1  0.64310285  0.61629069  0.37719323  1
  O  O426  1  0.61645143  0.63580435  0.87366150  1
