# generated using pymatgen
data_V85Zn86O256
_symmetry_space_group_name_H-M   'P 1'
_cell_length_a   16.93737266
_cell_length_b   16.94143905
_cell_length_c   16.94948670
_cell_angle_alpha   89.98556763
_cell_angle_beta   89.96895484
_cell_angle_gamma   89.94806537
_symmetry_Int_Tables_number   1
_chemical_formula_structural   V85Zn86O256
_chemical_formula_sum   'V85 Zn86 O256'
_cell_volume   4863.54160318
_cell_formula_units_Z   1
loop_
 _symmetry_equiv_pos_site_id
 _symmetry_equiv_pos_as_xyz
  1  'x, y, z'
loop_
 _atom_site_type_symbol
 _atom_site_label
 _atom_site_symmetry_multiplicity
 _atom_site_fract_x
 _atom_site_fract_y
 _atom_site_fract_z
 _atom_site_occupancy
  V  V0  1  0.74629698  0.00235646  0.24860663  1
  V  V1  1  0.88721753  0.26202201  0.12276609  1
  V  V2  1  0.62097066  0.74865756  0.87549148  1
  V  V3  1  0.13188798  -0.00185191  0.61758281  1
  V  V4  1  0.49912572  0.88448797  0.88721597  1
  V  V5  1  0.87494581  0.49911541  0.37246724  1
  V  V6  1  0.36795100  0.63043543  0.25151546  1
  V  V7  1  0.25036107  0.49329697  0.74427959  1
  V  V8  1  0.12002014  0.12868357  0.01112962  1
  V  V9  1  0.00368894  0.12363532  0.62012688  1
  V  V10  1  0.37564352  -0.00040198  0.37488726  1
  V  V11  1  0.51032604  0.37362185  0.37827737  1
  V  V12  1  0.00048567  0.24828673  0.75002479  1
  V  V13  1  0.62363556  0.00437034  0.11140562  1
  V  V14  1  0.62821472  0.00278142  0.62414297  1
  V  V15  1  0.49980728  0.49985120  0.50081112  1
  V  V16  1  0.62640010  0.37699792  0.23348675  1
  V  V17  1  0.00700950  0.87314823  0.37204612  1
  V  V18  1  0.00140470  0.00199701  0.49766016  1
  V  V19  1  0.00264700  0.62556416  0.61606098  1
  V  V20  1  0.12558101  0.36391985  0.24774679  1
  V  V21  1  0.25363912  0.49539794  0.23829480  1
  V  V22  1  0.50359090  0.24836882  0.25827247  1
  V  V23  1  0.36083258  0.50215694  0.87941332  1
  V  V24  1  0.62418228  0.87512477  0.74885925  1
  V  V25  1  0.87044151  0.63163735  0.74161879  1
  V  V26  1  0.11567436  0.49947792  0.12596314  1
  V  V27  1  -0.00162850  0.00248345  0.00588783  1
  V  V28  1  0.87364204  0.24755655  0.62281419  1
  V  V29  1  0.50548922  0.12504683  0.11732179  1
  V  V30  1  0.74695720  0.12294182  0.88450167  1
  V  V31  1  0.81162818  0.45781616  0.81159875  1
  V  V32  1  0.25527797  0.76548979  0.00076467  1
  V  V33  1  0.49334362  0.37234876  0.88040782  1
  V  V34  1  0.49788622  0.62774459  0.62818572  1
  V  V35  1  0.37176139  0.25476075  0.12819508  1
  V  V36  1  0.13087045  0.74115017  0.87530283  1
  V  V37  1  0.62440665  0.38075304  0.75787429  1
  V  V38  1  0.36080570  0.75497093  0.62098547  1
  V  V39  1  0.00665019  0.74797211  0.24914510  1
  V  V40  1  0.36873714  0.62480697  0.75487972  1
  V  V41  1  0.13117060  0.87410946  0.74575683  1
  V  V42  1  0.00036822  0.86839357  0.87381055  1
  V  V43  1  0.75546093  0.86916797  0.62486888  1
  V  V44  1  0.74441322  0.49802457  0.23643519  1
  V  V45  1  0.62829617  0.50159462  0.63140391  1
  V  V46  1  0.88265433  0.13034935  0.23926432  1
  V  V47  1  0.18888019  0.67903867  0.43301691  1
  V  V48  1  0.75017821  0.62473397  0.37425944  1
  V  V49  1  0.74374953  0.13076960  0.37317035  1
  V  V50  1  -0.00171146  0.75051002  0.73886404  1
  V  V51  1  0.24774703  0.25994018  0.00422100  1
  V  V52  1  0.12130046  0.24767790  0.87492625  1
  V  V53  1  0.25415405  -0.00186515  0.74903501  1
  V  V54  1  0.49912198  0.12789250  0.62695637  1
  V  V55  1  0.49891832  -0.00407926  0.50226463  1
  V  V56  1  0.87852999  0.86909439  0.50084027  1
  V  V57  1  0.13104547  -0.00944873  0.12607749  1
  V  V58  1  0.37196554  0.76588685  0.12410555  1
  V  V59  1  0.75089096  0.37893072  0.62890454  1
  V  V60  1  0.12821768  0.37235246  0.74257663  1
  V  V61  1  0.87645628  -0.00007237  0.87431182  1
  V  V62  1  0.24337447  0.12394815  0.37380631  1
  V  V63  1  0.12919146  0.49946923  0.61481396  1
  V  V64  1  0.87941844  0.74819127  0.12463731  1
  V  V65  1  0.62548735  0.62535769  0.50149692  1
  V  V66  1  0.74973985  0.87566810  0.12540147  1
  V  V67  1  0.36926619  0.37525116  0.50126147  1
  V  V68  1  0.87336648  0.00113973  0.37268979  1
  V  V69  1  0.49960978  0.75038410  0.25045262  1
  V  V70  1  0.36993346  0.50366342  0.37467789  1
  V  V71  1  0.36931300  0.25458789  0.62707417  1
  V  V72  1  0.87666261  0.37555725  0.49711378  1
  V  V73  1  0.25006073  0.12505093  0.87608231  1
  V  V74  1  0.24363044  0.24692742  0.49910505  1
  V  V75  1  0.62524324  0.75169438  0.37672032  1
  V  V76  1  0.87946536  0.62385172  0.24569935  1
  V  V77  1  0.62304911  0.62212346  0.00941874  1
  V  V78  1  0.75001456  0.74838587  0.00112158  1
  V  V79  1  0.61966303  0.24357252  0.88238189  1
  V  V80  1  0.75010431  0.62335798  0.86988830  1
  V  V81  1  0.74980808  0.26381808  0.00998057  1
  V  V82  1  0.49665293  0.50131320  0.00623176  1
  V  V83  1  0.74211067  0.25170637  0.49732588  1
  V  V84  1  0.13067528  0.62550732  0.00956605  1
  Zn  Zn85  1  0.00781105  0.50313761  0.49075940  1
  Zn  Zn86  1  0.13633673  0.86587320  0.24816387  1
  Zn  Zn87  1  0.36663490  -0.01577479  0.89881828  1
  Zn  Zn88  1  -0.01114234  0.37899190  0.87764048  1
  Zn  Zn89  1  0.87601712  0.87078778  -0.00136350  1
  Zn  Zn90  1  0.49784414  0.62421803  0.12668840  1
  Zn  Zn91  1  0.36307713  0.38097493  0.00682729  1
  Zn  Zn92  1  0.75128230  0.00327050  0.75051702  1
  Zn  Zn93  1  0.25911663  -0.00513639  0.24434943  1
  Zn  Zn94  1  0.49641122  0.24957147  0.75481098  1
  Zn  Zn95  1  0.37343734  0.12460042  0.74847012  1
  Zn  Zn96  1  0.35897045  0.87497053  0.50392489  1
  Zn  Zn97  1  0.37756283  0.12597484  0.25221765  1
  Zn  Zn98  1  0.11557234  0.24300494  0.37606404  1
  Zn  Zn99  1  -0.00376454  0.36591261  0.36471575  1
  Zn  Zn100  1  0.62449719  0.87576443  0.25099536  1
  Zn  Zn101  1  0.87350537  0.12249676  0.74976339  1
  Zn  Zn102  1  0.49768321  0.87308408  0.37908309  1
  Zn  Zn103  1  -0.01464504  0.49228150  -0.00374771  1
  Zn  Zn104  1  0.49473665  0.75192207  0.75192566  1
  Zn  Zn105  1  0.75554169  0.74747112  0.50266668  1
  Zn  Zn106  1  0.62272641  0.13054554  0.49707784  1
  Zn  Zn107  1  0.19100900  0.18104539  0.18758731  1
  Zn  Zn108  1  0.18710492  0.18309787  0.68298656  1
  Zn  Zn109  1  0.19401198  0.68768219  0.18643676  1
  Zn  Zn110  1  0.18583311  0.67944199  0.69092531  1
  Zn  Zn111  1  0.68539798  0.19155199  0.18953713  1
  Zn  Zn112  1  0.68682190  0.18910236  0.69364073  1
  Zn  Zn113  1  0.68931542  0.68700121  0.18963872  1
  Zn  Zn114  1  0.68664543  0.68971463  0.68881630  1
  Zn  Zn115  1  0.31261351  0.31468983  0.31477767  1
  Zn  Zn116  1  0.30940632  0.31193682  0.81515564  1
  Zn  Zn117  1  0.30755987  0.81644728  0.31797178  1
  Zn  Zn118  1  0.31321097  0.81170888  0.81405323  1
  Zn  Zn119  1  0.80938231  0.31136231  0.30766385  1
  Zn  Zn120  1  0.81043343  0.29376236  0.81361979  1
  Zn  Zn121  1  0.81465799  0.81319094  0.31282106  1
  Zn  Zn122  1  0.81285804  0.81057671  0.81121927  1
  Zn  Zn123  1  0.18990248  0.43694559  0.42894508  1
  Zn  Zn124  1  0.15344771  0.44938745  0.92288861  1
  Zn  Zn125  1  0.18861107  0.93847742  0.43312537  1
  Zn  Zn126  1  0.18275059  0.93835382  0.93528207  1
  Zn  Zn127  1  0.69051172  0.44029829  0.43747301  1
  Zn  Zn128  1  0.68002295  0.43469531  0.94844235  1
  Zn  Zn129  1  0.68861303  0.93741257  0.43895984  1
  Zn  Zn130  1  0.68849788  0.93496614  0.93769853  1
  Zn  Zn131  1  0.31079270  0.06677080  0.06521780  1
  Zn  Zn132  1  0.31229540  0.06494800  0.56004563  1
  Zn  Zn133  1  0.30966082  0.57524113  0.06232178  1
  Zn  Zn134  1  0.31128094  0.56437009  0.56348348  1
  Zn  Zn135  1  0.81101296  0.06562415  0.06060897  1
  Zn  Zn136  1  0.81378976  0.06131672  0.56053057  1
  Zn  Zn137  1  0.81249738  0.55823845  0.06154579  1
  Zn  Zn138  1  0.81355625  0.56166441  0.56305136  1
  Zn  Zn139  1  0.43845801  0.43543582  0.18889001  1
  Zn  Zn140  1  0.43800259  0.43648465  0.68946114  1
  Zn  Zn141  1  0.44307044  0.93910405  0.18957402  1
  Zn  Zn142  1  0.43935260  0.93685276  0.69102425  1
  Zn  Zn143  1  0.94079339  0.43629392  0.18647842  1
  Zn  Zn144  1  0.94548799  0.43581397  0.68111862  1
  Zn  Zn145  1  0.93678739  0.93668879  0.18644793  1
  Zn  Zn146  1  0.93933947  0.93649857  0.68643717  1
  Zn  Zn147  1  0.06141390  0.06330409  0.30984260  1
  Zn  Zn148  1  0.06349047  0.06105131  0.81222378  1
  Zn  Zn149  1  0.06281557  0.56115493  0.30884441  1
  Zn  Zn150  1  0.06006517  0.56423196  0.80892083  1
  Zn  Zn151  1  0.56360011  0.06262335  0.31253109  1
  Zn  Zn152  1  0.56229358  0.06269007  0.81143939  1
  Zn  Zn153  1  0.56003662  0.56246148  0.31199663  1
  Zn  Zn154  1  0.55547693  0.56043915  0.81855698  1
  Zn  Zn155  1  0.43503918  0.18604416  0.43961358  1
  Zn  Zn156  1  0.41899722  0.15438443  0.95807992  1
  Zn  Zn157  1  0.43309342  0.68717222  0.43911861  1
  Zn  Zn158  1  0.43444992  0.68920538  0.93785343  1
  Zn  Zn159  1  0.93299012  0.18627078  0.43285564  1
  Zn  Zn160  1  0.93456900  0.18914097  0.94168950  1
  Zn  Zn161  1  0.94330003  0.68979189  0.43370283  1
  Zn  Zn162  1  0.92369631  0.65170187  0.95389702  1
  Zn  Zn163  1  0.06153584  0.32045078  0.06282890  1
  Zn  Zn164  1  0.06008578  0.31444427  0.55932043  1
  Zn  Zn165  1  0.06068443  0.81047398  0.05935961  1
  Zn  Zn166  1  0.17865382  0.81187278  0.55997642  1
  Zn  Zn167  1  0.55715871  0.30725726  0.06107729  1
  Zn  Zn168  1  0.56082638  0.31458510  0.56728270  1
  Zn  Zn169  1  0.56285293  0.81284609  0.06624748  1
  Zn  Zn170  1  0.56157921  0.81122476  0.56414950  1
  O  O171  1  0.12314809  0.11739034  0.11439429  1
  O  O172  1  0.11093097  0.11532896  0.62590978  1
  O  O173  1  0.13235184  0.61129188  0.12367157  1
  O  O174  1  0.11438448  0.61200962  0.63196965  1
  O  O175  1  0.61460091  0.11804199  0.13539161  1
  O  O176  1  0.61965280  0.11917347  0.62543558  1
  O  O177  1  0.62265637  0.63042125  0.11242304  1
  O  O178  1  0.61751861  0.62138595  0.62345108  1
  O  O179  1  0.38675566  0.38233471  0.38210331  1
  O  O180  1  0.37924720  0.38161651  0.87991649  1
  O  O181  1  0.37774831  0.88661276  0.38349181  1
  O  O182  1  0.39341245  0.87438502  0.87059493  1
  O  O183  1  0.87215367  0.38180174  0.37902956  1
  O  O184  1  0.86918396  0.38451234  0.85926957  1
  O  O185  1  0.88114429  0.88345031  0.37919517  1
  O  O186  1  0.88220391  0.88017024  0.87567604  1
  O  O187  1  0.25958156  0.00932689  0.37542473  1
  O  O188  1  0.25136806  0.00622829  0.86895078  1
  O  O189  1  0.26612904  0.49515656  0.36454447  1
  O  O190  1  0.25709060  0.49352921  0.86728921  1
  O  O191  1  0.75371559  0.00526443  0.36694544  1
  O  O192  1  0.75760484  0.00484381  0.87558772  1
  O  O193  1  0.75912623  0.50509054  0.36729190  1
  O  O194  1  0.74344253  0.50750590  0.87654082  1
  O  O195  1  0.25533033  0.50028949  0.13614683  1
  O  O196  1  0.24321812  0.50209509  0.63254266  1
  O  O197  1  0.23504575  1.00531488  0.12359035  1
  O  O198  1  0.23804905  1.01105444  0.63277285  1
  O  O199  1  0.74896826  0.50391804  0.13671316  1
  O  O200  1  0.74038033  0.49189803  0.62159327  1
  O  O201  1  0.74434359  0.99765152  0.13052241  1
  O  O202  1  0.74271107  0.99318537  0.62666413  1
  O  O203  1  0.01976802  0.38040149  0.24821719  1
  O  O204  1  0.00607178  0.36184539  0.75029622  1
  O  O205  1  -0.00161564  0.86685030  0.25593376  1
  O  O206  1  0.00656263  0.86816722  0.75385556  1
  O  O207  1  0.51044578  0.37213872  0.25829503  1
  O  O208  1  0.50584563  0.37451794  0.76405093  1
  O  O209  1  0.50357284  0.86222295  0.25573964  1
  O  O210  1  0.51343474  0.87314065  0.75504385  1
  O  O211  1  0.50179021  0.13683136  0.24891940  1
  O  O212  1  0.49794252  0.12744106  0.73892274  1
  O  O213  1  0.49371310  0.63518335  0.24869187  1
  O  O214  1  0.48826992  0.62386967  0.74433597  1
  O  O215  1  0.98040388  0.12237346  0.25231527  1
  O  O216  1  1.00040654  0.13406312  0.74267329  1
  O  O217  1  0.98934298  0.63258522  0.25366711  1
  O  O218  1  0.99108091  0.63154786  0.74548301  1
  O  O219  1  0.36405430  0.24889075  0.00887927  1
  O  O220  1  0.36944204  0.25756917  0.50670762  1
  O  O221  1  0.36335812  0.74834814  0.00704377  1
  O  O222  1  0.37913500  0.75203347  0.51753899  1
  O  O223  1  0.86298138  0.24533969  0.01375554  1
  O  O224  1  0.86415736  0.25701632  0.50552375  1
  O  O225  1  0.86881994  0.74361149  0.00859272  1
  O  O226  1  0.87515303  0.76518035  0.49342834  1
  O  O227  1  0.14082382  0.25930278  0.50022092  1
  O  O228  1  0.12726758  0.24350387  0.99734097  1
  O  O229  1  0.12873565  0.73640476  0.49451520  1
  O  O230  1  0.13577501  0.74986676  0.99482540  1
  O  O231  1  0.63816017  0.25180380  0.50772168  1
  O  O232  1  0.63656057  0.25738701  0.99279747  1
  O  O233  1  0.62628467  0.74314359  0.49341231  1
  O  O234  1  0.62853898  0.74318864  0.99296750  1
  O  O235  1  0.49721820  0.24348142  0.13812229  1
  O  O236  1  0.49162304  0.24308099  0.62682359  1
  O  O237  1  0.49471687  0.74862430  0.13421197  1
  O  O238  1  0.49731335  0.73747998  0.62938933  1
  O  O239  1  0.98591125  0.25028736  0.11940824  1
  O  O240  1  0.99560484  0.24155074  0.62733443  1
  O  O241  1  0.98550482  0.75548861  0.12982752  1
  O  O242  1  1.00787777  0.73990841  0.63833463  1
  O  O243  1  0.00326141  0.25366035  0.38271926  1
  O  O244  1  0.00195601  0.24913140  0.86477144  1
  O  O245  1  -0.00455509  0.76127567  0.36235076  1
  O  O246  1  0.00940646  0.76118069  0.86682426  1
  O  O247  1  0.49502840  0.25793165  0.36750568  1
  O  O248  1  0.50654274  0.25705557  0.87734125  1
  O  O249  1  0.50750888  0.74973850  0.37052974  1
  O  O250  1  0.50926997  0.75706852  0.87381017  1
  O  O251  1  0.25457993  0.13597763  0.48934834  1
  O  O252  1  0.23667116  0.13338680  0.99230034  1
  O  O253  1  0.25421746  0.62606404  0.49128273  1
  O  O254  1  0.23910750  0.64142128  0.99940260  1
  O  O255  1  0.75034895  0.13422178  0.49297610  1
  O  O256  1  0.75069921  0.13349478  0.98878667  1
  O  O257  1  0.74468404  0.62693880  0.49395496  1
  O  O258  1  0.73894866  0.62982709  0.99009274  1
  O  O259  1  0.24418042  0.36070621  -0.00681728  1
  O  O260  1  0.26484744  0.36846487  0.49123130  1
  O  O261  1  0.24844653  0.86550722  -0.00351650  1
  O  O262  1  0.24682814  0.88448516  0.51001626  1
  O  O263  1  0.75362524  0.36294357  -0.00240753  1
  O  O264  1  0.75807081  0.36994976  0.50459580  1
  O  O265  1  0.75266161  0.86542307  0.00572052  1
  O  O266  1  0.75897838  0.87517243  0.50772668  1
  O  O267  1  0.13451418  0.49733729  0.23920904  1
  O  O268  1  0.13314298  0.49146604  0.74068970  1
  O  O269  1  0.11815748  1.00213575  0.22961517  1
  O  O270  1  0.13214040  0.99251962  0.74378697  1
  O  O271  1  0.63020288  0.48851416  0.25411743  1
  O  O272  1  0.61788596  0.48858942  0.74966160  1
  O  O273  1  0.63660063  0.99837394  0.24630377  1
  O  O274  1  0.62691095  0.99361629  0.73931628  1
  O  O275  1  0.38107247  0.00347152  0.26217474  1
  O  O276  1  0.36154862  0.00081458  0.74729590  1
  O  O277  1  0.37265726  0.50554661  0.25542325  1
  O  O278  1  0.36822212  0.50335772  0.75554301  1
  O  O279  1  0.86415661  0.01008150  0.24920089  1
  O  O280  1  0.87550301  -0.00009791  0.76277935  1
  O  O281  1  0.86890988  0.50571239  0.25260658  1
  O  O282  1  0.87853193  0.50819285  0.74849951  1
  O  O283  1  0.12322618  0.37409866  0.35877853  1
  O  O284  1  0.12925343  0.35951935  0.85567344  1
  O  O285  1  0.10948574  0.88609621  0.36760861  1
  O  O286  1  0.11752415  0.87051826  0.86457566  1
  O  O287  1  0.61256437  0.38027789  0.37697440  1
  O  O288  1  0.61601784  0.36941229  0.87326920  1
  O  O289  1  0.62523697  0.86214589  0.37587269  1
  O  O290  1  0.61975351  0.86905153  0.86821335  1
  O  O291  1  0.38995116  0.13597603  0.13079468  1
  O  O292  1  0.38311323  0.13365577  0.62636681  1
  O  O293  1  0.37760172  0.63776493  0.13549818  1
  O  O294  1  0.38063795  0.63352979  0.63185805  1
  O  O295  1  0.87019782  0.13125985  0.13540751  1
  O  O296  1  0.88509397  0.12687930  0.62755935  1
  O  O297  1  0.86626805  0.63379242  0.13924353  1
  O  O298  1  0.88191154  0.62148078  0.63489965  1
  O  O299  1  0.25984647  0.24211641  0.11736689  1
  O  O300  1  0.26133217  0.24314336  0.61634510  1
  O  O301  1  0.25775499  0.75265184  0.11269338  1
  O  O302  1  0.25756937  0.74768999  0.62933480  1
  O  O303  1  0.75013751  0.24749291  0.11204223  1
  O  O304  1  0.75523583  0.25675500  0.62197248  1
  O  O305  1  0.75766334  0.75519739  0.12281521  1
  O  O306  1  0.74459929  0.76509817  0.62264778  1
  O  O307  1  0.25033405  0.24118512  0.38183071  1
  O  O308  1  0.24020426  0.24302208  0.88137223  1
  O  O309  1  0.24497238  0.73950912  0.37202787  1
  O  O310  1  0.24356099  0.75613548  0.88697869  1
  O  O311  1  0.75468934  0.24276919  0.38472896  1
  O  O312  1  0.74205722  0.24243667  0.88690171  1
  O  O313  1  0.74224718  0.74354893  0.37497979  1
  O  O314  1  0.73838868  0.74486846  0.87833094  1
  O  O315  1  0.00925461  0.11406772  -0.01070636  1
  O  O316  1  -0.00997303  0.11134786  0.50645502  1
  O  O317  1  0.02833664  0.63096601  -0.00451341  1
  O  O318  1  -0.01069399  0.62161654  0.51283981  1
  O  O319  1  0.51550185  0.14402219  0.02036056  1
  O  O320  1  0.50273538  0.11752262  0.51102576  1
  O  O321  1  0.50597617  0.61918183  -0.00097337  1
  O  O322  1  0.50413882  0.61943382  0.50921316  1
  O  O323  1  0.49419445  0.37988723  0.49563023  1
  O  O324  1  0.49681473  0.38163882  0.99190608  1
  O  O325  1  0.50054795  0.88782052  0.50268580  1
  O  O326  1  0.50807835  0.87454176  0.98545751  1
  O  O327  1  0.98424765  0.37960755  0.50047038  1
  O  O328  1  1.00004751  0.37880723  0.99201618  1
  O  O329  1  0.99114615  0.88841184  0.48966985  1
  O  O330  1  0.99817544  0.88098843  0.98899478  1
  O  O331  1  0.49270619  0.49371013  0.38141964  1
  O  O332  1  0.48585715  0.49234258  0.88510706  1
  O  O333  1  0.49602757  1.00040281  0.38570609  1
  O  O334  1  0.50161317  0.98672926  0.87159393  1
  O  O335  1  0.98546976  0.49659186  0.37311297  1
  O  O336  1  1.04047218  0.48769226  0.88668956  1
  O  O337  1  0.99322653  0.99827852  0.37980624  1
  O  O338  1  0.99504436  0.98987138  0.87945735  1
  O  O339  1  0.00435363  -0.00416951  0.11021113  1
  O  O340  1  0.00678089  0.00482211  0.61821559  1
  O  O341  1  0.01314664  0.50170596  0.12131870  1
  O  O342  1  0.01015719  0.50803480  0.62065622  1
  O  O343  1  0.50841633  0.01597449  0.13081313  1
  O  O344  1  0.50640909  0.00685128  0.62164179  1
  O  O345  1  0.49055617  0.50260535  0.11036590  1
  O  O346  1  0.50461486  0.51004604  0.62234814  1
  O  O347  1  0.24022717  0.38378807  0.25326270  1
  O  O348  1  0.24446828  0.38423732  0.74828893  1
  O  O349  1  0.24694041  0.88296552  0.25273287  1
  O  O350  1  0.24198512  0.88382456  0.75613210  1
  O  O351  1  0.73348983  0.38220894  0.25406430  1
  O  O352  1  0.74724232  0.38322344  0.75371284  1
  O  O353  1  0.75064834  0.88504119  0.24418991  1
  O  O354  1  0.74051435  0.87704617  0.74444061  1
  O  O355  1  0.25690900  0.11808632  0.25844791  1
  O  O356  1  0.24473132  0.11500021  0.75792974  1
  O  O357  1  0.26288107  0.61658995  0.24852254  1
  O  O358  1  0.26141259  0.61150345  0.74796834  1
  O  O359  1  0.75380573  0.12067293  0.25557419  1
  O  O360  1  0.75247400  0.12485326  0.76492236  1
  O  O361  1  0.75438544  0.61709703  0.25696276  1
  O  O362  1  0.75614012  0.62605656  0.75402261  1
  O  O363  1  0.36927929  0.11474210  0.37640483  1
  O  O364  1  0.35530692  0.13694474  0.86377128  1
  O  O365  1  0.38494285  0.61480331  0.36483697  1
  O  O366  1  0.37937826  0.61535051  0.86585679  1
  O  O367  1  0.86242274  0.11983030  0.36426706  1
  O  O368  1  0.86800150  0.11644919  0.87448231  1
  O  O369  1  0.87015956  0.61920724  0.36644588  1
  O  O370  1  0.85611321  0.63566227  0.85851475  1
  O  O371  1  0.12839457  0.38849580  0.13452947  1
  O  O372  1  0.11836715  0.38110146  0.63573710  1
  O  O373  1  0.12066967  0.88835165  0.12306816  1
  O  O374  1  0.12389266  0.88343195  0.63816078  1
  O  O375  1  0.61742329  0.37706792  0.13545601  1
  O  O376  1  0.62982822  0.37919609  0.63849695  1
  O  O377  1  0.63116002  0.88418634  0.12842729  1
  O  O378  1  0.63014659  0.88199400  0.63129660  1
  O  O379  1  0.13204915  0.26180519  0.24616955  1
  O  O380  1  0.11905512  0.25307388  0.74930794  1
  O  O381  1  0.11028741  0.74902930  0.23709907  1
  O  O382  1  0.12268743  0.75614677  0.75634847  1
  O  O383  1  0.61856717  0.26653470  0.25038510  1
  O  O384  1  0.62474663  0.26402817  0.76178094  1
  O  O385  1  0.61783353  0.74895413  0.25864113  1
  O  O386  1  0.62211491  0.75750069  0.75866556  1
  O  O387  1  0.38418117  0.25169229  0.24581406  1
  O  O388  1  0.37513663  0.25216150  0.73972180  1
  O  O389  1  0.38083298  0.74611337  0.24708041  1
  O  O390  1  0.37380685  0.74071628  0.74248858  1
  O  O391  1  0.86640672  0.23941482  0.23577622  1
  O  O392  1  0.88403651  0.24590898  0.74080618  1
  O  O393  1  0.88091539  0.74259979  0.24418237  1
  O  O394  1  0.88476667  0.74435811  0.74883555  1
  O  O395  1  0.37994207  0.49404096  0.49500648  1
  O  O396  1  0.37475867  0.50209955  0.99399662  1
  O  O397  1  0.38454317  0.99892990  0.49723497  1
  O  O398  1  0.38714585  1.04429056  0.98947986  1
  O  O399  1  0.87185901  0.49173089  0.48899088  1
  O  O400  1  0.88703409  0.54486745  0.98368836  1
  O  O401  1  0.87931050  0.99251614  0.49232221  1
  O  O402  1  0.88144461  0.99907415  0.99049393  1
  O  O403  1  0.11857174  0.00584784  0.00790643  1
  O  O404  1  0.11445302  -0.00276337  0.50924709  1
  O  O405  1  0.14215425  0.50872003  0.01981203  1
  O  O406  1  0.12605629  0.48689571  0.51092276  1
  O  O407  1  0.63135898  0.00097161  0.01203823  1
  O  O408  1  0.62011066  0.00211358  0.51138715  1
  O  O409  1  0.61068717  0.51109198  -0.00604978  1
  O  O410  1  0.61929571  0.50599482  0.50736875  1
  O  O411  1  0.38227392  0.35995209  0.12239868  1
  O  O412  1  0.38306771  0.36696338  0.61433385  1
  O  O413  1  0.38305008  0.86511525  0.12649441  1
  O  O414  1  0.38171276  0.85618029  0.62950747  1
  O  O415  1  0.87373263  0.36117392  0.13264935  1
  O  O416  1  0.86927031  0.37113197  0.61777703  1
  O  O417  1  0.86727041  0.86716465  0.12187274  1
  O  O418  1  0.86658606  0.88280173  0.61528363  1
  O  O419  1  0.13805336  0.12429486  0.36921387  1
  O  O420  1  0.13144361  0.12885637  0.88071725  1
  O  O421  1  0.12738798  0.61422635  0.38262663  1
  O  O422  1  0.12869744  0.63935636  0.87441816  1
  O  O423  1  0.63893128  0.12102675  0.37851771  1
  O  O424  1  0.62937569  0.13632159  0.87046785  1
  O  O425  1  0.62868846  0.63293697  0.38026449  1
  O  O426  1  0.62985917  0.63251554  0.87692978  1
