# generated using pymatgen
data_V85Zn86O256
_symmetry_space_group_name_H-M   'P 1'
_cell_length_a   16.92146865
_cell_length_b   16.91566660
_cell_length_c   16.92491931
_cell_angle_alpha   89.99099755
_cell_angle_beta   90.00057579
_cell_angle_gamma   89.99891000
_symmetry_Int_Tables_number   1
_chemical_formula_structural   V85Zn86O256
_chemical_formula_sum   'V85 Zn86 O256'
_cell_volume   4844.55367297
_cell_formula_units_Z   1
loop_
 _symmetry_equiv_pos_site_id
 _symmetry_equiv_pos_as_xyz
  1  'x, y, z'
loop_
 _atom_site_type_symbol
 _atom_site_label
 _atom_site_symmetry_multiplicity
 _atom_site_fract_x
 _atom_site_fract_y
 _atom_site_fract_z
 _atom_site_occupancy
  V  V0  1  0.25826968  0.87036329  0.12646737  1
  V  V1  1  0.12333295  0.36763136  0.73231548  1
  V  V2  1  0.49858003  -0.00032028  0.50110805  1
  V  V3  1  0.37983927  0.74411206  0.62330410  1
  V  V4  1  0.25481372  -0.00373692  0.75960309  1
  V  V5  1  0.75095126  0.50244277  0.24992643  1
  V  V6  1  0.36861667  0.86876619  0.49918355  1
  V  V7  1  -0.00675249  0.87555170  0.38202504  1
  V  V8  1  0.76485123  0.75355074  0.50431422  1
  V  V9  1  0.49204287  0.62778833  0.11898593  1
  V  V10  1  0.24758650  0.25246549  0.48832134  1
  V  V11  1  0.88001375  0.37515765  -0.00058002  1
  V  V12  1  0.00439065  0.13300530  0.63003897  1
  V  V13  1  0.12958718  0.25238756  0.87802892  1
  V  V14  1  -0.00013273  0.62579519  0.62773410  1
  V  V15  1  0.37364641  0.50281013  0.36929736  1
  V  V16  1  0.11834351  0.36664414  0.25048102  1
  V  V17  1  0.62736789  0.50328639  0.12361393  1
  V  V18  1  0.75162457  0.49687979  0.74573810  1
  V  V19  1  0.62450556  0.25391011  0.86890088  1
  V  V20  1  0.62522661  0.74996496  0.37543832  1
  V  V21  1  0.37300727  0.12972122  0.25391955  1
  V  V22  1  0.62568366  0.25233655  0.37655028  1
  V  V23  1  0.49936201  0.24625323  0.24985305  1
  V  V24  1  0.25145809  0.12589867  0.88026192  1
  V  V25  1  0.75027429  0.12503381  0.37610385  1
  V  V26  1  0.12145119  0.00146531  0.12790868  1
  V  V27  1  0.63777137  0.62550145  -0.00547164  1
  V  V28  1  0.75037212  0.62760664  0.37673829  1
  V  V29  1  0.44279080  0.18461824  0.08226711  1
  V  V30  1  0.62421974  0.12460494  0.50185276  1
  V  V31  1  0.62577862  0.87094643  0.74841078  1
  V  V32  1  0.62608777  0.87484579  0.24794897  1
  V  V33  1  0.00953188  0.62584634  0.11780341  1
  V  V34  1  0.87022597  0.75583132  0.11045458  1
  V  V35  1  0.49253161  -0.00269188  -0.00123466  1
  V  V36  1  0.01134272  0.49997576  0.50405961  1
  V  V37  1  0.12984362  0.12400503  0.48323088  1
  V  V38  1  0.49936939  0.87487246  0.37428535  1
  V  V39  1  0.76373853  0.87086064  0.62488965  1
  V  V40  1  0.75136298  -0.00245865  0.75183904  1
  V  V41  1  0.50030591  0.49675473  -0.00497290  1
  V  V42  1  0.63033811  0.48964958  0.62053310  1
  V  V43  1  0.62458968  0.12883921  0.00601565  1
  V  V44  1  0.87772003  0.63037509  0.24730230  1
  V  V45  1  0.87675020  -0.00005849  0.37768359  1
  V  V46  1  0.87078103  0.37710471  0.50443901  1
  V  V47  1  0.49859866  0.50541416  0.50421600  1
  V  V48  1  0.25881926  0.36240944  0.12044312  1
  V  V49  1  0.12663341  0.75172169  0.38599112  1
  V  V50  1  0.37164634  0.49356284  0.87329547  1
  V  V51  1  0.00103890  0.36844327  0.86815532  1
  V  V52  1  0.36975558  0.00584509  0.37909590  1
  V  V53  1  0.62471005  -0.00216670  0.62594596  1
  V  V54  1  0.36991892  0.25628336  0.62949590  1
  V  V55  1  0.37947666  0.61758294  0.74415910  1
  V  V56  1  0.24334488  0.49289353  0.73059786  1
  V  V57  1  0.12515214  0.86883778  0.75421807  1
  V  V58  1  0.87328806  -0.00212836  0.88221050  1
  V  V59  1  -0.00744103  -0.00173419  0.50458787  1
  V  V60  1  0.24890211  0.63089277  0.37675079  1
  V  V61  1  -0.00330758  0.13989417  0.12633703  1
  V  V62  1  -0.00185935  -0.00206293  0.00403333  1
  V  V63  1  0.24814056  0.86750225  0.62386244  1
  V  V64  1  0.37960359  0.12051393  0.74825030  1
  V  V65  1  0.24482369  0.00835419  0.25610138  1
  V  V66  1  0.75896552  0.37348751  0.12809947  1
  V  V67  1  0.87258621  0.50718450  0.87176313  1
  V  V68  1  0.87808864  0.13818785  0.24715925  1
  V  V69  1  0.88062726  0.13046512  0.75487688  1
  V  V70  1  0.75740935  0.24940076  0.00354274  1
  V  V71  1  0.75295121  -0.00128815  0.24862037  1
  V  V72  1  0.49639052  0.37693030  0.37550750  1
  V  V73  1  -0.01345631  0.75083691  0.74872133  1
  V  V74  1  -0.00178525  0.87317319  0.88212090  1
  V  V75  1  0.62304325  0.62942703  0.50924033  1
  V  V76  1  0.63555498  0.74470822  0.87630506  1
  V  V77  1  0.88185883  0.50122141  0.37669673  1
  V  V78  1  0.49153590  0.87239070  0.87205307  1
  V  V79  1  0.62067350  0.00221176  0.12569395  1
  V  V80  1  0.86909534  0.25534829  0.63103383  1
  V  V81  1  0.49371890  0.75060281  0.24246236  1
  V  V82  1  0.24025658  0.61769169  0.87910654  1
  V  V83  1  0.12481465  0.00083975  0.62838513  1
  V  V84  1  0.12246964  0.87843128  0.25420947  1
  Zn  Zn85  1  0.37506309  0.36078905  0.00133539  1
  Zn  Zn86  1  0.00806957  0.50622729  -0.00863417  1
  Zn  Zn87  1  0.74464237  0.25921346  0.50695411  1
  Zn  Zn88  1  0.36509453  0.37888995  0.50269248  1
  Zn  Zn89  1  0.37514004  0.86522335  -0.00119480  1
  Zn  Zn90  1  0.62569724  0.37712474  0.24913116  1
  Zn  Zn91  1  0.86423101  0.63338878  0.74700287  1
  Zn  Zn92  1  0.12813992  0.12919609  0.00208472  1
  Zn  Zn93  1  0.24486155  0.49831757  0.24765112  1
  Zn  Zn94  1  0.62497523  0.36808442  0.73873990  1
  Zn  Zn95  1  0.00150797  0.36090132  0.37177307  1
  Zn  Zn96  1  0.75131707  0.12602157  0.87646275  1
  Zn  Zn97  1  0.25201401  0.73554884  0.01095742  1
  Zn  Zn98  1  0.50225410  0.73917905  0.74836645  1
  Zn  Zn99  1  0.49647097  0.37085680  0.86247682  1
  Zn  Zn100  1  0.12342706  0.74064213  0.88488301  1
  Zn  Zn101  1  0.36999573  0.62945219  0.24359938  1
  Zn  Zn102  1  0.13168209  0.62567402  0.50977718  1
  Zn  Zn103  1  0.75151388  0.87394168  0.10918819  1
  Zn  Zn104  1  -0.00038825  0.75250831  0.24934738  1
  Zn  Zn105  1  0.13216843  0.49779853  0.11982224  1
  Zn  Zn106  1  0.50126576  0.12942284  0.63257345  1
  Zn  Zn107  1  0.18973728  0.18856904  0.18504713  1
  Zn  Zn108  1  0.19293729  0.18929332  0.68853711  1
  Zn  Zn109  1  0.18605483  0.69109821  0.19713635  1
  Zn  Zn110  1  0.18689947  0.68499768  0.69117017  1
  Zn  Zn111  1  0.68911639  0.18874249  0.18781825  1
  Zn  Zn112  1  0.69305560  0.18253507  0.68847621  1
  Zn  Zn113  1  0.68652806  0.68807900  0.18360177  1
  Zn  Zn114  1  0.69102028  0.68546520  0.68825183  1
  Zn  Zn115  1  0.30776945  0.31313955  0.31083627  1
  Zn  Zn116  1  0.30855069  0.31198558  0.80912864  1
  Zn  Zn117  1  0.31052887  0.81472967  0.31143886  1
  Zn  Zn118  1  0.31358495  0.80304151  0.81298452  1
  Zn  Zn119  1  0.81286596  0.31595119  0.31833179  1
  Zn  Zn120  1  0.80773898  0.31620488  0.81234683  1
  Zn  Zn121  1  0.81289548  0.81276534  0.31214451  1
  Zn  Zn122  1  0.80981172  0.81480170  0.93132501  1
  Zn  Zn123  1  0.18784994  0.43567319  0.43092613  1
  Zn  Zn124  1  0.18767053  0.43509589  0.94062651  1
  Zn  Zn125  1  0.18439693  0.93978247  0.44013989  1
  Zn  Zn126  1  0.18412988  0.93446394  0.94224895  1
  Zn  Zn127  1  0.68854943  0.44014295  0.43620007  1
  Zn  Zn128  1  0.69264679  0.43860415  0.93542682  1
  Zn  Zn129  1  0.69006687  0.93518884  0.43928361  1
  Zn  Zn130  1  0.67844476  0.93993712  0.93452672  1
  Zn  Zn131  1  0.30743821  0.05423210  0.06275017  1
  Zn  Zn132  1  0.30793439  0.06148641  0.56760141  1
  Zn  Zn133  1  0.31169598  0.55147996  0.06110441  1
  Zn  Zn134  1  0.31206143  0.56403785  0.55657964  1
  Zn  Zn135  1  0.81232322  0.06259402  0.06507415  1
  Zn  Zn136  1  0.81121251  0.06536031  0.56770878  1
  Zn  Zn137  1  0.81957233  0.56165944  0.06188762  1
  Zn  Zn138  1  0.81555199  0.56581543  0.56584074  1
  Zn  Zn139  1  0.43726737  0.43673505  0.18548421  1
  Zn  Zn140  1  0.44051928  0.43268254  0.68664621  1
  Zn  Zn141  1  0.43805937  0.94310992  0.18981052  1
  Zn  Zn142  1  0.43791563  0.93621654  0.68674450  1
  Zn  Zn143  1  0.94181891  0.44003171  0.18806408  1
  Zn  Zn144  1  0.94146341  0.43907273  0.68581924  1
  Zn  Zn145  1  0.93709727  0.93864762  0.19034884  1
  Zn  Zn146  1  0.93919212  0.94007006  0.69407888  1
  Zn  Zn147  1  0.05802027  0.18970557  0.31299934  1
  Zn  Zn148  1  0.06447101  0.06152642  0.81383771  1
  Zn  Zn149  1  0.06552250  0.56082465  0.30669255  1
  Zn  Zn150  1  0.06133865  0.55399115  0.80476492  1
  Zn  Zn151  1  0.56017618  0.06394829  0.31328812  1
  Zn  Zn152  1  0.56325713  0.06140807  0.81713975  1
  Zn  Zn153  1  0.56203940  0.56562185  0.31151949  1
  Zn  Zn154  1  0.56368740  0.55738551  0.80917546  1
  Zn  Zn155  1  0.43532021  0.18876305  0.44141926  1
  Zn  Zn156  1  0.44041196  0.18241477  0.91729016  1
  Zn  Zn157  1  0.43707524  0.68803668  0.43518813  1
  Zn  Zn158  1  0.43358003  0.68710674  0.93532054  1
  Zn  Zn159  1  0.93238068  0.18477220  0.44649645  1
  Zn  Zn160  1  0.94232950  0.18840852  0.93915980  1
  Zn  Zn161  1  0.94269109  0.68563102  0.43857018  1
  Zn  Zn162  1  0.94133169  0.68534898  0.93449914  1
  Zn  Zn163  1  0.06974037  0.31879037  0.05876922  1
  Zn  Zn164  1  0.05659138  0.30541210  0.54853873  1
  Zn  Zn165  1  0.06786289  0.80829555  0.06210485  1
  Zn  Zn166  1  0.05754442  0.81086962  0.56644487  1
  Zn  Zn167  1  0.57142250  0.32100523  0.05843576  1
  Zn  Zn168  1  0.55180650  0.31190884  0.56178105  1
  Zn  Zn169  1  0.56621183  0.81251096  0.05865839  1
  Zn  Zn170  1  0.56134221  0.81198785  0.56294047  1
  O  O171  1  0.11795473  0.11497063  0.12684959  1
  O  O172  1  0.11752754  0.11940268  0.63020066  1
  O  O173  1  0.11118614  0.62963680  0.13292306  1
  O  O174  1  0.11047593  0.63145453  0.62474241  1
  O  O175  1  0.62849366  0.11916805  0.11492271  1
  O  O176  1  0.62283620  0.11979019  0.61882563  1
  O  O177  1  0.61802625  0.62092526  0.11488638  1
  O  O178  1  0.62716076  0.61667829  0.61227982  1
  O  O179  1  0.38090960  0.38307248  0.37567149  1
  O  O180  1  0.37450386  0.38079489  0.87670678  1
  O  O181  1  0.37764208  0.88269375  0.38218777  1
  O  O182  1  0.38761420  0.87197460  0.86968803  1
  O  O183  1  0.88038999  0.38586421  0.38035300  1
  O  O184  1  0.88172444  0.37970813  0.87979406  1
  O  O185  1  0.88618742  0.88011422  0.37185629  1
  O  O186  1  0.88934929  0.88308975  0.87610844  1
  O  O187  1  0.25826842  -0.00601995  0.36787979  1
  O  O188  1  0.24163368  0.00275871  0.86414553  1
  O  O189  1  0.25892707  0.50618191  0.37011625  1
  O  O190  1  0.25531048  0.50207710  0.86601980  1
  O  O191  1  0.75517897  0.00396239  0.36934805  1
  O  O192  1  0.75709075  0.00257738  0.86989612  1
  O  O193  1  0.76147473  0.50707396  0.37072583  1
  O  O194  1  0.75999975  0.49560846  0.86229087  1
  O  O195  1  0.25170822  0.48757260  0.13075179  1
  O  O196  1  0.25152813  0.49844140  0.63196459  1
  O  O197  1  0.23988072  0.99515532  0.13650300  1
  O  O198  1  0.24354935  0.98792796  0.63590119  1
  O  O199  1  0.74860053  0.49601558  0.13080205  1
  O  O200  1  0.74348655  0.50009532  0.63071641  1
  O  O201  1  0.74065563  0.99848313  0.13300734  1
  O  O202  1  0.74349608  0.99349149  0.63065072  1
  O  O203  1  0.01149409  0.37292641  0.24827544  1
  O  O204  1  0.01492469  0.37879787  0.75446468  1
  O  O205  1  0.00755629  0.87793880  0.26132865  1
  O  O206  1  0.00698800  0.86959645  0.75782329  1
  O  O207  1  0.50096030  0.36506058  0.25898011  1
  O  O208  1  0.51275063  0.37841757  0.75027935  1
  O  O209  1  0.50564428  0.87008892  0.25329557  1
  O  O210  1  0.51091258  0.87565634  0.75483694  1
  O  O211  1  0.49337881  0.13731790  0.25198210  1
  O  O212  1  0.48519911  0.11756294  0.75318340  1
  O  O213  1  0.50139016  0.63452067  0.23880541  1
  O  O214  1  0.48378862  0.61738064  0.74906922  1
  O  O215  1  0.99050039  0.12811927  0.24007548  1
  O  O216  1  0.98956065  0.11886897  0.74421730  1
  O  O217  1  0.99194271  0.62944088  0.24148295  1
  O  O218  1  1.00010765  0.63193256  0.74267472  1
  O  O219  1  0.39422279  0.24126759  0.00834389  1
  O  O220  1  0.36142352  0.24858175  0.50569495  1
  O  O221  1  0.36342748  0.75206053  -0.00658605  1
  O  O222  1  0.37757028  0.76163277  0.50429184  1
  O  O223  1  0.86449168  0.25643679  -0.00498922  1
  O  O224  1  0.87006974  0.25904662  0.51106464  1
  O  O225  1  0.87394426  0.74868658  0.00605866  1
  O  O226  1  0.86368578  0.74781198  0.49495060  1
  O  O227  1  0.13655830  0.23437546  0.50407434  1
  O  O228  1  0.12253235  0.24749535  0.98376954  1
  O  O229  1  0.12199988  0.75151888  0.48903423  1
  O  O230  1  0.14126082  0.75877777  0.99544613  1
  O  O231  1  0.62310451  0.24423082  0.49237309  1
  O  O232  1  0.63507814  0.24501972  0.99543297  1
  O  O233  1  0.62726269  0.74381400  0.49452236  1
  O  O234  1  0.62228480  0.74128960  0.98513252  1
  O  O235  1  0.50877048  0.25265012  0.13346403  1
  O  O236  1  0.47800129  0.24296460  0.61436868  1
  O  O237  1  0.50785015  0.74147514  0.13104033  1
  O  O238  1  0.48464037  0.75508650  0.62804566  1
  O  O239  1  1.00417541  0.23797220  0.11374874  1
  O  O240  1  0.98963159  0.23680346  0.61927802  1
  O  O241  1  0.98962162  0.74327384  0.12582109  1
  O  O242  1  0.99950485  0.74236148  0.63580628  1
  O  O243  1  0.00320099  0.24862392  0.39006770  1
  O  O244  1  0.00597463  0.26154858  0.87413105  1
  O  O245  1  0.00631953  0.75900241  0.37422616  1
  O  O246  1  0.00452491  0.75773424  0.87061948  1
  O  O247  1  0.50516525  0.25699488  0.37105951  1
  O  O248  1  0.51967768  0.25268294  0.87902746  1
  O  O249  1  0.50654525  0.75633586  0.36731657  1
  O  O250  1  0.50696796  0.75678425  0.86904909  1
  O  O251  1  0.23484877  0.12482853  0.50181371  1
  O  O252  1  0.24845753  0.11388236  0.98475955  1
  O  O253  1  0.24579654  0.62152681  0.48355408  1
  O  O254  1  0.25357177  0.61568234  0.98212010  1
  O  O255  1  0.73737893  0.12533947  0.49596500  1
  O  O256  1  0.74335503  0.13297000  1.00127871  1
  O  O257  1  0.74391997  0.63325037  0.49626682  1
  O  O258  1  0.73706339  0.61772146  1.00271584  1
  O  O259  1  0.25596019  0.37394876  0.01428959  1
  O  O260  1  0.24610097  0.35819416  0.49480079  1
  O  O261  1  0.25466049  0.88773578  0.02012946  1
  O  O262  1  0.25711745  0.88127255  0.51097648  1
  O  O263  1  0.76116276  0.37023357  0.00625273  1
  O  O264  1  0.76568654  0.37763728  0.49408883  1
  O  O265  1  0.74794928  0.88011742  -0.00310312  1
  O  O266  1  0.74529656  0.86556948  0.51171687  1
  O  O267  1  0.12424054  0.48761512  0.24068578  1
  O  O268  1  0.13610410  0.48558942  0.74574864  1
  O  O269  1  0.13241412  0.99152624  0.24687292  1
  O  O270  1  0.12931619  0.98729329  0.74615534  1
  O  O271  1  0.63227910  0.50067976  0.24392903  1
  O  O272  1  0.63378604  0.50092588  0.73670311  1
  O  O273  1  0.62995348  0.99863536  0.24337429  1
  O  O274  1  0.62994387  0.99399019  0.74676345  1
  O  O275  1  0.37008119  0.01019721  0.25903158  1
  O  O276  1  0.36390627  0.00496276  0.74315012  1
  O  O277  1  0.38137203  0.50470891  0.26194914  1
  O  O278  1  0.36335542  0.49861526  0.75095291  1
  O  O279  1  0.86682153  0.00663556  0.25579982  1
  O  O280  1  0.87273367  0.00583964  0.76466014  1
  O  O281  1  0.87295446  0.51159214  0.25676659  1
  O  O282  1  0.86536192  0.49704591  0.75339785  1
  O  O283  1  0.12247656  0.37871808  0.35572301  1
  O  O284  1  0.11924572  0.36820812  0.86760921  1
  O  O285  1  0.11623112  0.87290130  0.37230544  1
  O  O286  1  0.11369816  0.87792072  0.86892244  1
  O  O287  1  0.61798165  0.36843084  0.37400649  1
  O  O288  1  0.62815593  0.35977877  0.87914469  1
  O  O289  1  0.61936761  0.87143414  0.36853905  1
  O  O290  1  0.61720117  0.86300287  0.86664859  1
  O  O291  1  0.37592867  0.12034316  0.13426878  1
  O  O292  1  0.37554949  0.12869821  0.63289473  1
  O  O293  1  0.38850517  0.61873500  0.12352135  1
  O  O294  1  0.36733067  0.63315115  0.62905167  1
  O  O295  1  0.88442928  0.11975984  0.13522287  1
  O  O296  1  0.88242005  0.13076518  0.63496624  1
  O  O297  1  0.88090962  0.63658079  0.12967591  1
  O  O298  1  0.89133710  0.62475517  0.62916431  1
  O  O299  1  0.25272182  0.26177098  0.12553250  1
  O  O300  1  0.26356874  0.24108612  0.61264997  1
  O  O301  1  0.24681119  0.76745017  0.13266680  1
  O  O302  1  0.25820017  0.76159225  0.63244980  1
  O  O303  1  0.74572086  0.26150353  0.11730745  1
  O  O304  1  0.76367312  0.24540121  0.62349163  1
  O  O305  1  0.76611522  0.75132388  0.12760361  1
  O  O306  1  0.74573999  0.75867892  0.61654441  1
  O  O307  1  0.25611672  0.24288247  0.38930204  1
  O  O308  1  0.24299051  0.23894741  0.87112982  1
  O  O309  1  0.23999627  0.74519813  0.36964294  1
  O  O310  1  0.24746903  0.72418293  0.86388580  1
  O  O311  1  0.73963330  0.24605892  0.37944263  1
  O  O312  1  0.74229687  0.24785452  0.88536808  1
  O  O313  1  0.74383894  0.74790111  0.38210887  1
  O  O314  1  0.73469642  0.75068132  0.86885332  1
  O  O315  1  0.00231997  0.11337905  0.00714860  1
  O  O316  1  0.01178285  0.11703600  0.51089549  1
  O  O317  1  -0.00083473  0.62615193  0.01340455  1
  O  O318  1  0.00341464  0.61881568  0.50980435  1
  O  O319  1  0.50310892  0.12262294  0.00716541  1
  O  O320  1  0.51189941  0.11822268  0.49702107  1
  O  O321  1  0.50613721  0.61477135  0.00292585  1
  O  O322  1  0.51027825  0.61719919  0.49112945  1
  O  O323  1  0.49538381  0.38286052  0.48667292  1
  O  O324  1  0.49890655  0.38753029  0.99819294  1
  O  O325  1  0.49118467  0.88081134  0.49460707  1
  O  O326  1  0.49896596  0.88044602  0.99181367  1
  O  O327  1  0.99056234  0.38462266  0.49676472  1
  O  O328  1  0.98846977  0.37247130  0.99281674  1
  O  O329  1  1.00462574  0.88652470  0.49604738  1
  O  O330  1  1.00455530  0.88753040  0.99589263  1
  O  O331  1  0.49658127  0.49423331  0.38003857  1
  O  O332  1  0.49204876  0.49740126  0.88000040  1
  O  O333  1  0.49185638  0.99333983  0.37936860  1
  O  O334  1  0.50950054  0.98707393  0.88717506  1
  O  O335  1  0.98985640  0.50586716  0.38133051  1
  O  O336  1  0.99212922  0.48700744  0.87161573  1
  O  O337  1  0.99090108  0.99208730  0.38863142  1
  O  O338  1  0.99471288  0.99489308  0.88398792  1
  O  O339  1  0.00490263  0.00310238  0.12063882  1
  O  O340  1  0.00403561  0.00741590  0.62214914  1
  O  O341  1  -0.00517433  0.51946474  0.12290702  1
  O  O342  1  0.00007823  0.51149914  0.61669379  1
  O  O343  1  0.51376249  -0.00441511  0.11962930  1
  O  O344  1  0.50645490  0.00258202  0.61745959  1
  O  O345  1  0.50772936  0.50576465  0.11754943  1
  O  O346  1  0.50579503  0.49699491  0.60838569  1
  O  O347  1  0.24186654  0.37456447  0.24158941  1
  O  O348  1  0.23869855  0.38430912  0.74760439  1
  O  O349  1  0.24436768  0.88556882  0.24398566  1
  O  O350  1  0.24452145  0.87765652  0.74840413  1
  O  O351  1  0.75148887  0.38249448  0.24383692  1
  O  O352  1  0.74206850  0.38867624  0.74914749  1
  O  O353  1  0.74533303  0.88751786  0.25113831  1
  O  O354  1  0.73486511  0.88059408  0.74131437  1
  O  O355  1  0.25679805  0.11589561  0.24828016  1
  O  O356  1  0.25630573  0.11368643  0.75641517  1
  O  O357  1  0.25250902  0.62213515  0.25971759  1
  O  O358  1  0.25471164  0.60754158  0.75272679  1
  O  O359  1  0.75316876  0.11487867  0.25475682  1
  O  O360  1  0.76342690  0.11542926  0.75258210  1
  O  O361  1  0.75684751  0.62188071  0.25467421  1
  O  O362  1  0.75101357  0.60737033  0.74545927  1
  O  O363  1  0.38004091  0.11307816  0.37067129  1
  O  O364  1  0.36410863  0.12436847  0.86204739  1
  O  O365  1  0.36785807  0.62054549  0.37204832  1
  O  O366  1  0.36673170  0.60961607  0.86360482  1
  O  O367  1  0.86750391  0.11909259  0.37060831  1
  O  O368  1  0.87649358  0.11921102  0.87005970  1
  O  O369  1  0.87105693  0.62155284  0.36764774  1
  O  O370  1  0.88213908  0.61051178  0.86989596  1
  O  O371  1  0.13519139  0.37176995  0.13487674  1
  O  O372  1  0.11688873  0.36164306  0.63404976  1
  O  O373  1  0.12903298  0.88503103  0.13556879  1
  O  O374  1  0.13107090  0.87747983  0.63278942  1
  O  O375  1  0.64009722  0.38516696  0.12641296  1
  O  O376  1  0.62428081  0.38564491  0.61443567  1
  O  O377  1  0.62907152  0.88224581  0.13130883  1
  O  O378  1  0.62663703  0.87991770  0.63182653  1
  O  O379  1  0.12626775  0.25897061  0.24986480  1
  O  O380  1  0.13211275  0.26241991  0.75732544  1
  O  O381  1  0.12162614  0.76631285  0.25948391  1
  O  O382  1  0.12055854  0.76107318  0.75501789  1
  O  O383  1  0.61863993  0.24971772  0.26157280  1
  O  O384  1  0.63542477  0.24588336  0.76561414  1
  O  O385  1  0.61861731  0.75506777  0.25476395  1
  O  O386  1  0.62212873  0.75356772  0.75572490  1
  O  O387  1  0.38118949  0.23759070  0.25675490  1
  O  O388  1  0.36668897  0.24033482  0.73657485  1
  O  O389  1  0.39010109  0.75099826  0.25425020  1
  O  O390  1  0.37644034  0.73584521  0.74097204  1
  O  O391  1  0.86497984  0.23707106  0.25377017  1
  O  O392  1  0.87083692  0.24196646  0.74630832  1
  O  O393  1  0.87589878  0.73980924  0.24636976  1
  O  O394  1  0.88787630  0.74988651  0.75867176  1
  O  O395  1  0.38234122  0.49977489  0.48865261  1
  O  O396  1  0.38416881  0.49708116  0.98767578  1
  O  O397  1  0.37642208  0.99343664  0.49533450  1
  O  O398  1  0.38988339  0.99578022  1.00667166  1
  O  O399  1  0.88185608  0.49667108  0.49393795  1
  O  O400  1  0.87875207  0.49210357  0.98914542  1
  O  O401  1  0.88575775  1.00951140  0.49859685  1
  O  O402  1  0.88101230  1.00563162  0.98983476  1
  O  O403  1  0.11681692  0.00294504  0.01181704  1
  O  O404  1  0.11805681  0.01005357  0.50782824  1
  O  O405  1  0.11797335  0.49045811  0.00716085  1
  O  O406  1  0.11381783  0.50052904  0.49249869  1
  O  O407  1  0.61576803  0.01052799  0.00674835  1
  O  O408  1  0.62091251  0.00619352  0.50443570  1
  O  O409  1  0.61991420  0.50518570  0.00099836  1
  O  O410  1  0.62036682  0.50801142  0.50236363  1
  O  O411  1  0.36522111  0.37316331  0.12465856  1
  O  O412  1  0.37378420  0.36083484  0.62139955  1
  O  O413  1  0.36043210  0.88114392  0.13126761  1
  O  O414  1  0.36753379  0.86928542  0.61779336  1
  O  O415  1  0.86690402  0.38283456  0.11702285  1
  O  O416  1  0.88205542  0.36610872  0.61863056  1
  O  O417  1  0.87528165  0.85856397  0.13093658  1
  O  O418  1  0.86262285  0.88122846  0.63193562  1
  O  O419  1  0.12248584  0.11801673  0.38575124  1
  O  O420  1  0.13267927  0.13331867  0.87191789  1
  O  O421  1  0.12958070  0.63664337  0.37242037  1
  O  O422  1  0.13695311  0.61751606  0.86727743  1
  O  O423  1  0.62930038  0.13152408  0.38126177  1
  O  O424  1  0.62632934  0.13361526  0.88831239  1
  O  O425  1  0.63276784  0.62971873  0.38268003  1
  O  O426  1  0.61935919  0.63642213  0.87847455  1
