# generated using pymatgen
data_V85Zn86O256
_symmetry_space_group_name_H-M   'P 1'
_cell_length_a   16.94005953
_cell_length_b   16.94513896
_cell_length_c   16.92619825
_cell_angle_alpha   90.01675252
_cell_angle_beta   89.99360684
_cell_angle_gamma   89.96327412
_symmetry_Int_Tables_number   1
_chemical_formula_structural   V85Zn86O256
_chemical_formula_sum   'V85 Zn86 O256'
_cell_volume   4858.69211561
_cell_formula_units_Z   1
loop_
 _symmetry_equiv_pos_site_id
 _symmetry_equiv_pos_as_xyz
  1  'x, y, z'
loop_
 _atom_site_type_symbol
 _atom_site_label
 _atom_site_symmetry_multiplicity
 _atom_site_fract_x
 _atom_site_fract_y
 _atom_site_fract_z
 _atom_site_occupancy
  V  V0  1  0.12964788  0.12362071  0.00876479  1
  V  V1  1  0.88184308  0.87223716  0.49568171  1
  V  V2  1  0.75386107  0.74956058  0.50356165  1
  V  V3  1  0.37634169  0.37150655  0.49587587  1
  V  V4  1  0.62939391  0.24653883  0.89027442  1
  V  V5  1  0.75314052  -0.00198785  0.75144832  1
  V  V6  1  0.24141856  0.86596412  0.11902060  1
  V  V7  1  0.87711414  0.49671844  0.37323379  1
  V  V8  1  0.62460470  0.12429527  0.50002908  1
  V  V9  1  0.75103064  0.12770637  0.88665251  1
  V  V10  1  0.87057424  0.36209992  0.00416024  1
  V  V11  1  0.87503131  0.24749749  0.62746538  1
  V  V12  1  0.25121046  0.62833859  0.87791585  1
  V  V13  1  0.74939463  0.51202692  0.75745553  1
  V  V14  1  0.24701235  -0.01881740  0.74559341  1
  V  V15  1  0.74996106  0.73589843  -0.00495640  1
  V  V16  1  0.11818540  0.75966274  0.87628516  1
  V  V17  1  0.12336578  0.12603536  0.50755911  1
  V  V18  1  0.62663365  0.87596462  0.75093770  1
  V  V19  1  0.50411275  0.37815387  0.37093889  1
  V  V20  1  0.00125563  0.25899194  0.26836472  1
  V  V21  1  0.11799798  0.88068839  0.25667532  1
  V  V22  1  0.88018941  -0.00130013  0.37215780  1
  V  V23  1  0.49606324  0.74934308  0.24556724  1
  V  V24  1  0.49255654  0.37131077  0.88199689  1
  V  V25  1  0.62476019  0.75155741  0.37432443  1
  V  V26  1  0.11622611  0.75426460  0.37778942  1
  V  V27  1  0.88171188  0.87061117  -0.00638075  1
  V  V28  1  0.11897416  0.62769597  0.50289276  1
  V  V29  1  0.62682818  0.37263555  0.75190217  1
  V  V30  1  0.24383082  0.12374603  0.37788868  1
  V  V31  1  0.24762745  0.36949980  0.62554739  1
  V  V32  1  0.00093703  0.24513127  0.74987966  1
  V  V33  1  0.75419447  0.87291878  0.62347590  1
  V  V34  1  0.37222108  0.12139088  0.74764977  1
  V  V35  1  0.49920622  0.88022504  0.37311538  1
  V  V36  1  0.00658476  0.76523612  0.73904402  1
  V  V37  1  0.89358870  0.62955166  0.74598046  1
  V  V38  1  0.12387069  0.37506867  0.75185483  1
  V  V39  1  0.63098874  0.73660531  0.87547497  1
  V  V40  1  0.74210232  0.49817607  0.24941897  1
  V  V41  1  0.50280273  0.74536388  0.74469574  1
  V  V42  1  0.74995245  0.25041947  0.50079716  1
  V  V43  1  -0.00308254  0.01013578  0.50712207  1
  V  V44  1  0.49667578  0.50421863  -0.00149346  1
  V  V45  1  0.37462019  0.62125566  0.24792913  1
  V  V46  1  0.19290602  0.29233285  0.44037649  1
  V  V47  1  0.00129528  0.62755546  0.13067265  1
  V  V48  1  0.61831778  0.50325112  0.62648438  1
  V  V49  1  0.24395211  0.00073442  0.24063823  1
  V  V50  1  0.62648426  0.25390633  0.36813340  1
  V  V51  1  0.74922444  0.37491672  0.62862360  1
  V  V52  1  0.38022341  -0.00183118  0.88217400  1
  V  V53  1  0.50281349  0.87289839  0.88279548  1
  V  V54  1  0.62891844  0.50519843  0.11649386  1
  V  V55  1  -0.00358487  0.13970009  0.12614397  1
  V  V56  1  -0.00413353  0.50290548  0.50360768  1
  V  V57  1  0.61628671  0.62643707  0.50375392  1
  V  V58  1  0.37780251  0.62010040  0.74877367  1
  V  V59  1  0.36809564  -0.00168300  0.37568662  1
  V  V60  1  0.24854445  0.12425985  0.87323264  1
  V  V61  1  0.50296549  0.24893037  0.74975035  1
  V  V62  1  0.50322559  0.24983258  0.24341472  1
  V  V63  1  0.00426659  -0.00204530  0.00963030  1
  V  V64  1  0.37594723  0.12534396  0.24424489  1
  V  V65  1  0.25036768  0.38122575  0.11938426  1
  V  V66  1  0.37255025  0.24856720  0.62072619  1
  V  V67  1  0.37522511  0.74632156  0.62689301  1
  V  V68  1  0.74954547  0.62422140  0.37618585  1
  V  V69  1  0.74994705  0.36435801  0.12753517  1
  V  V70  1  0.87487794  0.75190795  0.12656046  1
  V  V71  1  0.74904228  -0.00007914  0.24143681  1
  V  V72  1  0.62364142  0.87919657  0.23938507  1
  V  V73  1  0.87863728  0.37544340  0.49971248  1
  V  V74  1  -0.00109562  0.37730522  0.87676301  1
  V  V75  1  -0.00230841  0.50026774  0.00442074  1
  V  V76  1  0.87843990  0.12390007  0.74669426  1
  V  V77  1  0.88485836  -0.00439788  0.87376756  1
  V  V78  1  0.24874866  0.74856641  0.50643589  1
  V  V79  1  0.37373961  0.87285679  0.50553025  1
  V  V80  1  0.74887585  0.12403305  0.37172541  1
  V  V81  1  0.12159208  0.50597085  0.62852496  1
  V  V82  1  0.37492150  0.25355342  0.11801639  1
  V  V83  1  0.49966158  0.12295539  0.62709451  1
  V  V84  1  0.12951733  0.62831204  0.00131659  1
  Zn  Zn85  1  0.56323985  0.05469696  0.05936561  1
  Zn  Zn86  1  0.12828163  0.25082205  0.87700104  1
  Zn  Zn87  1  0.36746898  0.74439951  0.11320790  1
  Zn  Zn88  1  0.87494482  0.62641773  0.25220747  1
  Zn  Zn89  1  0.25110735  0.62668921  0.37338559  1
  Zn  Zn90  1  0.25344596  0.25454480  -0.00291249  1
  Zn  Zn91  1  0.49647449  0.50312243  0.50304608  1
  Zn  Zn92  1  0.12196170  0.49869022  0.13319767  1
  Zn  Zn93  1  0.12501008  0.37316005  0.25879117  1
  Zn  Zn94  1  0.87386610  0.13161426  0.24397956  1
  Zn  Zn95  1  0.74878940  0.87734686  0.11898405  1
  Zn  Zn96  1  0.37778087  0.50346571  0.37596975  1
  Zn  Zn97  1  -0.00447820  0.75730967  0.25678959  1
  Zn  Zn98  1  0.25065889  0.49890274  0.75189118  1
  Zn  Zn99  1  0.36825156  0.49356163  0.87935730  1
  Zn  Zn100  1  0.50428309  0.62858182  0.11835884  1
  Zn  Zn101  1  0.86680241  0.50665103  0.87981378  1
  Zn  Zn102  1  0.37265449  0.86871262  0.00064165  1
  Zn  Zn103  1  0.24573259  0.50006125  0.25308203  1
  Zn  Zn104  1  0.62380065  -0.00201559  0.62482655  1
  Zn  Zn105  1  0.12004111  -0.00778583  0.63666865  1
  Zn  Zn106  1  0.49862328  -0.00047086  0.50146159  1
  Zn  Zn107  1  0.18481011  0.19265162  0.18872083  1
  Zn  Zn108  1  0.18577868  0.18496646  0.68673899  1
  Zn  Zn109  1  0.18420530  0.68885024  0.19264693  1
  Zn  Zn110  1  0.18882890  0.68958179  0.69145478  1
  Zn  Zn111  1  0.68752064  0.18582077  0.18185321  1
  Zn  Zn112  1  0.68805509  0.18356293  0.69362862  1
  Zn  Zn113  1  0.68841518  0.68712062  0.18664232  1
  Zn  Zn114  1  0.68872177  0.68712330  0.68487438  1
  Zn  Zn115  1  0.31805876  0.31855814  0.30208755  1
  Zn  Zn116  1  0.31287062  0.30862138  0.80932579  1
  Zn  Zn117  1  0.30666597  0.81014256  0.31331218  1
  Zn  Zn118  1  0.31328091  0.80686875  0.81972417  1
  Zn  Zn119  1  0.81774981  0.31268273  0.30877751  1
  Zn  Zn120  1  0.81217983  0.31387225  0.81747964  1
  Zn  Zn121  1  0.81085245  0.81437637  0.31314963  1
  Zn  Zn122  1  0.81948525  0.80668683  0.81267186  1
  Zn  Zn123  1  0.19052363  0.45605389  0.43809544  1
  Zn  Zn124  1  0.18557763  0.44155402  0.94109415  1
  Zn  Zn125  1  0.17056019  0.92223625  0.46732324  1
  Zn  Zn126  1  0.18673167  0.94222279  0.93558268  1
  Zn  Zn127  1  0.68821665  0.43782132  0.43952480  1
  Zn  Zn128  1  0.68448876  0.43359055  0.93983457  1
  Zn  Zn129  1  0.68765286  0.93969645  0.43292448  1
  Zn  Zn130  1  0.69686410  0.92964484  0.93677836  1
  Zn  Zn131  1  0.31800133  0.06104806  0.06234423  1
  Zn  Zn132  1  0.30774125  0.06038291  0.56164836  1
  Zn  Zn133  1  0.31619810  0.56299103  0.06305985  1
  Zn  Zn134  1  0.31020467  0.56085702  0.56448826  1
  Zn  Zn135  1  0.81702633  0.06204575  0.06167595  1
  Zn  Zn136  1  0.81161567  0.06089787  0.56432333  1
  Zn  Zn137  1  0.81707984  0.56103806  0.06568182  1
  Zn  Zn138  1  0.80863045  0.56500405  0.56911632  1
  Zn  Zn139  1  0.43931768  0.43599776  0.18442789  1
  Zn  Zn140  1  0.43707825  0.43482065  0.68941457  1
  Zn  Zn141  1  0.42856111  0.93361332  0.18254102  1
  Zn  Zn142  1  0.43786724  0.93621316  0.69178769  1
  Zn  Zn143  1  0.93570422  0.43376934  0.18929910  1
  Zn  Zn144  1  0.93486015  0.43973494  0.68932147  1
  Zn  Zn145  1  0.93794751  0.94004077  0.18498909  1
  Zn  Zn146  1  0.93591511  0.93508783  0.68239415  1
  Zn  Zn147  1  0.06394207  0.06960070  0.31505774  1
  Zn  Zn148  1  0.06580205  0.05986299  0.81557864  1
  Zn  Zn149  1  0.06240759  0.56118792  0.31578734  1
  Zn  Zn150  1  0.06325810  0.56249101  0.81665091  1
  Zn  Zn151  1  0.55913914  0.06209116  0.22178688  1
  Zn  Zn152  1  0.56759673  0.05616611  0.89696520  1
  Zn  Zn153  1  0.56289347  0.56258347  0.31124733  1
  Zn  Zn154  1  0.55971472  0.55979219  0.81412923  1
  Zn  Zn155  1  0.43760259  0.18756540  0.43315702  1
  Zn  Zn156  1  0.43916730  0.18608783  0.93940980  1
  Zn  Zn157  1  0.43790850  0.68967986  0.43323716  1
  Zn  Zn158  1  0.43845992  0.68730832  0.93650137  1
  Zn  Zn159  1  0.93575867  0.18622033  0.43709921  1
  Zn  Zn160  1  0.94035304  0.18499494  0.93523552  1
  Zn  Zn161  1  0.93746123  0.68411747  0.44173674  1
  Zn  Zn162  1  0.93910801  0.68394167  0.93190783  1
  Zn  Zn163  1  0.06850021  0.31197805  0.06211074  1
  Zn  Zn164  1  0.05534576  0.31644207  0.56836400  1
  Zn  Zn165  1  0.06487687  0.81259251  0.06478195  1
  Zn  Zn166  1  0.06279101  0.81926053  0.56807365  1
  Zn  Zn167  1  0.56620757  0.31699795  0.06471291  1
  Zn  Zn168  1  0.56151301  0.31261953  0.56067751  1
  Zn  Zn169  1  0.56569429  0.81093794  0.06023804  1
  Zn  Zn170  1  0.56183193  0.81153234  0.56418026  1
  O  O171  1  0.11468566  0.12731664  0.11786528  1
  O  O172  1  0.13172942  0.11586598  0.61114119  1
  O  O173  1  0.11754254  0.62582758  0.11900529  1
  O  O174  1  0.13241352  0.61160826  0.62135462  1
  O  O175  1  0.61076621  0.12291652  0.13944495  1
  O  O176  1  0.61764323  0.12414246  0.61844685  1
  O  O177  1  0.62376291  0.61025996  0.12968209  1
  O  O178  1  0.62949083  0.61595587  0.61624661  1
  O  O179  1  0.38383148  0.37552816  0.38138686  1
  O  O180  1  0.38831289  0.37421366  0.86765775  1
  O  O181  1  0.37947401  0.87972464  0.37835369  1
  O  O182  1  0.38477769  0.87902984  0.87370155  1
  O  O183  1  0.86591863  0.38874980  0.38563135  1
  O  O184  1  0.88069336  0.37963341  0.88729713  1
  O  O185  1  0.86674851  0.88723406  0.38345767  1
  O  O186  1  0.87648515  0.88273173  0.88120180  1
  O  O187  1  0.25913249  0.00652454  0.36960779  1
  O  O188  1  0.25744307  0.00461780  0.86494832  1
  O  O189  1  0.25986020  0.50871370  0.37091124  1
  O  O190  1  0.24944728  0.51102022  0.87351115  1
  O  O191  1  0.75749796  0.00862109  0.36840877  1
  O  O192  1  0.76647934  0.00463264  0.86786660  1
  O  O193  1  0.75394129  0.50377209  0.36874733  1
  O  O194  1  0.74769456  0.49270938  0.86058847  1
  O  O195  1  0.25003682  0.49008950  0.12626339  1
  O  O196  1  0.24051077  0.48611807  0.62450216  1
  O  O197  1  0.25354712  0.99420088  0.13761451  1
  O  O198  1  0.25498078  1.00105768  0.64440223  1
  O  O199  1  0.74679667  0.49669913  0.13122168  1
  O  O200  1  0.74002716  0.49424075  0.63638280  1
  O  O201  1  0.75721775  0.99821470  0.13718041  1
  O  O202  1  0.74703504  0.99144399  0.63216796  1
  O  O203  1  0.00114381  0.36374657  0.25174955  1
  O  O204  1  0.00182599  0.37094579  0.75980214  1
  O  O205  1  0.01344636  0.87837137  0.24727290  1
  O  O206  1  0.00079162  0.86489118  0.74576897  1
  O  O207  1  0.49580649  0.36677348  0.26323268  1
  O  O208  1  0.50798071  0.36982245  0.75730255  1
  O  O209  1  0.50488046  0.86826780  0.25683461  1
  O  O210  1  0.51062679  0.86440695  0.75254523  1
  O  O211  1  0.48464985  0.13906125  0.26564195  1
  O  O212  1  0.49241632  0.12991752  0.73501845  1
  O  O213  1  0.49529069  0.63440889  0.24914237  1
  O  O214  1  0.48750302  0.63048027  0.75544670  1
  O  O215  1  1.00128456  0.13413912  0.23921622  1
  O  O216  1  0.99349433  0.13423131  0.75780728  1
  O  O217  1  0.99838003  0.62727226  0.23983644  1
  O  O218  1  0.99610618  0.62396731  0.74467180  1
  O  O219  1  0.37611797  0.24566053  0.01422740  1
  O  O220  1  0.38060390  0.26233628  0.50532432  1
  O  O221  1  0.37750331  0.75455643  -0.00031350  1
  O  O222  1  0.37047570  0.75109713  0.50741187  1
  O  O223  1  0.88000272  0.26413067  -0.00325283  1
  O  O224  1  0.87005669  0.25748177  0.50480839  1
  O  O225  1  0.87178134  0.75324488  0.00277991  1
  O  O226  1  0.86551406  0.75894110  0.49258650  1
  O  O227  1  0.12375666  0.24559842  0.50527040  1
  O  O228  1  0.12871578  0.23719135  0.99634059  1
  O  O229  1  0.13009559  0.74366093  0.49856160  1
  O  O230  1  0.11641631  0.73940920  0.98862378  1
  O  O231  1  0.62999894  0.24096792  0.49499428  1
  O  O232  1  0.62240352  0.25021446  0.98958254  1
  O  O233  1  0.63045948  0.74420504  0.49512110  1
  O  O234  1  0.64182148  0.75207074  0.99240923  1
  O  O235  1  0.49382731  0.26331551  0.13741678  1
  O  O236  1  0.49477689  0.24392123  0.62878043  1
  O  O237  1  0.50261390  0.75017951  0.13629294  1
  O  O238  1  0.49554006  0.74866290  0.63727110  1
  O  O239  1  0.99994586  0.24083902  0.12468331  1
  O  O240  1  0.99073840  0.25575487  0.64142906  1
  O  O241  1  0.99247472  0.74354237  0.12785070  1
  O  O242  1  1.00839223  0.75085976  0.63907531  1
  O  O243  1  0.00153986  0.24908250  0.36741501  1
  O  O244  1  0.00058274  0.26086489  0.86671075  1
  O  O245  1  0.01120127  0.74570419  0.37683010  1
  O  O246  1  0.01318861  0.74626391  0.86525576  1
  O  O247  1  0.50847659  0.25678568  0.36878367  1
  O  O248  1  0.50686753  0.25531939  0.86908646  1
  O  O249  1  0.50342937  0.76053536  0.36506585  1
  O  O250  1  0.50868551  0.75487712  0.86318425  1
  O  O251  1  0.24041751  0.12250682  0.49121364  1
  O  O252  1  0.24448152  0.12250465  0.99384669  1
  O  O253  1  0.23832145  0.63061748  0.50158012  1
  O  O254  1  0.23792969  0.61865345  0.99501848  1
  O  O255  1  0.74397168  0.13058715  0.49602924  1
  O  O256  1  0.75894469  0.12329948  0.98613940  1
  O  O257  1  0.74310896  0.63247699  0.49656911  1
  O  O258  1  0.75960023  0.63732317  0.99910012  1
  O  O259  1  0.24814929  0.37420644  0.01253799  1
  O  O260  1  0.25216243  0.36632899  0.50178582  1
  O  O261  1  0.24243024  0.88251111  0.01759246  1
  O  O262  1  0.26876817  0.86273449  0.49161423  1
  O  O263  1  0.76356187  0.37910349  0.00889844  1
  O  O264  1  0.75840780  0.37076128  0.50811258  1
  O  O265  1  0.76695284  0.86456659  0.00127770  1
  O  O266  1  0.75385303  0.86927534  0.50442131  1
  O  O267  1  0.12535518  0.49295148  0.25150742  1
  O  O268  1  0.12466018  0.49374382  0.74329606  1
  O  O269  1  0.13410385  0.99463024  0.26193268  1
  O  O270  1  0.14027338  0.99966455  0.75217134  1
  O  O271  1  0.63756884  0.49945653  0.24542533  1
  O  O272  1  0.63257680  0.49564993  0.74579021  1
  O  O273  1  0.63764460  0.98771545  0.26389440  1
  O  O274  1  0.63477374  0.98164043  0.74977256  1
  O  O275  1  0.36556157  0.00758847  0.25815555  1
  O  O276  1  0.36546077  0.00327190  0.75691093  1
  O  O277  1  0.38015341  0.51287185  0.24917615  1
  O  O278  1  0.37327168  0.50729479  0.75162276  1
  O  O279  1  0.86795707  0.00195900  0.25675633  1
  O  O280  1  0.87659531  0.00551752  0.75519601  1
  O  O281  1  0.86795484  0.50172874  0.25956470  1
  O  O282  1  0.86364735  0.50673281  0.75227637  1
  O  O283  1  0.14161170  0.36281280  0.38542524  1
  O  O284  1  0.11669189  0.37383897  0.87149871  1
  O  O285  1  0.13034880  0.86510046  0.37138974  1
  O  O286  1  0.13007052  0.85774750  0.88153998  1
  O  O287  1  0.61860814  0.36419473  0.38402565  1
  O  O288  1  0.61942218  0.36448302  0.86948860  1
  O  O289  1  0.61568810  0.87022105  0.37083230  1
  O  O290  1  0.62194275  0.86254208  0.86543220  1
  O  O291  1  0.36933297  0.13282008  0.13748718  1
  O  O292  1  0.38069068  0.12927456  0.62426157  1
  O  O293  1  0.38224053  0.62802578  0.13214937  1
  O  O294  1  0.37082626  0.63575874  0.63238605  1
  O  O295  1  0.89176963  0.12357440  0.12502741  1
  O  O296  1  0.87048903  0.13003635  0.63856841  1
  O  O297  1  0.88298499  0.63642522  0.12656097  1
  O  O298  1  0.86601796  0.62377875  0.64782032  1
  O  O299  1  0.25804968  0.25928584  0.12367467  1
  O  O300  1  0.25389516  0.26150163  0.62895918  1
  O  O301  1  0.24628484  0.76275218  0.12824677  1
  O  O302  1  0.25685328  0.74798194  0.61461995  1
  O  O303  1  0.75053894  0.26527272  0.13064196  1
  O  O304  1  0.75493662  0.25424002  0.62134166  1
  O  O305  1  0.75746854  0.74994080  0.11363718  1
  O  O306  1  0.74676423  0.75642971  0.61143752  1
  O  O307  1  0.25928303  0.24306961  0.37572866  1
  O  O308  1  0.25144215  0.23963889  0.87765218  1
  O  O309  1  0.24077118  0.74598822  0.38831761  1
  O  O310  1  0.23612535  0.73576227  0.86886305  1
  O  O311  1  0.74497408  0.24662678  0.37821940  1
  O  O312  1  0.74159232  0.24155523  0.87117903  1
  O  O313  1  0.74421919  0.74589119  0.38415201  1
  O  O314  1  0.74649294  0.75182406  0.88580224  1
  O  O315  1  0.00650815  0.12223749  0.00912957  1
  O  O316  1  0.00668148  0.12215553  0.50009449  1
  O  O317  1  0.00430455  0.61863418  0.00951261  1
  O  O318  1  0.01012641  0.61936370  0.50569616  1
  O  O319  1  0.50022906  0.10454043  -0.02323303  1
  O  O320  1  0.50710016  0.12615051  0.50809759  1
  O  O321  1  0.50300613  0.60904284  -0.00250299  1
  O  O322  1  0.51260094  0.62510996  0.49568114  1
  O  O323  1  0.49307684  0.37609437  0.49028759  1
  O  O324  1  0.50566895  0.38387216  0.98980132  1
  O  O325  1  0.49087792  0.87225131  0.49193282  1
  O  O326  1  0.50301554  0.87134466  0.98558971  1
  O  O327  1  0.98495925  0.38180738  0.50293533  1
  O  O328  1  0.99328310  0.38030523  0.99736940  1
  O  O329  1  0.98443736  0.88344175  0.49994758  1
  O  O330  1  0.99140752  0.88270357  1.00678736  1
  O  O331  1  0.50120318  0.49126473  0.37894308  1
  O  O332  1  0.50082383  0.49013575  0.88472094  1
  O  O333  1  0.48545064  0.98675400  0.37773562  1
  O  O334  1  0.48834448  0.98285452  0.85542194  1
  O  O335  1  0.98971713  0.50492301  0.39114117  1
  O  O336  1  0.99921838  0.48895399  0.88311163  1
  O  O337  1  0.98317854  1.01295516  0.38036085  1
  O  O338  1  0.98993889  1.00867933  0.88735560  1
  O  O339  1  -0.00234897  0.01061717  0.11328663  1
  O  O340  1  -0.00033007  0.00033271  0.61162580  1
  O  O341  1  -0.00230585  0.50814785  0.12037062  1
  O  O342  1  0.00760581  0.49285460  0.61458058  1
  O  O343  1  0.50558816  -0.00128701  0.14290940  1
  O  O344  1  0.50191776  0.00795620  0.62264599  1
  O  O345  1  0.50986420  0.49551930  0.11290566  1
  O  O346  1  0.51447617  0.49296541  0.62437886  1
  O  O347  1  0.24643066  0.37747858  0.23720190  1
  O  O348  1  0.24297571  0.37589329  0.74258213  1
  O  O349  1  0.24069092  0.88269980  0.24512192  1
  O  O350  1  0.25373900  0.88277535  0.75316313  1
  O  O351  1  0.75916015  0.38351503  0.23563103  1
  O  O352  1  0.74617942  0.38191417  0.74550118  1
  O  O353  1  0.74123190  0.88199154  0.24847420  1
  O  O354  1  0.74913262  0.87344661  0.74161027  1
  O  O355  1  0.25389756  0.11962662  0.25605606  1
  O  O356  1  0.25565817  0.12310665  0.75758492  1
  O  O357  1  0.26067569  0.62488956  0.24927672  1
  O  O358  1  0.26082900  0.62316970  0.75672855  1
  O  O359  1  0.75278052  0.11874093  0.25689199  1
  O  O360  1  0.76058030  0.11613662  0.75508919  1
  O  O361  1  0.75247110  0.61762647  0.25775602  1
  O  O362  1  0.74869851  0.61318813  0.75084102  1
  O  O363  1  0.36556499  0.11754595  0.37105235  1
  O  O364  1  0.36552413  0.11631295  0.86856665  1
  O  O365  1  0.37560426  0.62506178  0.36451532  1
  O  O366  1  0.36654166  0.62264672  0.86785321  1
  O  O367  1  0.86070547  0.12057500  0.37586663  1
  O  O368  1  0.87090196  0.12035246  0.86509072  1
  O  O369  1  0.86770057  0.61315558  0.37811677  1
  O  O370  1  0.87905184  0.62092138  0.85591678  1
  O  O371  1  0.13847344  0.37716324  0.12519891  1
  O  O372  1  0.13018254  0.38272689  0.62979545  1
  O  O373  1  0.13401269  0.87299024  0.13771091  1
  O  O374  1  0.13849893  0.89763142  0.57774678  1
  O  O375  1  0.64373585  0.38559787  0.11998955  1
  O  O376  1  0.63114014  0.38018290  0.62981312  1
  O  O377  1  0.62918521  0.87112550  0.13625967  1
  O  O378  1  0.63581062  0.87452819  0.62952966  1
  O  O379  1  0.10788000  0.25401888  0.24757999  1
  O  O380  1  0.11640158  0.25502711  0.75136735  1
  O  O381  1  0.12237951  0.75916656  0.26246991  1
  O  O382  1  0.11444845  0.74564201  0.76015398  1
  O  O383  1  0.61818745  0.24824298  0.26155194  1
  O  O384  1  0.61869064  0.25655777  0.75141213  1
  O  O385  1  0.61979418  0.75733803  0.25591583  1
  O  O386  1  0.62166845  0.75503362  0.75245575  1
  O  O387  1  0.38242888  0.24318687  0.24129539  1
  O  O388  1  0.38235021  0.24166478  0.74144245  1
  O  O389  1  0.38245383  0.74248494  0.24898397  1
  O  O390  1  0.38256469  0.74394788  0.74469236  1
  O  O391  1  0.89249330  0.24718194  0.25373036  1
  O  O392  1  0.88049029  0.24267542  0.74937662  1
  O  O393  1  0.87580378  0.74960528  0.24231662  1
  O  O394  1  0.89468503  0.74046873  0.75412711  1
  O  O395  1  0.37637539  0.48586991  0.50289307  1
  O  O396  1  0.39143188  0.49962386  0.99867171  1
  O  O397  1  0.37453912  0.99002138  0.49428693  1
  O  O398  1  0.36820471  0.99052377  0.98567919  1
  O  O399  1  0.87770181  0.49599271  0.49993826  1
  O  O400  1  0.88598218  0.49568400  0.99828673  1
  O  O401  1  0.87864626  0.99653519  0.49334048  1
  O  O402  1  0.88243831  0.99048783  0.99313080  1
  O  O403  1  0.11573933  0.01203246  -0.00655426  1
  O  O404  1  0.10666556  0.01761480  0.47977444  1
  O  O405  1  0.11136192  0.50878539  0.00425189  1
  O  O406  1  0.11519159  0.50727960  0.50705949  1
  O  O407  1  0.62666067  0.00144964  -0.02068010  1
  O  O408  1  0.62325946  0.01328862  0.49866097  1
  O  O409  1  0.61628095  0.49749474  0.00604923  1
  O  O410  1  0.62666811  0.50910787  0.50935684  1
  O  O411  1  0.36262363  0.36703670  0.13009287  1
  O  O412  1  0.36603344  0.37034461  0.61876340  1
  O  O413  1  0.35588556  0.86916118  0.12574314  1
  O  O414  1  0.38324909  0.86025790  0.61766128  1
  O  O415  1  0.86515766  0.38021387  0.11242885  1
  O  O416  1  0.86767672  0.36972899  0.62067446  1
  O  O417  1  0.87528738  0.86375540  0.11847828  1
  O  O418  1  0.86140251  0.87829325  0.61370158  1
  O  O419  1  0.13872436  0.13354902  0.38026464  1
  O  O420  1  0.13759038  0.12577684  0.88121117  1
  O  O421  1  0.12553391  0.63190369  0.38720064  1
  O  O422  1  0.13026713  0.62961763  0.88340602  1
  O  O423  1  0.63798915  0.13604018  0.38445209  1
  O  O424  1  0.64045160  0.13743739  0.86149533  1
  O  O425  1  0.63101262  0.63071853  0.38191943  1
  O  O426  1  0.62343588  0.63769593  0.86787764  1
