# generated using pymatgen
data_V85Zn86O256
_symmetry_space_group_name_H-M   'P 1'
_cell_length_a   16.91549084
_cell_length_b   16.91392126
_cell_length_c   16.91302341
_cell_angle_alpha   90.04900911
_cell_angle_beta   89.98320703
_cell_angle_gamma   89.94202643
_symmetry_Int_Tables_number   1
_chemical_formula_structural   V85Zn86O256
_chemical_formula_sum   'V85 Zn86 O256'
_cell_volume   4838.93467193
_cell_formula_units_Z   1
loop_
 _symmetry_equiv_pos_site_id
 _symmetry_equiv_pos_as_xyz
  1  'x, y, z'
loop_
 _atom_site_type_symbol
 _atom_site_label
 _atom_site_symmetry_multiplicity
 _atom_site_fract_x
 _atom_site_fract_y
 _atom_site_fract_z
 _atom_site_occupancy
  V  V0  1  0.24835064  0.88129783  0.63112718  1
  V  V1  1  0.75445722  0.12550124  0.38492850  1
  V  V2  1  0.50176654  0.74897392  0.75184361  1
  V  V3  1  0.62589716  0.50075688  0.62239667  1
  V  V4  1  0.75304337  0.75624669  -0.00308234  1
  V  V5  1  0.37306409  0.88235354  0.49304907  1
  V  V6  1  0.62312228  0.75299531  0.87181286  1
  V  V7  1  0.25489531  0.12294708  0.86629069  1
  V  V8  1  -0.00009387  0.24704779  0.24682749  1
  V  V9  1  0.62754715  0.12613418  0.00124586  1
  V  V10  1  0.62090126  -0.00081417  0.12768114  1
  V  V11  1  0.11962046  -0.00141505  0.12293525  1
  V  V12  1  0.24679807  0.62411150  0.37481610  1
  V  V13  1  0.12091788  0.00999786  0.62967121  1
  V  V14  1  0.37640228  0.87469649  -0.00155406  1
  V  V15  1  0.12267492  0.88249421  0.75287085  1
  V  V16  1  0.49655044  0.62352637  0.62863259  1
  V  V17  1  0.74314848  -0.00544654  0.74793749  1
  V  V18  1  0.12256294  0.74966063  0.87454884  1
  V  V19  1  0.86816606  0.50150073  0.37410329  1
  V  V20  1  -0.00878114  0.88259400  0.37671046  1
  V  V21  1  0.12466544  0.12191485  0.00061626  1
  V  V22  1  0.88132506  0.49454167  0.87500341  1
  V  V23  1  0.87772279  -0.00339008  0.88687623  1
  V  V24  1  0.37811511  0.23478247  0.62933758  1
  V  V25  1  0.37980469  0.14239896  0.24867913  1
  V  V26  1  0.25104620  0.24967345  0.50322741  1
  V  V27  1  0.62764985  0.25302595  0.88087833  1
  V  V28  1  0.37733797  0.37245242  0.50578974  1
  V  V29  1  0.73159177  0.87620216  0.62633380  1
  V  V30  1  0.49429490  0.38158642  0.88764393  1
  V  V31  1  0.62412998  0.36773119  0.24936697  1
  V  V32  1  -0.00253010  0.87855349  0.89022093  1
  V  V33  1  0.87509806  0.75241325  0.11971657  1
  V  V34  1  0.12186924  0.75086718  0.37596783  1
  V  V35  1  0.49650052  0.13780693  0.12761897  1
  V  V36  1  0.37105540  -0.00036068  0.85911198  1
  V  V37  1  0.37682232  0.62495260  0.24967771  1
  V  V38  1  0.25539536  0.11964877  0.37799949  1
  V  V39  1  0.24699608  0.75051015  0.50032563  1
  V  V40  1  0.37401445  0.49886442  0.37725703  1
  V  V41  1  0.62113536  0.37658607  0.75084805  1
  V  V42  1  0.87099681  0.36982772  0.49839223  1
  V  V43  1  0.12614227  0.37907225  0.75503234  1
  V  V44  1  -0.00030086  0.62153650  0.12063415  1
  V  V45  1  0.13158596  0.49990708  0.62776954  1
  V  V46  1  0.62706193  0.62918336  0.48662031  1
  V  V47  1  0.26317670  0.25424983  0.00429389  1
  V  V48  1  0.12449503  0.24910938  0.37640616  1
  V  V49  1  0.87911486  0.24360193  0.62451663  1
  V  V50  1  0.25054053  0.49779674  0.24479980  1
  V  V51  1  0.86651657  0.24657852  0.11906438  1
  V  V52  1  0.12126157  0.25611759  0.88018178  1
  V  V53  1  0.12529684  0.49027932  0.12442219  1
  V  V54  1  0.49531101  0.24095368  0.74914193  1
  V  V55  1  0.25248274  0.62147433  0.85045261  1
  V  V56  1  0.86753365  0.62417464  0.25055385  1
  V  V57  1  0.26245422  -0.00128657  0.25283481  1
  V  V58  1  0.74484806  0.75043381  0.48693236  1
  V  V59  1  0.50293311  0.62554528  0.12380703  1
  V  V60  1  0.87150326  0.75698078  0.62209326  1
  V  V61  1  0.25262823  0.87286640  0.12434480  1
  V  V62  1  0.87283672  0.62664474  0.74784259  1
  V  V63  1  0.50177729  0.87429831  0.87099467  1
  V  V64  1  -0.00346827  0.62575380  0.62280035  1
  V  V65  1  0.12588342  0.87753436  0.25219854  1
  V  V66  1  -0.00050388  0.49867132  0.49920181  1
  V  V67  1  0.62654995  0.87352561  0.26081908  1
  V  V68  1  0.37164282  0.74765147  0.63044206  1
  V  V69  1  0.00155740  0.24746806  0.74929328  1
  V  V70  1  0.37569564  0.50426623  0.86664761  1
  V  V71  1  0.00009854  0.75028343  0.24949414  1
  V  V72  1  0.75289041  0.87889208  0.12105873  1
  V  V73  1  0.75002280  0.62647622  0.87227997  1
  V  V74  1  0.74935102  0.36991342  0.62191375  1
  V  V75  1  0.87423930  0.11722817  0.25402657  1
  V  V76  1  0.50473187  0.74912201  0.26026317  1
  V  V77  1  0.50105063  0.49915631  0.49909591  1
  V  V78  1  -0.00805472  0.00772182  0.50455717  1
  V  V79  1  0.62914852  0.49880309  0.12265871  1
  V  V80  1  0.13574015  0.62081195  -0.00043942  1
  V  V81  1  0.62347403  0.62072577  -0.00229306  1
  V  V82  1  0.62182128  0.24591278  0.37902717  1
  V  V83  1  0.62102485  0.12465782  0.51666492  1
  V  V84  1  0.75338552  0.12808921  0.87564104  1
  Zn  Zn85  1  0.25359197  0.74807352  -0.00327672  1
  Zn  Zn86  1  -0.00287903  0.11895470  0.11998233  1
  Zn  Zn87  1  0.74924312  0.37070917  0.11695913  1
  Zn  Zn88  1  0.49684602  0.00227563  -0.00209049  1
  Zn  Zn89  1  -0.00076891  0.37374628  0.37185332  1
  Zn  Zn90  1  0.00423248  0.48704606  -0.00665681  1
  Zn  Zn91  1  0.12236887  0.62446657  0.49905252  1
  Zn  Zn92  1  0.37689387  0.74656734  0.12198795  1
  Zn  Zn93  1  0.50146427  0.00746661  0.50469319  1
  Zn  Zn94  1  0.86797133  0.88114089  0.49676860  1
  Zn  Zn95  1  0.49669946  0.88337354  0.37495245  1
  Zn  Zn96  1  0.75182827  -0.00090887  0.25685885  1
  Zn  Zn97  1  0.49745664  0.36841651  0.37033394  1
  Zn  Zn98  1  0.74994732  0.49820272  0.25114495  1
  Zn  Zn99  1  0.12267107  0.12722257  0.50514196  1
  Zn  Zn100  1  0.25422348  0.37741398  0.63375755  1
  Zn  Zn101  1  -0.00461254  0.75528158  0.75014363  1
  Zn  Zn102  1  0.12823968  0.36995836  0.24779982  1
  Zn  Zn103  1  0.88177214  0.11916515  0.74674864  1
  Zn  Zn104  1  0.28064704  0.35884747  0.12935524  1
  Zn  Zn105  1  0.75098527  0.49905231  0.74847494  1
  Zn  Zn106  1  0.87450420  0.36216360  -0.00938960  1
  Zn  Zn107  1  0.19018857  0.18519552  0.18667116  1
  Zn  Zn108  1  0.18949810  0.19282777  0.69019165  1
  Zn  Zn109  1  0.18715854  0.68574412  0.18635701  1
  Zn  Zn110  1  0.17787539  0.69379672  0.68340043  1
  Zn  Zn111  1  0.68662239  0.18484653  0.19457175  1
  Zn  Zn112  1  0.69306244  0.19122250  0.69641430  1
  Zn  Zn113  1  0.68721475  0.69104419  0.18726568  1
  Zn  Zn114  1  0.68479484  0.68976865  0.68159142  1
  Zn  Zn115  1  0.31040344  0.31339801  0.31699016  1
  Zn  Zn116  1  0.31198251  0.31496266  0.81721583  1
  Zn  Zn117  1  0.31352265  0.80762504  0.31057863  1
  Zn  Zn118  1  0.31135635  0.81070685  0.81109608  1
  Zn  Zn119  1  0.80815431  0.30838514  0.30980177  1
  Zn  Zn120  1  0.81071019  0.31209729  0.80805502  1
  Zn  Zn121  1  0.81330219  0.81353212  0.30813506  1
  Zn  Zn122  1  0.81379307  0.81724689  0.81179181  1
  Zn  Zn123  1  0.18792896  0.43428396  0.43914542  1
  Zn  Zn124  1  0.19420189  0.43704965  0.93686232  1
  Zn  Zn125  1  0.18282529  0.93973151  0.44110305  1
  Zn  Zn126  1  0.19029603  0.93901738  0.93771485  1
  Zn  Zn127  1  0.68808370  0.43470387  0.43662326  1
  Zn  Zn128  1  0.69613413  0.43690229  0.93910728  1
  Zn  Zn129  1  0.68628487  0.94489341  0.44019871  1
  Zn  Zn130  1  0.68576450  0.94003432  0.93625989  1
  Zn  Zn131  1  0.31177021  0.06255469  0.06095577  1
  Zn  Zn132  1  0.30981908  0.06016313  0.56770179  1
  Zn  Zn133  1  0.34469203  0.52318299  0.06781920  1
  Zn  Zn134  1  0.31191911  0.56432596  0.56327176  1
  Zn  Zn135  1  0.80884872  0.06530495  0.06397646  1
  Zn  Zn136  1  0.80593324  0.06309332  0.56348365  1
  Zn  Zn137  1  0.81010086  0.56234474  0.05887034  1
  Zn  Zn138  1  0.80866532  0.56251714  0.55965685  1
  Zn  Zn139  1  0.44581591  0.43621345  0.18672023  1
  Zn  Zn140  1  0.43722401  0.43646000  0.69151916  1
  Zn  Zn141  1  0.44092257  0.93768158  0.18686976  1
  Zn  Zn142  1  0.44365814  0.93832140  0.68303658  1
  Zn  Zn143  1  0.93848259  0.43219988  0.18532312  1
  Zn  Zn144  1  0.94194308  0.43369491  0.68967505  1
  Zn  Zn145  1  0.93675575  0.93639316  0.18614918  1
  Zn  Zn146  1  0.93530823  0.93933555  0.69214673  1
  Zn  Zn147  1  0.06559542  0.06290969  0.31453018  1
  Zn  Zn148  1  0.06163574  0.06551436  0.81610036  1
  Zn  Zn149  1  0.05876965  0.56102229  0.31091470  1
  Zn  Zn150  1  0.06100101  0.56516083  0.80850140  1
  Zn  Zn151  1  0.55792863  0.05982515  0.31945451  1
  Zn  Zn152  1  0.56210195  0.06061603  0.81271493  1
  Zn  Zn153  1  0.56270177  0.55584404  0.30973683  1
  Zn  Zn154  1  0.56093414  0.56241179  0.81001514  1
  Zn  Zn155  1  0.44053057  0.18466896  0.43630466  1
  Zn  Zn156  1  0.43981619  0.18623015  0.93471011  1
  Zn  Zn157  1  0.43543893  0.68882591  0.44119444  1
  Zn  Zn158  1  0.42607642  0.66900272  0.94194136  1
  Zn  Zn159  1  0.93769881  0.18779147  0.43793140  1
  Zn  Zn160  1  0.94287089  0.18273675  0.93658874  1
  Zn  Zn161  1  0.93275609  0.68868060  0.43670548  1
  Zn  Zn162  1  0.93907771  0.68474413  0.93768851  1
  Zn  Zn163  1  0.05622556  0.30953282  0.05802928  1
  Zn  Zn164  1  0.06129646  0.31473906  0.56496091  1
  Zn  Zn165  1  0.06622677  0.81005777  0.06237696  1
  Zn  Zn166  1  0.05921183  0.81806498  0.56260914  1
  Zn  Zn167  1  0.56347132  0.31290887  0.06252104  1
  Zn  Zn168  1  0.56252595  0.30661719  0.56137833  1
  Zn  Zn169  1  0.56386778  0.81049545  0.06244214  1
  Zn  Zn170  1  0.55817481  0.81321283  0.56038637  1
  O  O171  1  0.12729678  0.11439916  0.11944560  1
  O  O172  1  0.13223160  0.11328829  0.62741299  1
  O  O173  1  0.11874956  0.61757233  0.11800948  1
  O  O174  1  0.11355624  0.61889787  0.62230510  1
  O  O175  1  0.62052348  0.11922088  0.12042759  1
  O  O176  1  0.63412746  0.13996930  0.61387788  1
  O  O177  1  0.62416491  0.62087784  0.11728971  1
  O  O178  1  0.61668602  0.61790801  0.61788551  1
  O  O179  1  0.37596409  0.37808496  0.38766595  1
  O  O180  1  0.38521285  0.38620260  0.87624509  1
  O  O181  1  0.36760646  0.87047080  0.39011639  1
  O  O182  1  0.37715043  0.87903846  0.88128409  1
  O  O183  1  0.87515887  0.37864317  0.38187548  1
  O  O184  1  0.87056209  0.39196065  0.86724418  1
  O  O185  1  0.88735043  0.87467613  0.37376047  1
  O  O186  1  0.88260098  0.88665350  0.87480332  1
  O  O187  1  0.24236240  0.01180379  0.36841335  1
  O  O188  1  0.25575630  0.01363731  0.87770982  1
  O  O189  1  0.25164700  0.50301569  0.36534335  1
  O  O190  1  0.25587273  0.51535639  0.87581294  1
  O  O191  1  0.74675477  0.01891746  0.37433151  1
  O  O192  1  0.75942667  0.00317293  0.86883739  1
  O  O193  1  0.76415329  0.49870227  0.37452889  1
  O  O194  1  0.75935219  0.51114763  0.86909240  1
  O  O195  1  0.24059309  0.50955589  0.13772433  1
  O  O196  1  0.23505653  0.50043775  0.61947286  1
  O  O197  1  0.24556356  0.98875756  0.13271636  1
  O  O198  1  0.23878656  0.98747778  0.62342275  1
  O  O199  1  0.74028024  0.50109558  0.12681169  1
  O  O200  1  0.74530871  0.48922836  0.62665320  1
  O  O201  1  0.73950660  0.99450966  0.12687057  1
  O  O202  1  0.75424091  0.99180385  0.63872867  1
  O  O203  1  0.00343447  0.35979251  0.25135483  1
  O  O204  1  0.01311391  0.36286852  0.74825286  1
  O  O205  1  0.00531541  0.87164966  0.25697356  1
  O  O206  1  0.00890249  0.87421573  0.75951819  1
  O  O207  1  0.51670529  0.38115933  0.25385214  1
  O  O208  1  0.51074371  0.36816961  0.75587819  1
  O  O209  1  0.50761086  0.86711223  0.25142000  1
  O  O210  1  0.49286611  0.86438941  0.76362297  1
  O  O211  1  0.48584547  0.12140393  0.24508823  1
  O  O212  1  0.50150717  0.14226117  0.76022920  1
  O  O213  1  0.49820715  0.63112496  0.24518867  1
  O  O214  1  0.50229595  0.63101310  0.73623992  1
  O  O215  1  0.99387185  0.13164214  0.25219291  1
  O  O216  1  0.99959741  0.13986645  0.75373232  1
  O  O217  1  0.99483334  0.62964393  0.23706268  1
  O  O218  1  0.98730964  0.63024468  0.74236911  1
  O  O219  1  0.36212361  0.24571957  -0.00404627  1
  O  O220  1  0.37461492  0.25499480  0.50876110  1
  O  O221  1  0.37344944  0.75919462  0.00071043  1
  O  O222  1  0.36373088  0.75518600  0.50945677  1
  O  O223  1  0.87894405  0.23890578  0.01612043  1
  O  O224  1  0.88315968  0.26267898  0.50765773  1
  O  O225  1  0.86163571  0.74338539  0.00347949  1
  O  O226  1  0.86532482  0.75233340  0.50714976  1
  O  O227  1  0.12951493  0.24823829  0.49507847  1
  O  O228  1  0.13197109  0.24280738  0.99442957  1
  O  O229  1  0.13060335  0.75077705  0.49620034  1
  O  O230  1  0.12739224  0.74263218  0.98841213  1
  O  O231  1  0.62720059  0.24390504  0.48762945  1
  O  O232  1  0.62198031  0.24389194  0.98793333  1
  O  O233  1  0.63165689  0.74149975  0.50272090  1
  O  O234  1  0.63615962  0.74465947  0.99374959  1
  O  O235  1  0.50358131  0.23736102  0.12385686  1
  O  O236  1  0.49446978  0.25415260  0.64103873  1
  O  O237  1  0.50176977  0.73978867  0.13453823  1
  O  O238  1  0.49121003  0.74434176  0.63095446  1
  O  O239  1  0.99318844  0.24102599  0.13348161  1
  O  O240  1  0.99114263  0.25367142  0.63341983  1
  O  O241  1  0.99576855  0.74404679  0.12839305  1
  O  O242  1  0.98969126  0.74511637  0.62300102  1
  O  O243  1  0.00882295  0.24941514  0.36880128  1
  O  O244  1  0.01429695  0.24619316  0.87067048  1
  O  O245  1  0.00366447  0.75746536  0.37031837  1
  O  O246  1  0.00572080  0.75771326  0.87532695  1
  O  O247  1  0.51580169  0.24991148  0.37552106  1
  O  O248  1  0.50351800  0.26213593  0.86807652  1
  O  O249  1  0.49369678  0.75248504  0.36292262  1
  O  O250  1  0.50014218  0.75175798  0.86757932  1
  O  O251  1  0.25013904  0.12944998  0.49239350  1
  O  O252  1  0.24353749  0.13317920  0.99477149  1
  O  O253  1  0.24596893  0.63219184  0.49308703  1
  O  O254  1  0.23773377  0.62752765  0.99786013  1
  O  O255  1  0.74381724  0.12877695  0.49043983  1
  O  O256  1  0.73733610  0.12070820  0.98917672  1
  O  O257  1  0.73902677  0.63614022  0.50465778  1
  O  O258  1  0.74098788  0.63387396  0.99297676  1
  O  O259  1  0.24851351  0.35782726  0.00099125  1
  O  O260  1  0.26000849  0.36759082  0.50332905  1
  O  O261  1  0.25672577  0.87150199  0.00753270  1
  O  O262  1  0.25371254  0.86930807  0.50717244  1
  O  O263  1  0.76224599  0.37491197  0.00289568  1
  O  O264  1  0.75957303  0.37784420  0.50855517  1
  O  O265  1  0.74430521  0.86771218  0.00768342  1
  O  O266  1  0.74866991  0.87137960  0.50811334  1
  O  O267  1  0.13189646  0.49727379  0.24340851  1
  O  O268  1  0.11628089  0.49207927  0.74039278  1
  O  O269  1  0.13605351  0.99552878  0.24393757  1
  O  O270  1  0.11803174  0.99298429  0.74461171  1
  O  O271  1  0.63100138  0.49374524  0.24185922  1
  O  O272  1  0.62535729  0.49271373  0.74134239  1
  O  O273  1  0.62500209  0.99240281  0.24268794  1
  O  O274  1  0.64400820  1.00209568  0.76038004  1
  O  O275  1  0.36437571  -0.00001842  0.24912238  1
  O  O276  1  0.37174188  -0.01187419  0.76030646  1
  O  O277  1  0.36864583  0.50544666  0.25855118  1
  O  O278  1  0.38033424  0.50335318  0.76362521  1
  O  O279  1  0.87609019  0.01293362  0.24750999  1
  O  O280  1  0.86576318  0.00223704  0.76034293  1
  O  O281  1  0.87615121  0.50576485  0.25566659  1
  O  O282  1  0.87537151  0.50852098  0.75583392  1
  O  O283  1  0.12595588  0.36055664  0.37296501  1
  O  O284  1  0.12928086  0.36689019  0.87065485  1
  O  O285  1  0.11679171  0.87034063  0.37031827  1
  O  O286  1  0.12118709  0.86997271  0.87170906  1
  O  O287  1  0.62730479  0.36261451  0.36977880  1
  O  O288  1  0.61923141  0.37124751  0.86952805  1
  O  O289  1  0.62749700  0.87852328  0.36358190  1
  O  O290  1  0.61314916  0.86723630  0.88057457  1
  O  O291  1  0.38219944  0.11796618  0.13839556  1
  O  O292  1  0.37209973  0.13513258  0.62618226  1
  O  O293  1  0.38751813  0.62038507  0.13041515  1
  O  O294  1  0.38296742  0.63496492  0.61875056  1
  O  O295  1  0.87626314  0.12980611  0.13354960  1
  O  O296  1  0.86698889  0.14039621  0.62555242  1
  O  O297  1  0.88273775  0.62894765  0.12780820  1
  O  O298  1  0.87582884  0.63356624  0.62923250  1
  O  O299  1  0.24982248  0.24856724  0.11125111  1
  O  O300  1  0.25986812  0.25253983  0.62025030  1
  O  O301  1  0.25087188  0.76195013  0.12525981  1
  O  O302  1  0.25225271  0.75758029  0.62057669  1
  O  O303  1  0.76368371  0.24355718  0.12879024  1
  O  O304  1  0.75983078  0.26431459  0.63402916  1
  O  O305  1  0.75375726  0.75850150  0.11610068  1
  O  O306  1  0.75488589  0.75937879  0.61896260  1
  O  O307  1  0.24460911  0.24107486  0.38166862  1
  O  O308  1  0.24469764  0.24116705  0.88425910  1
  O  O309  1  0.24177830  0.74487902  0.37978421  1
  O  O310  1  0.24048518  0.73824700  0.87275350  1
  O  O311  1  0.73891120  0.23660501  0.37066253  1
  O  O312  1  0.74104523  0.23989503  0.86707398  1
  O  O313  1  0.75555142  0.75512229  0.38770468  1
  O  O314  1  0.74584342  0.74761950  0.87875007  1
  O  O315  1  0.01903295  0.12469186  0.00093114  1
  O  O316  1  0.00267767  0.11171628  0.49687334  1
  O  O317  1  0.00961458  0.62409254  0.01042412  1
  O  O318  1  -0.00301313  0.61375315  0.50353408  1
  O  O319  1  0.50918168  0.12374485  0.00589069  1
  O  O320  1  0.51657987  0.13115478  0.50302347  1
  O  O321  1  0.51640214  0.63863873  0.00910433  1
  O  O322  1  0.50544793  0.62178787  0.50925702  1
  O  O323  1  0.49333925  0.37992721  0.49910372  1
  O  O324  1  0.50472347  0.37500992  0.98556560  1
  O  O325  1  0.47935766  0.86358918  0.49597837  1
  O  O326  1  0.49291862  0.87373978  0.99035292  1
  O  O327  1  0.99174747  0.38594193  0.49924353  1
  O  O328  1  0.98666539  0.37573620  1.00210468  1
  O  O329  1  0.99568804  0.88542534  0.49233552  1
  O  O330  1  1.00590238  0.87470122  0.98979466  1
  O  O331  1  0.49107632  0.49734595  0.38245421  1
  O  O332  1  0.49833504  0.48654243  0.86933044  1
  O  O333  1  0.50176788  0.99608468  0.39073828  1
  O  O334  1  0.49145736  0.99135577  0.87514986  1
  O  O335  1  0.99174789  0.49561288  0.38182845  1
  O  O336  1  0.98522164  0.50849222  0.87430338  1
  O  O337  1  1.00806416  0.99327186  0.38953380  1
  O  O338  1  0.98643344  0.99501766  0.87374896  1
  O  O339  1  0.01501962  -0.00126827  0.12932263  1
  O  O340  1  0.00613258  -0.00565344  0.61432832  1
  O  O341  1  0.00768266  0.50648224  0.12480149  1
  O  O342  1  0.00418566  0.50492579  0.61682193  1
  O  O343  1  0.51070906  0.00565842  0.12262088  1
  O  O344  1  0.50530185  -0.00965839  0.61371106  1
  O  O345  1  0.51729915  0.51634224  0.12962050  1
  O  O346  1  0.50337939  0.50646268  0.61947397  1
  O  O347  1  0.25032575  0.38231052  0.24406171  1
  O  O348  1  0.23433905  0.36920604  0.75027707  1
  O  O349  1  0.24724929  0.88037538  0.24520464  1
  O  O350  1  0.23503283  0.86816875  0.74314526  1
  O  O351  1  0.73864576  0.37607325  0.24402948  1
  O  O352  1  0.73577296  0.37658957  0.74475157  1
  O  O353  1  0.74322800  0.87734045  0.24161944  1
  O  O354  1  0.75139635  0.88607628  0.74337629  1
  O  O355  1  0.26190323  0.11846284  0.25468060  1
  O  O356  1  0.24945679  0.13162548  0.76775621  1
  O  O357  1  0.25530332  0.61929582  0.25541759  1
  O  O358  1  0.23637866  0.62257206  0.75326784  1
  O  O359  1  0.75817721  0.12155264  0.26038909  1
  O  O360  1  0.75359915  0.11553151  0.76131262  1
  O  O361  1  0.76445354  0.62582954  0.24443221  1
  O  O362  1  0.75927529  0.62604925  0.75061715  1
  O  O363  1  0.36794128  0.13070812  0.36201190  1
  O  O364  1  0.36400245  0.11508440  0.87984914  1
  O  O365  1  0.36761033  0.61993262  0.37148221  1
  O  O366  1  0.35587787  0.63375156  0.85466166  1
  O  O367  1  0.86211652  0.13209166  0.37118328  1
  O  O368  1  0.86839978  0.11641453  0.87515612  1
  O  O369  1  0.88377104  0.61552510  0.36198626  1
  O  O370  1  0.87022295  0.62289246  0.86400361  1
  O  O371  1  0.12463344  0.38607045  0.12402184  1
  O  O372  1  0.12678195  0.38427000  0.63248248  1
  O  O373  1  0.13317002  0.87910092  0.13054675  1
  O  O374  1  0.12831429  0.88169868  0.63448165  1
  O  O375  1  0.62583555  0.38199189  0.12955681  1
  O  O376  1  0.63035147  0.37764785  0.62981961  1
  O  O377  1  0.63228892  0.88191304  0.13011618  1
  O  O378  1  0.63268883  0.86808802  0.62730339  1
  O  O379  1  0.11922055  0.24713192  0.25642907  1
  O  O380  1  0.11990635  0.25596615  0.75846389  1
  O  O381  1  0.11876208  0.75653651  0.25381954  1
  O  O382  1  0.11821350  0.75706189  0.76125636  1
  O  O383  1  0.62630147  0.25597163  0.26126643  1
  O  O384  1  0.61616918  0.25601614  0.76090418  1
  O  O385  1  0.61747646  0.76013717  0.24635238  1
  O  O386  1  0.61077530  0.74485387  0.75476789  1
  O  O387  1  0.37105300  0.24146586  0.24681959  1
  O  O388  1  0.38759324  0.25812656  0.74516708  1
  O  O389  1  0.38277518  0.74153266  0.24470387  1
  O  O390  1  0.38221741  0.75425591  0.73694851  1
  O  O391  1  0.88177645  0.23855127  0.24438633  1
  O  O392  1  0.88449492  0.25056716  0.74328543  1
  O  O393  1  0.88145651  0.74300626  0.24194068  1
  O  O394  1  0.87388194  0.74409661  0.74154118  1
  O  O395  1  0.37858520  0.49242023  0.49697504  1
  O  O396  1  0.38931974  0.54496894  0.96590994  1
  O  O397  1  0.36773698  0.98383641  0.50323756  1
  O  O398  1  0.37512277  0.98696313  0.99407221  1
  O  O399  1  0.88009566  0.49360908  0.49380770  1
  O  O400  1  0.87695144  0.50996765  0.98106252  1
  O  O401  1  0.88737103  0.99987036  0.50696330  1
  O  O402  1  0.86931784  1.00348148  0.98633286  1
  O  O403  1  0.13575819  0.00755465  0.01178255  1
  O  O404  1  0.11444091  0.00162718  0.51205339  1
  O  O405  1  0.12457687  0.50507797  0.00589242  1
  O  O406  1  0.11528887  0.49914412  0.50554279  1
  O  O407  1  0.62150858  0.00849562  0.00724641  1
  O  O408  1  0.63094860  0.02167391  0.50486496  1
  O  O409  1  0.63030467  0.51118431  0.00546632  1
  O  O410  1  0.62036894  0.50485133  0.50408233  1
  O  O411  1  0.37219329  0.41896222  0.10713223  1
  O  O412  1  0.37496807  0.37156850  0.61649272  1
  O  O413  1  0.36961274  0.87383280  0.11757552  1
  O  O414  1  0.36321221  0.86650578  0.61801879  1
  O  O415  1  0.87252518  0.35433031  0.13167092  1
  O  O416  1  0.86827782  0.37083498  0.61900262  1
  O  O417  1  0.86144409  0.87041361  0.12863642  1
  O  O418  1  0.87074753  0.86424303  0.62535350  1
  O  O419  1  0.13533013  0.13526647  0.37652421  1
  O  O420  1  0.13647296  0.12956566  0.88220304  1
  O  O421  1  0.12749040  0.63178013  0.37521160  1
  O  O422  1  0.12956518  0.63034809  0.87906556  1
  O  O423  1  0.63286088  0.13408510  0.37790520  1
  O  O424  1  0.62981030  0.13212338  0.88241234  1
  O  O425  1  0.61920850  0.61981966  0.38749595  1
  O  O426  1  0.62906490  0.63033446  0.87969732  1
