# generated using pymatgen
data_V85Zn86O256
_symmetry_space_group_name_H-M   'P 1'
_cell_length_a   16.93265117
_cell_length_b   16.92107569
_cell_length_c   16.92304691
_cell_angle_alpha   90.07030664
_cell_angle_beta   89.99161433
_cell_angle_gamma   89.98557210
_symmetry_Int_Tables_number   1
_chemical_formula_structural   V85Zn86O256
_chemical_formula_sum   'V85 Zn86 O256'
_cell_volume   4848.76507344
_cell_formula_units_Z   1
loop_
 _symmetry_equiv_pos_site_id
 _symmetry_equiv_pos_as_xyz
  1  'x, y, z'
loop_
 _atom_site_type_symbol
 _atom_site_label
 _atom_site_symmetry_multiplicity
 _atom_site_fract_x
 _atom_site_fract_y
 _atom_site_fract_z
 _atom_site_occupancy
  V  V0  1  0.12701076  -0.00085305  0.63254563  1
  V  V1  1  -0.00073370  0.73514005  0.74846730  1
  V  V2  1  0.61713592  0.62760788  0.51077793  1
  V  V3  1  0.75127862  0.62460977  0.86764431  1
  V  V4  1  0.20540410  0.06658665  0.31730677  1
  V  V5  1  0.12238338  0.36075074  0.75233183  1
  V  V6  1  0.38752715  -0.00458815  0.87372697  1
  V  V7  1  0.86845590  0.12932880  0.25271768  1
  V  V8  1  0.74637085  0.00320612  0.25527126  1
  V  V9  1  0.62452387  0.87508228  0.25237789  1
  V  V10  1  0.75817026  0.49751863  0.74072091  1
  V  V11  1  0.00379676  0.50479198  -0.00384073  1
  V  V12  1  0.24677908  0.11918524  0.86529714  1
  V  V13  1  -0.00161371  0.74814879  0.25044451  1
  V  V14  1  0.62950497  0.73888411  0.37195142  1
  V  V15  1  0.87585351  0.37861411  -0.00201316  1
  V  V16  1  0.12721911  0.74166040  0.88051461  1
  V  V17  1  0.86780976  0.00704566  0.38013623  1
  V  V18  1  0.87822766  0.73730000  0.63001178  1
  V  V19  1  0.75104095  0.51492210  0.25219621  1
  V  V20  1  0.75130012  0.87497695  0.12628469  1
  V  V21  1  0.24528010  0.88333816  0.13507651  1
  V  V22  1  0.00081498  0.62657550  0.12378593  1
  V  V23  1  0.12700457  0.12623357  0.00099517  1
  V  V24  1  0.50433279  0.25348261  0.24777468  1
  V  V25  1  0.25499996  0.87663635  0.63194304  1
  V  V26  1  0.37224505  0.62865931  0.24667597  1
  V  V27  1  0.24713674  0.37393206  0.62566040  1
  V  V28  1  0.87201127  0.87551220  0.50366172  1
  V  V29  1  0.24966674  0.37670745  0.12271533  1
  V  V30  1  0.38463401  0.73761315  0.63065670  1
  V  V31  1  0.87842060  0.51640463  0.36787096  1
  V  V32  1  0.74676229  0.37664746  0.13117447  1
  V  V33  1  -0.00202370  -0.00044898  0.50613681  1
  V  V34  1  0.61793929  0.87078776  0.76491976  1
  V  V35  1  0.50183857  0.73760117  0.76307810  1
  V  V36  1  0.37440199  0.12742385  0.25064761  1
  V  V37  1  0.00340461  0.36335602  0.87203005  1
  V  V38  1  0.25903994  0.62777108  0.87441580  1
  V  V39  1  0.12137279  0.25613367  0.37476974  1
  V  V40  1  0.87322640  0.74432244  0.12855141  1
  V  V41  1  0.50073508  0.87392536  0.37625539  1
  V  V42  1  0.12568057  0.75369903  0.37372403  1
  V  V43  1  0.37826582  0.87351511  0.50388355  1
  V  V44  1  0.12104704  0.62854326  0.50532454  1
  V  V45  1  0.37257672  0.50191795  0.37452789  1
  V  V46  1  0.87693169  0.87464890  0.00070626  1
  V  V47  1  0.49666196  0.62819620  0.12331230  1
  V  V48  1  0.38217263  0.88045570  0.00560656  1
  V  V49  1  0.25033828  0.24432069  0.49375577  1
  V  V50  1  0.37434138  0.37470474  0.49944884  1
  V  V51  1  0.11873222  0.50445264  0.62916985  1
  V  V52  1  0.50440259  0.37490291  0.37176157  1
  V  V53  1  -0.00125147  0.87560468  0.37127080  1
  V  V54  1  0.62280318  0.49515241  0.12977636  1
  V  V55  1  0.75005952  -0.00145651  0.74966771  1
  V  V56  1  0.37413076  0.00103063  0.37054911  1
  V  V57  1  0.12997662  0.87385022  0.75459968  1
  V  V58  1  0.50029261  0.37231457  0.86656021  1
  V  V59  1  0.88328088  0.12812486  0.74729900  1
  V  V60  1  0.74440346  0.74771762  -0.00526867  1
  V  V61  1  0.74539731  0.87343735  0.62673227  1
  V  V62  1  0.87021320  0.37819466  0.49141664  1
  V  V63  1  0.12581512  0.50719436  0.12160164  1
  V  V64  1  0.63060277  0.37403837  0.73877602  1
  V  V65  1  0.37937263  0.24096016  0.62767973  1
  V  V66  1  0.75219562  0.74308313  0.49676197  1
  V  V67  1  0.50033826  0.01288616  0.50738627  1
  V  V68  1  0.75138670  0.12660775  0.87302409  1
  V  V69  1  0.00180129  0.49720769  0.49695268  1
  V  V70  1  0.37396846  0.37222073  -0.00512220  1
  V  V71  1  0.61635922  0.00183879  0.11965714  1
  V  V72  1  0.87702272  -0.00035958  0.87630696  1
  V  V73  1  0.87404907  0.26172845  0.62890601  1
  V  V74  1  0.12730209  0.12257031  0.49991718  1
  V  V75  1  0.63825480  0.13541446  0.49557694  1
  V  V76  1  0.25296060  0.74906518  0.01115655  1
  V  V77  1  0.25477059  0.50374284  0.74981469  1
  V  V78  1  0.00183464  0.87199433  0.87524411  1
  V  V79  1  0.49913267  0.74874101  0.24750900  1
  V  V80  1  0.74889378  0.25131014  -0.00127758  1
  V  V81  1  0.11785902  0.37893342  0.25155694  1
  V  V82  1  0.62529746  0.24911706  0.87219487  1
  V  V83  1  0.87833648  0.25077021  0.12371456  1
  V  V84  1  0.50182849  0.49934815  -0.00384836  1
  Zn  Zn85  1  0.61819859  0.00660813  0.63030049  1
  Zn  Zn86  1  0.66848977  0.31507078  0.31513964  1
  Zn  Zn87  1  -0.00077370  0.12121500  0.12375332  1
  Zn  Zn88  1  0.61680799  0.11641654  -0.00801141  1
  Zn  Zn89  1  0.24768735  0.62712570  0.37452817  1
  Zn  Zn90  1  0.88153648  0.50486210  0.86681863  1
  Zn  Zn91  1  0.00439774  -0.00261330  0.00584452  1
  Zn  Zn92  1  0.12385438  -0.00032445  0.13825646  1
  Zn  Zn93  1  0.37821798  0.10965357  0.74463538  1
  Zn  Zn94  1  0.24329491  0.25299827  -0.01046558  1
  Zn  Zn95  1  -0.00084072  0.25315310  0.25335028  1
  Zn  Zn96  1  0.00403225  0.13204996  0.62978299  1
  Zn  Zn97  1  0.49228342  0.12390934  0.11772145  1
  Zn  Zn98  1  0.24808633  0.50276454  0.24919894  1
  Zn  Zn99  1  0.62203097  0.62941458  -0.00508754  1
  Zn  Zn100  1  0.74845471  0.25801393  0.48868164  1
  Zn  Zn101  1  0.37287125  0.24870379  0.12218232  1
  Zn  Zn102  1  0.61997983  0.50135275  0.62698212  1
  Zn  Zn103  1  0.37998631  0.50426520  0.86561169  1
  Zn  Zn104  1  0.50758632  0.23570338  0.74123573  1
  Zn  Zn105  1  0.49285965  0.50796727  0.50689451  1
  Zn  Zn106  1  0.25158545  0.74695459  0.50346053  1
  Zn  Zn107  1  0.18455391  0.19516476  0.17880129  1
  Zn  Zn108  1  0.19436871  0.18466127  0.68590746  1
  Zn  Zn109  1  0.18431407  0.69036944  0.19008733  1
  Zn  Zn110  1  0.19120676  0.68907105  0.68916976  1
  Zn  Zn111  1  0.68883319  0.18495430  0.18542728  1
  Zn  Zn112  1  0.69257117  0.18649611  0.67873732  1
  Zn  Zn113  1  0.68352419  0.68455151  0.18141152  1
  Zn  Zn114  1  0.68830818  0.69042093  0.69170375  1
  Zn  Zn115  1  0.30998695  0.31294164  0.30998382  1
  Zn  Zn116  1  0.30874549  0.30940659  0.81195114  1
  Zn  Zn117  1  0.31323846  0.81017357  0.31437515  1
  Zn  Zn118  1  0.31813571  0.81359764  0.81533076  1
  Zn  Zn119  1  0.82827453  0.32277225  0.31386696  1
  Zn  Zn120  1  0.81607066  0.31646587  0.81150367  1
  Zn  Zn121  1  0.81375559  0.81280195  0.31352502  1
  Zn  Zn122  1  0.81310397  0.80933030  0.81166817  1
  Zn  Zn123  1  0.18845971  0.43788354  0.43679307  1
  Zn  Zn124  1  0.18514980  0.43987986  0.93353572  1
  Zn  Zn125  1  0.18608364  0.92910692  0.44678873  1
  Zn  Zn126  1  0.19233420  0.93973439  0.94168723  1
  Zn  Zn127  1  0.69299350  0.44902320  0.43867899  1
  Zn  Zn128  1  0.68800665  0.43940498  0.93327511  1
  Zn  Zn129  1  0.68340908  0.93643734  0.43994759  1
  Zn  Zn130  1  0.69069360  0.93609917  0.93801289  1
  Zn  Zn131  1  0.30874991  0.05971429  0.06093403  1
  Zn  Zn132  1  0.30918264  0.05943134  0.55929019  1
  Zn  Zn133  1  0.31466341  0.56272534  0.05816139  1
  Zn  Zn134  1  0.30609645  0.56234165  0.56172565  1
  Zn  Zn135  1  0.80799419  0.06325273  0.06247836  1
  Zn  Zn136  1  0.80723254  0.06815110  0.56691829  1
  Zn  Zn137  1  0.81331438  0.56374930  0.05985373  1
  Zn  Zn138  1  0.80997843  0.56240426  0.55957244  1
  Zn  Zn139  1  0.43548428  0.43857873  0.18737721  1
  Zn  Zn140  1  0.43931226  0.43640605  0.68294370  1
  Zn  Zn141  1  0.43253948  0.93472109  0.18729707  1
  Zn  Zn142  1  0.44017064  0.93478177  0.69232129  1
  Zn  Zn143  1  0.93740158  0.44025286  0.18708980  1
  Zn  Zn144  1  0.94154365  0.43727158  0.68543705  1
  Zn  Zn145  1  0.93706383  0.93861475  0.18910516  1
  Zn  Zn146  1  0.93853899  0.93232134  0.69071092  1
  Zn  Zn147  1  0.04223679  0.06811860  0.31592849  1
  Zn  Zn148  1  0.06417281  0.06116970  0.81706600  1
  Zn  Zn149  1  0.06049219  0.56730479  0.31140165  1
  Zn  Zn150  1  0.06991668  0.55976474  0.81471311  1
  Zn  Zn151  1  0.55874725  0.06653739  0.31396140  1
  Zn  Zn152  1  0.55878839  0.06165825  0.80977929  1
  Zn  Zn153  1  0.56124138  0.55906621  0.31321460  1
  Zn  Zn154  1  0.57062831  0.56195974  0.81217290  1
  Zn  Zn155  1  0.43767478  0.18884470  0.43095097  1
  Zn  Zn156  1  0.43703399  0.18250850  0.93397169  1
  Zn  Zn157  1  0.43733200  0.68967751  0.43572477  1
  Zn  Zn158  1  0.43345812  0.69140320  0.94053480  1
  Zn  Zn159  1  0.93856599  0.18857327  0.44236796  1
  Zn  Zn160  1  0.94003129  0.18577210  0.93946031  1
  Zn  Zn161  1  0.94059300  0.68635590  0.44361695  1
  Zn  Zn162  1  0.93448996  0.68616403  0.93796891  1
  Zn  Zn163  1  0.06318159  0.31342614  0.05887652  1
  Zn  Zn164  1  0.05842965  0.31402790  0.56376827  1
  Zn  Zn165  1  0.06788098  0.81461788  0.06322411  1
  Zn  Zn166  1  0.06028730  0.81263371  0.56508532  1
  Zn  Zn167  1  0.55953488  0.30872276  0.05983751  1
  Zn  Zn168  1  0.55946080  0.31359214  0.55835597  1
  Zn  Zn169  1  0.56331829  0.81431766  0.06381185  1
  Zn  Zn170  1  0.56205491  0.81179129  0.56622509  1
  O  O171  1  0.12346115  0.12231026  0.11541686  1
  O  O172  1  0.12457550  0.11488159  0.62242614  1
  O  O173  1  0.11929382  0.61416931  0.12745952  1
  O  O174  1  0.13184690  0.61743112  0.61822459  1
  O  O175  1  0.62733832  0.10826189  0.12502111  1
  O  O176  1  0.63040354  0.12018553  0.60640129  1
  O  O177  1  0.61545598  0.61242740  0.11857212  1
  O  O178  1  0.62589178  0.63176447  0.61243362  1
  O  O179  1  0.37805188  0.38250779  0.37977644  1
  O  O180  1  0.38335671  0.37663261  0.87715930  1
  O  O181  1  0.37930574  0.87945580  0.38388532  1
  O  O182  1  0.36666403  0.88719410  0.88947829  1
  O  O183  1  0.88545387  0.38972911  0.38795885  1
  O  O184  1  0.88330715  0.38139130  0.88120359  1
  O  O185  1  0.87897511  0.88495865  0.38313905  1
  O  O186  1  0.87987146  0.87802688  0.88077196  1
  O  O187  1  0.25647940  -0.00388989  0.38011957  1
  O  O188  1  0.25829536  0.01349655  0.88112215  1
  O  O189  1  0.26097152  0.50194529  0.37182422  1
  O  O190  1  0.25015906  0.50990560  0.86790531  1
  O  O191  1  0.75469517  -0.00758010  0.36465839  1
  O  O192  1  0.75657374  0.00561760  0.86939949  1
  O  O193  1  0.76569881  0.49810133  0.36472384  1
  O  O194  1  0.75484878  0.50797388  0.86544909  1
  O  O195  1  0.24200009  0.49426923  0.12150187  1
  O  O196  1  0.24025465  0.49402669  0.63020607  1
  O  O197  1  0.24582970  0.98795373  0.12796465  1
  O  O198  1  0.24329252  0.98555765  0.62212406  1
  O  O199  1  0.74450875  0.49503507  0.12936148  1
  O  O200  1  0.74426219  0.50703261  0.63801190  1
  O  O201  1  0.74460945  0.99450145  0.13766118  1
  O  O202  1  0.74938562  0.99072343  0.63346519  1
  O  O203  1  0.01338348  0.37376178  0.24386897  1
  O  O204  1  0.00998724  0.38201301  0.75987685  1
  O  O205  1  -0.00554765  0.87063246  0.26569191  1
  O  O206  1  0.01188907  0.86679728  0.75751316  1
  O  O207  1  0.49308909  0.36843438  0.25889557  1
  O  O208  1  0.50814260  0.37087732  0.75751232  1
  O  O209  1  0.50412566  0.86845806  0.25426330  1
  O  O210  1  0.51470843  0.86761498  0.74872559  1
  O  O211  1  0.49149783  0.13403543  0.24622461  1
  O  O212  1  0.49155851  0.12432075  0.74750656  1
  O  O213  1  0.49457924  0.62722302  0.24239680  1
  O  O214  1  0.50809891  0.63810023  0.75275320  1
  O  O215  1  0.98212626  0.13134496  0.24486715  1
  O  O216  1  0.98670467  0.12038335  0.75251480  1
  O  O217  1  1.00010950  0.63379123  0.23553742  1
  O  O218  1  1.00624828  0.63579454  0.75557528  1
  O  O219  1  0.37539637  0.26463634  -0.00093759  1
  O  O220  1  0.36792142  0.25386163  0.50304252  1
  O  O221  1  0.35993657  0.76287911  -0.00420992  1
  O  O222  1  0.37741039  0.75704316  0.51145209  1
  O  O223  1  0.86844377  0.25575886  0.00649715  1
  O  O224  1  0.87667208  0.26668489  0.50053067  1
  O  O225  1  0.86646542  0.75645031  0.00792560  1
  O  O226  1  0.86840294  0.75565277  0.50528465  1
  O  O227  1  0.13050082  0.24553076  0.49474063  1
  O  O228  1  0.12495798  0.23418065  1.00298684  1
  O  O229  1  0.12354549  0.74366801  0.49635154  1
  O  O230  1  0.13973186  0.75619669  0.99107930  1
  O  O231  1  0.62823719  0.24040877  0.50213924  1
  O  O232  1  0.63207169  0.25536272  0.98462884  1
  O  O233  1  0.62997247  0.74360557  0.49387092  1
  O  O234  1  0.64062867  0.75138177  1.00661489  1
  O  O235  1  0.49223852  0.25335619  0.13379899  1
  O  O236  1  0.48224695  0.25402260  0.62217171  1
  O  O237  1  0.50778632  0.73619639  0.13098161  1
  O  O238  1  0.48857517  0.75205266  0.63270373  1
  O  O239  1  0.98601357  0.25115557  0.12364372  1
  O  O240  1  0.98176701  0.24680953  0.61696820  1
  O  O241  1  0.99654946  0.74653655  0.13050084  1
  O  O242  1  0.99069803  0.75539684  0.63602092  1
  O  O243  1  0.01680557  0.24385410  0.37540838  1
  O  O244  1  -0.00515895  0.26405893  0.87718142  1
  O  O245  1  0.00096080  0.75584802  0.36967964  1
  O  O246  1  0.00835258  0.75257183  0.87243912  1
  O  O247  1  0.49580552  0.26212352  0.36400169  1
  O  O248  1  0.50910952  0.25659781  0.86892779  1
  O  O249  1  0.50870688  0.75539910  0.36844166  1
  O  O250  1  0.49551420  0.74853367  0.86259083  1
  O  O251  1  0.24146589  0.13262793  0.50077555  1
  O  O252  1  0.24047710  0.12797809  0.99509809  1
  O  O253  1  0.23606209  0.62711167  0.49577765  1
  O  O254  1  0.25575249  0.63997742  0.99483831  1
  O  O255  1  0.74164688  0.12657545  0.49204569  1
  O  O256  1  0.74511028  0.13299289  0.99138507  1
  O  O257  1  0.74012491  0.63825850  0.50095844  1
  O  O258  1  0.74789433  0.63200200  0.99341903  1
  O  O259  1  0.25704565  0.37679002  0.00146974  1
  O  O260  1  0.25830399  0.36863105  0.50322490  1
  O  O261  1  0.25533588  0.86638315  0.01039412  1
  O  O262  1  0.26409763  0.87103760  0.51025251  1
  O  O263  1  0.75551830  0.37355282  0.00841403  1
  O  O264  1  0.76748065  0.38507569  0.50248186  1
  O  O265  1  0.75760287  0.86782748  0.00586283  1
  O  O266  1  0.75127596  0.86630810  0.50818325  1
  O  O267  1  0.12560492  0.49626921  0.24255898  1
  O  O268  1  0.13434009  0.49378863  0.74288886  1
  O  O269  1  0.13234346  1.01541890  0.26213676  1
  O  O270  1  0.11997773  0.99069081  0.74003373  1
  O  O271  1  0.63371173  0.50371745  0.24103188  1
  O  O272  1  0.63645259  0.49059619  0.74863309  1
  O  O273  1  0.63040565  0.99720707  0.24678404  1
  O  O274  1  0.63017009  0.98737408  0.74936851  1
  O  O275  1  0.37879351  0.00553390  0.26325505  1
  O  O276  1  0.37514663  -0.00887136  0.76734831  1
  O  O277  1  0.37371548  0.51121590  0.25681465  1
  O  O278  1  0.35911816  0.49131731  0.74752106  1
  O  O279  1  0.86624391  0.00738498  0.25854780  1
  O  O280  1  0.86995869  0.00530924  0.75564481  1
  O  O281  1  0.87141304  0.49894493  0.26138462  1
  O  O282  1  0.86253976  0.49633157  0.74683613  1
  O  O283  1  0.12914104  0.36864390  0.36522435  1
  O  O284  1  0.11750716  0.37609330  0.86495264  1
  O  O285  1  0.11337467  0.86317058  0.38489868  1
  O  O286  1  0.12418071  0.86771124  0.87008424  1
  O  O287  1  0.60910524  0.38953965  0.38067831  1
  O  O288  1  0.61963156  0.36828426  0.86519397  1
  O  O289  1  0.61915994  0.86612390  0.37033448  1
  O  O290  1  0.63034777  0.87375523  0.86341410  1
  O  O291  1  0.37161467  0.12321139  0.13780745  1
  O  O292  1  0.36474671  0.13769590  0.62400110  1
  O  O293  1  0.38583641  0.61807567  0.13269773  1
  O  O294  1  0.36939402  0.63989593  0.62141026  1
  O  O295  1  0.87075374  0.13529288  0.13173637  1
  O  O296  1  0.87883177  0.13202171  0.63309854  1
  O  O297  1  0.88154751  0.63826464  0.12088145  1
  O  O298  1  0.87260294  0.63829930  0.61884262  1
  O  O299  1  0.25187099  0.26636768  0.11714457  1
  O  O300  1  0.25591210  0.25509979  0.61209226  1
  O  O301  1  0.24442243  0.75463593  0.11412298  1
  O  O302  1  0.26180072  0.76056498  0.62708696  1
  O  O303  1  0.75635504  0.25857281  0.12130263  1
  O  O304  1  0.77058363  0.24549057  0.61224330  1
  O  O305  1  0.75732487  0.75380567  0.12097292  1
  O  O306  1  0.75646237  0.75619978  0.62006715  1
  O  O307  1  0.24100661  0.25545749  0.38662508  1
  O  O308  1  0.26027865  0.22837878  0.87627518  1
  O  O309  1  0.23913565  0.75124030  0.38013329  1
  O  O310  1  0.24578077  0.74495978  0.88056881  1
  O  O311  1  0.75060800  0.26932296  0.37437754  1
  O  O312  1  0.74551595  0.24707332  0.87745532  1
  O  O313  1  0.74156680  0.75715936  0.38406218  1
  O  O314  1  0.75530121  0.73780823  0.88163167  1
  O  O315  1  0.01130738  0.12110841  0.00007469  1
  O  O316  1  0.00808662  0.11530012  0.50219302  1
  O  O317  1  -0.00221778  0.61983316  0.01178075  1
  O  O318  1  0.01254637  0.61569361  0.50020162  1
  O  O319  1  0.50680622  0.13484677  0.00636549  1
  O  O320  1  0.49621379  0.11401914  0.49982324  1
  O  O321  1  0.49862443  0.61826931  0.00531729  1
  O  O322  1  0.51379814  0.62803147  0.49639938  1
  O  O323  1  0.48547183  0.37331225  0.49041460  1
  O  O324  1  0.49561379  0.38017054  0.98723802  1
  O  O325  1  0.49133942  0.87935723  0.49716772  1
  O  O326  1  0.48108865  0.86681647  1.00712758  1
  O  O327  1  0.99232370  0.39101379  0.50399375  1
  O  O328  1  0.99624078  0.38333229  0.99326291  1
  O  O329  1  0.99163660  0.87957216  0.49340789  1
  O  O330  1  0.99333081  0.87251348  0.99390107  1
  O  O331  1  0.48677918  0.49571865  0.37934275  1
  O  O332  1  0.50136494  0.49290286  0.87921595  1
  O  O333  1  0.49150993  0.99325722  0.38476697  1
  O  O334  1  0.48703287  1.00057087  0.88015066  1
  O  O335  1  0.98934286  0.50717420  0.38123574  1
  O  O336  1  1.00077409  0.49723357  0.88310365  1
  O  O337  1  0.98902256  0.99239377  0.38402196  1
  O  O338  1  0.99318847  0.98983137  0.87746136  1
  O  O339  1  0.00492909  0.00156333  0.12582564  1
  O  O340  1  0.00828917  -0.00298269  0.62109546  1
  O  O341  1  0.00552194  0.50835704  0.12004836  1
  O  O342  1  0.01282819  0.50052422  0.61848277  1
  O  O343  1  0.51442562  -0.00108284  0.13232996  1
  O  O344  1  0.49742381  -0.00555478  0.61010260  1
  O  O345  1  0.50596822  0.50384442  0.11822123  1
  O  O346  1  0.50678149  0.49336668  0.61757146  1
  O  O347  1  0.24092250  0.37905519  0.23891361  1
  O  O348  1  0.24106724  0.37998737  0.74624413  1
  O  O349  1  0.25798556  0.86620361  0.23282485  1
  O  O350  1  0.23873070  0.86855623  0.74610161  1
  O  O351  1  0.75011619  0.38241823  0.23868297  1
  O  O352  1  0.74486553  0.38880578  0.75398060  1
  O  O353  1  0.74444772  0.88160316  0.24510211  1
  O  O354  1  0.74157593  0.87577740  0.74463771  1
  O  O355  1  0.25481192  0.13280264  0.25156355  1
  O  O356  1  0.25465682  0.12128347  0.76082818  1
  O  O357  1  0.25781928  0.62495612  0.25126003  1
  O  O358  1  0.24582851  0.61652329  0.76028158  1
  O  O359  1  0.75929939  0.11828674  0.24979005  1
  O  O360  1  0.76009019  0.11916539  0.75368462  1
  O  O361  1  0.75088307  0.61440004  0.24246797  1
  O  O362  1  0.74647027  0.61519172  0.75890688  1
  O  O363  1  0.37399885  0.11632099  0.36350543  1
  O  O364  1  0.36717457  0.11000029  0.87575818  1
  O  O365  1  0.37352370  0.61853373  0.36903190  1
  O  O366  1  0.36382348  0.62256373  0.87752714  1
  O  O367  1  0.87879605  0.11464419  0.37027134  1
  O  O368  1  0.86960697  0.12175431  0.86919709  1
  O  O369  1  0.87530951  0.61530274  0.37945077  1
  O  O370  1  0.85898230  0.62056990  0.88116228  1
  O  O371  1  0.13003934  0.38570289  0.12831315  1
  O  O372  1  0.12890089  0.38260721  0.62950975  1
  O  O373  1  0.13884934  0.87834582  0.12650292  1
  O  O374  1  0.13337332  0.87808334  0.63262161  1
  O  O375  1  0.63158299  0.38634674  0.11857062  1
  O  O376  1  0.62454738  0.36968828  0.63596216  1
  O  O377  1  0.63036874  0.88430483  0.13252074  1
  O  O378  1  0.63624547  0.87567011  0.63031390  1
  O  O379  1  0.12451127  0.25912924  0.25673021  1
  O  O380  1  0.12735268  0.26155422  0.73926627  1
  O  O381  1  0.11016460  0.74857873  0.25968930  1
  O  O382  1  0.11980184  0.75601578  0.75771951  1
  O  O383  1  0.61147168  0.24883995  0.24219939  1
  O  O384  1  0.63014563  0.25477388  0.75596440  1
  O  O385  1  0.62204466  0.75305130  0.25560265  1
  O  O386  1  0.61428474  0.76022922  0.74708497  1
  O  O387  1  0.38057171  0.24276057  0.24883441  1
  O  O388  1  0.37212842  0.25216504  0.73158768  1
  O  O389  1  0.38308404  0.73633619  0.25609827  1
  O  O390  1  0.38891363  0.75576184  0.74075211  1
  O  O391  1  0.87633338  0.24586288  0.24241081  1
  O  O392  1  0.87065539  0.24536561  0.73715207  1
  O  O393  1  0.88642980  0.75543674  0.24277124  1
  O  O394  1  0.88615097  0.75343458  0.74210887  1
  O  O395  1  0.37129014  0.49216496  0.49352192  1
  O  O396  1  0.38721025  0.49026002  0.99625495  1
  O  O397  1  0.38263792  0.99471206  0.49272765  1
  O  O398  1  0.37217849  0.98782694  0.99447186  1
  O  O399  1  0.88110847  0.49774681  0.49328176  1
  O  O400  1  0.88845575  0.49454184  1.00306436  1
  O  O401  1  0.87464326  0.99773770  0.49574768  1
  O  O402  1  0.87388589  0.99156544  0.99548365  1
  O  O403  1  0.12453061  0.01268799  0.00230075  1
  O  O404  1  0.12048286  0.00128413  0.51230166  1
  O  O405  1  0.11268207  0.49642335  0.00766009  1
  O  O406  1  0.11974711  0.50537451  0.50496950  1
  O  O407  1  0.63186555  -0.00341818  0.01605910  1
  O  O408  1  0.61000828  0.00146322  0.50225933  1
  O  O409  1  0.61295074  0.49849912  0.00485695  1
  O  O410  1  0.62848186  0.52004025  0.50102905  1
  O  O411  1  0.36539568  0.37922977  0.11480398  1
  O  O412  1  0.36713302  0.36552696  0.61506780  1
  O  O413  1  0.36348702  0.87992591  0.11413311  1
  O  O414  1  0.37065948  0.87047944  0.62135221  1
  O  O415  1  0.86758439  0.37007586  0.12037950  1
  O  O416  1  0.87939068  0.36752124  0.61527702  1
  O  O417  1  0.87088936  0.86549346  0.12144949  1
  O  O418  1  0.86365856  0.86961068  0.62150459  1
  O  O419  1  0.13180505  0.12674539  0.37738480  1
  O  O420  1  0.13758687  0.12065665  0.88206532  1
  O  O421  1  0.12296916  0.63822667  0.38159781  1
  O  O422  1  0.13536247  0.63681875  0.87551790  1
  O  O423  1  0.61571447  0.11849151  0.39725166  1
  O  O424  1  0.63355240  0.13230159  0.87172227  1
  O  O425  1  0.62238209  0.63570324  0.38085509  1
  O  O426  1  0.64412578  0.62023743  0.88054614  1
