# generated using pymatgen
data_V85Zn86O256
_symmetry_space_group_name_H-M   'P 1'
_cell_length_a   16.91574637
_cell_length_b   16.91958255
_cell_length_c   16.92377826
_cell_angle_alpha   89.95657967
_cell_angle_beta   90.04339736
_cell_angle_gamma   89.97001627
_symmetry_Int_Tables_number   1
_chemical_formula_structural   V85Zn86O256
_chemical_formula_sum   'V85 Zn86 O256'
_cell_volume   4843.70657221
_cell_formula_units_Z   1
loop_
 _symmetry_equiv_pos_site_id
 _symmetry_equiv_pos_as_xyz
  1  'x, y, z'
loop_
 _atom_site_type_symbol
 _atom_site_label
 _atom_site_symmetry_multiplicity
 _atom_site_fract_x
 _atom_site_fract_y
 _atom_site_fract_z
 _atom_site_occupancy
  V  V0  1  0.12503816  0.24968434  0.87155411  1
  V  V1  1  0.51099350  0.25451852  0.25153185  1
  V  V2  1  0.51683062  0.86992492  0.87801574  1
  V  V3  1  0.62415404  0.49371048  0.12785872  1
  V  V4  1  0.62644561  0.62764233  0.50249665  1
  V  V5  1  0.62900279  0.50135840  0.62899372  1
  V  V6  1  -0.00088194  0.25300947  0.74807682  1
  V  V7  1  0.25424502  0.24626265  0.50015763  1
  V  V8  1  0.12938423  0.49721158  0.12074050  1
  V  V9  1  0.00318968  0.00365244  0.01298342  1
  V  V10  1  0.50075890  0.50097516  0.50103809  1
  V  V11  1  0.87450912  0.74896112  0.12510052  1
  V  V12  1  0.86863208  0.12489711  0.74871907  1
  V  V13  1  0.87719208  0.13659487  0.24678564  1
  V  V14  1  0.63504853  0.00072520  0.64346918  1
  V  V15  1  0.49992771  0.74832304  0.24930231  1
  V  V16  1  -0.00618379  0.00014930  0.50260082  1
  V  V17  1  0.72730807  0.24992500  0.49276379  1
  V  V18  1  0.25336552  0.26356885  0.00496272  1
  V  V19  1  0.37536666  0.75545353  0.12216432  1
  V  V20  1  0.12530614  0.62531573  -0.00246876  1
  V  V21  1  0.74980724  0.87322675  0.12601239  1
  V  V22  1  0.49996559  0.62458067  0.12428598  1
  V  V23  1  0.37620676  0.62489622  0.74944742  1
  V  V24  1  0.62708542  0.37253333  0.75090906  1
  V  V25  1  0.74806251  0.12534913  0.87699949  1
  V  V26  1  0.62433478  0.00047563  0.12317384  1
  V  V27  1  0.37353282  -0.01308975  0.87502208  1
  V  V28  1  0.87554593  0.37804058  -0.00871486  1
  V  V29  1  0.37575706  0.00296558  0.37379682  1
  V  V30  1  0.13038307  0.25548182  0.37075903  1
  V  V31  1  0.75296153  0.86862885  0.63834450  1
  V  V32  1  0.12419231  0.87468438  0.74885668  1
  V  V33  1  0.51163382  0.37465359  0.37247952  1
  V  V34  1  0.49089571  -0.00338167  0.00115156  1
  V  V35  1  0.87435969  0.00213365  0.87463819  1
  V  V36  1  -0.00017296  0.12627863  0.62391913  1
  V  V37  1  0.23531413  0.74762844  0.49757339  1
  V  V38  1  0.25457130  0.75733972  -0.00117612  1
  V  V39  1  0.87965081  0.61363625  0.75562777  1
  V  V40  1  0.87640057  0.61672654  0.25173670  1
  V  V41  1  0.13559291  0.50093334  0.61553976  1
  V  V42  1  0.50015282  0.87213615  0.37623705  1
  V  V43  1  -0.00924789  0.37300110  0.37713205  1
  V  V44  1  0.37058734  0.49626577  0.87539740  1
  V  V45  1  0.51783644  0.00645808  0.49808706  1
  V  V46  1  0.36956588  0.37596653  0.50485180  1
  V  V47  1  0.36987323  0.26369447  0.12327408  1
  V  V48  1  0.13888290  0.38001609  0.74129156  1
  V  V49  1  0.13088678  0.12428849  0.49803118  1
  V  V50  1  0.12229143  0.37340633  0.24668736  1
  V  V51  1  0.74964927  0.61549593  0.87727408  1
  V  V52  1  0.01143063  0.74868497  0.25119706  1
  V  V53  1  0.12563485  0.00054802  0.62545460  1
  V  V54  1  0.37353407  0.12828338  0.25421170  1
  V  V55  1  -0.00028500  0.87755569  0.87642830  1
  V  V56  1  0.51319101  0.75386124  0.75192011  1
  V  V57  1  0.00105145  0.62339280  0.12356435  1
  V  V58  1  0.49542298  0.49475338  0.00100971  1
  V  V59  1  0.62815999  0.74803251  0.37592424  1
  V  V60  1  0.49552672  0.12748646  0.12238780  1
  V  V61  1  0.74789252  0.49397583  0.25383979  1
  V  V62  1  0.86899370  0.00272742  0.37400898  1
  V  V63  1  0.25009177  -0.00104707  0.74852040  1
  V  V64  1  0.00266720  0.86818981  0.37610972  1
  V  V65  1  0.74446559  0.75097674  -0.00703308  1
  V  V66  1  0.75654216  0.62087542  0.37734615  1
  V  V67  1  0.25060730  0.62396610  0.86885067  1
  V  V68  1  -0.00773797  0.74973733  0.74554662  1
  V  V69  1  0.25039788  0.49711965  0.24584919  1
  V  V70  1  0.37340703  0.50210409  0.37594496  1
  V  V71  1  0.75189835  0.36883642  0.12800756  1
  V  V72  1  0.37532976  0.24970764  0.62765712  1
  V  V73  1  0.24626621  0.88602211  0.13003660  1
  V  V74  1  0.23413474  0.62750593  0.37684386  1
  V  V75  1  -0.00204329  0.62515964  0.61904641  1
  V  V76  1  0.87376199  0.25634575  0.61111391  1
  V  V77  1  0.20207143  0.06848621  0.31473618  1
  V  V78  1  0.25286403  0.12477992  0.87433565  1
  V  V79  1  0.49827169  0.37308165  0.87664615  1
  V  V80  1  0.37760471  0.87205392  0.50217887  1
  V  V81  1  0.12437094  0.75099885  0.87337819  1
  V  V82  1  0.12251959  0.12471899  0.01248296  1
  V  V83  1  0.62661389  0.87347963  0.25014557  1
  V  V84  1  -0.01403891  0.49883802  0.49677434  1
  Zn  Zn85  1  0.50208670  0.62885759  0.62763323  1
  Zn  Zn86  1  0.75768819  0.49293323  0.75538691  1
  Zn  Zn87  1  0.50872448  0.12625128  0.62758333  1
  Zn  Zn88  1  -0.00729563  0.50531591  -0.00853864  1
  Zn  Zn89  1  0.71575055  0.12998740  0.37695685  1
  Zn  Zn90  1  -0.00361333  0.38481153  0.86825810  1
  Zn  Zn91  1  0.12828327  0.88367541  0.25062474  1
  Zn  Zn92  1  0.25145658  0.87265679  0.62522085  1
  Zn  Zn93  1  0.76323851  0.74725329  0.50959646  1
  Zn  Zn94  1  0.87686883  0.87715213  0.00162416  1
  Zn  Zn95  1  0.89455102  0.24974936  0.12294693  1
  Zn  Zn96  1  0.37917196  0.12224874  0.74836413  1
  Zn  Zn97  1  0.49987975  0.24786144  0.75029374  1
  Zn  Zn98  1  0.74951864  0.24827697  0.00344343  1
  Zn  Zn99  1  0.37336726  0.62643185  0.25175113  1
  Zn  Zn100  1  0.62219060  0.62660038  -0.00481372  1
  Zn  Zn101  1  0.62393305  0.12830341  0.00022244  1
  Zn  Zn102  1  0.37601379  0.75112904  0.62655716  1
  Zn  Zn103  1  0.62492409  0.24906338  0.87763317  1
  Zn  Zn104  1  0.75463081  0.37706402  0.62055683  1
  Zn  Zn105  1  0.75251490  0.00236296  0.24967902  1
  Zn  Zn106  1  0.87432434  0.86490501  0.50540950  1
  Zn  Zn107  1  0.06654322  0.19018683  0.18776913  1
  Zn  Zn108  1  0.19143614  0.18881528  0.68459103  1
  Zn  Zn109  1  0.19160333  0.68421600  0.18583499  1
  Zn  Zn110  1  0.18515097  0.68544503  0.68335853  1
  Zn  Zn111  1  0.69034489  0.18146873  0.19088245  1
  Zn  Zn112  1  0.68802565  0.18755086  0.68547052  1
  Zn  Zn113  1  0.68719582  0.68276919  0.18614806  1
  Zn  Zn114  1  0.69144882  0.68675480  0.69364942  1
  Zn  Zn115  1  0.31317566  0.31506696  0.31282104  1
  Zn  Zn116  1  0.31283907  0.31315517  0.81330539  1
  Zn  Zn117  1  0.31090115  0.81222006  0.31223326  1
  Zn  Zn118  1  0.31494447  0.81062293  0.80933232  1
  Zn  Zn119  1  0.80546689  0.31015430  0.31759882  1
  Zn  Zn120  1  0.81071484  0.30824703  0.81024582  1
  Zn  Zn121  1  0.81668261  0.80960791  0.31445541  1
  Zn  Zn122  1  0.81355644  0.81031356  0.81345614  1
  Zn  Zn123  1  0.18818287  0.43800499  0.43838699  1
  Zn  Zn124  1  0.18181341  0.43995111  0.92908170  1
  Zn  Zn125  1  0.18273360  0.92934292  0.44240162  1
  Zn  Zn126  1  0.18696782  0.93861950  0.94083789  1
  Zn  Zn127  1  0.69463943  0.43679899  0.44255796  1
  Zn  Zn128  1  0.68569571  0.43665469  0.94224090  1
  Zn  Zn129  1  0.69300980  0.93180287  0.44167757  1
  Zn  Zn130  1  0.69072519  0.94211064  0.93987103  1
  Zn  Zn131  1  0.31101421  0.06992453  0.06220819  1
  Zn  Zn132  1  0.31586310  0.06309207  0.56057683  1
  Zn  Zn133  1  0.31355336  0.56647837  0.05961783  1
  Zn  Zn134  1  0.31413136  0.56866407  0.56222484  1
  Zn  Zn135  1  0.81406603  0.06312135  0.06282986  1
  Zn  Zn136  1  0.80444541  0.06686895  0.56076298  1
  Zn  Zn137  1  0.81082290  0.55940889  0.06321564  1
  Zn  Zn138  1  0.81499248  0.56607556  0.56689983  1
  Zn  Zn139  1  0.43710896  0.43650149  0.19041975  1
  Zn  Zn140  1  0.43855495  0.43884120  0.68875454  1
  Zn  Zn141  1  0.43281741  0.93632121  0.18929896  1
  Zn  Zn142  1  0.44292097  0.93719504  0.68664699  1
  Zn  Zn143  1  0.94017217  0.43339190  0.18341861  1
  Zn  Zn144  1  0.94301250  0.43657536  0.68360641  1
  Zn  Zn145  1  0.93661350  0.93660988  0.19116219  1
  Zn  Zn146  1  0.93180113  0.93786291  0.68932721  1
  Zn  Zn147  1  0.04000866  0.06179046  0.31451269  1
  Zn  Zn148  1  0.05989421  0.06448916  0.81466939  1
  Zn  Zn149  1  0.05981696  0.55715647  0.31300669  1
  Zn  Zn150  1  0.06544347  0.56026102  0.80787891  1
  Zn  Zn151  1  0.55950910  0.06361382  0.30679849  1
  Zn  Zn152  1  0.56041422  0.06208308  0.81218865  1
  Zn  Zn153  1  0.56434794  0.56107829  0.31285404  1
  Zn  Zn154  1  0.56475933  0.56296607  0.81446270  1
  Zn  Zn155  1  0.45313766  0.18478476  0.43495101  1
  Zn  Zn156  1  0.43443390  0.18578113  0.93735997  1
  Zn  Zn157  1  0.43659018  0.68614496  0.43830751  1
  Zn  Zn158  1  0.43766845  0.68777369  0.93791246  1
  Zn  Zn159  1  0.94040482  0.18764299  0.43150057  1
  Zn  Zn160  1  0.93788706  0.19256964  0.94033429  1
  Zn  Zn161  1  0.94024316  0.68455889  0.43718441  1
  Zn  Zn162  1  0.93452641  0.68752525  0.93618555  1
  Zn  Zn163  1  0.06637438  0.31970908  0.05503828  1
  Zn  Zn164  1  0.06407224  0.31515736  0.55875015  1
  Zn  Zn165  1  0.06569904  0.81532305  0.06386370  1
  Zn  Zn166  1  0.05783825  0.81345420  0.56397926  1
  Zn  Zn167  1  0.56334483  0.31171952  0.06262989  1
  Zn  Zn168  1  0.55669001  0.31837479  0.56577441  1
  Zn  Zn169  1  0.56272623  0.81351079  0.05926168  1
  Zn  Zn170  1  0.56955116  0.81691054  0.56837553  1
  O  O171  1  0.13098879  0.12713275  0.11055502  1
  O  O172  1  0.11881801  0.12036393  0.61977728  1
  O  O173  1  0.12134515  0.61755268  0.11908726  1
  O  O174  1  0.11314073  0.60842339  0.63283950  1
  O  O175  1  0.61637058  0.11503806  0.12559514  1
  O  O176  1  0.62740342  0.10799617  0.62940593  1
  O  O177  1  0.61709454  0.61369781  0.12287754  1
  O  O178  1  0.62591558  0.61970470  0.62019332  1
  O  O179  1  0.37906698  0.38824369  0.38115510  1
  O  O180  1  0.38142530  0.38817750  0.86774487  1
  O  O181  1  0.37988516  0.88137711  0.37965768  1
  O  O182  1  0.37669797  0.88468333  0.87579978  1
  O  O183  1  0.89232825  0.36898011  0.36780433  1
  O  O184  1  0.87241686  0.36999253  0.88759080  1
  O  O185  1  0.88540424  0.88357672  0.37362021  1
  O  O186  1  0.88167910  0.88455000  0.87669144  1
  O  O187  1  0.25367810  0.00225506  0.37680151  1
  O  O188  1  0.25588904  0.00493976  0.87197565  1
  O  O189  1  0.25539336  0.50783525  0.37094970  1
  O  O190  1  0.25816595  0.51102928  0.87751494  1
  O  O191  1  0.76221799  -0.00044582  0.37721400  1
  O  O192  1  0.76523528  0.00873717  0.88156941  1
  O  O193  1  0.74599681  0.51068907  0.36830594  1
  O  O194  1  0.75088987  0.51133358  0.87701032  1
  O  O195  1  0.24438193  0.51002194  0.13505126  1
  O  O196  1  0.23502969  0.50629344  0.61768455  1
  O  O197  1  0.25916962  0.98368849  0.11810965  1
  O  O198  1  0.24346021  0.99919996  0.62994483  1
  O  O199  1  0.74219237  0.49259209  0.13232367  1
  O  O200  1  0.74028113  0.49914431  0.62753139  1
  O  O201  1  0.74003881  0.99353190  0.12457022  1
  O  O202  1  0.74050701  0.99457839  0.62419468  1
  O  O203  1  0.01399227  0.38737126  0.26326681  1
  O  O204  1  0.00737304  0.36308907  0.74828872  1
  O  O205  1  0.00420817  0.86628724  0.25555213  1
  O  O206  1  0.00305520  0.86795916  0.75396733  1
  O  O207  1  0.49695195  0.36723688  0.25954988  1
  O  O208  1  0.50812388  0.37478110  0.75976210  1
  O  O209  1  0.50556987  0.86835291  0.25582164  1
  O  O210  1  0.49559624  0.86302129  0.76406394  1
  O  O211  1  0.48724302  0.13185627  0.24189369  1
  O  O212  1  0.49643705  0.12940658  0.74770890  1
  O  O213  1  0.49895071  0.63033115  0.24260618  1
  O  O214  1  0.49562350  0.63796718  0.75500623  1
  O  O215  1  0.98639044  0.12826884  0.24421031  1
  O  O216  1  0.99545103  0.13665107  0.74479403  1
  O  O217  1  0.99361925  0.62867704  0.24578239  1
  O  O218  1  0.99567194  0.63063901  0.74460241  1
  O  O219  1  0.36166091  0.24607146  0.00590726  1
  O  O220  1  0.37156724  0.25576297  0.50356677  1
  O  O221  1  0.36588028  0.74651466  0.00804944  1
  O  O222  1  0.37576643  0.76252689  0.50092937  1
  O  O223  1  0.87116114  0.26076283  0.00519938  1
  O  O224  1  0.88357279  0.24873588  0.51167873  1
  O  O225  1  0.86882646  0.75106835  0.01247767  1
  O  O226  1  0.87700049  0.75010483  0.49936030  1
  O  O227  1  0.13371269  0.24499347  0.49345001  1
  O  O228  1  0.13365182  0.24344975  0.99000254  1
  O  O229  1  0.13670564  0.75625407  0.49888267  1
  O  O230  1  0.13147012  0.74471636  0.99335744  1
  O  O231  1  0.62945522  0.24881006  0.50960816  1
  O  O232  1  0.62897739  0.24690561  0.99651405  1
  O  O233  1  0.62496650  0.73788102  0.49730502  1
  O  O234  1  0.63999083  0.74492336  1.00845209  1
  O  O235  1  0.48988722  0.24735671  0.13002573  1
  O  O236  1  0.48909844  0.24747967  0.62577564  1
  O  O237  1  0.49383035  0.74659162  0.12690979  1
  O  O238  1  0.50106724  0.75277051  0.64047968  1
  O  O239  1  1.00673815  0.26054398  0.12709526  1
  O  O240  1  0.99386634  0.24611867  0.62825439  1
  O  O241  1  0.99303583  0.74556659  0.12980557  1
  O  O242  1  1.00872302  0.73821393  0.63389300  1
  O  O243  1  0.01455316  0.26397969  0.38182446  1
  O  O244  1  0.00930021  0.25211888  0.86534349  1
  O  O245  1  -0.00402783  0.75660131  0.36346868  1
  O  O246  1  0.00498989  0.75669118  0.86884096  1
  O  O247  1  0.49269559  0.26315515  0.36411615  1
  O  O248  1  0.49630333  0.26345006  0.87626771  1
  O  O249  1  0.50675193  0.75308002  0.37033474  1
  O  O250  1  0.49789086  0.76276968  0.87108952  1
  O  O251  1  0.24365190  0.13229479  0.49900969  1
  O  O252  1  0.23942304  0.12947129  0.98918309  1
  O  O253  1  0.25370566  0.64002563  0.49257334  1
  O  O254  1  0.24564557  0.63623714  0.98938106  1
  O  O255  1  0.75739301  0.14595691  0.49315282  1
  O  O256  1  0.74816768  0.12583448  0.99178735  1
  O  O257  1  0.74502709  0.62535624  0.49362693  1
  O  O258  1  0.75234818  0.62973738  0.99043780  1
  O  O259  1  0.24367387  0.36153201  -0.00875479  1
  O  O260  1  0.26325824  0.36812989  0.49505837  1
  O  O261  1  0.24424594  0.86354803  0.00894916  1
  O  O262  1  0.25793555  0.86300504  0.49910054  1
  O  O263  1  0.75873644  0.37439591  0.00919917  1
  O  O264  1  0.74897766  0.35797356  0.50386043  1
  O  O265  1  0.75305894  0.86711378  0.00637359  1
  O  O266  1  0.75429823  0.86797629  0.51128517  1
  O  O267  1  0.13167796  0.49639598  0.24164245  1
  O  O268  1  0.12292578  0.48559317  0.73655205  1
  O  O269  1  0.13542949  1.01291097  0.26109985  1
  O  O270  1  0.12881156  0.99587265  0.74644283  1
  O  O271  1  0.63596423  0.50521751  0.24140909  1
  O  O272  1  0.62683506  0.49217804  0.74425609  1
  O  O273  1  0.62138851  0.99219620  0.23665912  1
  O  O274  1  0.62355507  0.99482438  0.74154506  1
  O  O275  1  0.37944841  0.00760642  0.26449985  1
  O  O276  1  0.36836393  -0.00157930  0.75695913  1
  O  O277  1  0.36697094  0.50149809  0.25762642  1
  O  O278  1  0.38370951  0.51513746  0.75946007  1
  O  O279  1  0.87461541  0.00807823  0.25785425  1
  O  O280  1  0.88586545  0.01455054  0.76161561  1
  O  O281  1  0.86860401  0.51128499  0.24077259  1
  O  O282  1  0.87760904  0.50888689  0.74686228  1
  O  O283  1  0.12113459  0.37042088  0.36790110  1
  O  O284  1  0.12605506  0.36425426  0.85967223  1
  O  O285  1  0.10858919  0.88098870  0.36987254  1
  O  O286  1  0.11919261  0.87163359  0.86929486  1
  O  O287  1  0.61015108  0.38629943  0.38075586  1
  O  O288  1  0.61688177  0.37634625  0.86854422  1
  O  O289  1  0.62143018  0.86832424  0.37044105  1
  O  O290  1  0.61518079  0.87822709  0.87810263  1
  O  O291  1  0.37746039  0.13276589  0.13354438  1
  O  O292  1  0.37518154  0.13594045  0.62700030  1
  O  O293  1  0.38214740  0.63586696  0.12692775  1
  O  O294  1  0.38089135  0.62779575  0.63469346  1
  O  O295  1  0.86517752  0.13006477  0.14163059  1
  O  O296  1  0.88015240  0.13292346  0.63154816  1
  O  O297  1  0.87950601  0.63056744  0.12960554  1
  O  O298  1  0.89006968  0.62168583  0.63529775  1
  O  O299  1  0.25509687  0.24990223  0.10689664  1
  O  O300  1  0.25772461  0.24827789  0.60997636  1
  O  O301  1  0.25748969  0.75356618  0.11744871  1
  O  O302  1  0.25177993  0.74939388  0.61093959  1
  O  O303  1  0.74546579  0.26386741  0.13014434  1
  O  O304  1  0.76212436  0.24895478  0.61576749  1
  O  O305  1  0.75784351  0.75166832  0.12070068  1
  O  O306  1  0.74371957  0.76313252  0.62759652  1
  O  O307  1  0.24099394  0.25522456  0.38515108  1
  O  O308  1  0.24682153  0.24214400  0.88035528  1
  O  O309  1  0.25461611  0.74207575  0.38662757  1
  O  O310  1  0.24645872  0.74689354  0.88165234  1
  O  O311  1  0.73893355  0.25134033  0.38711503  1
  O  O312  1  0.74975936  0.23602479  0.87679260  1
  O  O313  1  0.74400478  0.73635868  0.37237986  1
  O  O314  1  0.75843390  0.74019545  0.88665451  1
  O  O315  1  0.01444695  0.12124238  -0.00469828  1
  O  O316  1  0.00855893  0.11766944  0.50207752  1
  O  O317  1  0.00694991  0.62723760  0.00582058  1
  O  O318  1  0.00007783  0.60964584  0.50490193  1
  O  O319  1  0.50038684  0.11524449  0.00461481  1
  O  O320  1  0.49079806  0.10647327  0.50887947  1
  O  O321  1  0.50101568  0.61585795  0.00566342  1
  O  O322  1  0.50877474  0.61911952  0.50237157  1
  O  O323  1  0.48960899  0.38196430  0.49254943  1
  O  O324  1  0.50214786  0.38672047  0.99329642  1
  O  O325  1  0.49581943  0.88255310  0.49634290  1
  O  O326  1  0.50036274  0.88010738  0.98731192  1
  O  O327  1  1.00248302  0.38419814  0.48742771  1
  O  O328  1  0.98677225  0.37733460  0.99355128  1
  O  O329  1  0.99688489  0.88327130  0.49463994  1
  O  O330  1  1.00148038  0.88354838  0.99348296  1
  O  O331  1  0.49173109  0.49748563  0.38032382  1
  O  O332  1  0.49468497  0.49331273  0.88246874  1
  O  O333  1  0.49202032  0.99040021  0.38475036  1
  O  O334  1  0.49407044  0.98837179  0.88041860  1
  O  O335  1  1.00366056  0.49012114  0.38828424  1
  O  O336  1  1.01174465  0.49662419  0.87997618  1
  O  O337  1  0.98943837  0.99160188  0.38534132  1
  O  O338  1  0.99240511  0.99687985  0.88227407  1
  O  O339  1  -0.00103150  -0.00604155  0.11246801  1
  O  O340  1  0.00297502  0.00512235  0.61875047  1
  O  O341  1  0.01039104  0.50742737  0.12060394  1
  O  O342  1  0.00628930  0.50267079  0.61230359  1
  O  O343  1  0.50114815  0.00192822  0.11761561  1
  O  O344  1  0.51411396  -0.00405523  0.61557209  1
  O  O345  1  0.50346102  0.50260877  0.12027292  1
  O  O346  1  0.51252186  0.50244700  0.61928830  1
  O  O347  1  0.23883384  0.38938949  0.25707494  1
  O  O348  1  0.23718872  0.37126661  0.74675757  1
  O  O349  1  0.24729664  0.87224170  0.23659746  1
  O  O350  1  0.24279267  0.87977233  0.74829136  1
  O  O351  1  0.75671664  0.38735917  0.24599059  1
  O  O352  1  0.74240539  0.37602257  0.74666570  1
  O  O353  1  0.74443164  0.87658595  0.24482397  1
  O  O354  1  0.75482106  0.87291137  0.73912080  1
  O  O355  1  0.25887310  0.12379709  0.25228941  1
  O  O356  1  0.24961868  0.11923197  0.76100277  1
  O  O357  1  0.25191358  0.61659619  0.25934556  1
  O  O358  1  0.25834189  0.63381564  0.76122899  1
  O  O359  1  0.75858298  0.12176025  0.26194520  1
  O  O360  1  0.76287860  0.12991663  0.75676859  1
  O  O361  1  0.75720285  0.61607178  0.25571376  1
  O  O362  1  0.76036745  0.62237902  0.76133063  1
  O  O363  1  0.38026779  0.11729089  0.36725894  1
  O  O364  1  0.36624096  0.11450216  0.87358092  1
  O  O365  1  0.37047000  0.61283379  0.37572339  1
  O  O366  1  0.36897690  0.61892861  0.87018399  1
  O  O367  1  0.88196553  0.11654429  0.36329544  1
  O  O368  1  0.87191043  0.12142017  0.86907710  1
  O  O369  1  0.86783054  0.62549173  0.36383590  1
  O  O370  1  0.86562173  0.62561234  0.86766967  1
  O  O371  1  0.12517926  0.38955248  0.13098210  1
  O  O372  1  0.12234697  0.38387628  0.63282583  1
  O  O373  1  0.14034785  0.87476182  0.12907969  1
  O  O374  1  0.12518933  0.88324964  0.63120286  1
  O  O375  1  0.63221958  0.38702764  0.12209468  1
  O  O376  1  0.62546799  0.38417838  0.63380848  1
  O  O377  1  0.62980032  0.87997147  0.12929525  1
  O  O378  1  0.63968548  0.88755638  0.62415259  1
  O  O379  1  0.12983066  0.26078561  0.25829358  1
  O  O380  1  0.12046607  0.25671043  0.75091511  1
  O  O381  1  0.11326381  0.74777571  0.24348477  1
  O  O382  1  0.11713248  0.75446393  0.75502580  1
  O  O383  1  0.60958749  0.24423270  0.24517098  1
  O  O384  1  0.62367518  0.26123916  0.75229576  1
  O  O385  1  0.62009502  0.75299127  0.25407824  1
  O  O386  1  0.61179164  0.74632955  0.75429012  1
  O  O387  1  0.37545044  0.24396543  0.24341606  1
  O  O388  1  0.37262182  0.25077856  0.73778072  1
  O  O389  1  0.38216518  0.74788073  0.24298815  1
  O  O390  1  0.38407053  0.73973016  0.75019823  1
  O  O391  1  0.87055869  0.23900439  0.25116199  1
  O  O392  1  0.88326554  0.24369457  0.74201368  1
  O  O393  1  0.88051365  0.73953737  0.23946838  1
  O  O394  1  0.88874133  0.74018154  0.75445401  1
  O  O395  1  0.37841629  0.49506785  0.49598819  1
  O  O396  1  0.38283479  0.50535618  0.98933193  1
  O  O397  1  0.37730646  0.98912075  0.49077274  1
  O  O398  1  0.38464437  1.00458815  0.99305960  1
  O  O399  1  0.88665988  0.49790826  0.50376331  1
  O  O400  1  0.87510402  0.48308786  1.00669170  1
  O  O401  1  0.88419830  1.00463799  0.49486194  1
  O  O402  1  0.88598448  1.00154135  0.99388349  1
  O  O403  1  0.11907741  0.01694894  -0.00717122  1
  O  O404  1  0.11538312  0.00427904  0.50402118  1
  O  O405  1  0.13044736  0.50784303  0.00727899  1
  O  O406  1  0.11789833  0.49286054  0.51236177  1
  O  O407  1  0.61375183  -0.00094248  0.01092165  1
  O  O408  1  0.61803904  -0.00543232  0.50551793  1
  O  O409  1  0.61570871  0.50351048  0.00891000  1
  O  O410  1  0.62367521  0.51043606  0.50766528  1
  O  O411  1  0.37323999  0.36346677  0.12914467  1
  O  O412  1  0.38095919  0.36782640  0.61558369  1
  O  O413  1  0.36568280  0.86277842  0.12876978  1
  O  O414  1  0.37322934  0.87463428  0.61587652  1
  O  O415  1  0.86714770  0.37135768  0.11891544  1
  O  O416  1  0.87524176  0.35918219  0.62972004  1
  O  O417  1  0.86808196  0.86602764  0.12605601  1
  O  O418  1  0.85886846  0.88395409  0.62340577  1
  O  O419  1  0.13098689  0.12847691  0.37161893  1
  O  O420  1  0.13187657  0.13723959  0.87467347  1
  O  O421  1  0.13479869  0.62079104  0.37303975  1
  O  O422  1  0.13440449  0.63147787  0.87515719  1
  O  O423  1  0.60626897  0.11141015  0.39135840  1
  O  O424  1  0.63587298  0.12173701  0.87595056  1
  O  O425  1  0.63203784  0.62806709  0.38379907  1
  O  O426  1  0.64325064  0.62366891  0.87596983  1
