# generated using pymatgen
data_V85Zn86O256
_symmetry_space_group_name_H-M   'P 1'
_cell_length_a   16.92364227
_cell_length_b   16.92607125
_cell_length_c   16.92009214
_cell_angle_alpha   89.91101824
_cell_angle_beta   89.95147362
_cell_angle_gamma   89.97456678
_symmetry_Int_Tables_number   1
_chemical_formula_structural   V85Zn86O256
_chemical_formula_sum   'V85 Zn86 O256'
_cell_volume   4846.76544844
_cell_formula_units_Z   1
loop_
 _symmetry_equiv_pos_site_id
 _symmetry_equiv_pos_as_xyz
  1  'x, y, z'
loop_
 _atom_site_type_symbol
 _atom_site_label
 _atom_site_symmetry_multiplicity
 _atom_site_fract_x
 _atom_site_fract_y
 _atom_site_fract_z
 _atom_site_occupancy
  V  V0  1  0.37527606  0.12630833  0.73362817  1
  V  V1  1  0.75248475  0.49819761  0.74026861  1
  V  V2  1  0.12162237  0.24799115  0.86950641  1
  V  V3  1  0.25071161  0.13465483  0.37467920  1
  V  V4  1  0.13899290  0.49788115  0.62546462  1
  V  V5  1  0.75553696  0.12975572  0.36640467  1
  V  V6  1  0.12276510  0.12421871  -0.00091383  1
  V  V7  1  0.25227935  0.12391389  0.87119623  1
  V  V8  1  0.37396931  0.74912723  0.13116111  1
  V  V9  1  0.87534836  0.49547516  0.37696706  1
  V  V10  1  0.74674269  0.87890300  0.62284203  1
  V  V11  1  0.12561150  0.36819656  0.25388350  1
  V  V12  1  0.50368871  0.74263997  0.75303147  1
  V  V13  1  0.24767388  0.37412842  0.12410060  1
  V  V14  1  0.13935469  0.37062035  0.74550221  1
  V  V15  1  0.62844737  0.36911689  0.74708954  1
  V  V16  1  0.12618442  0.00146359  0.12818168  1
  V  V17  1  0.74885400  0.62346441  0.37520583  1
  V  V18  1  0.00265468  0.12320620  0.62871147  1
  V  V19  1  0.50534062  -0.00041606  0.51496355  1
  V  V20  1  -0.00350651  0.75584804  0.25721830  1
  V  V21  1  0.74912201  0.12632662  0.87550801  1
  V  V22  1  0.51182023  0.87266588  0.87448562  1
  V  V23  1  0.37585262  0.00126818  0.37768732  1
  V  V24  1  0.75111073  0.37504664  0.12392347  1
  V  V25  1  0.87327485  -0.00591679  0.87552119  1
  V  V26  1  0.25085690  -0.01509053  0.74750141  1
  V  V27  1  0.37666332  0.37066649  0.51400000  1
  V  V28  1  0.00010175  0.62658582  0.62668891  1
  V  V29  1  -0.00230223  0.62565160  0.12347523  1
  V  V30  1  0.25220121  0.25339636  0.51579353  1
  V  V31  1  0.00160411  0.36752815  0.37683769  1
  V  V32  1  0.24697749  0.50624719  0.25494980  1
  V  V33  1  0.49980513  0.24815572  0.25379884  1
  V  V34  1  0.12720503  0.12870340  0.49855296  1
  V  V35  1  0.13371464  0.62211566  0.49278128  1
  V  V36  1  0.37334382  0.50042985  0.37658761  1
  V  V37  1  0.50071379  -0.00035588  -0.00002784  1
  V  V38  1  0.49784100  0.24505163  0.73688382  1
  V  V39  1  -0.00361827  0.24329417  0.25275237  1
  V  V40  1  0.87362510  0.24170840  0.12750214  1
  V  V41  1  -0.00068119  0.49914048  -0.00272996  1
  V  V42  1  0.13332234  0.74641989  0.37037038  1
  V  V43  1  0.12152502  0.87984770  0.25596690  1
  V  V44  1  0.62337768  0.75750035  0.36983181  1
  V  V45  1  0.87626530  0.12418957  0.74564962  1
  V  V46  1  0.37808838  0.37270903  -0.00440098  1
  V  V47  1  0.62276340  0.50094754  0.11529091  1
  V  V48  1  0.12924481  -0.01403022  0.62872481  1
  V  V49  1  0.49753061  0.61989930  0.13152694  1
  V  V50  1  0.24714942  0.74887291  -0.00228775  1
  V  V51  1  0.62335173  0.62210778  0.50360350  1
  V  V52  1  0.25215881  0.75792980  0.50490203  1
  V  V53  1  0.75639358  0.25224563  0.51564969  1
  V  V54  1  0.75217613  0.75055401  0.50153108  1
  V  V55  1  -0.05459769  0.29373209  0.69173776  1
  V  V56  1  0.50520872  0.36176848  0.87840466  1
  V  V57  1  0.44192609  0.54487972  -0.05663473  1
  V  V58  1  0.74274246  0.63025133  0.86857618  1
  V  V59  1  0.26077770  0.51403500  0.76558138  1
  V  V60  1  0.37508694  0.87912283  0.00163201  1
  V  V61  1  0.74405772  0.87441254  0.11702924  1
  V  V62  1  0.74974388  -0.01185975  0.25463575  1
  V  V63  1  0.87569673  0.50896302  0.87100361  1
  V  V64  1  0.37309380  0.25003199  0.12658142  1
  V  V65  1  0.49937122  0.12437456  0.12550549  1
  V  V66  1  0.12561427  0.62487799  -0.00650515  1
  V  V67  1  0.87464987  0.75829858  0.11462480  1
  V  V68  1  0.74013545  0.00207270  0.74431581  1
  V  V69  1  0.00348074  0.87667026  0.86838135  1
  V  V70  1  -0.00024436  -0.00734664  0.49468404  1
  V  V71  1  0.62404945  0.12400396  0.51134799  1
  V  V72  1  0.74887130  0.49985062  0.24893725  1
  V  V73  1  0.48738637  0.62379215  0.62592565  1
  V  V74  1  0.13046280  0.75371363  0.86599847  1
  V  V75  1  0.00364643  0.49907114  0.49888748  1
  V  V76  1  -0.00363954  0.74872323  0.74953215  1
  V  V77  1  0.37018690  0.11844102  0.25079473  1
  V  V78  1  -0.00181539  0.36862853  0.87246464  1
  V  V79  1  0.87574223  0.62467377  0.24875666  1
  V  V80  1  0.24884387  0.87969309  0.13087923  1
  V  V81  1  0.62275741  0.37643576  0.25228177  1
  V  V82  1  0.74573222  0.25129189  -0.00279657  1
  V  V83  1  0.62394704  0.12836987  -0.00226062  1
  V  V84  1  -0.00546368  -0.00579829  0.00177765  1
  Zn  Zn85  1  0.24738089  0.24998477  -0.00278617  1
  Zn  Zn86  1  -0.00428119  0.12112304  0.12989860  1
  Zn  Zn87  1  0.50036521  0.49680702  0.50072942  1
  Zn  Zn88  1  0.36679317  0.75642708  0.63895725  1
  Zn  Zn89  1  0.62605280  0.49355430  0.62180790  1
  Zn  Zn90  1  0.74629751  0.75655931  -0.01239647  1
  Zn  Zn91  1  0.87498708  0.37425433  -0.00074574  1
  Zn  Zn92  1  0.88238943  -0.00230492  0.36578660  1
  Zn  Zn93  1  0.37724862  0.87564385  0.50402132  1
  Zn  Zn94  1  0.49780859  0.37451250  0.37740047  1
  Zn  Zn95  1  0.62063664  -0.00421496  0.13375301  1
  Zn  Zn96  1  0.50509329  0.75567771  0.24821795  1
  Zn  Zn97  1  0.87369541  0.74724814  0.62731633  1
  Zn  Zn98  1  0.37614700  -0.00084292  0.87124584  1
  Zn  Zn99  1  0.62668245  0.24951547  0.37859180  1
  Zn  Zn100  1  0.87350318  0.37149996  0.51669419  1
  Zn  Zn101  1  0.62396011  0.63125483  -0.00385031  1
  Zn  Zn102  1  0.12116156  0.49791357  0.12504827  1
  Zn  Zn103  1  0.50322580  0.88221705  0.36969042  1
  Zn  Zn104  1  0.62489057  0.87337403  0.74649515  1
  Zn  Zn105  1  0.36998377  0.62778351  0.25910099  1
  Zn  Zn106  1  0.87780403  0.87271450  0.49372148  1
  Zn  Zn107  1  0.18558414  0.18783251  0.18900837  1
  Zn  Zn108  1  0.18635599  0.18254551  0.68866075  1
  Zn  Zn109  1  0.18384948  0.68877268  0.18359284  1
  Zn  Zn110  1  0.18643206  0.68405646  0.68591425  1
  Zn  Zn111  1  0.68561444  0.18566074  0.18676236  1
  Zn  Zn112  1  0.68342925  0.18897698  0.69069559  1
  Zn  Zn113  1  0.68804506  0.68811512  0.18372044  1
  Zn  Zn114  1  0.68372885  0.68788769  0.68814054  1
  Zn  Zn115  1  0.31351242  0.31337759  0.31742406  1
  Zn  Zn116  1  0.31553411  0.31151737  0.81157608  1
  Zn  Zn117  1  0.31158964  0.81920264  0.31511329  1
  Zn  Zn118  1  0.32207915  0.80929893  0.81670772  1
  Zn  Zn119  1  0.81297863  0.31069551  0.31378022  1
  Zn  Zn120  1  0.80805373  0.31672207  0.81786533  1
  Zn  Zn121  1  0.81514935  0.81529627  0.31614838  1
  Zn  Zn122  1  0.81528889  0.81472992  0.80750028  1
  Zn  Zn123  1  0.19028590  0.43100456  0.43596880  1
  Zn  Zn124  1  0.18649750  0.43622289  0.93580032  1
  Zn  Zn125  1  0.18875792  0.94243877  0.43495858  1
  Zn  Zn126  1  0.18677497  0.93748116  0.93789671  1
  Zn  Zn127  1  0.68848141  0.43325856  0.43950514  1
  Zn  Zn128  1  0.68685549  0.43832928  0.93114198  1
  Zn  Zn129  1  0.68949318  0.93989846  0.43914041  1
  Zn  Zn130  1  0.68726671  0.94244224  0.94058686  1
  Zn  Zn131  1  0.31006630  0.06293055  0.06163195  1
  Zn  Zn132  1  0.31165834  0.05798346  0.56090427  1
  Zn  Zn133  1  0.30537194  0.56386171  0.06827364  1
  Zn  Zn134  1  0.31219083  0.56318857  0.55899810  1
  Zn  Zn135  1  0.81138789  0.05927685  0.06530139  1
  Zn  Zn136  1  0.81314993  0.06648086  0.56230873  1
  Zn  Zn137  1  0.81210100  0.56436343  0.05669032  1
  Zn  Zn138  1  0.81571816  0.56351786  0.56096833  1
  Zn  Zn139  1  0.43477000  0.43798768  0.18821727  1
  Zn  Zn140  1  0.43888371  0.43939051  0.69205744  1
  Zn  Zn141  1  0.43954043  0.93601465  0.19193589  1
  Zn  Zn142  1  0.43315762  0.93145646  0.68704843  1
  Zn  Zn143  1  0.93668497  0.43354002  0.18683012  1
  Zn  Zn144  1  0.94480939  0.45786081  0.69138176  1
  Zn  Zn145  1  0.93187730  0.93821573  0.19008878  1
  Zn  Zn146  1  0.93337498  0.93463862  0.68383985  1
  Zn  Zn147  1  0.06772443  0.06543045  0.31484905  1
  Zn  Zn148  1  0.06379498  0.06032780  0.80902511  1
  Zn  Zn149  1  0.06322210  0.56077763  0.31114109  1
  Zn  Zn150  1  0.06869912  0.56206678  0.81060911  1
  Zn  Zn151  1  0.56752585  0.06370027  0.31860170  1
  Zn  Zn152  1  0.56108635  0.06667767  0.81475156  1
  Zn  Zn153  1  0.55863105  0.56382027  0.31440227  1
  Zn  Zn154  1  0.56728523  0.55961519  0.80448305  1
  Zn  Zn155  1  0.43900017  0.18730011  0.44220747  1
  Zn  Zn156  1  0.43376272  0.18743211  0.93513842  1
  Zn  Zn157  1  0.43731544  0.68407742  0.43733055  1
  Zn  Zn158  1  0.44108184  0.70583553  0.94134564  1
  Zn  Zn159  1  0.93415578  0.18470864  0.44133916  1
  Zn  Zn160  1  0.93440378  0.18468058  0.93866866  1
  Zn  Zn161  1  0.94063178  0.68578161  0.43698006  1
  Zn  Zn162  1  0.93608546  0.68901343  0.93469605  1
  Zn  Zn163  1  0.06126787  0.30995435  0.06205677  1
  Zn  Zn164  1  0.07239826  0.31538722  0.55698896  1
  Zn  Zn165  1  0.06060070  0.81522958  0.06093953  1
  Zn  Zn166  1  0.06690208  0.81067437  0.56048479  1
  Zn  Zn167  1  0.56141366  0.31278723  0.06435944  1
  Zn  Zn168  1  0.56417112  0.30983445  0.56376905  1
  Zn  Zn169  1  0.56639504  0.80944936  0.06263256  1
  Zn  Zn170  1  0.56187617  0.81226488  0.56419986  1
  O  O171  1  0.12280675  0.11731024  0.11941636  1
  O  O172  1  0.12010460  0.11766794  0.61592989  1
  O  O173  1  0.11083697  0.62623010  0.11564785  1
  O  O174  1  0.11878654  0.61795659  0.61441772  1
  O  O175  1  0.61683132  0.12342883  0.11557566  1
  O  O176  1  0.63113656  0.12333504  0.61050006  1
  O  O177  1  0.61619446  0.61685376  0.12547741  1
  O  O178  1  0.62106252  0.62406374  0.61197336  1
  O  O179  1  0.37609787  0.38368011  0.38368474  1
  O  O180  1  0.38120736  0.37026476  0.88958589  1
  O  O181  1  0.37463475  0.88744656  0.38233517  1
  O  O182  1  0.38846930  0.87759604  0.88632112  1
  O  O183  1  0.88202773  0.38556154  0.37260236  1
  O  O184  1  0.88397914  0.38392861  0.87688145  1
  O  O185  1  0.87352872  0.88431773  0.37982365  1
  O  O186  1  0.88186111  0.88774168  0.87149421  1
  O  O187  1  0.26588023  0.01611679  0.38804310  1
  O  O188  1  0.24805357  0.00688096  0.86660319  1
  O  O189  1  0.25548406  0.49294371  0.36415322  1
  O  O190  1  0.24570428  0.50169255  0.86508552  1
  O  O191  1  0.74940153  0.00825981  0.36562204  1
  O  O192  1  0.75783224  0.00565609  0.86951522  1
  O  O193  1  0.75736499  0.50290345  0.37055762  1
  O  O194  1  0.75846075  0.50700364  0.86655665  1
  O  O195  1  0.24662963  0.48693845  0.13308776  1
  O  O196  1  0.24118751  0.50512334  0.63076983  1
  O  O197  1  0.23880344  0.99190151  0.12029060  1
  O  O198  1  0.23720305  1.00203117  0.63033697  1
  O  O199  1  0.74374921  0.49693825  0.12966929  1
  O  O200  1  0.75300373  0.50359223  0.63643987  1
  O  O201  1  0.74902676  0.98878816  0.13324405  1
  O  O202  1  0.75716196  0.99359449  0.63332442  1
  O  O203  1  0.00649669  0.36778369  0.25663180  1
  O  O204  1  0.00355000  0.36797446  0.75306583  1
  O  O205  1  0.00809676  0.86608458  0.24255742  1
  O  O206  1  -0.00154125  0.86983193  0.76067858  1
  O  O207  1  0.50643207  0.36642780  0.24838442  1
  O  O208  1  0.50192247  0.36323456  0.75784812  1
  O  O209  1  0.49827695  0.86843695  0.25602523  1
  O  O210  1  0.50374575  0.87081676  0.75946199  1
  O  O211  1  0.49424927  0.13122620  0.24664105  1
  O  O212  1  0.49119378  0.13657138  0.75662591  1
  O  O213  1  0.49395935  0.63258797  0.24359889  1
  O  O214  1  0.50593974  0.63175874  0.74072701  1
  O  O215  1  1.00581144  0.13922742  0.25131548  1
  O  O216  1  0.99484502  0.12270161  0.73815413  1
  O  O217  1  0.99594323  0.63117616  0.24120838  1
  O  O218  1  1.01021608  0.63351912  0.73910249  1
  O  O219  1  0.37136221  0.25573047  0.00885144  1
  O  O220  1  0.36669638  0.26025220  0.49915013  1
  O  O221  1  0.36620324  0.75718293  0.01236290  1
  O  O222  1  0.35677519  0.74931333  0.49035765  1
  O  O223  1  0.86605400  0.25152734  0.00794582  1
  O  O224  1  0.86170286  0.25066033  0.50257653  1
  O  O225  1  0.87083963  0.74704728  0.01149657  1
  O  O226  1  0.86220364  0.74638645  0.49675934  1
  O  O227  1  0.14080644  0.24313539  0.50095095  1
  O  O228  1  0.12449583  0.24110328  0.99169854  1
  O  O229  1  0.13167596  0.74353725  0.49012601  1
  O  O230  1  0.12964902  0.74578467  0.99351160  1
  O  O231  1  0.63310168  0.24076293  0.49952645  1
  O  O232  1  0.63426165  0.24213315  1.00760726  1
  O  O233  1  0.63573607  0.74285878  0.49292594  1
  O  O234  1  0.63419815  0.74380083  1.00486548  1
  O  O235  1  0.49397878  0.24446738  0.13509281  1
  O  O236  1  0.49833190  0.24837261  0.63821642  1
  O  O237  1  0.49018141  0.73877948  0.12356650  1
  O  O238  1  0.50018640  0.74134673  0.63290711  1
  O  O239  1  0.99087409  0.24906225  0.13266073  1
  O  O240  1  1.00737835  0.24109424  0.62339580  1
  O  O241  1  0.99272754  0.74595058  0.13078458  1
  O  O242  1  1.00490305  0.74438615  0.63201422  1
  O  O243  1  -0.00945072  0.25926517  0.36989663  1
  O  O244  1  0.00167642  0.26136012  0.87974194  1
  O  O245  1  0.00859461  0.74574622  0.36206310  1
  O  O246  1  0.00604432  0.75717429  0.86961416  1
  O  O247  1  0.50186160  0.25058603  0.36391409  1
  O  O248  1  0.49890457  0.25879630  0.87196084  1
  O  O249  1  0.51531451  0.74964236  0.37931424  1
  O  O250  1  0.50386487  0.75968056  0.86739728  1
  O  O251  1  0.24655526  0.13528288  0.49834662  1
  O  O252  1  0.24033474  0.12408956  0.99076476  1
  O  O253  1  0.23831069  0.63306094  0.49909422  1
  O  O254  1  0.23727025  0.63589957  1.00967504  1
  O  O255  1  0.74333808  0.13241525  0.49479516  1
  O  O256  1  0.74221400  0.13014164  0.99866679  1
  O  O257  1  0.74451649  0.62970433  0.49447558  1
  O  O258  1  0.75002757  0.62383102  0.98164854  1
  O  O259  1  0.25553358  0.37358042  0.00740238  1
  O  O260  1  0.25844862  0.36091005  0.49915960  1
  O  O261  1  0.25217572  0.86965472  0.01069123  1
  O  O262  1  0.24443924  0.85979302  0.49542695  1
  O  O263  1  0.74799047  0.36729305  0.00433898  1
  O  O264  1  0.75241931  0.35766541  0.49814071  1
  O  O265  1  0.75161110  0.87742914  0.01272815  1
  O  O266  1  0.75092388  0.86718262  0.50526242  1
  O  O267  1  0.12939330  0.48803123  0.24759042  1
  O  O268  1  0.13250499  0.49175999  0.74270767  1
  O  O269  1  0.11729635  0.99417914  0.23815126  1
  O  O270  1  0.13338234  1.00334354  0.73600267  1
  O  O271  1  0.62899417  0.49390236  0.24414012  1
  O  O272  1  0.63517005  0.48938937  0.74523653  1
  O  O273  1  0.64342253  1.01001588  0.24803555  1
  O  O274  1  0.63751011  1.00298862  0.75400103  1
  O  O275  1  0.37643577  0.01323848  0.25683595  1
  O  O276  1  0.36845778  0.00810708  0.75092971  1
  O  O277  1  0.36394354  0.49857490  0.25757038  1
  O  O278  1  0.35896733  0.49613260  0.75026794  1
  O  O279  1  0.85713064  0.00440657  0.24832471  1
  O  O280  1  0.86899777  0.00734014  0.75590189  1
  O  O281  1  0.87079993  0.50443129  0.25588569  1
  O  O282  1  0.86628544  0.49844934  0.75930019  1
  O  O283  1  0.11350133  0.37633782  0.36726103  1
  O  O284  1  0.11613824  0.37036957  0.86508835  1
  O  O285  1  0.12960289  0.87171524  0.36093372  1
  O  O286  1  0.11600293  0.86570153  0.88035448  1
  O  O287  1  0.62316228  0.37243927  0.36277390  1
  O  O288  1  0.61479818  0.37873366  0.86409206  1
  O  O289  1  0.62902392  0.85968450  0.37915612  1
  O  O290  1  0.61506214  0.88302198  0.87466839  1
  O  O291  1  0.37742791  0.12917681  0.13251280  1
  O  O292  1  0.37101939  0.12377332  0.63457803  1
  O  O293  1  0.38014268  0.63178515  0.12735037  1
  O  O294  1  0.38494205  0.63205944  0.61718224  1
  O  O295  1  0.87585045  0.13732382  0.12185012  1
  O  O296  1  0.88436682  0.12290928  0.63717166  1
  O  O297  1  0.88273324  0.63125292  0.12735824  1
  O  O298  1  0.89505809  0.62642066  0.61657271  1
  O  O299  1  0.25323800  0.26020935  0.12429134  1
  O  O300  1  0.24949567  0.24750428  0.61461252  1
  O  O301  1  0.25317747  0.75743003  0.11700740  1
  O  O302  1  0.24730476  0.74568192  0.60904687  1
  O  O303  1  0.75530166  0.25395378  0.11886398  1
  O  O304  1  0.75040394  0.24625931  0.61455233  1
  O  O305  1  0.75784169  0.76217466  0.12867054  1
  O  O306  1  0.75274488  0.75284759  0.61729747  1
  O  O307  1  0.25495888  0.23891891  0.38608266  1
  O  O308  1  0.24310293  0.24054448  0.87509394  1
  O  O309  1  0.23792222  0.75089688  0.37868001  1
  O  O310  1  0.24502453  0.75663388  0.88876897  1
  O  O311  1  0.75027125  0.23976770  0.38033187  1
  O  O312  1  0.75550729  0.24258004  0.88946966  1
  O  O313  1  0.74189450  0.74253811  0.37989771  1
  O  O314  1  0.76012393  0.73423829  0.86914702  1
  O  O315  1  0.00723829  0.11300261  -0.00101840  1
  O  O316  1  0.00837833  0.12050386  0.50984778  1
  O  O317  1  0.00379789  0.62081965  0.00506752  1
  O  O318  1  0.01282168  0.61901686  0.50230360  1
  O  O319  1  0.50433933  0.12017812  0.00269195  1
  O  O320  1  0.51522336  0.11890015  0.49729063  1
  O  O321  1  0.49823594  0.61448850  0.00385196  1
  O  O322  1  0.50752510  0.62281667  0.50761056  1
  O  O323  1  0.48832762  0.37197372  0.49941005  1
  O  O324  1  0.49261805  0.37241729  0.99390751  1
  O  O325  1  0.50554864  0.89048964  0.49468825  1
  O  O326  1  0.49767400  0.88261590  0.99826477  1
  O  O327  1  0.99882524  0.37897172  0.49168934  1
  O  O328  1  1.00165743  0.38216035  0.99054062  1
  O  O329  1  1.00313769  0.88950525  0.50324220  1
  O  O330  1  1.00183062  0.88713062  0.98971898  1
  O  O331  1  0.49056532  0.49481733  0.37770265  1
  O  O332  1  0.49953471  0.49148514  0.87592427  1
  O  O333  1  0.48970806  1.00443597  0.38099849  1
  O  O334  1  0.49858083  0.99655557  0.88695367  1
  O  O335  1  0.99403400  0.49185806  0.37901441  1
  O  O336  1  0.99506988  0.49164004  0.87446169  1
  O  O337  1  1.00263564  1.00815055  0.39151008  1
  O  O338  1  0.99576526  0.99384946  0.87823774  1
  O  O339  1  0.00306125  0.00014171  0.11751881  1
  O  O340  1  0.01110959  0.00496859  0.62063568  1
  O  O341  1  -0.00136594  0.50826106  0.11924878  1
  O  O342  1  0.01397492  0.50825906  0.61713768  1
  O  O343  1  0.49874181  0.00579741  0.11615029  1
  O  O344  1  0.50110156  -0.00107167  0.61314347  1
  O  O345  1  0.50633757  0.51126380  0.13172213  1
  O  O346  1  0.50233677  0.50985156  0.62420073  1
  O  O347  1  0.24233874  0.37687560  0.24461644  1
  O  O348  1  0.24161381  0.38127245  0.75474087  1
  O  O349  1  0.24000078  0.87195303  0.23768901  1
  O  O350  1  0.25714995  0.88598432  0.75871241  1
  O  O351  1  0.74212581  0.37916822  0.24466931  1
  O  O352  1  0.74048307  0.38268768  0.75576555  1
  O  O353  1  0.74911858  0.88479622  0.24459009  1
  O  O354  1  0.74932480  0.88464024  0.74315687  1
  O  O355  1  0.25828299  0.13212280  0.25950396  1
  O  O356  1  0.25709027  0.11779412  0.75545055  1
  O  O357  1  0.24672079  0.60976169  0.24006133  1
  O  O358  1  0.24629569  0.61377962  0.75196002  1
  O  O359  1  0.74978165  0.12511536  0.26313105  1
  O  O360  1  0.75676052  0.12099418  0.75374693  1
  O  O361  1  0.75653041  0.61914020  0.25457686  1
  O  O362  1  0.74570892  0.61527984  0.75916592  1
  O  O363  1  0.37095325  0.12341978  0.36860061  1
  O  O364  1  0.36135515  0.12233653  0.87243104  1
  O  O365  1  0.37609529  0.60785277  0.37611722  1
  O  O366  1  0.38791548  0.61114338  0.89428596  1
  O  O367  1  0.85897605  0.11759053  0.38339964  1
  O  O368  1  0.87221278  0.11618063  0.86430208  1
  O  O369  1  0.87246156  0.61263458  0.37100852  1
  O  O370  1  0.87051659  0.61357018  0.87579755  1
  O  O371  1  0.13171827  0.37515935  0.13078563  1
  O  O372  1  0.12129978  0.38512005  0.63441999  1
  O  O373  1  0.12953249  0.88146825  0.13142414  1
  O  O374  1  0.12440436  0.88756131  0.62485289  1
  O  O375  1  0.62856084  0.38216112  0.13425357  1
  O  O376  1  0.61895368  0.37512394  0.64069602  1
  O  O377  1  0.63965230  0.87554002  0.12737123  1
  O  O378  1  0.64109620  0.87181276  0.62497863  1
  O  O379  1  0.11574870  0.26151717  0.24641382  1
  O  O380  1  0.12858770  0.25755796  0.75542721  1
  O  O381  1  0.11818704  0.75651826  0.25341367  1
  O  O382  1  0.12092861  0.74672261  0.76225159  1
  O  O383  1  0.61679022  0.25793359  0.24892222  1
  O  O384  1  0.61073697  0.25308199  0.75145628  1
  O  O385  1  0.62731719  0.74114553  0.26727169  1
  O  O386  1  0.61138745  0.75431516  0.74836033  1
  O  O387  1  0.38139037  0.24357373  0.24628347  1
  O  O388  1  0.38710960  0.24173443  0.75411116  1
  O  O389  1  0.36797462  0.74846151  0.23955139  1
  O  O390  1  0.39350354  0.74942024  0.75298233  1
  O  O391  1  0.88423102  0.25656383  0.24065732  1
  O  O392  1  0.87575138  0.24301881  0.75440842  1
  O  O393  1  0.88150608  0.74395162  0.24432787  1
  O  O394  1  0.89199845  0.75022793  0.74826040  1
  O  O395  1  0.37170607  0.48648892  0.49498761  1
  O  O396  1  0.37548108  0.49206503  1.00526246  1
  O  O397  1  0.39062096  1.00464502  0.49564436  1
  O  O398  1  0.38321707  0.99634909  0.99970434  1
  O  O399  1  0.88110216  0.49303836  0.49344360  1
  O  O400  1  0.88236381  0.49689894  0.99116176  1
  O  O401  1  0.89479702  1.00297963  0.50604768  1
  O  O402  1  0.88312210  1.00785518  0.98938480  1
  O  O403  1  0.11741082  0.00362188  0.00997934  1
  O  O404  1  0.11893203  0.00566283  0.50916412  1
  O  O405  1  0.11886995  0.50838264  0.00109213  1
  O  O406  1  0.12603693  0.50376371  0.50428820  1
  O  O407  1  0.61641860  0.00836133  0.00703283  1
  O  O408  1  0.61581109  0.01178832  0.49492660  1
  O  O409  1  0.62954800  0.50094302  0.01317964  1
  O  O410  1  0.62449260  0.50613250  0.50143319  1
  O  O411  1  0.36835666  0.37083839  0.11703946  1
  O  O412  1  0.37645389  0.37832258  0.61238960  1
  O  O413  1  0.36631989  0.87014625  0.12239683  1
  O  O414  1  0.37604470  0.86765988  0.61664878  1
  O  O415  1  0.86712690  0.36649508  0.12150526  1
  O  O416  1  0.89514053  0.36654604  0.63446462  1
  O  O417  1  0.86273704  0.86707104  0.12956079  1
  O  O418  1  0.86472604  0.86857477  0.61797112  1
  O  O419  1  0.13532299  0.12005600  0.38996135  1
  O  O420  1  0.13157475  0.12768363  0.87729063  1
  O  O421  1  0.12114774  0.63309761  0.37985030  1
  O  O422  1  0.11863594  0.63531709  0.88754368  1
  O  O423  1  0.63961675  0.12858475  0.38477754  1
  O  O424  1  0.63243030  0.12088963  0.88978050  1
  O  O425  1  0.62896741  0.62946759  0.38584346  1
  O  O426  1  0.63948635  0.61740772  0.87596240  1
