# generated using pymatgen
data_V85Zn86O256
_symmetry_space_group_name_H-M   'P 1'
_cell_length_a   16.91763485
_cell_length_b   16.91239514
_cell_length_c   16.92692905
_cell_angle_alpha   90.05286811
_cell_angle_beta   89.95786117
_cell_angle_gamma   89.98237681
_symmetry_Int_Tables_number   1
_chemical_formula_structural   V85Zn86O256
_chemical_formula_sum   'V85 Zn86 O256'
_cell_volume   4843.09083731
_cell_formula_units_Z   1
loop_
 _symmetry_equiv_pos_site_id
 _symmetry_equiv_pos_as_xyz
  1  'x, y, z'
loop_
 _atom_site_type_symbol
 _atom_site_label
 _atom_site_symmetry_multiplicity
 _atom_site_fract_x
 _atom_site_fract_y
 _atom_site_fract_z
 _atom_site_occupancy
  V  V0  1  0.00203769  0.62476881  0.62403561  1
  V  V1  1  0.74832180  0.62463822  0.87396589  1
  V  V2  1  0.37610342  0.24514792  0.61941846  1
  V  V3  1  0.87613180  0.87479832  0.50300956  1
  V  V4  1  0.75044995  0.74237441  0.49943920  1
  V  V5  1  0.87650975  0.37361385  0.49285585  1
  V  V6  1  0.87626649  0.00231128  0.37548578  1
  V  V7  1  0.12813453  0.75257548  0.87467670  1
  V  V8  1  0.00591526  0.01438462  0.50741499  1
  V  V9  1  0.25485701  0.49533950  0.23778753  1
  V  V10  1  0.00050628  0.75349958  0.75011168  1
  V  V11  1  0.00281286  0.50001420  0.00592296  1
  V  V12  1  0.49788015  0.50171919  -0.00614506  1
  V  V13  1  0.62564647  0.49833948  0.12124731  1
  V  V14  1  0.37046130  0.24417600  0.12510682  1
  V  V15  1  0.13305185  0.75056038  0.37802109  1
  V  V16  1  0.00001891  0.11999457  0.12666095  1
  V  V17  1  0.74163745  0.00571109  0.74886653  1
  V  V18  1  0.61860362  0.37510013  0.25347596  1
  V  V19  1  0.49689613  0.74941858  0.25143428  1
  V  V20  1  0.49866795  0.01093683  0.00419895  1
  V  V21  1  0.12185401  0.25120305  0.87889412  1
  V  V22  1  0.74743197  0.75305175  -0.00121450  1
  V  V23  1  0.62164916  0.37842147  0.74717940  1
  V  V24  1  0.86545066  0.50774002  0.37437942  1
  V  V25  1  0.25924991  0.50460293  0.75392101  1
  V  V26  1  0.36881493  0.37753544  0.00512703  1
  V  V27  1  0.36695281  0.75099948  0.12972155  1
  V  V28  1  0.61945141  -0.00160224  0.12946716  1
  V  V29  1  0.50033837  0.24303598  0.24330468  1
  V  V30  1  0.74490816  0.37630260  0.62127982  1
  V  V31  1  0.25783147  0.62252502  0.37221260  1
  V  V32  1  0.00412068  0.87795509  0.37731047  1
  V  V33  1  0.51681083  0.11938225  0.62245843  1
  V  V34  1  0.25638083  -0.00116146  0.25148273  1
  V  V35  1  0.12526947  0.37938455  0.23552615  1
  V  V36  1  0.19317938  0.19008008  0.53950518  1
  V  V37  1  0.25038023  0.37462210  0.61702442  1
  V  V38  1  0.25565380  0.12632078  0.37222929  1
  V  V39  1  0.50164195  0.24940204  0.74899811  1
  V  V40  1  0.61500763  0.24994895  0.37877994  1
  V  V41  1  0.50997727  0.62764113  0.62856949  1
  V  V42  1  0.37826527  0.49699025  0.37236472  1
  V  V43  1  0.25314339  0.12717576  0.87945940  1
  V  V44  1  0.12569988  0.50030998  0.62270062  1
  V  V45  1  0.49113444  0.37814615  0.87278491  1
  V  V46  1  0.13140294  0.87524707  0.24637605  1
  V  V47  1  0.00160066  0.75040710  0.25097390  1
  V  V48  1  0.12669811  0.62411041  0.00267734  1
  V  V49  1  0.12994445  0.25497907  0.37326968  1
  V  V50  1  0.61647871  0.75246372  0.87355690  1
  V  V51  1  0.87380527  0.75140853  0.12568574  1
  V  V52  1  0.12436840  0.37834924  0.75002488  1
  V  V53  1  0.00181238  0.62218763  0.12967062  1
  V  V54  1  0.37909349  0.12402410  0.74934502  1
  V  V55  1  0.13272033  0.62719888  0.49860308  1
  V  V56  1  0.37130004  0.87563089  0.49343224  1
  V  V57  1  0.63303190  0.74469306  0.36561756  1
  V  V58  1  0.12833256  -0.00371190  0.12217910  1
  V  V59  1  0.24714740  0.87408824  0.62347343  1
  V  V60  1  0.87463370  0.00885164  0.88117993  1
  V  V61  1  0.37036912  0.87582885  0.00657880  1
  V  V62  1  0.74314041  0.12327429  0.37628942  1
  V  V63  1  0.74676352  -0.00749925  0.25089509  1
  V  V64  1  0.37559953  -0.00282684  0.87486280  1
  V  V65  1  0.37216383  0.74667349  0.62749732  1
  V  V66  1  0.87806473  0.12421988  0.74353978  1
  V  V67  1  0.88157845  0.87705126  -0.00100083  1
  V  V68  1  0.87592144  0.62603925  0.74925961  1
  V  V69  1  0.64145234  0.13049395  -0.00021406  1
  V  V70  1  0.50470943  0.87767857  0.37170416  1
  V  V71  1  0.74740118  0.50125969  0.74221211  1
  V  V72  1  0.51564098  -0.00110583  0.50207214  1
  V  V73  1  0.86875872  0.24888245  0.12539432  1
  V  V74  1  -0.00065643  0.37684601  0.87441384  1
  V  V75  1  0.61947268  0.87224549  0.74268481  1
  V  V76  1  0.49648404  0.62544888  0.12881159  1
  V  V77  1  0.50450637  0.50085866  0.49983841  1
  V  V78  1  0.37981353  0.36881944  0.49285052  1
  V  V79  1  0.00334312  0.49672963  0.48819352  1
  V  V80  1  0.74546760  0.24337468  0.49965674  1
  V  V81  1  -0.00033102  0.25304325  0.25587747  1
  V  V82  1  0.87583691  0.50071954  0.87359864  1
  V  V83  1  0.86969040  0.37181949  0.00199472  1
  V  V84  1  0.11779005  0.11985960  -0.00144717  1
  Zn  Zn85  1  0.38196727  0.11662937  0.24780186  1
  Zn  Zn86  1  0.38646498  0.62935485  0.75960196  1
  Zn  Zn87  1  -0.00052150  0.24598058  0.74630220  1
  Zn  Zn88  1  0.25603052  0.62302930  0.87973756  1
  Zn  Zn89  1  0.24445437  0.25852819  0.00733284  1
  Zn  Zn90  1  0.87843070  0.24642906  0.62031518  1
  Zn  Zn91  1  0.24786497  0.75508112  0.00484887  1
  Zn  Zn92  1  0.74455506  0.87805052  0.62186295  1
  Zn  Zn93  1  0.87359825  0.75185725  0.62619440  1
  Zn  Zn94  1  0.49802378  0.87396052  0.87415839  1
  Zn  Zn95  1  0.12519775  0.88064034  0.74880553  1
  Zn  Zn96  1  0.74640492  0.36979680  0.12885263  1
  Zn  Zn97  1  0.87402479  0.12549473  0.25102387  1
  Zn  Zn98  1  0.74127480  0.50662184  0.25507512  1
  Zn  Zn99  1  0.74471732  0.87296675  0.12904215  1
  Zn  Zn100  1  0.12693023  0.01593589  0.62374749  1
  Zn  Zn101  1  0.86691914  0.63026641  0.25538442  1
  Zn  Zn102  1  0.62401768  0.62482172  -0.00163652  1
  Zn  Zn103  1  0.00188661  0.88084801  0.87723617  1
  Zn  Zn104  1  0.63009939  0.61976809  0.49648261  1
  Zn  Zn105  1  0.63293868  0.24541226  0.87865079  1
  Zn  Zn106  1  0.24785013  -0.00116147  0.74812662  1
  Zn  Zn107  1  0.18950288  0.18737391  0.18807812  1
  Zn  Zn108  1  0.18963983  0.18931642  0.70404388  1
  Zn  Zn109  1  0.18739659  0.68044976  0.19094055  1
  Zn  Zn110  1  0.18993355  0.69051149  0.68626678  1
  Zn  Zn111  1  0.68470231  0.18001638  0.18824783  1
  Zn  Zn112  1  0.69226626  0.19020814  0.69035960  1
  Zn  Zn113  1  0.68647224  0.68330591  0.18728997  1
  Zn  Zn114  1  0.68739592  0.69255099  0.68535937  1
  Zn  Zn115  1  0.31126152  0.31274499  0.30968524  1
  Zn  Zn116  1  0.31162538  0.31343084  0.81121995  1
  Zn  Zn117  1  0.31377592  0.81248082  0.31254662  1
  Zn  Zn118  1  0.31270073  0.81106208  0.80980736  1
  Zn  Zn119  1  0.80746234  0.31613264  0.31216600  1
  Zn  Zn120  1  0.80833803  0.30752531  0.81507895  1
  Zn  Zn121  1  0.81430512  0.81391235  0.31467386  1
  Zn  Zn122  1  0.80891042  0.81786700  0.81334817  1
  Zn  Zn123  1  0.19004262  0.43364788  0.43221318  1
  Zn  Zn124  1  0.18654429  0.44040448  0.93939138  1
  Zn  Zn125  1  0.18923135  0.94227269  0.43832215  1
  Zn  Zn126  1  0.18897250  0.93701424  0.93777462  1
  Zn  Zn127  1  0.68560804  0.43278066  0.43588758  1
  Zn  Zn128  1  0.69708891  0.40971015  0.92467169  1
  Zn  Zn129  1  0.68765328  0.92930969  0.43439949  1
  Zn  Zn130  1  0.68874171  0.93921368  0.93545740  1
  Zn  Zn131  1  0.30890823  0.06446680  0.06355235  1
  Zn  Zn132  1  0.32385126  0.05211451  0.56357136  1
  Zn  Zn133  1  0.31690742  0.56507765  0.06110631  1
  Zn  Zn134  1  0.31637008  0.56118771  0.56133404  1
  Zn  Zn135  1  0.81058619  0.06146113  0.06603843  1
  Zn  Zn136  1  0.80881705  0.05920682  0.56396832  1
  Zn  Zn137  1  0.81258969  0.56435573  0.06406977  1
  Zn  Zn138  1  0.81538789  0.56257878  0.56272174  1
  Zn  Zn139  1  0.43919687  0.43254884  0.18607576  1
  Zn  Zn140  1  0.43777751  0.43913352  0.67911358  1
  Zn  Zn141  1  0.44118176  0.93409025  0.18703714  1
  Zn  Zn142  1  0.43832485  0.93624888  0.68484787  1
  Zn  Zn143  1  0.93902144  0.43569880  0.19144808  1
  Zn  Zn144  1  0.93653755  0.43401928  0.68192697  1
  Zn  Zn145  1  0.93799107  0.93753886  0.18834517  1
  Zn  Zn146  1  0.93732438  0.94109472  0.68684366  1
  Zn  Zn147  1  0.06824770  0.06667877  0.31599498  1
  Zn  Zn148  1  0.05945735  0.05911115  0.81073457  1
  Zn  Zn149  1  0.06507168  0.55988351  0.31087334  1
  Zn  Zn150  1  0.06639350  0.56453085  0.81389877  1
  Zn  Zn151  1  0.56270385  0.06136724  0.31490038  1
  Zn  Zn152  1  0.56393247  0.06377584  0.81821151  1
  Zn  Zn153  1  0.55970938  0.56520352  0.31161027  1
  Zn  Zn154  1  0.56361144  0.55989348  0.81309999  1
  Zn  Zn155  1  0.43793543  0.17954195  0.43681815  1
  Zn  Zn156  1  0.44072891  0.19223339  0.93898831  1
  Zn  Zn157  1  0.43850635  0.68965306  0.44112587  1
  Zn  Zn158  1  0.43398990  0.68617229  0.94056173  1
  Zn  Zn159  1  0.93511768  0.18933680  0.43339154  1
  Zn  Zn160  1  0.93502749  0.18674146  0.93787823  1
  Zn  Zn161  1  0.94262820  0.68780794  0.43841109  1
  Zn  Zn162  1  0.93875591  0.68917654  0.93705022  1
  Zn  Zn163  1  0.05539130  0.30912766  0.06471032  1
  Zn  Zn164  1  0.05461811  0.31414936  0.56501250  1
  Zn  Zn165  1  0.06236653  0.81133855  0.06361652  1
  Zn  Zn166  1  0.06190697  0.81207163  0.56079428  1
  Zn  Zn167  1  0.55687088  0.31163160  0.06374515  1
  Zn  Zn168  1  0.56142489  0.31223617  0.56174925  1
  Zn  Zn169  1  0.55799042  0.81798244  0.06078310  1
  Zn  Zn170  1  0.56113998  0.80709499  0.55844739  1
  O  O171  1  0.11943060  0.12102334  0.11753803  1
  O  O172  1  0.14092512  0.13566654  0.61421202  1
  O  O173  1  0.11107574  0.63122968  0.11794647  1
  O  O174  1  0.12314215  0.62144986  0.61599635  1
  O  O175  1  0.62940503  0.11129667  0.11258805  1
  O  O176  1  0.61580487  0.12881778  0.62915451  1
  O  O177  1  0.61258667  0.61888012  0.12037215  1
  O  O178  1  0.61350115  0.62980306  0.61979535  1
  O  O179  1  0.37035322  0.38119790  0.38434519  1
  O  O180  1  0.38444374  0.36910232  0.88103222  1
  O  O181  1  0.38421956  0.86590167  0.38808198  1
  O  O182  1  0.37584885  0.88245205  0.88014001  1
  O  O183  1  0.86902788  0.38541747  0.38659208  1
  O  O184  1  0.88302849  0.38059709  0.88319166  1
  O  O185  1  0.88236729  0.88185655  0.38461090  1
  O  O186  1  0.87713011  0.88351670  0.88243431  1
  O  O187  1  0.24213955  0.01101339  0.36332965  1
  O  O188  1  0.26078547  0.00867358  0.87629507  1
  O  O189  1  0.26025210  0.50407884  0.36878025  1
  O  O190  1  0.24357760  0.49926928  0.85676735  1
  O  O191  1  0.75244068  0.00513603  0.37217016  1
  O  O192  1  0.76345073  -0.00645714  0.86139615  1
  O  O193  1  0.76232796  0.50106110  0.37947556  1
  O  O194  1  0.75563160  0.50204881  0.86281600  1
  O  O195  1  0.25524624  0.50518893  0.13955061  1
  O  O196  1  0.24564772  0.49251138  0.63033926  1
  O  O197  1  0.23524187  1.00645044  0.13342913  1
  O  O198  1  0.24901714  0.98972674  0.62504653  1
  O  O199  1  0.73272110  0.50395601  0.12323249  1
  O  O200  1  0.75301878  0.49474164  0.63422591  1
  O  O201  1  0.74340957  0.99749324  0.13503353  1
  O  O202  1  0.75245599  0.99604074  0.64284791  1
  O  O203  1  0.01498353  0.36842826  0.24808489  1
  O  O204  1  0.00667545  0.38053586  0.75883907  1
  O  O205  1  0.01182408  0.87283627  0.25752848  1
  O  O206  1  0.00045436  0.86312212  0.74849842  1
  O  O207  1  0.51088237  0.36195916  0.24767763  1
  O  O208  1  0.50371169  0.37290555  0.74970357  1
  O  O209  1  0.49694225  0.86896396  0.26421323  1
  O  O210  1  0.51576152  0.88411990  0.75455565  1
  O  O211  1  0.49861964  0.13679399  0.25541070  1
  O  O212  1  0.49796755  0.12799990  0.74392020  1
  O  O213  1  0.50124798  0.63622447  0.24131483  1
  O  O214  1  0.50142140  0.61634229  0.73310233  1
  O  O215  1  1.00031737  0.13295361  0.24356257  1
  O  O216  1  0.98205532  0.12546398  0.75426627  1
  O  O217  1  0.99870490  0.62926648  0.24388846  1
  O  O218  1  0.99781136  0.63436687  0.74620155  1
  O  O219  1  0.37375649  0.25609085  0.01045931  1
  O  O220  1  0.38395261  0.25812921  0.50479841  1
  O  O221  1  0.37383517  0.75892489  0.01106578  1
  O  O222  1  0.38263095  0.76451573  0.51274077  1
  O  O223  1  0.88299513  0.26029090  0.01086619  1
  O  O224  1  0.86627283  0.25833270  0.49655059  1
  O  O225  1  0.86825258  0.75642801  0.00381049  1
  O  O226  1  0.87038179  0.75749234  0.49726363  1
  O  O227  1  0.12539938  0.25645686  0.49160275  1
  O  O228  1  0.12414359  0.24513445  0.99237675  1
  O  O229  1  0.12186779  0.73984992  0.48929012  1
  O  O230  1  0.12624119  0.74349786  0.99393286  1
  O  O231  1  0.63316242  0.25518801  0.49102703  1
  O  O232  1  0.61740713  0.23253150  1.00568934  1
  O  O233  1  0.63440839  0.74787167  0.48922201  1
  O  O234  1  0.63231748  0.75190124  0.99363017  1
  O  O235  1  0.48795610  0.24918328  0.13313727  1
  O  O236  1  0.49672923  0.24113324  0.63019720  1
  O  O237  1  0.49684369  0.74548336  0.13279841  1
  O  O238  1  0.49176298  0.73524180  0.62085482  1
  O  O239  1  0.99288239  0.23954973  0.13583257  1
  O  O240  1  0.98944405  0.25986359  0.63472761  1
  O  O241  1  0.99437342  0.74416338  0.13214781  1
  O  O242  1  0.99937121  0.74301645  0.63247340  1
  O  O243  1  0.00828874  0.24442716  0.36203753  1
  O  O244  1  0.00630139  0.25627905  0.87236544  1
  O  O245  1  0.01195042  0.75513926  0.36960355  1
  O  O246  1  0.01051598  0.75085916  0.86759187  1
  O  O247  1  0.51139575  0.24389321  0.37105533  1
  O  O248  1  0.50315553  0.25823303  0.86513643  1
  O  O249  1  0.50659337  0.75388849  0.36816727  1
  O  O250  1  0.51345222  0.75131572  0.88195683  1
  O  O251  1  0.25842019  0.12146939  0.49277254  1
  O  O252  1  0.23904247  0.12877263  0.99117081  1
  O  O253  1  0.23888669  0.61601816  0.49180566  1
  O  O254  1  0.23669883  0.62417624  1.00234246  1
  O  O255  1  0.75441372  0.13537742  0.49477486  1
  O  O256  1  0.74071631  0.12550337  0.99994308  1
  O  O257  1  0.75105841  0.63725210  0.50341630  1
  O  O258  1  0.74914556  0.63633088  0.99358508  1
  O  O259  1  0.26392749  0.37719443  -0.00626665  1
  O  O260  1  0.25987254  0.38133276  0.51073382  1
  O  O261  1  0.26445891  0.87520963  -0.00073773  1
  O  O262  1  0.26436676  0.87967903  0.50287781  1
  O  O263  1  0.76915192  0.39294673  0.01434135  1
  O  O264  1  0.75361521  0.36717014  0.50471176  1
  O  O265  1  0.75860921  0.86450213  -0.00139607  1
  O  O266  1  0.75951715  0.86628316  0.50043540  1
  O  O267  1  0.13394575  0.48622109  0.25309529  1
  O  O268  1  0.13177835  0.49604120  0.74164880  1
  O  O269  1  0.13139948  0.99307698  0.24366611  1
  O  O270  1  0.12718574  0.99992921  0.74184988  1
  O  O271  1  0.61872587  0.49147270  0.24347803  1
  O  O272  1  0.63331898  0.48842321  0.74996740  1
  O  O273  1  0.63088470  1.00497223  0.23977521  1
  O  O274  1  0.63604213  0.99177288  0.75902125  1
  O  O275  1  0.36066426  -0.00295306  0.24182902  1
  O  O276  1  0.37531066  0.00528853  0.75898471  1
  O  O277  1  0.36404668  0.48980659  0.25634726  1
  O  O278  1  0.36107057  0.50013080  0.74272500  1
  O  O279  1  0.86841340  0.00095034  0.25856264  1
  O  O280  1  0.86783414  0.00848637  0.75669884  1
  O  O281  1  0.87661027  0.49669059  0.26789297  1
  O  O282  1  0.86928422  0.50521002  0.75337600  1
  O  O283  1  0.13146064  0.36200918  0.36354919  1
  O  O284  1  0.11930126  0.36865544  0.87391397  1
  O  O285  1  0.12421718  0.86723411  0.37101114  1
  O  O286  1  0.12113567  0.86874279  0.87376720  1
  O  O287  1  0.62797541  0.36291357  0.36541606  1
  O  O288  1  0.60384448  0.38119535  0.86203419  1
  O  O289  1  0.61506346  0.85889372  0.37805655  1
  O  O290  1  0.62410288  0.86828326  0.86766148  1
  O  O291  1  0.37273674  0.13862459  0.12640179  1
  O  O292  1  0.38248157  0.12857896  0.63066104  1
  O  O293  1  0.38865899  0.63487235  0.12002674  1
  O  O294  1  0.37975156  0.63610534  0.62467021  1
  O  O295  1  0.88370255  0.12905004  0.12659010  1
  O  O296  1  0.86919091  0.12460191  0.64044632  1
  O  O297  1  0.88650565  0.63352644  0.12419343  1
  O  O298  1  0.88440366  0.62672230  0.63168804  1
  O  O299  1  0.26372995  0.25039084  0.12485344  1
  O  O300  1  0.25087775  0.25259296  0.61616465  1
  O  O301  1  0.26329986  0.74228229  0.12912537  1
  O  O302  1  0.26362815  0.75433952  0.62291365  1
  O  O303  1  0.76503056  0.24745241  0.13424955  1
  O  O304  1  0.75440321  0.25725448  0.61619356  1
  O  O305  1  0.75372713  0.75218116  0.11632375  1
  O  O306  1  0.75394622  0.75572732  0.61491200  1
  O  O307  1  0.24343716  0.24269772  0.37252839  1
  O  O308  1  0.24104991  0.24396191  0.87773201  1
  O  O309  1  0.24062009  0.73965087  0.36710452  1
  O  O310  1  0.23735414  0.74987191  0.87608288  1
  O  O311  1  0.74211386  0.24226393  0.38021277  1
  O  O312  1  0.73169994  0.29946915  0.89228809  1
  O  O313  1  0.73844173  0.75472971  0.37880897  1
  O  O314  1  0.74259024  0.74534504  0.88109838  1
  O  O315  1  0.01067792  0.12934528  0.00821568  1
  O  O316  1  -0.00591110  0.11270407  0.49690933  1
  O  O317  1  0.00733435  0.61992207  0.00598650  1
  O  O318  1  0.01252724  0.61750702  0.50312097  1
  O  O319  1  0.49944674  0.11319776  -0.00100137  1
  O  O320  1  0.49823855  0.10713157  0.50591838  1
  O  O321  1  0.50238522  0.61673782  0.00662238  1
  O  O322  1  0.50109277  0.61811823  0.50847403  1
  O  O323  1  0.48858955  0.38513755  0.50872179  1
  O  O324  1  0.49190576  0.38004505  0.99022301  1
  O  O325  1  0.49596035  0.88037077  0.49369992  1
  O  O326  1  0.48827361  0.88774519  0.99629498  1
  O  O327  1  0.98940618  0.38567350  0.50139236  1
  O  O328  1  0.99386736  0.38342263  0.99672355  1
  O  O329  1  0.99404407  0.88034066  0.49385709  1
  O  O330  1  0.98550476  0.87028145  0.99982131  1
  O  O331  1  0.48437132  0.50806555  0.37963508  1
  O  O332  1  0.49826555  0.49497437  0.88373355  1
  O  O333  1  0.50662092  0.99062588  0.38704352  1
  O  O334  1  0.48707105  1.00140442  0.88277072  1
  O  O335  1  0.99398761  0.50231290  0.38458537  1
  O  O336  1  0.99511381  0.49729154  0.88178113  1
  O  O337  1  0.99777630  0.99695141  0.38241323  1
  O  O338  1  0.98052416  0.99795610  0.87155908  1
  O  O339  1  0.00980637  0.01263312  0.13260514  1
  O  O340  1  0.00282725  0.00003063  0.61143608  1
  O  O341  1  -0.00625838  0.50894417  0.11779678  1
  O  O342  1  0.00665110  0.50513735  0.61491552  1
  O  O343  1  0.50850649  -0.00118183  0.11949273  1
  O  O344  1  0.49936940  0.00524916  0.61316730  1
  O  O345  1  0.50653476  0.50671499  0.12125618  1
  O  O346  1  0.49227536  0.51543017  0.61263158  1
  O  O347  1  0.24043246  0.38625150  0.24973793  1
  O  O348  1  0.24585370  0.38217392  0.73906871  1
  O  O349  1  0.23839216  0.88106377  0.25582774  1
  O  O350  1  0.24882491  0.87693811  0.73832693  1
  O  O351  1  0.73613268  0.38185349  0.24679415  1
  O  O352  1  0.74466985  0.38236635  0.73936905  1
  O  O353  1  0.75156074  0.88801174  0.25215386  1
  O  O354  1  0.73957868  0.88465960  0.74710734  1
  O  O355  1  0.25182352  0.11616737  0.25529079  1
  O  O356  1  0.25905420  0.12315023  0.76512501  1
  O  O357  1  0.24236962  0.60645463  0.26034704  1
  O  O358  1  0.24933676  0.61026199  0.74630647  1
  O  O359  1  0.75195294  0.11375786  0.25916690  1
  O  O360  1  0.75484765  0.11276668  0.75210596  1
  O  O361  1  0.75470056  0.61938425  0.24689507  1
  O  O362  1  0.75323750  0.61845596  0.75161532  1
  O  O363  1  0.36171368  0.12967903  0.36761601  1
  O  O364  1  0.36854552  0.12124369  0.87376764  1
  O  O365  1  0.36294417  0.62057158  0.38173413  1
  O  O366  1  0.36825481  0.63189735  0.87053716  1
  O  O367  1  0.86236019  0.11944706  0.37360508  1
  O  O368  1  0.87240487  0.11401014  0.87089525  1
  O  O369  1  0.88077902  0.61116753  0.37663905  1
  O  O370  1  0.86928045  0.62059972  0.86928016  1
  O  O371  1  0.12498391  0.36952819  0.13608610  1
  O  O372  1  0.13359159  0.37982497  0.62777505  1
  O  O373  1  0.11978313  0.88381015  0.13339881  1
  O  O374  1  0.14073938  0.86890437  0.62087112  1
  O  O375  1  0.62389153  0.38147523  0.13025011  1
  O  O376  1  0.63637357  0.37266070  0.62956025  1
  O  O377  1  0.62793055  0.89193659  0.11662828  1
  O  O378  1  0.62236608  0.86770948  0.63908368  1
  O  O379  1  0.12117964  0.25930780  0.25280150  1
  O  O380  1  0.12310734  0.25891209  0.76414390  1
  O  O381  1  0.12198998  0.75687163  0.25504840  1
  O  O382  1  0.11794654  0.75069787  0.75699312  1
  O  O383  1  0.61857141  0.25325360  0.25371655  1
  O  O384  1  0.62187795  0.26284593  0.75172482  1
  O  O385  1  0.61737693  0.74962067  0.25959066  1
  O  O386  1  0.63078154  0.76421094  0.75845344  1
  O  O387  1  0.38179786  0.25241325  0.23899095  1
  O  O388  1  0.38055702  0.24422505  0.74206896  1
  O  O389  1  0.38701991  0.75457419  0.24409122  1
  O  O390  1  0.37765706  0.75114456  0.73275125  1
  O  O391  1  0.88361089  0.25190478  0.24693541  1
  O  O392  1  0.86777780  0.23284642  0.75503089  1
  O  O393  1  0.88328236  0.75193475  0.24552566  1
  O  O394  1  0.88210719  0.74472660  0.75175699  1
  O  O395  1  0.38177496  0.49199628  0.49186717  1
  O  O396  1  0.38742890  0.49141380  1.00790082  1
  O  O397  1  0.38910565  0.98013299  0.50193519  1
  O  O398  1  0.37868000  0.99704719  0.99682998  1
  O  O399  1  0.88183698  0.49657892  0.49056113  1
  O  O400  1  0.88612466  0.49839725  0.99476949  1
  O  O401  1  0.88242686  0.99389969  0.49573499  1
  O  O402  1  0.86635061  0.99404476  0.98852153  1
  O  O403  1  0.12744133  0.00777956  0.00802523  1
  O  O404  1  0.11036109  -0.00055100  0.50181623  1
  O  O405  1  0.11200532  0.50768092  -0.00334731  1
  O  O406  1  0.11972883  0.50289868  0.50117748  1
  O  O407  1  0.61866928  0.00842205  0.00365565  1
  O  O408  1  0.61513930  -0.00969922  0.50272224  1
  O  O409  1  0.61270414  0.49621619  0.00602941  1
  O  O410  1  0.60947781  0.49983851  0.48948773  1
  O  O411  1  0.38052569  0.36288180  0.11443172  1
  O  O412  1  0.36700266  0.36574260  0.61826930  1
  O  O413  1  0.38000084  0.86416408  0.11847949  1
  O  O414  1  0.36929140  0.86696322  0.61831004  1
  O  O415  1  0.87775089  0.36569422  0.12087399  1
  O  O416  1  0.86160855  0.37850622  0.61117588  1
  O  O417  1  0.87222716  0.86991886  0.11817758  1
  O  O418  1  0.87625560  0.87432754  0.61223974  1
  O  O419  1  0.13774086  0.14057317  0.37263935  1
  O  O420  1  0.12858115  0.13019470  0.88019706  1
  O  O421  1  0.13285956  0.63012678  0.37999075  1
  O  O422  1  0.12798973  0.63318779  0.88511936  1
  O  O423  1  0.63646119  0.13208745  0.37380367  1
  O  O424  1  0.62359647  0.12713782  0.89249627  1
  O  O425  1  0.62028543  0.64077970  0.37734967  1
  O  O426  1  0.63159184  0.63281954  0.87464257  1
