# generated using pymatgen
data_V85Zn86O256
_symmetry_space_group_name_H-M   'P 1'
_cell_length_a   16.95017731
_cell_length_b   16.95954449
_cell_length_c   16.96267329
_cell_angle_alpha   89.97353032
_cell_angle_beta   90.02784373
_cell_angle_gamma   89.95177133
_symmetry_Int_Tables_number   1
_chemical_formula_structural   V85Zn86O256
_chemical_formula_sum   'V85 Zn86 O256'
_cell_volume   4876.21082960
_cell_formula_units_Z   1
loop_
 _symmetry_equiv_pos_site_id
 _symmetry_equiv_pos_as_xyz
  1  'x, y, z'
loop_
 _atom_site_type_symbol
 _atom_site_label
 _atom_site_symmetry_multiplicity
 _atom_site_fract_x
 _atom_site_fract_y
 _atom_site_fract_z
 _atom_site_occupancy
  V  V0  1  0.36581987  0.12123955  0.75330029  1
  V  V1  1  0.74679435  0.49672384  0.74500899  1
  V  V2  1  0.13482383  0.24933594  0.87759268  1
  V  V3  1  0.25166750  0.87610306  0.12742713  1
  V  V4  1  0.62801676  0.12247108  0.49184609  1
  V  V5  1  -0.00129133  0.50177271  -0.00010473  1
  V  V6  1  0.75056904  0.74717115  0.50364984  1
  V  V7  1  0.87517577  0.50260890  0.87155968  1
  V  V8  1  0.12551908  0.00021708  0.63415936  1
  V  V9  1  0.49741855  0.87366664  0.37734070  1
  V  V10  1  0.87294225  0.12840200  0.74034868  1
  V  V11  1  0.49954823  0.25375274  0.25884730  1
  V  V12  1  0.50245268  0.24846055  0.74900162  1
  V  V13  1  0.37326214  0.74619282  0.62322271  1
  V  V14  1  0.87405566  0.62524937  0.24818616  1
  V  V15  1  0.62204365  0.37898622  0.23964642  1
  V  V16  1  0.88684502  0.24910690  0.13774126  1
  V  V17  1  0.36466363  0.87085211  0.50040393  1
  V  V18  1  0.75304914  0.25933570  0.00723631  1
  V  V19  1  0.00169755  -0.00161950  0.50301450  1
  V  V20  1  0.12019939  0.37801959  0.25392134  1
  V  V21  1  0.06574655  0.05960172  0.17063400  1
  V  V22  1  0.24703674  0.87193347  0.63642039  1
  V  V23  1  0.87527311  0.75370603  0.12354622  1
  V  V24  1  0.37635066  0.25138478  0.61827883  1
  V  V25  1  0.86973242  0.01080152  0.37242635  1
  V  V26  1  0.74648557  0.75318467  -0.00259598  1
  V  V27  1  0.12405633  0.50198474  0.13125101  1
  V  V28  1  0.12905521  0.24533821  0.37485689  1
  V  V29  1  0.12266733  0.38108274  0.74212936  1
  V  V30  1  0.49610124  0.87871142  0.87597267  1
  V  V31  1  0.37380344  0.74080232  0.12933869  1
  V  V32  1  0.75668797  0.24189834  0.48995546  1
  V  V33  1  0.62458671  0.12746733  -0.00308818  1
  V  V34  1  0.49677112  0.12803235  0.12523410  1
  V  V35  1  0.62734088  0.87625310  0.74974835  1
  V  V36  1  0.13680656  0.12715117  -0.00355430  1
  V  V37  1  0.62239883  0.75020849  0.87988901  1
  V  V38  1  0.26434869  0.50289095  0.25675657  1
  V  V39  1  0.75640754  -0.00433105  0.75383822  1
  V  V40  1  0.25300899  0.24563631  0.49364761  1
  V  V41  1  -0.00088019  0.87258865  0.37532622  1
  V  V42  1  0.12190964  0.87099346  0.24118124  1
  V  V43  1  -0.00288050  0.63031997  0.62013610  1
  V  V44  1  0.75527093  0.87173964  0.62843950  1
  V  V45  1  0.24838937  0.38280471  0.61687931  1
  V  V46  1  0.00282842  0.49830411  0.50357031  1
  V  V47  1  0.24838180  0.75365204  -0.00871831  1
  V  V48  1  0.74637043  0.87785099  0.13063408  1
  V  V49  1  0.75015678  0.36104398  0.62471424  1
  V  V50  1  0.37008786  0.12746450  0.25594740  1
  V  V51  1  0.87200931  0.63002576  0.73719263  1
  V  V52  1  0.12432004  0.62879047  -0.00804507  1
  V  V53  1  0.62230585  0.37842257  0.74548022  1
  V  V54  1  0.87300570  0.88884554  -0.00544038  1
  V  V55  1  0.74972537  0.01829454  0.25380865  1
  V  V56  1  0.26108864  0.62818394  0.37564128  1
  V  V57  1  0.51324560  0.61631815  0.62837904  1
  V  V58  1  0.39196036  0.38766118  0.48730969  1
  V  V59  1  0.13140008  0.62548769  0.50133120  1
  V  V60  1  0.75230237  0.49153091  0.23258656  1
  V  V61  1  0.25751817  0.49687508  0.75090269  1
  V  V62  1  0.00085156  0.62905709  0.12501986  1
  V  V63  1  0.62653255  0.75009403  0.37860581  1
  V  V64  1  0.36809664  0.00311749  0.37844399  1
  V  V65  1  0.62797430  0.25197980  0.87325051  1
  V  V66  1  0.87716085  0.87092478  0.50081721  1
  V  V67  1  0.50207848  0.12116989  0.62397105  1
  V  V68  1  0.87151299  0.49576532  0.37656008  1
  V  V69  1  0.25487919  0.61999873  0.87361105  1
  V  V70  1  0.75805625  0.12117148  0.87615812  1
  V  V71  1  -0.00467581  0.25201906  0.74112489  1
  V  V72  1  0.62268919  0.00168666  0.12782130  1
  V  V73  1  0.87470297  0.36765933  0.50640284  1
  V  V74  1  0.49893087  0.00320819  -0.00027379  1
  V  V75  1  -0.00044653  0.37413139  0.87442904  1
  V  V76  1  0.49593412  0.74060211  0.25261372  1
  V  V77  1  0.24938023  0.00117943  0.25095652  1
  V  V78  1  0.47976823  0.49255790  -0.00001210  1
  V  V79  1  -0.00028779  0.74974062  0.24868394  1
  V  V80  1  0.62393381  0.61355724  0.00648040  1
  V  V81  1  0.49746870  0.74964822  0.75151669  1
  V  V82  1  -0.00239604  0.01175383  -0.01177556  1
  V  V83  1  0.36914426  0.25695257  0.12217302  1
  V  V84  1  0.74733584  0.62393740  0.37237032  1
  Zn  Zn85  1  0.02855165  0.74336049  0.76781531  1
  Zn  Zn86  1  0.13316543  0.12221487  0.50039646  1
  Zn  Zn87  1  0.12797462  0.75142194  0.38099535  1
  Zn  Zn88  1  0.25018181  0.37883135  0.12283821  1
  Zn  Zn89  1  0.48754580  0.38285044  0.87282881  1
  Zn  Zn90  1  0.31577981  0.32765072  -0.03785576  1
  Zn  Zn91  1  0.37952442  0.61590643  0.75308395  1
  Zn  Zn92  1  0.37715494  0.87529540  0.00410055  1
  Zn  Zn93  1  0.23916997  -0.00080481  0.76153848  1
  Zn  Zn94  1  0.62310504  0.87734850  0.25339747  1
  Zn  Zn95  1  0.00190382  0.23498839  0.25163346  1
  Zn  Zn96  1  0.49993894  0.61666936  0.12937279  1
  Zn  Zn97  1  0.74927599  0.62528165  0.87311769  1
  Zn  Zn98  1  -0.00325135  0.36922684  0.37507284  1
  Zn  Zn99  1  0.62932890  0.24548972  0.37012996  1
  Zn  Zn100  1  -0.00025709  0.12874703  0.62086857  1
  Zn  Zn101  1  0.57673959  0.55657450  0.48365386  1
  Zn  Zn102  1  0.87108832  0.37960641  0.00583056  1
  Zn  Zn103  1  0.50057518  -0.00259505  0.50110995  1
  Zn  Zn104  1  0.36388999  0.00919546  0.88358037  1
  Zn  Zn105  1  0.62577654  -0.00221063  0.62322173  1
  Zn  Zn106  1  0.03101473  0.87813338  0.85951911  1
  Zn  Zn107  1  0.19226839  0.19254413  0.19241901  1
  Zn  Zn108  1  0.18419154  0.19251399  0.68247550  1
  Zn  Zn109  1  0.18953368  0.68628237  0.18947360  1
  Zn  Zn110  1  0.19003299  0.67821586  0.68220776  1
  Zn  Zn111  1  0.68475465  0.19252269  0.18126562  1
  Zn  Zn112  1  0.68735145  0.18477249  0.68503230  1
  Zn  Zn113  1  0.68454550  0.68914995  0.18829417  1
  Zn  Zn114  1  0.69113602  0.69119644  0.69150993  1
  Zn  Zn115  1  0.31238619  0.31937137  0.31310142  1
  Zn  Zn116  1  0.31206855  0.30835470  0.79670208  1
  Zn  Zn117  1  0.31173845  0.80859609  0.31301855  1
  Zn  Zn118  1  0.31442850  0.81307683  0.81455491  1
  Zn  Zn119  1  0.80993773  0.31335349  0.31249533  1
  Zn  Zn120  1  0.81350921  0.31145829  0.81458314  1
  Zn  Zn121  1  0.81312045  0.81698152  0.31332224  1
  Zn  Zn122  1  0.88428818  0.81640835  0.81073027  1
  Zn  Zn123  1  0.18963086  0.43730842  0.43571256  1
  Zn  Zn124  1  0.18093057  0.44315932  0.93527702  1
  Zn  Zn125  1  0.18534199  0.93345501  0.43927445  1
  Zn  Zn126  1  0.18591587  0.94333094  0.94082353  1
  Zn  Zn127  1  0.65762305  0.43875329  0.42080546  1
  Zn  Zn128  1  0.68510350  0.43682811  0.93051222  1
  Zn  Zn129  1  0.68802472  0.93804738  0.43799060  1
  Zn  Zn130  1  0.68634611  0.93854114  0.93708833  1
  Zn  Zn131  1  0.31347174  0.06331200  0.06795497  1
  Zn  Zn132  1  0.31183713  0.05945886  0.56638648  1
  Zn  Zn133  1  0.30922125  0.56133957  0.06473653  1
  Zn  Zn134  1  0.31813022  0.56211616  0.56296748  1
  Zn  Zn135  1  0.81266855  0.06937207  0.06747267  1
  Zn  Zn136  1  0.81175001  0.05777093  0.56342950  1
  Zn  Zn137  1  0.81420970  0.56816612  0.05735633  1
  Zn  Zn138  1  0.77465313  0.53956623  0.54352594  1
  Zn  Zn139  1  0.44272396  0.43749915  0.18379187  1
  Zn  Zn140  1  0.43768099  0.43539276  0.68195031  1
  Zn  Zn141  1  0.43575972  0.93431991  0.19071206  1
  Zn  Zn142  1  0.43561480  0.93798695  0.68701273  1
  Zn  Zn143  1  0.93533226  0.43220392  0.18459817  1
  Zn  Zn144  1  0.93394289  0.44029785  0.68299911  1
  Zn  Zn145  1  0.92884511  0.93689225  0.18965905  1
  Zn  Zn146  1  0.93748816  0.93952856  0.68691667  1
  Zn  Zn147  1  0.06718740  0.05945814  0.33467781  1
  Zn  Zn148  1  0.06089983  0.06904409  0.81423543  1
  Zn  Zn149  1  0.06161080  0.56363879  0.31906936  1
  Zn  Zn150  1  0.06419931  0.56214415  0.80853298  1
  Zn  Zn151  1  0.55703159  0.06153888  0.31286369  1
  Zn  Zn152  1  0.56484673  0.06267700  0.81147286  1
  Zn  Zn153  1  0.56391055  0.55703344  0.30714806  1
  Zn  Zn154  1  0.56213758  0.56174649  0.81929113  1
  Zn  Zn155  1  0.43899075  0.18703116  0.43822995  1
  Zn  Zn156  1  0.43602741  0.19764617  0.93203486  1
  Zn  Zn157  1  0.43860891  0.68671643  0.44376816  1
  Zn  Zn158  1  0.43565945  0.68435159  0.94140019  1
  Zn  Zn159  1  0.94110398  0.18696046  0.43667537  1
  Zn  Zn160  1  0.93560325  0.19114519  0.93217212  1
  Zn  Zn161  1  0.93676376  0.68702158  0.43793326  1
  Zn  Zn162  1  0.93360969  0.68798248  0.93745918  1
  Zn  Zn163  1  0.06387025  0.31327062  0.06224290  1
  Zn  Zn164  1  0.06469707  0.31384984  0.55958181  1
  Zn  Zn165  1  0.07482132  0.82892421  0.03503186  1
  Zn  Zn166  1  0.08046183  0.79199845  0.59763672  1
  Zn  Zn167  1  0.55964677  0.31595554  0.06530343  1
  Zn  Zn168  1  0.56768775  0.30894680  0.56045512  1
  Zn  Zn169  1  0.55998230  0.81221681  0.06591364  1
  Zn  Zn170  1  0.56299822  0.80930277  0.56284972  1
  O  O171  1  0.12358970  0.12856638  0.12008834  1
  O  O172  1  0.12295967  0.11618374  0.62074144  1
  O  O173  1  0.12026563  0.61515784  0.12348422  1
  O  O174  1  0.11500032  0.61661486  0.60882654  1
  O  O175  1  0.61654436  0.12138693  0.11625426  1
  O  O176  1  0.61390791  0.12437182  0.61778082  1
  O  O177  1  0.62130257  0.63304214  0.10934595  1
  O  O178  1  0.61246892  0.63017900  0.63415807  1
  O  O179  1  0.37771135  0.37367125  0.38846014  1
  O  O180  1  0.38681361  0.32900967  0.87778780  1
  O  O181  1  0.37815222  0.87773485  0.38240568  1
  O  O182  1  0.38771170  0.87820575  0.87838512  1
  O  O183  1  0.87405860  0.38142114  0.38388412  1
  O  O184  1  0.88580500  0.38521693  0.87310624  1
  O  O185  1  0.88094419  0.88210849  0.38164925  1
  O  O186  1  0.85567504  0.88480933  0.89664978  1
  O  O187  1  0.26074987  -0.00748419  0.36885110  1
  O  O188  1  0.25215633  -0.00229535  0.87323428  1
  O  O189  1  0.24740911  0.50900004  0.36311234  1
  O  O190  1  0.24449252  0.50842755  0.86426798  1
  O  O191  1  0.75696442  -0.00567572  0.36467631  1
  O  O192  1  0.74283241  0.01017773  0.86726680  1
  O  O193  1  0.75943284  0.50927803  0.36190213  1
  O  O194  1  0.75943750  0.49887550  0.86435738  1
  O  O195  1  0.24079030  0.50483659  0.14027495  1
  O  O196  1  0.25409064  0.48871710  0.63063963  1
  O  O197  1  0.25863428  0.98420630  0.13471060  1
  O  O198  1  0.24277623  0.99248531  0.63093950  1
  O  O199  1  0.75949502  0.50497810  0.13493537  1
  O  O200  1  0.75836266  0.48077664  0.64192376  1
  O  O201  1  0.74415841  0.99626722  0.13207504  1
  O  O202  1  0.74659563  0.99002518  0.63348326  1
  O  O203  1  0.01254081  0.37938353  0.25466526  1
  O  O204  1  0.00438686  0.37270341  0.75178333  1
  O  O205  1  0.00549532  0.87160509  0.25162090  1
  O  O206  1  -0.02133127  0.86532524  0.75879658  1
  O  O207  1  0.51351551  0.37035257  0.24622576  1
  O  O208  1  0.50647693  0.36787389  0.74999475  1
  O  O209  1  0.49831004  0.86513445  0.26447860  1
  O  O210  1  0.50401326  0.87032936  0.75720794  1
  O  O211  1  0.48954361  0.13218023  0.24550425  1
  O  O212  1  0.49573874  0.12952662  0.74138733  1
  O  O213  1  0.50820934  0.63514835  0.24784462  1
  O  O214  1  0.49923676  0.63304279  0.74715810  1
  O  O215  1  1.01547669  0.11343408  0.24144244  1
  O  O216  1  0.98984206  0.13454874  0.74965261  1
  O  O217  1  0.99340225  0.62946458  0.24628652  1
  O  O218  1  0.98989317  0.62624625  0.74097838  1
  O  O219  1  0.37451819  0.24016772  0.01922999  1
  O  O220  1  0.37214151  0.25496594  0.50673597  1
  O  O221  1  0.36550900  0.75149400  0.00882888  1
  O  O222  1  0.37976534  0.75933163  0.51130535  1
  O  O223  1  0.86157607  0.25456014  -0.00464272  1
  O  O224  1  0.87166921  0.25603769  0.49748153  1
  O  O225  1  0.86460898  0.76186582  0.00620293  1
  O  O226  1  0.86648362  0.76454238  0.49031275  1
  O  O227  1  0.13511858  0.25052338  0.49217111  1
  O  O228  1  0.11491036  0.23960655  0.98989830  1
  O  O229  1  0.12171298  0.72987339  0.50130690  1
  O  O230  1  0.13789283  0.73158712  1.01910290  1
  O  O231  1  0.63631928  0.24121987  0.49563670  1
  O  O232  1  0.63386059  0.24847935  0.99352890  1
  O  O233  1  0.63453698  0.75466242  0.48736696  1
  O  O234  1  0.62802873  0.74628903  0.99743549  1
  O  O235  1  0.48959542  0.24618686  0.13411792  1
  O  O236  1  0.49419043  0.24218302  0.62882069  1
  O  O237  1  0.49184427  0.75036859  0.13589359  1
  O  O238  1  0.49360253  0.74653302  0.63559304  1
  O  O239  1  0.99198865  0.25116842  0.13121788  1
  O  O240  1  1.00676732  0.24939755  0.63723850  1
  O  O241  1  0.99411756  0.74577314  0.12957798  1
  O  O242  1  0.98317305  0.72943030  0.60857145  1
  O  O243  1  0.01054938  0.24984527  0.36991741  1
  O  O244  1  0.00384688  0.26025631  0.86364030  1
  O  O245  1  0.00065363  0.75583891  0.36686015  1
  O  O246  1  -0.02147546  0.76149520  0.86767273  1
  O  O247  1  0.50076781  0.24703530  0.36150251  1
  O  O248  1  0.51967068  0.24241464  0.86668710  1
  O  O249  1  0.50620792  0.75229079  0.37214934  1
  O  O250  1  0.50117221  0.75689332  0.87113283  1
  O  O251  1  0.25459925  0.14170966  0.50763105  1
  O  O252  1  0.23572692  0.11791616  1.00530337  1
  O  O253  1  0.23847820  0.61283502  0.49114105  1
  O  O254  1  0.24331694  0.62799274  0.99190070  1
  O  O255  1  0.74059809  0.13114016  0.51078707  1
  O  O256  1  0.74449019  0.13313218  0.99223573  1
  O  O257  1  0.76356138  0.64127281  0.48685347  1
  O  O258  1  0.74025446  0.63527814  0.99921355  1
  O  O259  1  0.23698114  0.38355318  0.01014858  1
  O  O260  1  0.25752704  0.36832164  0.50424686  1
  O  O261  1  0.25494302  0.86743221  0.01258952  1
  O  O262  1  0.26082221  0.87632891  0.50711890  1
  O  O263  1  0.75011732  0.36186881  -0.00916789  1
  O  O264  1  0.75785987  0.35909161  0.50918481  1
  O  O265  1  0.75222613  0.87486672  0.01243145  1
  O  O266  1  0.75570392  0.86758039  0.50621089  1
  O  O267  1  0.12695689  0.49687501  0.24604223  1
  O  O268  1  0.13238949  0.48641288  0.75130571  1
  O  O269  1  0.12346287  0.99849054  0.24099411  1
  O  O270  1  0.12023560  1.00273579  0.73889876  1
  O  O271  1  0.63931586  0.48871390  0.24191708  1
  O  O272  1  0.63374811  0.49004436  0.75839533  1
  O  O273  1  0.62945124  0.99887999  0.24570827  1
  O  O274  1  0.63550167  0.99316560  0.74875995  1
  O  O275  1  0.37164779  0.00723621  0.25868841  1
  O  O276  1  0.37540704  0.01555241  0.74940581  1
  O  O277  1  0.36250876  0.49544366  0.24654029  1
  O  O278  1  0.36230975  0.49464533  0.74964350  1
  O  O279  1  0.86241121  -0.00225728  0.25937554  1
  O  O280  1  0.86238112  0.00912239  0.74891472  1
  O  O281  1  0.86805768  0.50282137  0.25409241  1
  O  O282  1  0.86972831  0.50539397  0.75646816  1
  O  O283  1  0.12362541  0.36645328  0.36920881  1
  O  O284  1  0.11215279  0.37248611  0.86659947  1
  O  O285  1  0.11827905  0.87353699  0.36295679  1
  O  O286  1  0.11555546  0.85887078  0.92853251  1
  O  O287  1  0.64650628  0.35878384  0.34506895  1
  O  O288  1  0.62308820  0.36584976  0.86256498  1
  O  O289  1  0.61480390  0.86924586  0.37558685  1
  O  O290  1  0.61428487  0.87057186  0.87149321  1
  O  O291  1  0.37928700  0.13299224  0.13612016  1
  O  O292  1  0.38544003  0.12951359  0.62808273  1
  O  O293  1  0.37647326  0.63710745  0.12191878  1
  O  O294  1  0.38256402  0.63260436  0.63074101  1
  O  O295  1  0.87157115  0.15039830  0.11922442  1
  O  O296  1  0.87666929  0.12128652  0.63693845  1
  O  O297  1  0.88040967  0.63393872  0.12820889  1
  O  O298  1  0.87694000  0.61222338  0.63696520  1
  O  O299  1  0.26518970  0.25522482  0.13252264  1
  O  O300  1  0.25825700  0.26109118  0.61838753  1
  O  O301  1  0.25694032  0.75653405  0.12339500  1
  O  O302  1  0.26607920  0.75578138  0.62965790  1
  O  O303  1  0.75503683  0.24931930  0.10917679  1
  O  O304  1  0.75058873  0.25659690  0.62051919  1
  O  O305  1  0.75084011  0.75943950  0.11724315  1
  O  O306  1  0.74502727  0.75722577  0.61366927  1
  O  O307  1  0.24424264  0.25643442  0.38297759  1
  O  O308  1  0.23539622  0.26178001  0.87416241  1
  O  O309  1  0.24643566  0.73314992  0.37066867  1
  O  O310  1  0.25174561  0.74641495  0.88726503  1
  O  O311  1  0.75501044  0.24334216  0.38677514  1
  O  O312  1  0.74244616  0.24317170  0.88067388  1
  O  O313  1  0.74379609  0.74701529  0.37798568  1
  O  O314  1  0.74327319  0.75154795  0.89188144  1
  O  O315  1  -0.00323020  0.11487702  -0.00605908  1
  O  O316  1  -0.00014049  0.10970537  0.50146861  1
  O  O317  1  0.00563848  0.62292408  0.00345413  1
  O  O318  1  0.00518999  0.61588291  0.50046006  1
  O  O319  1  0.50439943  0.12096626  0.00213011  1
  O  O320  1  0.50714210  0.12354821  0.50827066  1
  O  O321  1  0.50944421  0.61389411  0.00016711  1
  O  O322  1  0.50394557  0.63229715  0.52055205  1
  O  O323  1  0.49001781  0.37019482  0.50601002  1
  O  O324  1  0.50399719  0.38933286  0.99731782  1
  O  O325  1  0.49182564  0.87339812  0.49024393  1
  O  O326  1  0.50007937  0.88457359  0.99387500  1
  O  O327  1  0.99252434  0.38061105  0.49789533  1
  O  O328  1  0.99997568  0.38368175  0.98965617  1
  O  O329  1  0.99155014  0.88394169  0.49745952  1
  O  O330  1  0.97940824  0.89187833  1.00903494  1
  O  O331  1  0.55263787  0.49299974  0.39429624  1
  O  O332  1  0.50036448  0.49843653  0.89188858  1
  O  O333  1  0.48709403  0.98923606  0.37544467  1
  O  O334  1  0.49963354  0.99503140  0.88343524  1
  O  O335  1  0.98418372  0.50040548  0.38309992  1
  O  O336  1  0.99430903  0.49553607  0.87718187  1
  O  O337  1  0.99244799  0.99063239  0.38302051  1
  O  O338  1  1.00145702  0.99584474  0.88574360  1
  O  O339  1  -0.00365459  0.00462952  0.12005657  1
  O  O340  1  0.00760722  -0.00008400  0.61800851  1
  O  O341  1  0.00409806  0.50753351  0.12035001  1
  O  O342  1  -0.00812281  0.50713302  0.60859045  1
  O  O343  1  0.50235371  0.00539055  0.12046465  1
  O  O344  1  0.50252386  0.00738143  0.62305896  1
  O  O345  1  0.49769571  0.50232159  0.10807412  1
  O  O346  1  0.50083869  0.51671133  0.63332447  1
  O  O347  1  0.23926726  0.38930557  0.24955495  1
  O  O348  1  0.24256279  0.37952239  0.73986994  1
  O  O349  1  0.24077284  0.87867909  0.24682029  1
  O  O350  1  0.25593804  0.87786627  0.73983516  1
  O  O351  1  0.75289801  0.38823011  0.24335360  1
  O  O352  1  0.74401444  0.37574448  0.74575421  1
  O  O353  1  0.74720929  0.87869095  0.23876157  1
  O  O354  1  0.74956263  0.88097404  0.74299209  1
  O  O355  1  0.26206369  0.11753545  0.24693044  1
  O  O356  1  0.26419973  0.12682283  0.74020363  1
  O  O357  1  0.24683508  0.61387715  0.26353803  1
  O  O358  1  0.25002063  0.61373641  0.75490817  1
  O  O359  1  0.74369895  0.11708353  0.24576317  1
  O  O360  1  0.75453162  0.11875533  0.75501344  1
  O  O361  1  0.75442610  0.61867857  0.25289718  1
  O  O362  1  0.75576014  0.61344873  0.74987998  1
  O  O363  1  0.37932136  0.11489638  0.36878074  1
  O  O364  1  0.37962430  0.12904386  0.85625794  1
  O  O365  1  0.36016370  0.62615492  0.38594573  1
  O  O366  1  0.35949575  0.63046813  0.87171507  1
  O  O367  1  0.87925515  0.10949464  0.37837181  1
  O  O368  1  0.86201199  0.12907671  0.86476273  1
  O  O369  1  0.86690127  0.61970826  0.36693949  1
  O  O370  1  0.87234220  0.61414825  0.86543178  1
  O  O371  1  0.12204890  0.38878107  0.13317403  1
  O  O372  1  0.13523824  0.37121413  0.63059937  1
  O  O373  1  0.13299272  0.87111371  0.13419629  1
  O  O374  1  0.14007260  0.88824058  0.61127352  1
  O  O375  1  0.63295322  0.36264593  0.14040865  1
  O  O376  1  0.63322596  0.36698835  0.63813511  1
  O  O377  1  0.62993542  0.88316146  0.12776801  1
  O  O378  1  0.63413393  0.87319935  0.63225736  1
  O  O379  1  0.12514363  0.25952636  0.25701520  1
  O  O380  1  0.11902173  0.26080272  0.75611472  1
  O  O381  1  0.11853692  0.75721677  0.25085462  1
  O  O382  1  0.11697290  0.75813710  0.70525988  1
  O  O383  1  0.61419916  0.25173913  0.24796780  1
  O  O384  1  0.62369485  0.25454558  0.75593369  1
  O  O385  1  0.61883381  0.75480165  0.26194990  1
  O  O386  1  0.61603271  0.75589303  0.75922270  1
  O  O387  1  0.37874967  0.24499826  0.24619455  1
  O  O388  1  0.37965308  0.23812533  0.73245273  1
  O  O389  1  0.38476009  0.75122026  0.24434169  1
  O  O390  1  0.38746427  0.75035004  0.74583412  1
  O  O391  1  0.88064571  0.25295901  0.24233760  1
  O  O392  1  0.88319502  0.24272339  0.75352654  1
  O  O393  1  0.87841434  0.74699087  0.24339575  1
  O  O394  1  0.85568926  0.72841674  0.74578103  1
  O  O395  1  0.37764306  0.48611708  0.50355273  1
  O  O396  1  0.38013592  0.49797212  0.99970701  1
  O  O397  1  0.37614170  0.99242971  0.49355659  1
  O  O398  1  0.38788126  1.00143504  1.00184282  1
  O  O399  1  0.87293481  0.48940814  0.49137486  1
  O  O400  1  0.87961001  0.50047974  0.98985959  1
  O  O401  1  0.87839977  0.99008351  0.49411941  1
  O  O402  1  0.88075790  0.99729951  1.00643950  1
  O  O403  1  0.10520525  0.01360906  0.00661352  1
  O  O404  1  0.11651951  0.00205101  0.50333878  1
  O  O405  1  0.11753881  0.51329306  0.00883132  1
  O  O406  1  0.11180207  0.50724959  0.48961804  1
  O  O407  1  0.61511983  0.00557456  0.00563376  1
  O  O408  1  0.62261286  0.00681037  0.50264249  1
  O  O409  1  0.63216401  0.51331719  -0.00183466  1
  O  O410  1  0.67081886  0.50257102  0.51052278  1
  O  O411  1  0.37437306  0.36041663  0.12987313  1
  O  O412  1  0.36894880  0.36584961  0.61828753  1
  O  O413  1  0.36823471  0.86387625  0.12687708  1
  O  O414  1  0.36897455  0.86997679  0.61871698  1
  O  O415  1  0.87724236  0.35824173  0.11939565  1
  O  O416  1  0.86898182  0.37437605  0.61362219  1
  O  O417  1  0.86286156  0.87252903  0.11860906  1
  O  O418  1  0.86253278  0.87980742  0.61522432  1
  O  O419  1  0.13097301  0.13882073  0.38048694  1
  O  O420  1  0.12265874  0.13728475  0.88272376  1
  O  O421  1  0.13120833  0.62723148  0.38606310  1
  O  O422  1  0.13230852  0.62457076  0.88249140  1
  O  O423  1  0.61819679  0.12473906  0.38811381  1
  O  O424  1  0.63568292  0.13118833  0.87828027  1
  O  O425  1  0.63996320  0.63488433  0.37129281  1
  O  O426  1  0.62766357  0.63337901  0.88692955  1
