# generated using pymatgen
data_V85Zn86O256
_symmetry_space_group_name_H-M   'P 1'
_cell_length_a   16.98943322
_cell_length_b   16.97712340
_cell_length_c   16.97720867
_cell_angle_alpha   90.03777987
_cell_angle_beta   90.01336713
_cell_angle_gamma   90.11636970
_symmetry_Int_Tables_number   1
_chemical_formula_structural   V85Zn86O256
_chemical_formula_sum   'V85 Zn86 O256'
_cell_volume   4896.75392960
_cell_formula_units_Z   1
loop_
 _symmetry_equiv_pos_site_id
 _symmetry_equiv_pos_as_xyz
  1  'x, y, z'
loop_
 _atom_site_type_symbol
 _atom_site_label
 _atom_site_symmetry_multiplicity
 _atom_site_fract_x
 _atom_site_fract_y
 _atom_site_fract_z
 _atom_site_occupancy
  V  V0  1  0.66821103  0.80532087  0.32504019  1
  V  V1  1  0.25304826  0.00126193  0.25392889  1
  V  V2  1  0.49238762  0.85313304  0.37116526  1
  V  V3  1  0.13036059  0.37449540  0.24339174  1
  V  V4  1  0.38884957  0.62818982  0.25530278  1
  V  V5  1  0.00471234  0.73903654  0.23670336  1
  V  V6  1  0.61869685  0.73059015  0.87785397  1
  V  V7  1  0.62276015  -0.01964002  0.13147538  1
  V  V8  1  0.37403117  0.13276202  0.75282789  1
  V  V9  1  0.00304818  0.37806407  0.37278496  1
  V  V10  1  0.87213665  0.36974029  -0.00373880  1
  V  V11  1  0.49606249  0.86597293  0.86315856  1
  V  V12  1  0.49871463  0.25762766  0.74777522  1
  V  V13  1  0.50545723  0.49796002  0.49987190  1
  V  V14  1  0.87895344  0.50171149  0.36854307  1
  V  V15  1  0.87382997  -0.00216227  0.37544800  1
  V  V16  1  0.00260787  0.12688006  0.12672086  1
  V  V17  1  -0.00933010  0.23694348  0.75452731  1
  V  V18  1  0.62511994  0.24921336  0.37632325  1
  V  V19  1  0.25408806  0.25618357  0.52043995  1
  V  V20  1  0.24907351  0.87632062  0.63084359  1
  V  V21  1  0.75622268  0.51939250  0.74541618  1
  V  V22  1  0.37547122  0.12702862  0.25009704  1
  V  V23  1  0.61059771  0.00117957  0.62631709  1
  V  V24  1  0.86709845  0.12130872  0.24491726  1
  V  V25  1  0.48686670  0.12963693  0.62536902  1
  V  V26  1  0.62735216  0.37685081  0.25174904  1
  V  V27  1  0.75298355  0.62284810  0.37253287  1
  V  V28  1  0.86743081  0.24738700  0.11941889  1
  V  V29  1  0.25682281  0.74187070  0.00293520  1
  V  V30  1  0.87513266  -0.00127877  0.87153016  1
  V  V31  1  0.74596034  0.24936463  0.50618460  1
  V  V32  1  0.62892514  0.25004259  0.88039954  1
  V  V33  1  0.61348622  0.12377880  0.50185868  1
  V  V34  1  0.37245120  0.49460114  0.37730784  1
  V  V35  1  0.00209667  0.37531048  0.87274772  1
  V  V36  1  0.83185011  0.67772497  0.18634336  1
  V  V37  1  0.24839104  0.25908025  0.00466955  1
  V  V38  1  0.75580091  0.12858375  0.87216798  1
  V  V39  1  0.00065734  0.25179040  0.24756007  1
  V  V40  1  0.63679702  0.12551958  0.00350952  1
  V  V41  1  0.74747579  0.00480345  0.74965974  1
  V  V42  1  0.25041745  0.61952800  0.85836837  1
  V  V43  1  0.80607881  0.67044725  0.92953680  1
  V  V44  1  0.49951719  0.37687888  0.88758270  1
  V  V45  1  0.24876375  0.13144792  0.37883553  1
  V  V46  1  0.37879773  0.50525301  0.87475813  1
  V  V47  1  0.87628688  0.50381324  0.86563713  1
  V  V48  1  0.75801551  0.75226478  0.50396108  1
  V  V49  1  0.87812825  0.37460919  0.50207103  1
  V  V50  1  0.12580548  0.75155814  0.87115877  1
  V  V51  1  0.25455028  0.49788337  0.24166757  1
  V  V52  1  0.25167383  0.75205843  0.50282486  1
  V  V53  1  0.12773974  0.87558235  0.25073637  1
  V  V54  1  0.25540364  0.87309564  0.12738896  1
  V  V55  1  0.49776449  0.62142124  0.10234555  1
  V  V56  1  0.93261820  0.19514926  0.58157333  1
  V  V57  1  0.61792299  0.49559155  0.10733867  1
  V  V58  1  0.00342461  0.50245085  0.50494852  1
  V  V59  1  0.38575501  0.00383765  0.37955469  1
  V  V60  1  0.37571780  0.87344988  0.00199863  1
  V  V61  1  0.00366594  0.88153419  0.37804303  1
  V  V62  1  0.75863878  0.37371555  0.62964273  1
  V  V63  1  0.12460209  0.24979813  0.87650867  1
  V  V64  1  -0.03288815  -0.01870926  0.02413138  1
  V  V65  1  0.12294345  0.50632825  0.12488723  1
  V  V66  1  0.74182508  0.87655037  0.62135474  1
  V  V67  1  0.62642040  0.62966715  0.49524885  1
  V  V68  1  0.50126387  0.25049531  0.25140748  1
  V  V69  1  0.37661927  0.00157092  0.87740480  1
  V  V70  1  -0.00353428  0.63443502  0.63513020  1
  V  V71  1  -0.00090719  0.87398007  0.87881164  1
  V  V72  1  0.13986140  0.50103691  0.62988141  1
  V  V73  1  0.13212684  0.00205017  0.12122694  1
  V  V74  1  0.12494489  0.74768064  0.37556690  1
  V  V75  1  0.37685996  0.88434544  0.50330655  1
  V  V76  1  0.00135421  0.50999160  0.00083138  1
  V  V77  1  0.50220638  0.12562405  0.12146196  1
  V  V78  1  0.24964933  0.12685381  0.88115364  1
  V  V79  1  0.93182984  0.93694946  0.55169577  1
  V  V80  1  0.13664241  0.37660295  0.74840676  1
  V  V81  1  0.37207373  0.25886008  0.12606546  1
  V  V82  1  0.37367484  0.37849310  0.52541212  1
  V  V83  1  0.62928612  0.37581177  0.75040670  1
  V  V84  1  0.75243813  0.49866767  0.24680014  1
  Zn  Zn85  1  0.12828086  0.62373715  0.50156168  1
  Zn  Zn86  1  0.49830815  0.37089207  0.37946839  1
  Zn  Zn87  1  0.74145547  0.78190147  0.03583644  1
  Zn  Zn88  1  0.12867575  0.25269676  0.37795923  1
  Zn  Zn89  1  0.37471776  0.38202940  0.00711058  1
  Zn  Zn90  1  0.82518514  0.69973682  0.68197532  1
  Zn  Zn91  1  0.12527549  0.62801480  0.00343338  1
  Zn  Zn92  1  0.12350751  0.87850980  0.75087435  1
  Zn  Zn93  1  0.24974866  0.62333385  0.37426086  1
  Zn  Zn94  1  0.62989452  0.49911461  0.62225750  1
  Zn  Zn95  1  0.38749987  0.75271453  0.13339059  1
  Zn  Zn96  1  0.40378047  0.75292774  0.64560037  1
  Zn  Zn97  1  0.10767072  0.12625388  0.50465718  1
  Zn  Zn98  1  0.74031475  -0.01671831  0.25508510  1
  Zn  Zn99  1  0.24357402  0.00244580  0.75247305  1
  Zn  Zn100  1  0.61518539  0.87153982  0.74931248  1
  Zn  Zn101  1  0.50031554  -0.00141356  0.00046149  1
  Zn  Zn102  1  0.12016354  0.12407240  0.00005661  1
  Zn  Zn103  1  0.49946173  0.62517562  0.63234323  1
  Zn  Zn104  1  0.74550652  0.12112914  0.37671256  1
  Zn  Zn105  1  0.74653974  0.36946829  0.11770886  1
  Zn  Zn106  1  0.10315875  0.00567096  0.62852523  1
  Zn  Zn107  1  0.18967550  0.18958879  0.18960953  1
  Zn  Zn108  1  0.18232539  0.18832572  0.69417581  1
  Zn  Zn109  1  0.19452248  0.68384841  0.18948635  1
  Zn  Zn110  1  0.18532921  0.69048609  0.68587719  1
  Zn  Zn111  1  0.68824270  0.18544561  0.18791177  1
  Zn  Zn112  1  0.68382090  0.18770592  0.68846043  1
  Zn  Zn113  1  0.66172780  0.67834581  0.18719578  1
  Zn  Zn114  1  0.64080989  0.70743716  0.67350299  1
  Zn  Zn115  1  0.31254494  0.31549051  0.31336013  1
  Zn  Zn116  1  0.31672463  0.31612676  0.81667098  1
  Zn  Zn117  1  0.31502911  0.81024669  0.31503295  1
  Zn  Zn118  1  0.30972464  0.81018125  0.81314413  1
  Zn  Zn119  1  0.81207149  0.31123988  0.31362062  1
  Zn  Zn120  1  0.81439405  0.31187188  0.81195077  1
  Zn  Zn121  1  0.83209334  0.81060315  0.32060683  1
  Zn  Zn122  1  0.79742824  0.82469491  0.82853287  1
  Zn  Zn123  1  0.19010716  0.43581294  0.43760477  1
  Zn  Zn124  1  0.18884926  0.43949178  0.93805443  1
  Zn  Zn125  1  0.18855397  0.94054816  0.44051383  1
  Zn  Zn126  1  0.19061517  0.93562572  0.93884881  1
  Zn  Zn127  1  0.69070118  0.43608660  0.43605685  1
  Zn  Zn128  1  0.69553115  0.44036499  0.92948862  1
  Zn  Zn129  1  0.68429398  0.94403596  0.44471086  1
  Zn  Zn130  1  0.67576215  0.94065377  0.93513891  1
  Zn  Zn131  1  0.31467919  0.06573993  0.06258560  1
  Zn  Zn132  1  0.24543180  0.06167509  0.56322565  1
  Zn  Zn133  1  0.31672796  0.56132858  0.06212156  1
  Zn  Zn134  1  0.31814704  0.57278836  0.56315330  1
  Zn  Zn135  1  0.80077934  -0.04045587  0.05953469  1
  Zn  Zn136  1  0.79944282  0.06546348  0.56538039  1
  Zn  Zn137  1  0.81002008  0.54472375  0.05866988  1
  Zn  Zn138  1  0.81656539  0.56058446  0.55859118  1
  Zn  Zn139  1  0.44265707  0.43880974  0.19036646  1
  Zn  Zn140  1  0.44434014  0.46482545  0.70241462  1
  Zn  Zn141  1  0.44228762  0.93784309  0.19269995  1
  Zn  Zn142  1  0.42500276  0.94428621  0.68589622  1
  Zn  Zn143  1  0.93871845  0.43804718  0.18340713  1
  Zn  Zn144  1  0.94364474  0.43556912  0.68751375  1
  Zn  Zn145  1  0.94288526  0.93733619  0.19733470  1
  Zn  Zn146  1  0.90791084  0.88232688  0.72071585  1
  Zn  Zn147  1  0.06573716  0.06395655  0.31360497  1
  Zn  Zn148  1  0.06129963  0.05693998  0.81680545  1
  Zn  Zn149  1  0.06612209  0.56285617  0.31176319  1
  Zn  Zn150  1  0.06916630  0.56127545  0.81212992  1
  Zn  Zn151  1  0.56125646  0.06215645  0.31081001  1
  Zn  Zn152  1  0.56052655  0.06361959  0.81264358  1
  Zn  Zn153  1  0.56432152  0.55869594  0.31761955  1
  Zn  Zn154  1  0.56572026  0.55155906  0.81271121  1
  Zn  Zn155  1  0.43088284  0.19401310  0.44140734  1
  Zn  Zn156  1  0.43909161  0.19252746  0.94034262  1
  Zn  Zn157  1  0.42620093  0.67909660  0.46164441  1
  Zn  Zn158  1  0.44197967  0.67502376  0.80832612  1
  Zn  Zn159  1  0.93532529  0.18959008  0.41843543  1
  Zn  Zn160  1  0.93621641  0.17922399  0.94109019  1
  Zn  Zn161  1  0.94068483  0.68563289  0.43696927  1
  Zn  Zn162  1  0.94793674  0.70162118  0.81161233  1
  Zn  Zn163  1  0.06192625  0.31685700  0.06179536  1
  Zn  Zn164  1  0.07389811  0.31906506  0.56234888  1
  Zn  Zn165  1  0.06948484  0.81205850  0.05963178  1
  Zn  Zn166  1  0.07185945  0.81169696  0.56601764  1
  Zn  Zn167  1  0.56503313  0.30819011  0.06405903  1
  Zn  Zn168  1  0.56257236  0.31603966  0.56688718  1
  Zn  Zn169  1  0.55619242  0.80182160  0.04894503  1
  Zn  Zn170  1  0.56029660  0.81103418  0.55264178  1
  O  O171  1  0.11951806  0.11972933  0.12723288  1
  O  O172  1  0.14659175  0.11651449  0.61742211  1
  O  O173  1  0.12882832  0.61056622  0.12635038  1
  O  O174  1  0.11563011  0.61558907  0.62518294  1
  O  O175  1  0.61777886  0.12722727  0.11849578  1
  O  O176  1  0.61240058  0.12097077  0.62049501  1
  O  O177  1  0.61033817  0.60548077  0.12056396  1
  O  O178  1  0.62586094  0.61593266  0.60760620  1
  O  O179  1  0.37678125  0.38645556  0.37807651  1
  O  O180  1  0.38589997  0.37660748  0.88441865  1
  O  O181  1  0.38084208  0.88414173  0.37913664  1
  O  O182  1  0.37504623  0.88372738  0.88353969  1
  O  O183  1  0.88285108  0.37830818  0.38238037  1
  O  O184  1  0.88307681  0.38117509  0.87775302  1
  O  O185  1  0.88619935  0.88887520  0.37933615  1
  O  O186  1  0.88415291  0.88602332  0.88093925  1
  O  O187  1  0.25850704  0.01291570  0.37118576  1
  O  O188  1  0.26060961  0.00902788  0.87749554  1
  O  O189  1  0.25743182  0.50055125  0.36666259  1
  O  O190  1  0.24981685  0.51641987  0.87897030  1
  O  O191  1  0.75680991  0.00018435  0.37372196  1
  O  O192  1  0.75035036  0.00851477  0.86618680  1
  O  O193  1  0.75810252  0.50562075  0.36793100  1
  O  O194  1  0.76392256  0.49846114  0.85859668  1
  O  O195  1  0.24532151  0.50078530  0.13627142  1
  O  O196  1  0.23799950  0.51220038  0.61997650  1
  O  O197  1  0.24972114  0.99676926  0.13408509  1
  O  O198  1  0.27128256  0.98187811  0.63650831  1
  O  O199  1  0.73516612  0.49283616  0.13034520  1
  O  O200  1  0.75482222  0.49033561  0.62946442  1
  O  O201  1  0.72786034  0.99729800  0.13752903  1
  O  O202  1  0.73636700  0.99562949  0.63043573  1
  O  O203  1  0.00717118  0.37121246  0.25360059  1
  O  O204  1  0.00775344  0.36922964  0.76135317  1
  O  O205  1  0.00824623  0.86701072  0.26063409  1
  O  O206  1  0.00703041  0.88142908  0.77350240  1
  O  O207  1  0.51302342  0.36890986  0.25271500  1
  O  O208  1  0.50821968  0.37269011  0.75831138  1
  O  O209  1  0.49311389  0.87319968  0.27188174  1
  O  O210  1  0.49099484  0.88217145  0.76171338  1
  O  O211  1  0.49594049  0.13141138  0.23991643  1
  O  O212  1  0.49387889  0.13594883  0.74723278  1
  O  O213  1  0.48975751  0.61489212  0.25042167  1
  O  O214  1  0.48648644  0.59072804  0.74275089  1
  O  O215  1  0.99325921  0.12811723  0.24272110  1
  O  O216  1  1.00197377  0.13818728  0.75613014  1
  O  O217  1  1.00461652  0.64033915  0.25228258  1
  O  O218  1  1.00211715  0.62623276  0.74043676  1
  O  O219  1  0.36718969  0.25200435  0.01009972  1
  O  O220  1  0.36460406  0.26594603  0.50207680  1
  O  O221  1  0.36366665  0.76025796  0.00792882  1
  O  O222  1  0.35549849  0.76920500  0.48225861  1
  O  O223  1  0.88326326  0.25599545  0.00845538  1
  O  O224  1  0.87221656  0.24894169  0.50770599  1
  O  O225  1  0.84743104  0.73197877  -0.00528213  1
  O  O226  1  0.85736768  0.74670466  0.48968622  1
  O  O227  1  0.14146396  0.25076846  0.49908153  1
  O  O228  1  0.13025386  0.24694161  0.99662785  1
  O  O229  1  0.13392953  0.75042441  0.49114952  1
  O  O230  1  0.13940686  0.74971062  0.99257845  1
  O  O231  1  0.63018063  0.24707082  0.49660790  1
  O  O232  1  0.62268888  0.24267890  0.98806831  1
  O  O233  1  0.63838674  0.73778544  0.49552588  1
  O  O234  1  0.63535991  0.75395150  0.98228023  1
  O  O235  1  0.49420570  0.24303254  0.13116057  1
  O  O236  1  0.50572023  0.24588374  0.64098981  1
  O  O237  1  0.50311708  0.72777210  0.11935557  1
  O  O238  1  0.52531583  0.74183465  0.63433792  1
  O  O239  1  0.99477787  0.24336334  0.12840887  1
  O  O240  1  1.00155630  0.25296685  0.63552398  1
  O  O241  1  1.00915170  0.75377074  0.13792963  1
  O  O242  1  1.00661328  0.73268493  0.61955891  1
  O  O243  1  0.00531304  0.25938296  0.36563677  1
  O  O244  1  0.00347013  0.25331260  0.87000106  1
  O  O245  1  0.00914131  0.75992971  0.37172118  1
  O  O246  1  0.01245045  0.76059755  0.88542355  1
  O  O247  1  0.50490306  0.25077516  0.36846859  1
  O  O248  1  0.50777518  0.25628602  0.86691382  1
  O  O249  1  0.48673279  0.75566992  0.38095582  1
  O  O250  1  0.51029562  0.75256652  0.87467620  1
  O  O251  1  0.26482624  0.14621735  0.49094422  1
  O  O252  1  0.25126946  0.13387497  0.99139045  1
  O  O253  1  0.24756980  0.63743950  0.49443885  1
  O  O254  1  0.24850711  0.63329027  1.00117633  1
  O  O255  1  0.73399842  0.13375385  0.50078947  1
  O  O256  1  0.73649933  0.12314563  0.98844381  1
  O  O257  1  0.74631281  0.62883921  0.49172678  1
  O  O258  1  0.75089278  0.60690860  0.98387828  1
  O  O259  1  0.24906572  0.36168232  -0.00127396  1
  O  O260  1  0.25839609  0.36460504  0.50008544  1
  O  O261  1  0.26058588  0.87030438  0.00717075  1
  O  O262  1  0.25493340  0.87132144  0.50954710  1
  O  O263  1  0.76775869  0.37842970  -0.00260113  1
  O  O264  1  0.75762614  0.36766632  0.50672671  1
  O  O265  1  0.74874388  0.88440303  -0.00419155  1
  O  O266  1  0.74078586  0.86854131  0.51283464  1
  O  O267  1  0.13273396  0.49478335  0.24419841  1
  O  O268  1  0.12429827  0.49261014  0.73796852  1
  O  O269  1  0.13324168  0.99668366  0.24290101  1
  O  O270  1  0.12698875  0.99971866  0.74586123  1
  O  O271  1  0.63123588  0.49018431  0.24739168  1
  O  O272  1  0.64157741  0.49219289  0.74816495  1
  O  O273  1  0.62073089  0.99910506  0.23726591  1
  O  O274  1  0.62750553  0.99921658  0.74145910  1
  O  O275  1  0.37138032  0.00817237  0.25837045  1
  O  O276  1  0.37330326  0.01658075  0.76230696  1
  O  O277  1  0.37044991  0.50285694  0.25661431  1
  O  O278  1  0.36029761  0.48103368  0.77801399  1
  O  O279  1  0.86818349  0.00409973  0.25790810  1
  O  O280  1  0.86182578  -0.00920231  0.76253228  1
  O  O281  1  0.86746726  0.48940441  0.25774688  1
  O  O282  1  0.87240747  0.49510915  0.75827688  1
  O  O283  1  0.11963535  0.37645043  0.36365317  1
  O  O284  1  0.11832080  0.37051108  0.87133047  1
  O  O285  1  0.12033512  0.87214535  0.37121626  1
  O  O286  1  0.12237258  0.86825599  0.87738089  1
  O  O287  1  0.62535279  0.36704404  0.36821070  1
  O  O288  1  0.62208655  0.36820023  0.87128174  1
  O  O289  1  0.61112303  0.87070270  0.38328002  1
  O  O290  1  0.60573304  0.87808437  0.87143015  1
  O  O291  1  0.38396918  0.13286479  0.13011664  1
  O  O292  1  0.38543082  0.12466002  0.63741765  1
  O  O293  1  0.38841723  0.61889530  0.13627579  1
  O  O294  1  0.39603982  0.65197088  0.58175770  1
  O  O295  1  0.88530023  0.13155828  0.13447595  1
  O  O296  1  0.87342049  0.13073428  0.62738432  1
  O  O297  1  0.87467896  0.60961154  0.12809665  1
  O  O298  1  0.89038461  0.62489455  0.62212233  1
  O  O299  1  0.26131149  0.24268546  0.11786636  1
  O  O300  1  0.25132267  0.25186127  0.61817992  1
  O  O301  1  0.25228394  0.75706051  0.12060614  1
  O  O302  1  0.24583707  0.75989635  0.61577364  1
  O  O303  1  0.76406920  0.24976732  0.12728307  1
  O  O304  1  0.74512511  0.25612230  0.61491268  1
  O  O305  1  0.75117381  0.73296408  0.13918870  1
  O  O306  1  0.74325414  0.75853460  0.62107435  1
  O  O307  1  0.25029331  0.23966435  0.37319517  1
  O  O308  1  0.24538262  0.24411927  0.88482767  1
  O  O309  1  0.23569224  0.75264297  0.37796679  1
  O  O310  1  0.24786082  0.73671832  0.88454248  1
  O  O311  1  0.74697381  0.24722885  0.38962868  1
  O  O312  1  0.74046444  0.24166085  0.86631852  1
  O  O313  1  0.74482598  0.74697558  0.37622172  1
  O  O314  1  0.74353850  0.73419208  0.87342874  1
  O  O315  1  -0.00166723  0.11013034  0.01629185  1
  O  O316  1  -0.01012902  0.14392651  0.51224149  1
  O  O317  1  0.00663902  0.60829100  -0.00499448  1
  O  O318  1  0.00345900  0.61374029  0.50577931  1
  O  O319  1  0.50592537  0.12663730  0.01136047  1
  O  O320  1  0.50579827  0.13788228  0.51091529  1
  O  O321  1  0.48840665  0.61746440  0.00839063  1
  O  O322  1  0.51806555  0.61331519  0.48476005  1
  O  O323  1  0.49172510  0.37985177  0.50088429  1
  O  O324  1  0.50082918  0.36700640  0.98967901  1
  O  O325  1  0.48793914  0.87316001  0.48819921  1
  O  O326  1  0.48598300  0.87368581  0.98919984  1
  O  O327  1  0.99886476  0.38454390  0.49677807  1
  O  O328  1  0.99391226  0.37816629  0.98666944  1
  O  O329  1  0.99800706  0.87551339  0.49778341  1
  O  O330  1  1.01485456  0.89007152  0.99391076  1
  O  O331  1  0.49333595  0.49304800  0.38472609  1
  O  O332  1  0.48798773  0.49037418  0.87726158  1
  O  O333  1  0.48710436  1.00299553  0.37636312  1
  O  O334  1  0.48744204  0.99726533  0.87844147  1
  O  O335  1  0.99874892  0.49722194  0.38206235  1
  O  O336  1  0.99700836  0.49221951  0.87722812  1
  O  O337  1  0.99528377  0.98965166  0.37121449  1
  O  O338  1  0.98861648  0.99738767  0.88860713  1
  O  O339  1  0.01561304  0.00922619  0.12775743  1
  O  O340  1  -0.01397565  -0.01204320  0.61640450  1
  O  O341  1  0.01017107  0.49287188  0.11341427  1
  O  O342  1  0.00658062  0.50822599  0.61884525  1
  O  O343  1  0.50703432  0.00888640  0.12535521  1
  O  O344  1  0.50460566  0.01136840  0.63128151  1
  O  O345  1  0.51107170  0.50238567  0.12393370  1
  O  O346  1  0.50389984  0.50130102  0.60842464  1
  O  O347  1  0.24153833  0.38356419  0.25320755  1
  O  O348  1  0.23481431  0.36495327  0.75673881  1
  O  O349  1  0.24746666  0.88006849  0.24709300  1
  O  O350  1  0.24735186  0.87683156  0.74425015  1
  O  O351  1  0.73961802  0.37571498  0.24782127  1
  O  O352  1  0.74941791  0.37598117  0.74044462  1
  O  O353  1  0.73534856  0.86152428  0.27072714  1
  O  O354  1  0.74395134  0.88720128  0.73905548  1
  O  O355  1  0.25651701  0.12185583  0.25849157  1
  O  O356  1  0.25834094  0.13041809  0.76641417  1
  O  O357  1  0.26219900  0.61391239  0.25341910  1
  O  O358  1  0.24709218  0.62541412  0.76025344  1
  O  O359  1  0.76084716  0.12562448  0.25469461  1
  O  O360  1  0.74181895  0.11346543  0.75573607  1
  O  O361  1  0.75487635  0.62308098  0.25235992  1
  O  O362  1  0.75297176  0.61849829  0.73141500  1
  O  O363  1  0.37049353  0.12121682  0.37085954  1
  O  O364  1  0.37097024  0.12122826  0.87431036  1
  O  O365  1  0.37568038  0.61184854  0.36976898  1
  O  O366  1  0.36368807  0.61281455  0.87459711  1
  O  O367  1  0.87382840  0.11257540  0.36493624  1
  O  O368  1  0.86039338  0.12293267  0.87345152  1
  O  O369  1  0.86418960  0.61752226  0.37791554  1
  O  O370  1  0.88038305  0.61996085  0.87080725  1
  O  O371  1  0.12158044  0.38354557  0.13740355  1
  O  O372  1  0.12395774  0.39124170  0.63420335  1
  O  O373  1  0.13381176  0.88429387  0.13198727  1
  O  O374  1  0.13518263  0.88181522  0.62919726  1
  O  O375  1  0.62494410  0.38072368  0.13165653  1
  O  O376  1  0.63850863  0.37755332  0.63105914  1
  O  O377  1  0.61037338  0.88281600  0.12012928  1
  O  O378  1  0.62611761  0.88550351  0.62545105  1
  O  O379  1  0.11987204  0.25871614  0.24975094  1
  O  O380  1  0.11449929  0.25709862  0.75794566  1
  O  O381  1  0.11992113  0.75398762  0.25579066  1
  O  O382  1  0.13016860  0.75267151  0.76690997  1
  O  O383  1  0.62272816  0.25547547  0.25587315  1
  O  O384  1  0.61804734  0.25544355  0.76009001  1
  O  O385  1  0.61539083  0.74793244  0.26476208  1
  O  O386  1  0.63268131  0.75720507  0.77349449  1
  O  O387  1  0.37962980  0.24615318  0.24426528  1
  O  O388  1  0.38448757  0.24110820  0.75976041  1
  O  O389  1  0.37073771  0.73199966  0.25016061  1
  O  O390  1  0.37697677  0.74650475  0.75373618  1
  O  O391  1  0.88084277  0.24218167  0.24480120  1
  O  O392  1  0.89200657  0.25361933  0.75122258  1
  O  O393  1  0.89035944  0.74935123  0.24615993  1
  O  O394  1  0.87417547  0.77051092  0.75519458  1
  O  O395  1  0.38102087  0.49448059  0.49384669  1
  O  O396  1  0.36308134  0.49368538  0.98349066  1
  O  O397  1  0.36456922  0.98755863  0.49113981  1
  O  O398  1  0.37678373  0.99377847  0.99518289  1
  O  O399  1  0.88512887  0.49369004  0.49098970  1
  O  O400  1  0.88485261  0.48970153  0.98702404  1
  O  O401  1  0.87412385  1.00446339  0.49599684  1
  O  O402  1  0.87212793  1.01698777  0.98427622  1
  O  O403  1  0.13652874  0.00412454  0.01650908  1
  O  O404  1  0.14308230  0.01290212  0.51184126  1
  O  O405  1  0.11907963  0.49687525  0.00960464  1
  O  O406  1  0.12001044  0.49876898  0.51088237  1
  O  O407  1  0.61856477  0.00940462  0.01461141  1
  O  O408  1  0.62308193  0.01395416  0.51166524  1
  O  O409  1  0.62727380  0.48678397  0.00993111  1
  O  O410  1  0.62006217  0.50279810  0.49706453  1
  O  O411  1  0.38248859  0.36278389  0.12620975  1
  O  O412  1  0.38103243  0.39111258  0.62255945  1
  O  O413  1  0.37540263  0.87388287  0.12034650  1
  O  O414  1  0.37458669  0.86586105  0.61650357  1
  O  O415  1  0.87586799  0.36497952  0.11428574  1
  O  O416  1  0.86826501  0.37745645  0.61755944  1
  O  O417  1  0.90286334  0.92184862  0.09397873  1
  O  O418  1  0.86605010  0.88322799  0.61287422  1
  O  O419  1  0.13351527  0.12879491  0.38181667  1
  O  O420  1  0.13341406  0.12964623  0.87998823  1
  O  O421  1  0.12674839  0.63487429  0.37815031  1
  O  O422  1  0.13634748  0.63061927  0.87800048  1
  O  O423  1  0.62263040  0.12991250  0.38459180  1
  O  O424  1  0.62949513  0.13148325  0.88099324  1
  O  O425  1  0.64405907  0.61673046  0.37833000  1
  O  O426  1  0.61585604  0.63207075  0.87586247  1
