# generated using pymatgen
data_V85Zn86O256
_symmetry_space_group_name_H-M   'P 1'
_cell_length_a   16.94763689
_cell_length_b   16.95981966
_cell_length_c   16.94304901
_cell_angle_alpha   90.04538182
_cell_angle_beta   89.96174134
_cell_angle_gamma   89.97685448
_symmetry_Int_Tables_number   1
_chemical_formula_structural   V85Zn86O256
_chemical_formula_sum   'V85 Zn86 O256'
_cell_volume   4869.91833859
_cell_formula_units_Z   1
loop_
 _symmetry_equiv_pos_site_id
 _symmetry_equiv_pos_as_xyz
  1  'x, y, z'
loop_
 _atom_site_type_symbol
 _atom_site_label
 _atom_site_symmetry_multiplicity
 _atom_site_fract_x
 _atom_site_fract_y
 _atom_site_fract_z
 _atom_site_occupancy
  V  V0  1  0.75007077  0.74725100  0.50074878  1
  V  V1  1  -0.00068104  -0.00508885  -0.00790480  1
  V  V2  1  0.87544474  0.74427640  0.62601402  1
  V  V3  1  0.12414974  0.37349185  0.74945678  1
  V  V4  1  0.49145368  0.37229877  0.87726010  1
  V  V5  1  0.87620631  0.24422827  0.62209011  1
  V  V6  1  0.75335639  0.50064609  0.75078885  1
  V  V7  1  0.25529419  0.62757164  0.85119286  1
  V  V8  1  0.49658565  0.73702076  0.73944318  1
  V  V9  1  0.62035596  0.01510367  0.62012931  1
  V  V10  1  0.36911851  0.25813180  0.11002744  1
  V  V11  1  0.87470755  0.12680111  0.24578098  1
  V  V12  1  0.75063879  0.36972497  0.62099438  1
  V  V13  1  -0.00115413  0.24657656  0.24766416  1
  V  V14  1  0.12997681  0.87325815  0.74569830  1
  V  V15  1  0.37595159  0.00068643  0.37358201  1
  V  V16  1  0.25717824  0.37656464  0.63210155  1
  V  V17  1  0.25303260  0.74250044  -0.00122675  1
  V  V18  1  0.87493101  0.50015569  0.37563275  1
  V  V19  1  0.50046267  0.13296521  0.12855676  1
  V  V20  1  0.74605617  0.87502378  0.62518190  1
  V  V21  1  0.12011192  0.12369199  0.50269855  1
  V  V22  1  0.62280747  0.74755517  0.87337879  1
  V  V23  1  0.12642885  0.87814661  0.24896072  1
  V  V24  1  0.87228111  0.11867998  0.76271331  1
  V  V25  1  0.62650818  0.87265159  0.24658278  1
  V  V26  1  0.62417344  0.74957179  0.37566792  1
  V  V27  1  0.12564702  0.50108462  0.63421924  1
  V  V28  1  0.37174246  0.87425203  0.50911321  1
  V  V29  1  0.25937041  0.25584655  0.50432747  1
  V  V30  1  0.12200140  0.75007775  0.37526218  1
  V  V31  1  0.37797891  0.13272554  0.24906121  1
  V  V32  1  0.49530320  0.48862620  0.50147595  1
  V  V33  1  0.62084615  0.50097290  0.62576308  1
  V  V34  1  0.63773972  0.25330448  0.88217477  1
  V  V35  1  0.38439999  0.12297092  0.73954025  1
  V  V36  1  0.86083326  0.87930963  -0.00236917  1
  V  V37  1  0.62895511  0.00153735  0.12655299  1
  V  V38  1  0.62077252  0.62143070  0.50217272  1
  V  V39  1  0.11979676  -0.00338548  0.62125730  1
  V  V40  1  0.74949512  0.49765926  0.24854971  1
  V  V41  1  0.87721308  0.87588773  0.50274759  1
  V  V42  1  0.75229422  0.62266196  0.37155726  1
  V  V43  1  0.50377740  0.23940148  0.74822329  1
  V  V44  1  0.37559962  0.51055622  0.85692063  1
  V  V45  1  0.24956202  0.12774532  0.87322199  1
  V  V46  1  0.87617408  0.49730868  0.89008383  1
  V  V47  1  -0.00173547  0.37817114  0.88453774  1
  V  V48  1  0.48661577  0.49617680  0.00010330  1
  V  V49  1  0.88645234  0.62082447  0.74899024  1
  V  V50  1  0.74736749  0.13122417  0.38739943  1
  V  V51  1  0.00307312  0.37654726  0.37421307  1
  V  V52  1  -0.00096385  0.75023588  0.74572377  1
  V  V53  1  0.62167409  0.24686234  0.38965587  1
  V  V54  1  0.62622935  0.37312131  0.75285292  1
  V  V55  1  0.37579794  0.62458350  0.25674508  1
  V  V56  1  0.49879472  0.87166791  0.37618191  1
  V  V57  1  0.87293461  0.36808282  0.49768841  1
  V  V58  1  0.11926505  0.62283540  0.50151214  1
  V  V59  1  0.12768764  0.12552916  0.00056735  1
  V  V60  1  0.00085642  0.88178535  0.38091971  1
  V  V61  1  0.12143564  0.74813249  0.88134673  1
  V  V62  1  0.13397683  0.37018102  0.22840250  1
  V  V63  1  -0.00913136  0.75305952  0.24261064  1
  V  V64  1  0.37810892  0.00021205  0.87377574  1
  V  V65  1  0.25101892  0.12537854  0.37551466  1
  V  V66  1  0.76462602  0.36534525  0.12002633  1
  V  V67  1  0.87592843  0.00213517  0.38254591  1
  V  V68  1  0.63789832  0.13161359  0.00062955  1
  V  V69  1  0.61941809  0.36066095  0.24792213  1
  V  V70  1  -0.00067721  0.50152202  0.50307739  1
  V  V71  1  0.25339684  0.87746160  0.12169982  1
  V  V72  1  0.37212279  0.48806347  0.37919924  1
  V  V73  1  0.24867725  0.49571754  0.23331148  1
  V  V74  1  0.12892051  0.25370204  0.37805160  1
  V  V75  1  0.62225198  0.87386706  0.74773948  1
  V  V76  1  0.25365541  -0.00484866  0.74085588  1
  V  V77  1  0.24330658  0.61961973  0.37523868  1
  V  V78  1  0.50086385  0.01081317  0.50082573  1
  V  V79  1  0.49943469  0.62475404  0.12860198  1
  V  V80  1  0.62316417  0.49425269  0.12580196  1
  V  V81  1  0.50212376  0.00047546  0.00006301  1
  V  V82  1  0.24836662  0.75490809  0.50548875  1
  V  V83  1  0.75021957  -0.00128169  0.25063357  1
  V  V84  1  0.62281129  0.62152367  -0.00142782  1
  Zn  Zn85  1  0.75045916  0.62503406  0.87517101  1
  Zn  Zn86  1  0.36520090  0.73798605  0.63688229  1
  Zn  Zn87  1  0.49935484  0.74909778  0.25239995  1
  Zn  Zn88  1  0.19914435  0.30643438  0.04333814  1
  Zn  Zn89  1  0.12394768  -0.00124574  0.12255960  1
  Zn  Zn90  1  0.91325053  0.59518855  0.20305504  1
  Zn  Zn91  1  0.49380480  0.36648013  0.37251845  1
  Zn  Zn92  1  0.49920088  0.87270107  0.87494132  1
  Zn  Zn93  1  0.78491028  0.25030562  -0.00104487  1
  Zn  Zn94  1  0.75575880  0.00104991  0.75953044  1
  Zn  Zn95  1  0.25199383  0.00086470  0.24809088  1
  Zn  Zn96  1  0.37828520  0.75220076  0.12582968  1
  Zn  Zn97  1  0.38345064  0.25115086  0.62408131  1
  Zn  Zn98  1  -0.00161051  0.12063677  0.12251431  1
  Zn  Zn99  1  0.37748579  0.87547337  0.00193776  1
  Zn  Zn100  1  0.12327943  0.25148845  0.87719718  1
  Zn  Zn101  1  0.00138420  0.24815785  0.74760945  1
  Zn  Zn102  1  -0.00184779  0.12170745  0.62361396  1
  Zn  Zn103  1  0.06407285  0.57616833  0.07011774  1
  Zn  Zn104  1  0.85072869  0.75949815  0.12752705  1
  Zn  Zn105  1  0.74038537  0.75584241  0.00592596  1
  Zn  Zn106  1  -0.00850293  0.87797347  0.86952622  1
  Zn  Zn107  1  0.18987706  0.18415026  0.18542297  1
  Zn  Zn108  1  0.19080981  0.18776144  0.69024754  1
  Zn  Zn109  1  0.19097966  0.69698470  0.18748406  1
  Zn  Zn110  1  0.17984876  0.68643991  0.68346584  1
  Zn  Zn111  1  0.69217793  0.18653236  0.18828441  1
  Zn  Zn112  1  0.69171514  0.18947547  0.68956877  1
  Zn  Zn113  1  0.69476637  0.68540817  0.18387638  1
  Zn  Zn114  1  0.68758806  0.68432147  0.68803069  1
  Zn  Zn115  1  0.31178119  0.30840808  0.30615560  1
  Zn  Zn116  1  0.28628527  0.33772882  0.85406492  1
  Zn  Zn117  1  0.31167877  0.81022220  0.31718611  1
  Zn  Zn118  1  0.31521704  0.81443244  0.81282950  1
  Zn  Zn119  1  0.81013042  0.31088905  0.31056822  1
  Zn  Zn120  1  0.81832523  0.31176750  0.80937711  1
  Zn  Zn121  1  0.81050353  0.81616240  0.31540881  1
  Zn  Zn122  1  0.81010274  0.81330940  0.81689515  1
  Zn  Zn123  1  0.18959290  0.43638780  0.44133269  1
  Zn  Zn124  1  0.18812446  0.45184069  0.94417127  1
  Zn  Zn125  1  0.18894837  0.93946812  0.43752700  1
  Zn  Zn126  1  0.18817834  0.93627365  0.93358394  1
  Zn  Zn127  1  0.68618211  0.43246027  0.43695649  1
  Zn  Zn128  1  0.68770129  0.43551812  0.94072477  1
  Zn  Zn129  1  0.68715398  0.93976979  0.43839591  1
  Zn  Zn130  1  0.68476908  0.94289449  0.93042535  1
  Zn  Zn131  1  0.31232509  0.06404781  0.06151629  1
  Zn  Zn132  1  0.30986987  0.06290555  0.56092485  1
  Zn  Zn133  1  0.31229143  0.56671209  0.06104994  1
  Zn  Zn134  1  0.30909510  0.55974429  0.56830812  1
  Zn  Zn135  1  0.81525358  0.05976141  0.06086705  1
  Zn  Zn136  1  0.80764968  0.06005882  0.56581912  1
  Zn  Zn137  1  0.80697064  0.56542400  0.06362047  1
  Zn  Zn138  1  0.81072625  0.56014951  0.56392932  1
  Zn  Zn139  1  0.43550721  0.43532818  0.18967174  1
  Zn  Zn140  1  0.44168577  0.43371509  0.69061212  1
  Zn  Zn141  1  0.43920801  0.94188079  0.18874427  1
  Zn  Zn142  1  0.44269760  0.93309617  0.68557961  1
  Zn  Zn143  1  0.94475852  0.43025449  0.18423674  1
  Zn  Zn144  1  0.94028960  0.43643558  0.68703834  1
  Zn  Zn145  1  0.93697803  0.93746758  0.18196830  1
  Zn  Zn146  1  0.93862461  0.93751770  0.68713112  1
  Zn  Zn147  1  0.06348591  0.06187001  0.31519300  1
  Zn  Zn148  1  0.06199700  0.06264860  0.80948290  1
  Zn  Zn149  1  0.07152701  0.56851872  0.24039077  1
  Zn  Zn150  1  0.05942333  0.56985885  0.90507582  1
  Zn  Zn151  1  0.56174404  0.06537945  0.31427891  1
  Zn  Zn152  1  0.58475892  0.05757064  0.81986517  1
  Zn  Zn153  1  0.56308359  0.55609642  0.31611774  1
  Zn  Zn154  1  0.56094328  0.56047973  0.81205611  1
  Zn  Zn155  1  0.43815122  0.18959217  0.43673636  1
  Zn  Zn156  1  0.44367863  0.18289187  0.93410635  1
  Zn  Zn157  1  0.41747481  0.66427162  0.47504666  1
  Zn  Zn158  1  0.43782266  0.68922071  0.93648991  1
  Zn  Zn159  1  0.93899991  0.18784285  0.43523181  1
  Zn  Zn160  1  0.94271191  0.18011308  0.92756315  1
  Zn  Zn161  1  0.93811106  0.68883263  0.43160328  1
  Zn  Zn162  1  0.92955760  0.69261849  0.94131429  1
  Zn  Zn163  1  -0.00266207  0.28392657  0.04052225  1
  Zn  Zn164  1  0.06358449  0.31277025  0.56402878  1
  Zn  Zn165  1  0.06111687  0.81234107  0.06111348  1
  Zn  Zn166  1  0.06161225  0.81343714  0.56441854  1
  Zn  Zn167  1  0.55813525  0.31305387  0.06283878  1
  Zn  Zn168  1  0.56336021  0.31223188  0.56464275  1
  Zn  Zn169  1  0.56619641  0.81172963  0.06594673  1
  Zn  Zn170  1  0.55903004  0.81254093  0.56048571  1
  O  O171  1  0.12559280  0.11912545  0.11545168  1
  O  O172  1  0.12556197  0.11734508  0.61846243  1
  O  O173  1  0.13069237  0.61366236  0.15336767  1
  O  O174  1  0.12614081  0.61482197  0.61303580  1
  O  O175  1  0.61892066  0.12192869  0.12215102  1
  O  O176  1  0.62855917  0.11309444  0.62757182  1
  O  O177  1  0.61639620  0.61436566  0.12075262  1
  O  O178  1  0.63333300  0.61149572  0.61565013  1
  O  O179  1  0.37415414  0.38388148  0.36748199  1
  O  O180  1  0.38824209  0.38932834  0.86467266  1
  O  O181  1  0.38325148  0.88227622  0.37685481  1
  O  O182  1  0.37937704  0.88879834  0.87675207  1
  O  O183  1  0.87813409  0.37792938  0.38141851  1
  O  O184  1  0.88766496  0.38418474  0.86672434  1
  O  O185  1  0.88032561  0.88376103  0.38177515  1
  O  O186  1  0.87502729  0.87577062  0.88775787  1
  O  O187  1  0.25803033  0.00825022  0.37376989  1
  O  O188  1  0.25918261  0.00544052  0.86389382  1
  O  O189  1  0.25507370  0.50417392  0.37199551  1
  O  O190  1  0.25990525  0.52129653  0.86936759  1
  O  O191  1  0.75357484  0.01079002  0.37061651  1
  O  O192  1  0.69256486  0.01700229  0.85079228  1
  O  O193  1  0.75266176  0.50365231  0.36905719  1
  O  O194  1  0.75776643  0.49576688  0.86633036  1
  O  O195  1  0.26067097  0.49628061  0.13442436  1
  O  O196  1  0.23891966  0.48900142  0.61877179  1
  O  O197  1  0.24950741  0.98831522  0.12626192  1
  O  O198  1  0.24327329  1.00258159  0.63593531  1
  O  O199  1  0.74278575  0.48846425  0.13247061  1
  O  O200  1  0.74314246  0.48973591  0.63137847  1
  O  O201  1  0.73727579  1.00652204  0.13479936  1
  O  O202  1  0.73554171  0.99113119  0.62546646  1
  O  O203  1  0.01536585  0.36589577  0.25403284  1
  O  O204  1  0.01123302  0.37203535  0.74820207  1
  O  O205  1  0.00632162  0.87127491  0.25693701  1
  O  O206  1  0.00707540  0.86868661  0.75083215  1
  O  O207  1  0.51628619  0.38002725  0.25349121  1
  O  O208  1  0.51029376  0.36692412  0.75896222  1
  O  O209  1  0.50759838  0.87513158  0.25869789  1
  O  O210  1  0.51148244  0.86407997  0.74938295  1
  O  O211  1  0.49205870  0.11995937  0.24053693  1
  O  O212  1  0.49818120  0.12907947  0.76056759  1
  O  O213  1  0.49420645  0.62098010  0.24626185  1
  O  O214  1  0.50731030  0.63856081  0.74800945  1
  O  O215  1  0.99190870  0.12969081  0.25600117  1
  O  O216  1  0.98711135  0.12554153  0.74593105  1
  O  O217  1  0.99305967  0.65055004  0.27073328  1
  O  O218  1  0.98706112  0.63383216  0.74964741  1
  O  O219  1  0.38105033  0.24298417  0.01126797  1
  O  O220  1  0.36460086  0.24525199  0.50458896  1
  O  O221  1  0.36939154  0.75527241  0.00244186  1
  O  O222  1  0.36050047  0.76399138  0.48378831  1
  O  O223  1  0.89616998  0.24107250  0.00827511  1
  O  O224  1  0.87927247  0.26140736  0.50316958  1
  O  O225  1  0.86276165  0.76598767  -0.00151214  1
  O  O226  1  0.86913148  0.75356926  0.50557751  1
  O  O227  1  0.13389137  0.24396349  0.49476524  1
  O  O228  1  0.11220345  0.23828238  0.99837349  1
  O  O229  1  0.12656653  0.74352053  0.49470527  1
  O  O230  1  0.13491190  0.76118810  0.98676627  1
  O  O231  1  0.62805699  0.25358847  0.48826615  1
  O  O232  1  0.62402494  0.24500102  0.99669279  1
  O  O233  1  0.62915496  0.74043531  0.49587650  1
  O  O234  1  0.61774614  0.74109359  0.99010691  1
  O  O235  1  0.49276305  0.23734119  0.12261089  1
  O  O236  1  0.50291815  0.25524943  0.64189993  1
  O  O237  1  0.50070313  0.73623878  0.12989490  1
  O  O238  1  0.50237935  0.74934641  0.63698713  1
  O  O239  1  1.00798303  0.23981708  0.14481207  1
  O  O240  1  0.98984616  0.24735142  0.62455276  1
  O  O241  1  1.00163536  0.75439719  0.14164216  1
  O  O242  1  0.99198728  0.75414454  0.63691425  1
  O  O243  1  0.01032628  0.25487255  0.36779461  1
  O  O244  1  0.00050908  0.26542800  0.86793689  1
  O  O245  1  0.00282115  0.76564792  0.36977452  1
  O  O246  1  0.00751102  0.75339335  0.86149103  1
  O  O247  1  0.51590755  0.24927120  0.37696448  1
  O  O248  1  0.50550103  0.25890982  0.86853117  1
  O  O249  1  0.50680648  0.76332595  0.37626948  1
  O  O250  1  0.50869030  0.75024462  0.86536587  1
  O  O251  1  0.24218221  0.13335356  0.49482498  1
  O  O252  1  0.23710749  0.11465154  0.98905987  1
  O  O253  1  0.23582740  0.62945877  0.49134457  1
  O  O254  1  0.25261960  0.64041418  0.99677396  1
  O  O255  1  0.75064641  0.12230336  0.48560401  1
  O  O256  1  0.74168633  0.13185785  1.00785819  1
  O  O257  1  0.73999999  0.62559453  0.49313286  1
  O  O258  1  0.73070281  0.62338324  0.99624603  1
  O  O259  1  0.24822182  0.36288579  -0.03862228  1
  O  O260  1  0.24483785  0.36415194  0.51359899  1
  O  O261  1  0.25329431  0.86934157  0.00680427  1
  O  O262  1  0.25790656  0.86666478  0.49330522  1
  O  O263  1  0.74802130  0.37255885  0.01716208  1
  O  O264  1  0.76125430  0.38198760  0.50881306  1
  O  O265  1  0.75775607  0.88575161  -0.00510873  1
  O  O266  1  0.75467731  0.86860236  0.50603358  1
  O  O267  1  0.13676448  0.47582722  0.25688121  1
  O  O268  1  0.11910382  0.49327731  0.73394084  1
  O  O269  1  0.12712988  0.98842641  0.25086136  1
  O  O270  1  0.13376465  0.99293833  0.74371314  1
  O  O271  1  0.63379107  0.48728489  0.24871587  1
  O  O272  1  0.63133366  0.49463029  0.74364089  1
  O  O273  1  0.63107870  0.99652668  0.24639676  1
  O  O274  1  0.61076210  0.98571512  0.72643463  1
  O  O275  1  0.37430651  0.01143330  0.25653174  1
  O  O276  1  0.37291614  0.00049964  0.75321808  1
  O  O277  1  0.36872939  0.50640798  0.25792927  1
  O  O278  1  0.38818062  0.50972388  0.75787675  1
  O  O279  1  0.86792874  0.00228036  0.26114839  1
  O  O280  1  0.87241259  0.01294029  0.74210577  1
  O  O281  1  0.86178325  0.49704937  0.25722539  1
  O  O282  1  0.86802733  0.50594409  0.74748007  1
  O  O283  1  0.12307562  0.36235002  0.37830474  1
  O  O284  1  0.11082184  0.37848019  0.86307324  1
  O  O285  1  0.11711872  0.87397274  0.37095872  1
  O  O286  1  0.12637322  0.86526056  0.86062729  1
  O  O287  1  0.62944217  0.35965263  0.36591795  1
  O  O288  1  0.61643871  0.37025738  0.87240167  1
  O  O289  1  0.61912934  0.87288118  0.36790072  1
  O  O290  1  0.62055779  0.86419912  0.86446350  1
  O  O291  1  0.38185170  0.12891927  0.13027493  1
  O  O292  1  0.37520883  0.12289786  0.63677991  1
  O  O293  1  0.38309438  0.62547219  0.13706858  1
  O  O294  1  0.38127171  0.64008574  0.58364720  1
  O  O295  1  0.87575241  0.11603382  0.14289479  1
  O  O296  1  0.87659928  0.13630255  0.61558906  1
  O  O297  1  0.84797997  0.64375155  0.13033590  1
  O  O298  1  0.86656369  0.63364778  0.63355707  1
  O  O299  1  0.26271224  0.24614960  0.11936262  1
  O  O300  1  0.25327324  0.25706594  0.61962307  1
  O  O301  1  0.25437544  0.76107243  0.11749234  1
  O  O302  1  0.24697236  0.74775067  0.60922651  1
  O  O303  1  0.75082955  0.26265574  0.12523574  1
  O  O304  1  0.75709657  0.26312277  0.62761506  1
  O  O305  1  0.73306293  0.76571219  0.12023956  1
  O  O306  1  0.75368388  0.75601608  0.62002423  1
  O  O307  1  0.24578556  0.24702868  0.38332848  1
  O  O308  1  0.24840148  0.22960452  0.86508153  1
  O  O309  1  0.24005559  0.74093032  0.38053700  1
  O  O310  1  0.24842534  0.74405359  0.87938893  1
  O  O311  1  0.74201207  0.23743769  0.37184893  1
  O  O312  1  0.74229003  0.26228566  0.88312248  1
  O  O313  1  0.74524877  0.74211586  0.37991120  1
  O  O314  1  0.73377524  0.74645234  0.87661692  1
  O  O315  1  0.01105871  0.11072744  -0.00297927  1
  O  O316  1  0.01638160  0.12881849  0.49793510  1
  O  O317  1  0.01169018  0.63640539  -0.01344443  1
  O  O318  1  0.01082767  0.61800641  0.48975512  1
  O  O319  1  0.50823742  0.11509288  0.00851998  1
  O  O320  1  0.49584586  0.11016714  0.49489887  1
  O  O321  1  0.50563746  0.61877342  0.00800078  1
  O  O322  1  0.51720239  0.60795843  0.48995634  1
  O  O323  1  0.50650757  0.38463482  0.49447057  1
  O  O324  1  0.50328215  0.38507257  0.99066406  1
  O  O325  1  0.49201971  0.88075704  0.49217312  1
  O  O326  1  0.50256612  0.88912852  1.00210978  1
  O  O327  1  0.99372873  0.38049426  0.49415404  1
  O  O328  1  1.00451050  0.38258220  0.98363204  1
  O  O329  1  0.99153748  0.87159536  0.49240648  1
  O  O330  1  0.99608778  0.88357742  0.99440885  1
  O  O331  1  0.49001991  0.49394596  0.38210668  1
  O  O332  1  0.49471013  0.49583714  0.88180997  1
  O  O333  1  0.49794894  0.99087871  0.38108358  1
  O  O334  1  0.49639786  0.99994725  0.88391752  1
  O  O335  1  0.99071019  0.49076392  0.38584514  1
  O  O336  1  0.98642764  0.48867464  0.86465107  1
  O  O337  1  0.99106636  0.99045625  0.37264406  1
  O  O338  1  1.00534012  0.99675802  0.88719662  1
  O  O339  1  0.00373948  0.00114995  0.11156786  1
  O  O340  1  0.01536670  0.00107371  0.62629361  1
  O  O341  1  -0.00504280  0.52504946  0.15673830  1
  O  O342  1  0.00643618  0.49411206  0.60919726  1
  O  O343  1  0.50970218  0.00977449  0.12066426  1
  O  O344  1  0.51077772  -0.00534610  0.61337286  1
  O  O345  1  0.50081241  0.50648300  0.11913066  1
  O  O346  1  0.51293538  0.49133483  0.61847512  1
  O  O347  1  0.24032015  0.37831824  0.24925366  1
  O  O348  1  0.23442781  0.37248293  0.74825158  1
  O  O349  1  0.24297670  0.87390110  0.24423881  1
  O  O350  1  0.24387763  0.88261094  0.75165695  1
  O  O351  1  0.74170360  0.37840192  0.24198940  1
  O  O352  1  0.74747457  0.38393889  0.74321063  1
  O  O353  1  0.74057376  0.89035690  0.26003406  1
  O  O354  1  0.73929675  0.87652997  0.74313920  1
  O  O355  1  0.25735086  0.12320618  0.25786218  1
  O  O356  1  0.26133262  0.11407673  0.75386848  1
  O  O357  1  0.25824581  0.61584360  0.25877097  1
  O  O358  1  0.25888136  0.63717411  0.75277176  1
  O  O359  1  0.75585219  0.11607709  0.25915625  1
  O  O360  1  0.76939593  0.12326638  0.73891114  1
  O  O361  1  0.73764870  0.61104891  0.26070409  1
  O  O362  1  0.75425221  0.61144534  0.75132180  1
  O  O363  1  0.37163313  0.12278700  0.36729570  1
  O  O364  1  0.37164291  0.11349370  0.86810755  1
  O  O365  1  0.36419531  0.61397414  0.37433845  1
  O  O366  1  0.36391877  0.62479839  0.87471407  1
  O  O367  1  0.86572315  0.11969708  0.37139589  1
  O  O368  1  0.87061357  0.12165913  0.86158975  1
  O  O369  1  0.85953103  0.61957878  0.38119319  1
  O  O370  1  0.87028891  0.61516169  0.86588499  1
  O  O371  1  0.13049464  0.36419575  0.13027943  1
  O  O372  1  0.13262246  0.37972371  0.63034755  1
  O  O373  1  0.13378455  0.87477367  0.13348259  1
  O  O374  1  0.12420472  0.88091936  0.63536322  1
  O  O375  1  0.62719809  0.37653714  0.13508790  1
  O  O376  1  0.63428821  0.38018162  0.63077057  1
  O  O377  1  0.61575566  0.88680202  0.14016540  1
  O  O378  1  0.63514603  0.87146400  0.62780391  1
  O  O379  1  0.12600896  0.25697052  0.25808575  1
  O  O380  1  0.12212513  0.25769359  0.75180122  1
  O  O381  1  0.11726308  0.76396138  0.25779639  1
  O  O382  1  0.11697731  0.75663076  0.75021034  1
  O  O383  1  0.62935834  0.25857152  0.25555137  1
  O  O384  1  0.62460082  0.25349609  0.76118578  1
  O  O385  1  0.62335436  0.75859798  0.25840250  1
  O  O386  1  0.61922631  0.75379160  0.75367417  1
  O  O387  1  0.37283939  0.23755229  0.23922366  1
  O  O388  1  0.38969012  0.23442925  0.75005565  1
  O  O389  1  0.37676531  0.73464133  0.25444209  1
  O  O390  1  0.39136546  0.75456399  0.74931826  1
  O  O391  1  0.88609809  0.23961582  0.26027933  1
  O  O392  1  0.87660639  0.23824965  0.73958134  1
  O  O393  1  0.88677873  0.76599270  0.24746207  1
  O  O394  1  0.87899042  0.74418065  0.74737558  1
  O  O395  1  0.38371443  0.49888653  0.49165570  1
  O  O396  1  0.38488274  0.50845939  0.98974732  1
  O  O397  1  0.37957616  0.99299926  0.49469515  1
  O  O398  1  0.38478255  1.00167919  0.99195038  1
  O  O399  1  0.88109069  0.49192011  0.49786963  1
  O  O400  1  0.86899700  0.50415690  0.98903489  1
  O  O401  1  0.86892653  0.99467035  0.48932126  1
  O  O402  1  0.88659467  0.99284323  1.00019085  1
  O  O403  1  0.11615419  0.00117984  -0.00065110  1
  O  O404  1  0.13443076  0.00938799  0.51020215  1
  O  O405  1  0.11635982  0.51670830  -0.01197117  1
  O  O406  1  0.11715733  0.50610559  0.50323733  1
  O  O407  1  0.62105728  0.00890851  0.01088635  1
  O  O408  1  0.61671487  -0.00514832  0.51178935  1
  O  O409  1  0.61467271  0.50496763  0.00513435  1
  O  O410  1  0.62180070  0.50198846  0.50685512  1
  O  O411  1  0.38283915  0.35635522  0.12608116  1
  O  O412  1  0.36105122  0.37294366  0.63655228  1
  O  O413  1  0.36872225  0.87350823  0.12668484  1
  O  O414  1  0.37911974  0.86704416  0.61113936  1
  O  O415  1  0.86383902  0.37363719  0.13030254  1
  O  O416  1  0.87020742  0.36609696  0.61810543  1
  O  O417  1  0.87842111  0.87458024  0.10487628  1
  O  O418  1  0.86315737  0.86945281  0.62315935  1
  O  O419  1  0.13095835  0.13463673  0.38008924  1
  O  O420  1  0.13346532  0.12375828  0.87886664  1
  O  O421  1  0.13495097  0.62778762  0.37743157  1
  O  O422  1  0.14248357  0.64123873  0.86020408  1
  O  O423  1  0.63524678  0.13664960  0.37087009  1
  O  O424  1  0.61455272  0.14578394  0.89139623  1
  O  O425  1  0.63399486  0.62700282  0.38135935  1
  O  O426  1  0.62307883  0.62874849  0.88279021  1
