# generated using pymatgen
data_V85Zn86O256
_symmetry_space_group_name_H-M   'P 1'
_cell_length_a   16.96300048
_cell_length_b   16.95838379
_cell_length_c   16.95158133
_cell_angle_alpha   89.99058150
_cell_angle_beta   89.95624409
_cell_angle_gamma   90.03158816
_symmetry_Int_Tables_number   1
_chemical_formula_structural   V85Zn86O256
_chemical_formula_sum   'V85 Zn86 O256'
_cell_volume   4876.37564115
_cell_formula_units_Z   1
loop_
 _symmetry_equiv_pos_site_id
 _symmetry_equiv_pos_as_xyz
  1  'x, y, z'
loop_
 _atom_site_type_symbol
 _atom_site_label
 _atom_site_symmetry_multiplicity
 _atom_site_fract_x
 _atom_site_fract_y
 _atom_site_fract_z
 _atom_site_occupancy
  V  V0  1  0.24680708  0.74207262  0.00424052  1
  V  V1  1  0.87188978  0.87546450  0.50647350  1
  V  V2  1  0.00345776  0.87511893  0.86760864  1
  V  V3  1  0.37635022  0.62716534  0.25259134  1
  V  V4  1  0.01183096  0.00257613  0.50412442  1
  V  V5  1  0.37729657  0.75259492  0.12741112  1
  V  V6  1  0.49840413  -0.00000320  0.49903986  1
  V  V7  1  0.49248458  0.37649009  0.37372505  1
  V  V8  1  0.51301612  0.75402984  0.25393474  1
  V  V9  1  0.87663924  -0.00037475  0.37686985  1
  V  V10  1  0.09021220  0.46142892  0.14663838  1
  V  V11  1  0.88022380  0.37183665  0.48823342  1
  V  V12  1  0.24162194  -0.00605930  0.74163742  1
  V  V13  1  0.12409698  0.12503636  0.00046541  1
  V  V14  1  0.25321236  0.62538642  0.86914242  1
  V  V15  1  0.62220225  -0.00439410  0.13253691  1
  V  V16  1  0.62803755  0.62001831  0.00608394  1
  V  V17  1  0.49644787  0.24509426  0.25029906  1
  V  V18  1  0.75363116  0.24872155  0.50377196  1
  V  V19  1  0.87497409  0.62804023  0.25139342  1
  V  V20  1  0.37849540  0.37199351  0.00063560  1
  V  V21  1  0.50214193  0.37282395  0.87304082  1
  V  V22  1  0.01076225  0.63373347  0.12018529  1
  V  V23  1  0.74532504  0.62612517  0.87675256  1
  V  V24  1  0.36162482  0.11894389  0.25247538  1
  V  V25  1  0.87206772  0.24708578  0.13155650  1
  V  V26  1  0.36469309  0.74495792  0.62976329  1
  V  V27  1  0.24820277  0.24902037  0.00226777  1
  V  V28  1  0.75199885  0.76053404  -0.00012412  1
  V  V29  1  0.62174648  0.25091489  0.37489478  1
  V  V30  1  -0.00358745  0.12527867  0.12878418  1
  V  V31  1  0.50049100  0.87626897  0.87906871  1
  V  V32  1  0.37483135  0.12558722  0.74657331  1
  V  V33  1  -0.00414081  -0.00544252  -0.00103529  1
  V  V34  1  0.37329622  0.37401901  0.51737951  1
  V  V35  1  0.00002807  0.25770102  0.73987325  1
  V  V36  1  0.74212768  0.50492155  0.24658449  1
  V  V37  1  0.74680475  0.87564015  0.13506456  1
  V  V38  1  0.73637935  0.63085517  0.38201348  1
  V  V39  1  0.87626264  0.12817440  0.74068185  1
  V  V40  1  0.62937135  0.87653357  0.74318121  1
  V  V41  1  0.24744015  0.75207570  0.50293342  1
  V  V42  1  0.01425004  0.12153716  0.62487832  1
  V  V43  1  0.62909564  0.50860541  0.61331037  1
  V  V44  1  0.50297496  0.62294204  0.12583804  1
  V  V45  1  0.11800701  0.62130407  0.50519109  1
  V  V46  1  0.50612394  0.49662849  0.00574044  1
  V  V47  1  0.87163638  0.49978409  0.87594024  1
  V  V48  1  0.00376737  0.37594869  0.87238672  1
  V  V49  1  0.49755213  0.24922411  0.74084229  1
  V  V50  1  0.49801884  0.11720129  0.12272041  1
  V  V51  1  0.12498191  0.25499552  0.87049686  1
  V  V52  1  0.25003864  0.50070468  0.24549264  1
  V  V53  1  0.50285984  0.62808700  0.61042721  1
  V  V54  1  0.12901445  0.88194892  0.25517792  1
  V  V55  1  0.75849192  0.37075519  0.62436412  1
  V  V56  1  0.12616323  0.00068046  0.12540658  1
  V  V57  1  0.62374192  0.75067423  0.87626981  1
  V  V58  1  0.87564549  0.62801487  0.75023376  1
  V  V59  1  0.74230792  0.38007227  0.12149705  1
  V  V60  1  0.25061879  0.88058730  0.12965511  1
  V  V61  1  0.37516134  -0.00039848  0.87412383  1
  V  V62  1  0.00058921  0.75415859  0.24956726  1
  V  V63  1  0.62105130  0.11556357  -0.00160946  1
  V  V64  1  0.62258829  0.37653896  0.24680900  1
  V  V65  1  0.62170230  0.12518121  0.50070886  1
  V  V66  1  0.87496779  -0.00518079  0.87416871  1
  V  V67  1  0.49688783  0.74332498  0.74898169  1
  V  V68  1  0.62593044  0.37112233  0.74591783  1
  V  V69  1  0.75027753  0.12422249  0.37315223  1
  V  V70  1  0.73644074  0.75152309  0.50042608  1
  V  V71  1  0.74411444  0.50161479  0.75118865  1
  V  V72  1  0.37185142  0.87377041  0.50526462  1
  V  V73  1  0.25377983  0.37426072  0.12941691  1
  V  V74  1  0.87507818  0.75918060  0.12200322  1
  V  V75  1  0.51279629  0.87403738  0.37204662  1
  V  V76  1  0.12242593  0.74821562  0.88000456  1
  V  V77  1  -0.00001357  0.50548923  0.00242060  1
  V  V78  1  0.87466092  0.74592354  0.62142310  1
  V  V79  1  0.12704172  0.75017438  0.37267062  1
  V  V80  1  0.11420953  0.26352594  0.36244877  1
  V  V81  1  0.37619131  0.87975247  0.00138488  1
  V  V82  1  0.35567832  0.00086170  0.37530490  1
  V  V83  1  0.75258035  0.12167573  0.87254348  1
  V  V84  1  0.74957488  0.24676999  -0.00117126  1
  Zn  Zn85  1  0.87694784  0.12664585  0.25479471  1
  Zn  Zn86  1  0.50172776  0.50364781  0.49621309  1
  Zn  Zn87  1  0.01433515  0.48958600  0.49269732  1
  Zn  Zn88  1  0.36503737  0.50106331  0.87738569  1
  Zn  Zn89  1  0.21560976  0.48431318  0.75873430  1
  Zn  Zn90  1  0.87848938  0.49854546  0.37360922  1
  Zn  Zn91  1  0.22449522  0.37546082  0.63250223  1
  Zn  Zn92  1  0.50020852  0.12473915  0.62411895  1
  Zn  Zn93  1  0.63160308  -0.00427440  0.62009392  1
  Zn  Zn94  1  0.75695043  -0.00587709  0.73940062  1
  Zn  Zn95  1  0.25036879  0.62287935  0.37644367  1
  Zn  Zn96  1  0.62646352  0.24437490  0.87202370  1
  Zn  Zn97  1  0.87321728  0.37335680  -0.00142637  1
  Zn  Zn98  1  0.24808158  0.24699102  0.50103500  1
  Zn  Zn99  1  0.14819247  0.84488530  0.72301334  1
  Zn  Zn100  1  0.00021298  0.87668495  0.37655115  1
  Zn  Zn101  1  0.24831682  0.12253988  0.87378856  1
  Zn  Zn102  1  0.37403100  0.24269856  0.12638642  1
  Zn  Zn103  1  0.16272246  0.11781871  0.45761770  1
  Zn  Zn104  1  0.37378203  0.50032659  0.37737020  1
  Zn  Zn105  1  0.00114995  0.74930501  0.74197524  1
  Zn  Zn106  1  0.74635135  -0.00462110  0.25540821  1
  Zn  Zn107  1  0.17942435  0.18974446  0.19827731  1
  Zn  Zn108  1  0.19387429  0.19206740  0.68313231  1
  Zn  Zn109  1  0.19017341  0.69081974  0.18942362  1
  Zn  Zn110  1  0.15888861  0.64108065  0.70745451  1
  Zn  Zn111  1  0.68512781  0.18568633  0.18769820  1
  Zn  Zn112  1  0.68763936  0.18359701  0.68554698  1
  Zn  Zn113  1  0.68845875  0.68850272  0.18694938  1
  Zn  Zn114  1  0.68869258  0.69073452  0.68458074  1
  Zn  Zn115  1  0.30468729  0.30574597  0.31523502  1
  Zn  Zn116  1  0.31327345  0.30933891  0.81520191  1
  Zn  Zn117  1  0.31458874  0.81589829  0.31649714  1
  Zn  Zn118  1  0.31340208  0.81026578  0.81373990  1
  Zn  Zn119  1  0.80772920  0.31061732  0.31071214  1
  Zn  Zn120  1  0.81574596  0.31171791  0.81218299  1
  Zn  Zn121  1  0.81133068  0.81228500  0.31720874  1
  Zn  Zn122  1  0.81371001  0.81405405  0.81305691  1
  Zn  Zn123  1  0.19099300  0.43127814  0.43396525  1
  Zn  Zn124  1  0.18135846  0.44069896  0.95117171  1
  Zn  Zn125  1  0.18453612  0.93755145  0.55990466  1
  Zn  Zn126  1  0.18849269  0.93378559  0.93576681  1
  Zn  Zn127  1  0.69230261  0.43849385  0.43274957  1
  Zn  Zn128  1  0.68259790  0.43695839  0.93662922  1
  Zn  Zn129  1  0.68880505  0.93685922  0.44065832  1
  Zn  Zn130  1  0.68787412  0.93873617  0.93795719  1
  Zn  Zn131  1  0.31222063  0.06125593  0.06171539  1
  Zn  Zn132  1  0.31537401  0.06622663  0.56724559  1
  Zn  Zn133  1  0.31722161  0.56058790  0.06407886  1
  Zn  Zn134  1  0.30958950  0.56144537  0.56378439  1
  Zn  Zn135  1  0.81154624  0.05862300  0.06087073  1
  Zn  Zn136  1  0.81336436  0.06119281  0.56301051  1
  Zn  Zn137  1  0.81599257  0.56648343  0.06481418  1
  Zn  Zn138  1  0.86628226  0.52685390  0.59572198  1
  Zn  Zn139  1  0.43604181  0.43757582  0.18753623  1
  Zn  Zn140  1  0.36169684  0.44978417  0.69431450  1
  Zn  Zn141  1  0.43747272  0.93986575  0.19314119  1
  Zn  Zn142  1  0.43903427  0.93530287  0.68761516  1
  Zn  Zn143  1  0.92095375  0.43972316  0.18351519  1
  Zn  Zn144  1  1.04947620  0.46053918  0.67094510  1
  Zn  Zn145  1  0.93637708  0.93882499  0.19028080  1
  Zn  Zn146  1  0.94023754  0.93595680  0.68520279  1
  Zn  Zn147  1  0.06224574  0.06423075  0.31293306  1
  Zn  Zn148  1  0.06323920  0.06745155  0.81189349  1
  Zn  Zn149  1  0.06017544  0.56111324  0.31661845  1
  Zn  Zn150  1  0.05750538  0.57263804  0.82905142  1
  Zn  Zn151  1  0.55820938  0.06047533  0.31365531  1
  Zn  Zn152  1  0.56046085  0.05913180  0.81332808  1
  Zn  Zn153  1  0.56230805  0.56198977  0.31157361  1
  Zn  Zn154  1  0.52136662  0.53210146  0.77731813  1
  Zn  Zn155  1  0.42671143  0.18661928  0.43751483  1
  Zn  Zn156  1  0.43834547  0.18659268  0.93491734  1
  Zn  Zn157  1  0.43702769  0.69073650  0.43513015  1
  Zn  Zn158  1  0.43706537  0.68840816  0.94029712  1
  Zn  Zn159  1  0.94632278  0.18945433  0.43731446  1
  Zn  Zn160  1  0.93710471  0.18517363  0.93694131  1
  Zn  Zn161  1  0.93545247  0.68803769  0.43393703  1
  Zn  Zn162  1  0.93425603  0.69013092  0.93871541  1
  Zn  Zn163  1  0.05599405  0.31251632  0.06661375  1
  Zn  Zn164  1  0.07141045  0.30350137  0.55319588  1
  Zn  Zn165  1  0.06387044  0.81729400  0.06005443  1
  Zn  Zn166  1  0.05449457  0.80649673  0.55845437  1
  Zn  Zn167  1  0.56396634  0.30290887  0.06369060  1
  Zn  Zn168  1  0.56151363  0.31738564  0.56122851  1
  Zn  Zn169  1  0.56324910  0.81236400  0.06373887  1
  Zn  Zn170  1  0.55672163  0.81314239  0.56219600  1
  O  O171  1  0.11647774  0.12128576  0.12074881  1
  O  O172  1  0.11332355  0.12258631  0.63371532  1
  O  O173  1  0.11029659  0.63778092  0.12580500  1
  O  O174  1  0.12156061  0.63706006  0.60272919  1
  O  O175  1  0.61887260  0.11710105  0.11843198  1
  O  O176  1  0.62094116  0.12390030  0.61036760  1
  O  O177  1  0.61918489  0.63157475  0.11350041  1
  O  O178  1  0.62184094  0.61795041  0.62661157  1
  O  O179  1  0.38843080  0.37707648  0.36456073  1
  O  O180  1  0.38599122  0.37226415  0.88898197  1
  O  O181  1  0.37953497  0.88517937  0.38535369  1
  O  O182  1  0.38079157  0.87786180  0.88283755  1
  O  O183  1  0.86614476  0.37368311  0.38391256  1
  O  O184  1  0.88031460  0.38397121  0.87724215  1
  O  O185  1  0.87664534  0.88247080  0.38410418  1
  O  O186  1  0.88347657  0.88686010  0.87095301  1
  O  O187  1  0.26082757  -0.00453965  0.38025755  1
  O  O188  1  0.26183461  -0.00084311  0.86969079  1
  O  O189  1  0.25107842  0.49989426  0.35660782  1
  O  O190  1  0.24203357  0.51297211  0.88005826  1
  O  O191  1  0.75609240  0.00759978  0.37660709  1
  O  O192  1  0.75955553  0.00372921  0.87229210  1
  O  O193  1  0.75192552  0.51438058  0.36543550  1
  O  O194  1  0.74942925  0.50854767  0.87284301  1
  O  O195  1  0.25366822  0.49153288  0.13275371  1
  O  O196  1  0.26615774  0.49519109  0.64378161  1
  O  O197  1  0.24345812  0.98738448  0.11855959  1
  O  O198  1  0.25281603  0.99665454  0.63665597  1
  O  O199  1  0.75463530  0.49103262  0.13078055  1
  O  O200  1  0.74689905  0.49112788  0.63481751  1
  O  O201  1  0.74386675  0.99115058  0.12740222  1
  O  O202  1  0.74480761  1.00233098  0.62724664  1
  O  O203  1  0.02116697  0.38746897  0.17643654  1
  O  O204  1  0.00041875  0.36969018  0.76570636  1
  O  O205  1  0.00879389  0.86972522  0.24997073  1
  O  O206  1  0.00012707  0.87048935  0.76113812  1
  O  O207  1  0.50498580  0.36787225  0.25129278  1
  O  O208  1  0.51026876  0.36418783  0.75982600  1
  O  O209  1  0.49370888  0.86661136  0.26069846  1
  O  O210  1  0.50731596  0.86591544  0.76026092  1
  O  O211  1  0.49326713  0.12730575  0.24249020  1
  O  O212  1  0.49606834  0.13252447  0.75188501  1
  O  O213  1  0.49427676  0.63153133  0.24571582  1
  O  O214  1  0.51157178  0.64200550  0.73969800  1
  O  O215  1  0.99392387  0.11485707  0.23159154  1
  O  O216  1  0.99391322  0.13158351  0.74464549  1
  O  O217  1  0.99167914  0.63426444  0.24143769  1
  O  O218  1  0.97780329  0.63348873  0.76832029  1
  O  O219  1  0.36679553  0.25403101  0.00097535  1
  O  O220  1  0.37630486  0.27245267  0.49105155  1
  O  O221  1  0.37015251  0.76122152  0.00757862  1
  O  O222  1  0.36719213  0.75637024  0.50398353  1
  O  O223  1  0.86088359  0.24664993  0.00527843  1
  O  O224  1  0.85972777  0.25585299  0.49236224  1
  O  O225  1  0.86354452  0.74749774  0.00992251  1
  O  O226  1  0.86856267  0.75609579  0.50324475  1
  O  O227  1  0.12284420  0.23288234  0.48460321  1
  O  O228  1  0.13065684  0.24514186  0.99497083  1
  O  O229  1  0.13133796  0.74744666  0.48909011  1
  O  O230  1  0.13670190  0.75830067  0.99419416  1
  O  O231  1  0.62832175  0.24322570  0.49359529  1
  O  O232  1  0.63597372  0.23586885  0.99938699  1
  O  O233  1  0.63773755  0.75702167  0.50278882  1
  O  O234  1  0.63143040  0.74368930  0.99475448  1
  O  O235  1  0.49830230  0.23520678  0.13217178  1
  O  O236  1  0.50590058  0.24873413  0.63823554  1
  O  O237  1  0.49396997  0.74591267  0.13130248  1
  O  O238  1  0.49394035  0.74504939  0.63053128  1
  O  O239  1  0.98347017  0.23604835  0.11139858  1
  O  O240  1  1.00221880  0.24240946  0.63781264  1
  O  O241  1  0.99138783  0.75218803  0.12618042  1
  O  O242  1  0.98000284  0.74684575  0.62428543  1
  O  O243  1  0.01092218  0.24633107  0.36798980  1
  O  O244  1  0.00609867  0.25799994  0.87352715  1
  O  O245  1  0.00756839  0.75310878  0.36572228  1
  O  O246  1  0.00698137  0.75930901  0.88107203  1
  O  O247  1  0.50352867  0.25502254  0.36809171  1
  O  O248  1  0.50641071  0.25988827  0.87372312  1
  O  O249  1  0.49484074  0.76232968  0.36634626  1
  O  O250  1  0.50306632  0.75378231  0.86855248  1
  O  O251  1  0.26658823  0.13025703  0.49509092  1
  O  O252  1  0.24428533  0.13331816  0.99951752  1
  O  O253  1  0.24435348  0.63697727  0.49644327  1
  O  O254  1  0.25369929  0.63901413  1.00505584  1
  O  O255  1  0.74251074  0.13067642  0.49111127  1
  O  O256  1  0.74400459  0.12843397  0.99297912  1
  O  O257  1  0.75081711  0.63805498  0.48418716  1
  O  O258  1  0.74431538  0.63374891  0.99879824  1
  O  O259  1  0.26199742  0.36940814  0.00305370  1
  O  O260  1  0.26704136  0.38367077  0.50739118  1
  O  O261  1  0.25827402  0.86624266  0.00667464  1
  O  O262  1  0.25766627  0.86236101  0.50426557  1
  O  O263  1  0.74653544  0.36558006  0.00481455  1
  O  O264  1  0.74597174  0.36277732  0.50454395  1
  O  O265  1  0.74523844  0.86455498  0.00836478  1
  O  O266  1  0.75775008  0.86039963  0.49142804  1
  O  O267  1  0.13091417  0.50620694  0.23469422  1
  O  O268  1  0.11404109  0.53118654  0.74044546  1
  O  O269  1  0.11879757  0.98719782  0.24191136  1
  O  O270  1  0.14329136  1.00225853  0.75904381  1
  O  O271  1  0.63571106  0.49642237  0.24819078  1
  O  O272  1  0.62587451  0.48927063  0.74244131  1
  O  O273  1  0.62736637  1.00565377  0.23692207  1
  O  O274  1  0.62220954  0.98474662  0.75025111  1
  O  O275  1  0.37480920  0.00326795  0.26620419  1
  O  O276  1  0.36897588  0.00237764  0.75643473  1
  O  O277  1  0.36983588  0.51307781  0.24755854  1
  O  O278  1  0.41279288  0.50291320  0.77546837  1
  O  O279  1  0.87095988  0.00015795  0.26494516  1
  O  O280  1  0.87688117  0.00760244  0.75749013  1
  O  O281  1  0.86180039  0.51041888  0.24937649  1
  O  O282  1  0.85963145  0.51355246  0.76144845  1
  O  O283  1  0.11544166  0.36491887  0.38504488  1
  O  O284  1  0.11728456  0.36765770  0.88462479  1
  O  O285  1  0.12313230  0.86294064  0.36412705  1
  O  O286  1  0.12055993  0.86251653  0.87098175  1
  O  O287  1  0.61651702  0.37088592  0.36662402  1
  O  O288  1  0.62333510  0.37040835  0.86207021  1
  O  O289  1  0.61199209  0.88073454  0.37533289  1
  O  O290  1  0.61639733  0.87125193  0.87192568  1
  O  O291  1  0.38400651  0.11974924  0.13010273  1
  O  O292  1  0.38373845  0.11924587  0.64283112  1
  O  O293  1  0.38403032  0.63148182  0.13111827  1
  O  O294  1  0.38836635  0.63596264  0.61892947  1
  O  O295  1  0.87763549  0.12970052  0.12545163  1
  O  O296  1  0.87937193  0.12422799  0.63838896  1
  O  O297  1  0.87703002  0.64047035  0.13502979  1
  O  O298  1  0.86064464  0.63235806  0.64146814  1
  O  O299  1  0.25263566  0.25422258  0.11491653  1
  O  O300  1  0.24474315  0.26205663  0.61698552  1
  O  O301  1  0.25664922  0.76037455  0.12044444  1
  O  O302  1  0.26249624  0.74469851  0.61996370  1
  O  O303  1  0.75274180  0.25266388  0.11724759  1
  O  O304  1  0.74163663  0.25622378  0.61360639  1
  O  O305  1  0.75467584  0.75777110  0.11952242  1
  O  O306  1  0.75637928  0.74655727  0.60730367  1
  O  O307  1  0.23312248  0.26069339  0.38400757  1
  O  O308  1  0.24233151  0.24876984  0.88648936  1
  O  O309  1  0.24405574  0.75059352  0.38345838  1
  O  O310  1  0.24508529  0.74347377  0.88385664  1
  O  O311  1  0.74076792  0.24224844  0.38045755  1
  O  O312  1  0.74944724  0.24170859  0.88248599  1
  O  O313  1  0.75056492  0.74019542  0.38227853  1
  O  O314  1  0.74694975  0.74603717  0.88406590  1
  O  O315  1  0.00460480  0.11359256  0.00536749  1
  O  O316  1  -0.01060445  0.11496837  0.51426119  1
  O  O317  1  -0.00602109  0.61868294  0.00751916  1
  O  O318  1  0.01734537  0.63193489  0.48901563  1
  O  O319  1  0.50931899  0.12886357  0.00843394  1
  O  O320  1  0.50438560  0.11810672  0.49788993  1
  O  O321  1  0.50817312  0.61597039  0.00229363  1
  O  O322  1  0.50299305  0.62826436  0.50618457  1
  O  O323  1  0.49475171  0.37769193  0.48854917  1
  O  O324  1  0.49794603  0.37597083  0.99997474  1
  O  O325  1  0.49345774  0.87982442  0.49103411  1
  O  O326  1  0.49232246  0.86731660  0.98765574  1
  O  O327  1  0.97966869  0.36557135  0.50078588  1
  O  O328  1  0.99299968  0.38166334  0.99096471  1
  O  O329  1  0.98996035  0.88574102  0.49683380  1
  O  O330  1  1.00561278  0.88801849  0.98789599  1
  O  O331  1  0.49967326  0.49102490  0.37456520  1
  O  O332  1  0.51342784  0.48111981  0.89285168  1
  O  O333  1  0.49606705  0.99214389  0.38494870  1
  O  O334  1  0.48622661  0.98859746  0.87085120  1
  O  O335  1  0.99115553  0.50425947  0.38072048  1
  O  O336  1  0.99546824  0.49507671  0.88570914  1
  O  O337  1  0.99194206  1.00160535  0.38366552  1
  O  O338  1  0.99671539  0.99418099  0.87846406  1
  O  O339  1  0.00269974  0.00221808  0.11497355  1
  O  O340  1  -0.00463052  0.00876787  0.61580629  1
  O  O341  1  -0.00918543  0.51970870  0.12100125  1
  O  O342  1  -0.02268564  0.50525601  0.60065052  1
  O  O343  1  0.50644362  0.00813970  0.12777198  1
  O  O344  1  0.50328303  -0.00183855  0.61013052  1
  O  O345  1  0.49768342  0.50442534  0.11357581  1
  O  O346  1  0.51461393  0.51641460  0.62225925  1
  O  O347  1  0.26381683  0.38488928  0.23707979  1
  O  O348  1  0.26940325  0.38540919  0.74854854  1
  O  O349  1  0.24307270  0.86929289  0.24013352  1
  O  O350  1  0.25084203  0.88785252  0.75497113  1
  O  O351  1  0.74355200  0.38396154  0.24230514  1
  O  O352  1  0.74389750  0.37589323  0.74362236  1
  O  O353  1  0.75026409  0.87350131  0.23895621  1
  O  O354  1  0.73249715  0.87514002  0.75846142  1
  O  O355  1  0.26374909  0.12269806  0.23599317  1
  O  O356  1  0.25845974  0.11459403  0.75248790  1
  O  O357  1  0.25985580  0.61927144  0.24649805  1
  O  O358  1  0.25589117  0.62784507  0.76907959  1
  O  O359  1  0.74909211  0.12416864  0.26420342  1
  O  O360  1  0.75819998  0.12568570  0.75755666  1
  O  O361  1  0.75497358  0.62200362  0.25292975  1
  O  O362  1  0.74956554  0.62516262  0.76260821  1
  O  O363  1  0.37918309  0.10932815  0.36597236  1
  O  O364  1  0.37496811  0.11382999  0.86906164  1
  O  O365  1  0.37290354  0.62348579  0.36440593  1
  O  O366  1  0.35611517  0.62517858  0.88952376  1
  O  O367  1  0.86616130  0.11867926  0.37677126  1
  O  O368  1  0.87235552  0.11436035  0.86756479  1
  O  O369  1  0.86572940  0.62952878  0.35989910  1
  O  O370  1  0.85962213  0.62288581  0.87562953  1
  O  O371  1  0.14909905  0.37110886  0.11010517  1
  O  O372  1  0.11082654  0.37848585  0.62577258  1
  O  O373  1  0.13352571  0.87946256  0.13128908  1
  O  O374  1  0.11662812  0.87384475  0.62181214  1
  O  O375  1  0.63565157  0.36677525  0.12967145  1
  O  O376  1  0.63038253  0.38135970  0.63370142  1
  O  O377  1  0.63219895  0.88461500  0.11978857  1
  O  O378  1  0.61813287  0.87279126  0.64107898  1
  O  O379  1  0.12959389  0.26666803  0.25897586  1
  O  O380  1  0.11681031  0.24243155  0.76618706  1
  O  O381  1  0.12096151  0.75950632  0.25313902  1
  O  O382  1  0.11915286  0.74000941  0.76082530  1
  O  O383  1  0.61730886  0.25361565  0.25533850  1
  O  O384  1  0.61985861  0.25474251  0.75081511  1
  O  O385  1  0.61179420  0.74916981  0.24522907  1
  O  O386  1  0.62072737  0.76021384  0.75729197  1
  O  O387  1  0.38012908  0.23791894  0.25000195  1
  O  O388  1  0.38699223  0.23714021  0.76265250  1
  O  O389  1  0.37889240  0.74210223  0.24541469  1
  O  O390  1  0.38436684  0.75640331  0.74133658  1
  O  O391  1  0.86734932  0.24716603  0.23569592  1
  O  O392  1  0.88902448  0.24046959  0.75900083  1
  O  O393  1  0.87985729  0.74730231  0.24357226  1
  O  O394  1  0.86845623  0.74558251  0.73984621  1
  O  O395  1  0.38109896  0.48905064  0.49547527  1
  O  O396  1  0.38513842  0.48967505  0.99686253  1
  O  O397  1  0.38060099  0.99233668  0.49393523  1
  O  O398  1  0.37083357  0.98674156  0.99259751  1
  O  O399  1  0.85634995  0.47604148  0.49176020  1
  O  O400  1  0.88252220  0.49998961  0.99571011  1
  O  O401  1  0.87731111  0.99284718  0.49135680  1
  O  O402  1  0.88501963  1.00451427  0.98897028  1
  O  O403  1  0.11976086  0.00476858  0.00470253  1
  O  O404  1  0.11483138  0.00754667  0.49495551  1
  O  O405  1  0.10407799  0.49158371  0.02674043  1
  O  O406  1  0.13193458  0.51782263  0.49085963  1
  O  O407  1  0.62984448  0.01031638  0.01001023  1
  O  O408  1  0.61697131  0.00786440  0.49835665  1
  O  O409  1  0.62126646  0.50938817  0.00301332  1
  O  O410  1  0.62698169  0.49361920  0.51124610  1
  O  O411  1  0.37188620  0.36953559  0.11465986  1
  O  O412  1  0.39436378  0.37339191  0.61405940  1
  O  O413  1  0.37021792  0.87502546  0.12010600  1
  O  O414  1  0.38529146  0.86475604  0.61111372  1
  O  O415  1  0.85756590  0.36470283  0.11966929  1
  O  O416  1  0.85777402  0.37215023  0.61102661  1
  O  O417  1  0.86668248  0.86615725  0.12797262  1
  O  O418  1  0.87537611  0.86776772  0.61285341  1
  O  O419  1  0.12839221  0.14080276  0.35399986  1
  O  O420  1  0.12560263  0.13394138  0.88515619  1
  O  O421  1  0.13050737  0.63944673  0.37210833  1
  O  O422  1  0.13723885  0.63839791  0.88404009  1
  O  O423  1  0.62929408  0.12760023  0.38380655  1
  O  O424  1  0.63154632  0.12088253  0.88217858  1
  O  O425  1  0.63799938  0.62605436  0.36973601  1
  O  O426  1  0.63636869  0.63195442  0.88800170  1
