# generated using pymatgen
data_V85Zn86O256
_symmetry_space_group_name_H-M   'P 1'
_cell_length_a   16.91640438
_cell_length_b   16.91227347
_cell_length_c   16.91921485
_cell_angle_alpha   90.02697954
_cell_angle_beta   89.94433369
_cell_angle_gamma   89.98627270
_symmetry_Int_Tables_number   1
_chemical_formula_structural   V85Zn86O256
_chemical_formula_sum   'V85 Zn86 O256'
_cell_volume   4840.49739396
_cell_formula_units_Z   1
loop_
 _symmetry_equiv_pos_site_id
 _symmetry_equiv_pos_as_xyz
  1  'x, y, z'
loop_
 _atom_site_type_symbol
 _atom_site_label
 _atom_site_symmetry_multiplicity
 _atom_site_fract_x
 _atom_site_fract_y
 _atom_site_fract_z
 _atom_site_occupancy
  V  V0  1  0.00150486  0.24152899  0.24699535  1
  V  V1  1  0.12305309  0.62666749  0.50058202  1
  V  V2  1  0.50070514  0.37584288  0.38343387  1
  V  V3  1  0.87738951  0.49841174  0.86515332  1
  V  V4  1  0.00480141  0.63905860  0.11917797  1
  V  V5  1  -0.00296766  0.87512095  0.37343427  1
  V  V6  1  0.88137995  0.62056500  0.25401179  1
  V  V7  1  0.62121402  0.25750429  0.87402058  1
  V  V8  1  0.87632019  0.75341170  0.12993011  1
  V  V9  1  0.24915648  0.24980449  -0.00595346  1
  V  V10  1  0.86459420  0.37836439  0.50270576  1
  V  V11  1  0.11865904  0.87403897  0.24606231  1
  V  V12  1  0.62304505  0.87412759  0.74541741  1
  V  V13  1  0.50182798  -0.00113030  0.00362964  1
  V  V14  1  0.37541293  0.87128442  0.00243659  1
  V  V15  1  0.11850045  0.13153531  -0.00211997  1
  V  V16  1  0.86991330  0.12563306  0.25454531  1
  V  V17  1  0.11561695  0.00918774  0.12700306  1
  V  V18  1  0.25309711  0.00722154  0.24951727  1
  V  V19  1  0.87998768  0.24585021  0.12169733  1
  V  V20  1  0.00302373  0.76537402  0.75518249  1
  V  V21  1  0.24397393  0.61940127  0.87586671  1
  V  V22  1  0.62523671  0.12057823  0.00391269  1
  V  V23  1  0.24812543  0.50067303  0.24923298  1
  V  V24  1  0.74525448  0.88105859  0.12457194  1
  V  V25  1  0.48839876  0.00033571  0.51033626  1
  V  V26  1  0.25369367  0.86664648  0.64029410  1
  V  V27  1  0.62554914  0.75075374  0.37492816  1
  V  V28  1  0.87489976  0.74571537  0.62948555  1
  V  V29  1  0.74547249  0.00389750  0.25607494  1
  V  V30  1  0.74871874  0.74972613  0.49989720  1
  V  V31  1  0.23922035  0.74602282  0.00125123  1
  V  V32  1  0.49938994  0.87356799  0.87414330  1
  V  V33  1  0.75630207  0.37531030  0.12350211  1
  V  V34  1  0.37386745  0.00512192  0.87190781  1
  V  V35  1  0.49708727  0.23625237  0.75028632  1
  V  V36  1  0.37076115  0.61496693  0.74753072  1
  V  V37  1  0.38152863  0.23802839  0.62448155  1
  V  V38  1  0.63338338  0.24199845  0.37517035  1
  V  V39  1  0.12573286  0.25051592  0.37633083  1
  V  V40  1  0.26194834  0.75961885  0.50174808  1
  V  V41  1  0.25729731  0.12945412  0.37425395  1
  V  V42  1  0.49337681  0.24723188  0.25295707  1
  V  V43  1  -0.00924755  0.50081232  -0.00108135  1
  V  V44  1  0.62186492  0.87984182  0.24734212  1
  V  V45  1  0.38004062  0.37356619  -0.00572400  1
  V  V46  1  0.62862272  0.62349071  -0.00254614  1
  V  V47  1  0.24960306  0.87620480  0.12656039  1
  V  V48  1  0.37439794  0.24644285  0.12641945  1
  V  V49  1  0.50017412  0.12013023  0.12951164  1
  V  V50  1  0.12274588  0.37709831  0.24885039  1
  V  V51  1  0.00283541  0.36476569  0.87625180  1
  V  V52  1  0.50174420  0.62125387  0.12377485  1
  V  V53  1  0.49032075  0.74875271  0.74214743  1
  V  V54  1  0.62514326  0.74826280  0.87202907  1
  V  V55  1  0.88402175  -0.00225010  0.87451838  1
  V  V56  1  0.25202287  0.25725194  0.50469165  1
  V  V57  1  0.88502219  0.12504479  0.74361492  1
  V  V58  1  0.75117979  0.12547448  0.87505330  1
  V  V59  1  0.49600952  0.62006036  0.62112985  1
  V  V60  1  -0.00440211  0.50165992  0.49760409  1
  V  V61  1  0.62074633  0.61951230  0.49750524  1
  V  V62  1  0.62923550  0.49436975  0.61893841  1
  V  V63  1  0.87453279  0.87559658  0.49967486  1
  V  V64  1  0.74994442  0.00009036  0.75023995  1
  V  V65  1  0.13111867  0.49360190  0.63320380  1
  V  V66  1  0.37579299  0.62297572  0.24866667  1
  V  V67  1  -0.00646980  0.37993720  0.37435652  1
  V  V68  1  0.24566981  0.00654328  0.75183501  1
  V  V69  1  0.87660223  0.25499127  0.62721815  1
  V  V70  1  0.37909843  0.49961574  0.38162336  1
  V  V71  1  0.87602816  0.87673392  -0.00258169  1
  V  V72  1  0.62553277  0.37670075  0.24938235  1
  V  V73  1  0.75464508  0.62260593  0.86220689  1
  V  V74  1  -0.00182524  0.62331729  0.63638849  1
  V  V75  1  0.00143523  0.00776205  0.50538028  1
  V  V76  1  0.50190531  0.49474299  -0.01071600  1
  V  V77  1  0.62473770  0.37379002  0.74487777  1
  V  V78  1  0.12129634  0.75099273  0.37234044  1
  V  V79  1  0.49997369  0.74965362  0.24969723  1
  V  V80  1  0.12343614  0.50401939  0.11654226  1
  V  V81  1  0.24868255  0.62553060  0.37538837  1
  V  V82  1  0.75307078  0.25377758  -0.00054877  1
  V  V83  1  0.62115312  0.01196300  0.62647978  1
  V  V84  1  0.37190036  -0.00645107  0.37838988  1
  Zn  Zn85  1  0.24905880  0.13015193  0.87266460  1
  Zn  Zn86  1  0.75739648  0.49915797  0.25212616  1
  Zn  Zn87  1  0.62810602  0.11927325  0.49486031  1
  Zn  Zn88  1  0.75602232  0.62016348  0.37404928  1
  Zn  Zn89  1  0.62977552  0.49866242  0.12269113  1
  Zn  Zn90  1  0.01330969  0.24513282  0.74345551  1
  Zn  Zn91  1  0.37535886  0.74810674  0.12495173  1
  Zn  Zn92  1  0.25067989  0.37590932  0.12433209  1
  Zn  Zn93  1  -0.00195259  0.00487180  0.00333267  1
  Zn  Zn94  1  0.75136390  0.74995649  -0.00177267  1
  Zn  Zn95  1  0.14008606  0.36326608  0.76497838  1
  Zn  Zn96  1  0.49297053  0.87316609  0.38102671  1
  Zn  Zn97  1  0.86762675  0.01061078  0.38152056  1
  Zn  Zn98  1  0.12588478  0.76053703  0.86610257  1
  Zn  Zn99  1  0.11991781  -0.00343390  0.63484906  1
  Zn  Zn100  1  0.37141119  0.49190034  0.86731119  1
  Zn  Zn101  1  0.75190272  0.24060581  0.50215321  1
  Zn  Zn102  1  0.26433931  0.38261046  0.64394282  1
  Zn  Zn103  1  0.75582462  0.49085703  0.74164099  1
  Zn  Zn104  1  0.12176274  0.12970857  0.50641154  1
  Zn  Zn105  1  0.74756991  0.87506818  0.62346644  1
  Zn  Zn106  1  0.37977701  0.38083052  0.50743587  1
  Zn  Zn107  1  0.18873779  0.18852619  0.18532562  1
  Zn  Zn108  1  0.18603511  0.18581421  0.68209038  1
  Zn  Zn109  1  0.18662664  0.68966026  0.18595496  1
  Zn  Zn110  1  0.18494852  0.68639416  0.68878698  1
  Zn  Zn111  1  0.68549129  0.18812460  0.18789265  1
  Zn  Zn112  1  0.69515940  0.19029166  0.68706822  1
  Zn  Zn113  1  0.69180786  0.68930817  0.18638462  1
  Zn  Zn114  1  0.68432744  0.68632789  0.68383274  1
  Zn  Zn115  1  0.31308330  0.31608473  0.31229562  1
  Zn  Zn116  1  0.31644690  0.31207735  0.80996264  1
  Zn  Zn117  1  0.30893528  0.81237583  0.31084651  1
  Zn  Zn118  1  0.31374622  0.80905707  0.81632287  1
  Zn  Zn119  1  0.81450806  0.31552770  0.31132801  1
  Zn  Zn120  1  0.81622164  0.31580478  0.81204001  1
  Zn  Zn121  1  0.81131728  0.81034213  0.31089436  1
  Zn  Zn122  1  0.81296081  0.81145853  0.81123028  1
  Zn  Zn123  1  0.18489560  0.43809784  0.43968358  1
  Zn  Zn124  1  0.18747563  0.43680211  0.93973557  1
  Zn  Zn125  1  0.18579973  0.93652428  0.43811910  1
  Zn  Zn126  1  0.18409517  0.93769782  0.93666726  1
  Zn  Zn127  1  0.68850249  0.44042206  0.43170374  1
  Zn  Zn128  1  0.69115132  0.43675618  0.93476458  1
  Zn  Zn129  1  0.68364915  0.93785569  0.43871108  1
  Zn  Zn130  1  0.68961166  0.93819260  0.93557050  1
  Zn  Zn131  1  0.31137358  0.06373741  0.06162576  1
  Zn  Zn132  1  0.29943596  0.06505652  0.56663053  1
  Zn  Zn133  1  0.31369549  0.56070962  0.05948582  1
  Zn  Zn134  1  0.31087316  0.56799447  0.56153233  1
  Zn  Zn135  1  0.81130903  0.06398613  0.06790723  1
  Zn  Zn136  1  0.80806894  0.06673601  0.56388021  1
  Zn  Zn137  1  0.81512616  0.56296840  0.06185153  1
  Zn  Zn138  1  0.81086014  0.56404001  0.56094835  1
  Zn  Zn139  1  0.43824541  0.43576113  0.18611121  1
  Zn  Zn140  1  0.44711727  0.43191780  0.68777043  1
  Zn  Zn141  1  0.43527610  0.93957187  0.19049339  1
  Zn  Zn142  1  0.42810486  0.93439828  0.68358738  1
  Zn  Zn143  1  0.93925999  0.43637900  0.18328079  1
  Zn  Zn144  1  0.94389518  0.43341467  0.68930280  1
  Zn  Zn145  1  0.93467477  0.93936134  0.18853448  1
  Zn  Zn146  1  0.93438095  0.93705558  0.68401062  1
  Zn  Zn147  1  0.06379830  0.06253384  0.31930783  1
  Zn  Zn148  1  0.06668614  0.06284292  0.81578874  1
  Zn  Zn149  1  0.05789228  0.56465247  0.30781127  1
  Zn  Zn150  1  0.06348175  0.56441774  0.81413463  1
  Zn  Zn151  1  0.55526217  0.06011262  0.31339032  1
  Zn  Zn152  1  0.56339327  0.06267674  0.81707780  1
  Zn  Zn153  1  0.56522193  0.55964964  0.31257086  1
  Zn  Zn154  1  0.56343164  0.56046160  0.80749972  1
  Zn  Zn155  1  0.43861821  0.18136810  0.44096798  1
  Zn  Zn156  1  0.43906565  0.18821540  0.93706718  1
  Zn  Zn157  1  0.43944112  0.68552693  0.43559126  1
  Zn  Zn158  1  0.43539022  0.68449071  0.93344666  1
  Zn  Zn159  1  0.93523819  0.19209787  0.43697531  1
  Zn  Zn160  1  0.93569508  0.18423026  0.93765934  1
  Zn  Zn161  1  0.94001502  0.69039066  0.43949650  1
  Zn  Zn162  1  0.93567497  0.68626722  0.93803981  1
  Zn  Zn163  1  0.06078522  0.31684776  0.05956575  1
  Zn  Zn164  1  0.05946993  0.31329960  0.56454589  1
  Zn  Zn165  1  0.07248249  0.82443736  0.03469478  1
  Zn  Zn166  1  0.06717380  0.81591553  0.56505853  1
  Zn  Zn167  1  0.56421792  0.31036475  0.06382235  1
  Zn  Zn168  1  0.56254267  0.30863946  0.56353665  1
  Zn  Zn169  1  0.56388551  0.80872866  0.06310205  1
  Zn  Zn170  1  0.55542266  0.81494969  0.56150655  1
  O  O171  1  0.12973028  0.11849258  0.11562023  1
  O  O172  1  0.14729666  0.10625031  0.61423341  1
  O  O173  1  0.11324730  0.61642814  0.13646300  1
  O  O174  1  0.11790278  0.61762772  0.61932973  1
  O  O175  1  0.61419273  0.13174748  0.11531167  1
  O  O176  1  0.62659541  0.11374555  0.62930078  1
  O  O177  1  0.62053337  0.62454510  0.11617018  1
  O  O178  1  0.61815874  0.61902520  0.61537502  1
  O  O179  1  0.38381013  0.38291891  0.37554809  1
  O  O180  1  0.37838635  0.37433597  0.89001933  1
  O  O181  1  0.37047195  0.88905995  0.37156633  1
  O  O182  1  0.38141521  0.87963145  0.88438069  1
  O  O183  1  0.88734979  0.36990061  0.38267546  1
  O  O184  1  0.88756208  0.38527360  0.87456997  1
  O  O185  1  0.88064568  0.87207404  0.38419966  1
  O  O186  1  0.86445441  0.88479617  0.88510576  1
  O  O187  1  0.25235843  0.00814024  0.37111670  1
  O  O188  1  0.25639428  -0.00508628  0.86720429  1
  O  O189  1  0.25415308  0.50643558  0.36965232  1
  O  O190  1  0.25258590  0.51542524  0.88418145  1
  O  O191  1  0.75093647  -0.00775012  0.36106620  1
  O  O192  1  0.75570249  0.00680387  0.86782432  1
  O  O193  1  0.74618975  0.50768416  0.36527037  1
  O  O194  1  0.75931986  0.50504767  0.87255577  1
  O  O195  1  0.24108682  0.50207873  0.12971215  1
  O  O196  1  0.23472933  0.49935375  0.61540348  1
  O  O197  1  0.24449716  0.99661935  0.13344867  1
  O  O198  1  0.25717128  0.98724348  0.64290917  1
  O  O199  1  0.75077679  0.48959645  0.12643840  1
  O  O200  1  0.73522738  0.50661085  0.62594152  1
  O  O201  1  0.75180082  0.98823352  0.13640374  1
  O  O202  1  0.73972880  0.99592200  0.63337944  1
  O  O203  1  0.00250492  0.36901467  0.25685557  1
  O  O204  1  0.00535686  0.37225896  0.76592109  1
  O  O205  1  0.01044346  0.88084275  0.25652492  1
  O  O206  1  -0.00229779  0.86482209  0.74785977  1
  O  O207  1  0.50693428  0.36591575  0.25410090  1
  O  O208  1  0.51622042  0.36023530  0.75040926  1
  O  O209  1  0.50633850  0.86907640  0.25067606  1
  O  O210  1  0.50308313  0.86713562  0.75182605  1
  O  O211  1  0.50310541  0.13350936  0.24072433  1
  O  O212  1  0.50502968  0.13683927  0.75118742  1
  O  O213  1  0.49815859  0.62789651  0.24133258  1
  O  O214  1  0.49501366  0.63133937  0.74192292  1
  O  O215  1  0.99621772  0.13716315  0.25467215  1
  O  O216  1  0.98886565  0.12530992  0.75820293  1
  O  O217  1  0.98909388  0.62741767  0.23734548  1
  O  O218  1  1.00106618  0.63078621  0.73829183  1
  O  O219  1  0.37220613  0.25496319  0.00738635  1
  O  O220  1  0.37394406  0.25131210  0.51015459  1
  O  O221  1  0.37446505  0.76101797  0.00049598  1
  O  O222  1  0.35981508  0.74476706  0.49428832  1
  O  O223  1  0.86469643  0.24233613  0.00883723  1
  O  O224  1  0.87525700  0.25915826  0.50852707  1
  O  O225  1  0.87182537  0.75872073  0.00816282  1
  O  O226  1  0.87041031  0.75640606  0.50765562  1
  O  O227  1  0.13325340  0.25221180  0.49558316  1
  O  O228  1  0.13361559  0.23997151  1.00933567  1
  O  O229  1  0.12940467  0.74667941  0.48824011  1
  O  O230  1  0.14179080  0.73121322  1.01920732  1
  O  O231  1  0.62445158  0.24890743  0.48478882  1
  O  O232  1  0.62920022  0.24152112  0.99268911  1
  O  O233  1  0.62778548  0.74679163  0.49226541  1
  O  O234  1  0.62634452  0.74097819  0.99078730  1
  O  O235  1  0.49478390  0.24267912  0.13288252  1
  O  O236  1  0.49180211  0.24772081  0.63397251  1
  O  O237  1  0.49922188  0.73712691  0.12999171  1
  O  O238  1  0.50627618  0.73764968  0.63288738  1
  O  O239  1  0.99050848  0.25839799  0.13358728  1
  O  O240  1  0.98540218  0.25027785  0.62544662  1
  O  O241  1  0.99495249  0.74339851  0.11349988  1
  O  O242  1  0.99502424  0.74506214  0.63061972  1
  O  O243  1  0.00658271  0.25810055  0.36784033  1
  O  O244  1  -0.00516186  0.26314111  0.87865043  1
  O  O245  1  0.00791233  0.76468385  0.37949684  1
  O  O246  1  -0.00562570  0.74380684  0.85648716  1
  O  O247  1  0.50358495  0.25509977  0.36808612  1
  O  O248  1  0.50756509  0.24459227  0.86294919  1
  O  O249  1  0.50632326  0.75293129  0.36819974  1
  O  O250  1  0.50591347  0.75428655  0.86664872  1
  O  O251  1  0.25193548  0.14046050  0.49033252  1
  O  O252  1  0.24177343  0.13342129  1.00049311  1
  O  O253  1  0.24173760  0.63522385  0.49385384  1
  O  O254  1  0.26452151  0.63498965  0.98559489  1
  O  O255  1  0.74224400  0.12573793  0.49717219  1
  O  O256  1  0.74231503  0.13299014  0.99893125  1
  O  O257  1  0.73836427  0.63289255  0.49755008  1
  O  O258  1  0.73848732  0.62385343  0.99464651  1
  O  O259  1  0.25834192  0.36835577  0.00416091  1
  O  O260  1  0.25511120  0.36400536  0.49583160  1
  O  O261  1  0.25949267  0.86692764  0.00758613  1
  O  O262  1  0.25040295  0.86180943  0.49734125  1
  O  O263  1  0.74418620  0.36155329  0.00718794  1
  O  O264  1  0.76305787  0.37274633  0.49284480  1
  O  O265  1  0.75479783  0.87613434  0.00874197  1
  O  O266  1  0.75744227  0.86931290  0.50002548  1
  O  O267  1  0.12755122  0.49505779  0.24262685  1
  O  O268  1  0.12043311  0.50114909  0.73413224  1
  O  O269  1  0.13227596  0.99597312  0.24613958  1
  O  O270  1  0.13999015  0.99574551  0.75578551  1
  O  O271  1  0.62281008  0.48550133  0.24430205  1
  O  O272  1  0.62492848  0.48984532  0.74050206  1
  O  O273  1  0.62752291  0.98775626  0.25530867  1
  O  O274  1  0.62591696  0.99280318  0.74575573  1
  O  O275  1  0.36016346  -0.00187653  0.25799892  1
  O  O276  1  0.36355935  -0.01024314  0.76284582  1
  O  O277  1  0.36853929  0.50346551  0.25603446  1
  O  O278  1  0.38525430  0.51103738  0.75063986  1
  O  O279  1  0.86566911  0.00901290  0.25193883  1
  O  O280  1  0.87097241  0.00527523  0.75453166  1
  O  O281  1  0.87937747  0.51653532  0.24336598  1
  O  O282  1  0.87481396  0.49723363  0.75937467  1
  O  O283  1  0.11615806  0.37033688  0.36872000  1
  O  O284  1  0.10834561  0.38238414  0.87872592  1
  O  O285  1  0.11766531  0.87086688  0.36684127  1
  O  O286  1  0.11178378  0.85482480  0.92656775  1
  O  O287  1  0.61772292  0.36695857  0.36718789  1
  O  O288  1  0.62614439  0.36150945  0.87241274  1
  O  O289  1  0.62274044  0.86345340  0.36774396  1
  O  O290  1  0.61919317  0.87174576  0.86422481  1
  O  O291  1  0.38421182  0.13761956  0.11859957  1
  O  O292  1  0.37076194  0.13906133  0.62335668  1
  O  O293  1  0.38459798  0.62411276  0.13016884  1
  O  O294  1  0.38313824  0.62163209  0.63174045  1
  O  O295  1  0.87274228  0.13692212  0.13654245  1
  O  O296  1  0.87404344  0.13318055  0.63522112  1
  O  O297  1  0.88257885  0.63499124  0.12868482  1
  O  O298  1  0.88471752  0.63474782  0.61761507  1
  O  O299  1  0.26018517  0.25152474  0.11809113  1
  O  O300  1  0.26417572  0.25636893  0.61885740  1
  O  O301  1  0.25610409  0.75723901  0.12196340  1
  O  O302  1  0.24310018  0.75636943  0.61294213  1
  O  O303  1  0.75600977  0.25462320  0.11835699  1
  O  O304  1  0.76813515  0.24968621  0.62222303  1
  O  O305  1  0.75783982  0.76166800  0.12156662  1
  O  O306  1  0.75724421  0.75079843  0.61968731  1
  O  O307  1  0.24753890  0.24586703  0.37876135  1
  O  O308  1  0.26076748  0.24742666  0.89043937  1
  O  O309  1  0.24315920  0.74582663  0.38310392  1
  O  O310  1  0.24692559  0.74366034  0.88481863  1
  O  O311  1  0.73494048  0.25465807  0.37146251  1
  O  O312  1  0.74596443  0.24545140  0.88295889  1
  O  O313  1  0.74163926  0.74503769  0.37955122  1
  O  O314  1  0.74442094  0.74055730  0.87501393  1
  O  O315  1  0.01360136  0.12593932  0.00080133  1
  O  O316  1  -0.00181033  0.11075476  0.49238774  1
  O  O317  1  -0.00206339  0.61654677  0.00834745  1
  O  O318  1  0.00452775  0.61942126  0.50614021  1
  O  O319  1  0.50702101  0.12027714  0.00684547  1
  O  O320  1  0.50807098  0.10535865  0.49484257  1
  O  O321  1  0.50938702  0.62019613  0.00470980  1
  O  O322  1  0.51083497  0.63038951  0.50658868  1
  O  O323  1  0.50072302  0.37228154  0.48632602  1
  O  O324  1  0.49534680  0.38410931  1.00794784  1
  O  O325  1  0.49966701  0.89221972  0.49754593  1
  O  O326  1  0.49594983  0.87943008  0.99784717  1
  O  O327  1  0.99412522  0.38362303  0.49226372  1
  O  O328  1  1.00089288  0.38662930  0.98934971  1
  O  O329  1  0.99242910  0.88123046  0.49365006  1
  O  O330  1  0.97777839  0.88625754  1.01410746  1
  O  O331  1  0.49061303  0.48945188  0.36683738  1
  O  O332  1  0.49765380  0.50567849  0.88686018  1
  O  O333  1  0.48756410  0.99673927  0.38202992  1
  O  O334  1  0.49314855  0.99289405  0.88145110  1
  O  O335  1  1.00502745  0.49223255  0.38342900  1
  O  O336  1  0.99349563  0.50092305  0.88072244  1
  O  O337  1  0.99344930  0.98946947  0.38176248  1
  O  O338  1  0.98696367  1.00226146  0.87851354  1
  O  O339  1  0.01247151  0.00153244  0.12899050  1
  O  O340  1  0.00130734  -0.00555342  0.60955370  1
  O  O341  1  0.00371888  0.50690829  0.11611916  1
  O  O342  1  0.00745734  0.50650221  0.61860147  1
  O  O343  1  0.49373608  0.01206688  0.12094980  1
  O  O344  1  0.50185832  -0.00339506  0.61761089  1
  O  O345  1  0.50318491  0.51039941  0.11839425  1
  O  O346  1  0.51194264  0.51268886  0.62740392  1
  O  O347  1  0.24195092  0.38225842  0.24745936  1
  O  O348  1  0.25138548  0.38391856  0.75687083  1
  O  O349  1  0.23794568  0.88283531  0.24633918  1
  O  O350  1  0.24853633  0.87277531  0.74471162  1
  O  O351  1  0.74306215  0.37445871  0.24163718  1
  O  O352  1  0.73312573  0.37257921  0.75649522  1
  O  O353  1  0.74137022  0.87924259  0.24392610  1
  O  O354  1  0.73943392  0.88044668  0.74923921  1
  O  O355  1  0.24453859  0.11750753  0.25848331  1
  O  O356  1  0.25359929  0.10899195  0.75477662  1
  O  O357  1  0.25532906  0.62138186  0.25622276  1
  O  O358  1  0.25937889  0.63284825  0.76166052  1
  O  O359  1  0.75483307  0.11564441  0.24435748  1
  O  O360  1  0.75979591  0.11935491  0.75632825  1
  O  O361  1  0.76758175  0.62573877  0.24528831  1
  O  O362  1  0.74241657  0.62045750  0.75999678  1
  O  O363  1  0.36344920  0.11592884  0.37616458  1
  O  O364  1  0.37246612  0.10826789  0.88604247  1
  O  O365  1  0.37197245  0.61732784  0.36780127  1
  O  O366  1  0.36724405  0.62175563  0.86463795  1
  O  O367  1  0.87644037  0.12863150  0.36016759  1
  O  O368  1  0.86830182  0.11738505  0.86954971  1
  O  O369  1  0.87973351  0.63618222  0.35712856  1
  O  O370  1  0.86335210  0.61560632  0.87969524  1
  O  O371  1  0.12436572  0.38503880  0.13229253  1
  O  O372  1  0.12515998  0.38926069  0.62332654  1
  O  O373  1  0.12942317  0.88311485  0.12995154  1
  O  O374  1  0.14661231  0.88246921  0.61411579  1
  O  O375  1  0.63642982  0.37129065  0.13257136  1
  O  O376  1  0.62174499  0.38284587  0.62878900  1
  O  O377  1  0.63191332  0.86915259  0.13465101  1
  O  O378  1  0.62266210  0.87984950  0.63646114  1
  O  O379  1  0.11817144  0.25656416  0.25256350  1
  O  O380  1  0.12595384  0.25038235  0.74811803  1
  O  O381  1  0.13083107  0.76015732  0.26238523  1
  O  O382  1  0.10869297  0.75152112  0.74859836  1
  O  O383  1  0.61714481  0.25812334  0.25756905  1
  O  O384  1  0.61907832  0.25063802  0.75504527  1
  O  O385  1  0.62095426  0.75601661  0.25617667  1
  O  O386  1  0.61708316  0.75661343  0.75299569  1
  O  O387  1  0.38543248  0.25491945  0.24330310  1
  O  O388  1  0.38981849  0.24986458  0.74254645  1
  O  O389  1  0.38199660  0.74243348  0.25057058  1
  O  O390  1  0.38671327  0.74082872  0.75465294  1
  O  O391  1  0.88117992  0.24521645  0.24373939  1
  O  O392  1  0.87822317  0.24380527  0.74179307  1
  O  O393  1  0.87482068  0.74571476  0.23578234  1
  O  O394  1  0.88272194  0.75543420  0.73621347  1
  O  O395  1  0.37011292  0.50140731  0.48548076  1
  O  O396  1  0.38496987  0.49003924  1.00123411  1
  O  O397  1  0.38107787  1.00607271  0.49655860  1
  O  O398  1  0.37849215  0.98766894  0.99633187  1
  O  O399  1  0.88698456  0.49431295  0.50648753  1
  O  O400  1  0.88518001  0.50205471  0.99165455  1
  O  O401  1  0.88272665  0.99289757  0.49993280  1
  O  O402  1  0.87100123  0.99790159  0.99208527  1
  O  O403  1  0.12538419  0.01346851  0.01131584  1
  O  O404  1  0.10675491  -0.00044017  0.49250625  1
  O  O405  1  0.11765206  0.49930324  0.01282090  1
  O  O406  1  0.11414688  0.50597520  0.50588979  1
  O  O407  1  0.62008379  0.01261253  -0.00608583  1
  O  O408  1  0.61580269  -0.00289155  0.51175805  1
  O  O409  1  0.61974782  0.50566093  0.00034028  1
  O  O410  1  0.62556361  0.50922103  0.50364734  1
  O  O411  1  0.37605052  0.36310187  0.11735508  1
  O  O412  1  0.37919423  0.36650869  0.62299651  1
  O  O413  1  0.36962975  0.87418287  0.11907615  1
  O  O414  1  0.35429327  0.86906507  0.62319028  1
  O  O415  1  0.86385234  0.36337379  0.13032291  1
  O  O416  1  0.87931555  0.36697684  0.61745069  1
  O  O417  1  0.86547825  0.87076888  0.12312362  1
  O  O418  1  0.87255486  0.86758048  0.61276053  1
  O  O419  1  0.13545009  0.13383434  0.37923473  1
  O  O420  1  0.13046435  0.12059527  0.89371337  1
  O  O421  1  0.12618721  0.63372263  0.37703814  1
  O  O422  1  0.14088372  0.63091825  0.87024874  1
  O  O423  1  0.62028981  0.14022695  0.36804620  1
  O  O424  1  0.63174672  0.13406598  0.88243055  1
  O  O425  1  0.62147196  0.63578289  0.37994848  1
  O  O426  1  0.63074126  0.62694525  0.88035616  1
