# generated using pymatgen
data_V85Zn86O256
_symmetry_space_group_name_H-M   'P 1'
_cell_length_a   16.93786234
_cell_length_b   16.94982363
_cell_length_c   16.96395069
_cell_angle_alpha   90.02184994
_cell_angle_beta   90.01328956
_cell_angle_gamma   90.05684980
_symmetry_Int_Tables_number   1
_chemical_formula_structural   V85Zn86O256
_chemical_formula_sum   'V85 Zn86 O256'
_cell_volume   4870.24183452
_cell_formula_units_Z   1
loop_
 _symmetry_equiv_pos_site_id
 _symmetry_equiv_pos_as_xyz
  1  'x, y, z'
loop_
 _atom_site_type_symbol
 _atom_site_label
 _atom_site_symmetry_multiplicity
 _atom_site_fract_x
 _atom_site_fract_y
 _atom_site_fract_z
 _atom_site_occupancy
  V  V0  1  0.24919219  0.73888718  0.00058160  1
  V  V1  1  0.62450289  0.87548002  0.24861052  1
  V  V2  1  0.74842976  0.13129721  0.37621048  1
  V  V3  1  0.38697884  0.00078972  0.87603389  1
  V  V4  1  0.87953285  0.37439438  0.00199248  1
  V  V5  1  0.87674208  0.50945338  0.87990297  1
  V  V6  1  0.25121669  0.38027061  0.12021313  1
  V  V7  1  0.25586884  0.25251099  -0.00069656  1
  V  V8  1  -0.00086857  0.37146292  0.86350283  1
  V  V9  1  0.00088314  0.75234797  0.24535097  1
  V  V10  1  0.13026282  0.00110443  0.12208961  1
  V  V11  1  0.50007416  0.87559521  0.37546877  1
  V  V12  1  0.75078214  0.12338335  0.87616120  1
  V  V13  1  0.50331325  0.85599999  0.87078532  1
  V  V14  1  0.12900236  0.49969729  0.60691949  1
  V  V15  1  0.75023962  0.24796218  0.00102940  1
  V  V16  1  0.68985623  0.44395824  0.29315849  1
  V  V17  1  0.49761644  0.24934116  0.74813645  1
  V  V18  1  0.74961583  0.25351954  0.50056937  1
  V  V19  1  0.74944131  0.37429048  0.63194272  1
  V  V20  1  0.87860940  0.12498281  0.25087949  1
  V  V21  1  0.62333799  0.24978084  0.87778766  1
  V  V22  1  0.01137210  0.62156078  0.12163225  1
  V  V23  1  0.73261597  0.74614685  0.00243508  1
  V  V24  1  0.87329137  0.75031201  0.12310033  1
  V  V25  1  0.37944359  0.73880487  0.63759252  1
  V  V26  1  -0.00039301  -0.00244860  -0.00070744  1
  V  V27  1  0.75104997  0.50090772  0.75691727  1
  V  V28  1  0.26388236  0.36554585  0.62636244  1
  V  V29  1  0.74669961  0.87858132  0.12191392  1
  V  V30  1  0.37857454  0.25487014  0.13094750  1
  V  V31  1  0.24913232  0.12122737  0.87311066  1
  V  V32  1  0.49393205  0.74255476  0.25013394  1
  V  V33  1  0.88435365  0.12830402  0.75169399  1
  V  V34  1  0.36929613  0.50094175  0.86233402  1
  V  V35  1  0.24915169  0.87113770  0.62528989  1
  V  V36  1  0.48767853  0.37128593  0.88301672  1
  V  V37  1  0.88637287  0.25589470  0.63165674  1
  V  V38  1  0.73471163  0.62558126  0.88675346  1
  V  V39  1  0.13127262  0.25202639  0.37895089  1
  V  V40  1  0.75578484  0.75637713  0.50208965  1
  V  V41  1  0.24905462  0.62083109  0.85745517  1
  V  V42  1  -0.00220810  0.86998454  0.86975188  1
  V  V43  1  0.62865212  -0.00604344  0.62601389  1
  V  V44  1  0.12339516  0.24929273  0.86797660  1
  V  V45  1  0.37153588  0.87590276  -0.00185685  1
  V  V46  1  0.13133850  0.38429262  0.74733814  1
  V  V47  1  0.37918185  0.50507896  0.37377500  1
  V  V48  1  0.00457749  0.25202320  0.24929884  1
  V  V49  1  0.62663311  0.50473962  0.11673566  1
  V  V50  1  0.49735744  0.13182405  0.62218426  1
  V  V51  1  0.00286308  0.37871984  0.38314393  1
  V  V52  1  0.49853037  0.62693963  0.11801510  1
  V  V53  1  0.87735403  0.25147786  0.12605698  1
  V  V54  1  0.74491906  0.37876251  0.12591795  1
  V  V55  1  0.12171027  0.86924008  0.74829747  1
  V  V56  1  0.61042543  0.11893615  0.00460510  1
  V  V57  1  0.50149644  0.00250393  0.50088724  1
  V  V58  1  0.62410844  0.75027521  0.37410357  1
  V  V59  1  0.25708249  0.13257397  0.37545215  1
  V  V60  1  0.51339639  0.26176831  0.25105918  1
  V  V61  1  0.74988289  0.00070565  0.24990904  1
  V  V62  1  0.37460653  0.36288643  0.49874600  1
  V  V63  1  0.01442828  0.49895049  0.00637662  1
  V  V64  1  0.12764707  0.75249202  0.37628241  1
  V  V65  1  0.43363155  0.08590465  0.19381896  1
  V  V66  1  0.37254040  0.12699974  0.74272453  1
  V  V67  1  0.37606991  0.00454805  0.37466334  1
  V  V68  1  0.75007373  -0.00624342  0.74914129  1
  V  V69  1  0.62851876  0.13003157  0.50183157  1
  V  V70  1  0.48745274  0.49710413  0.00212408  1
  V  V71  1  0.74539133  0.62665839  0.36928579  1
  V  V72  1  0.25060109  0.00496282  0.24667322  1
  V  V73  1  0.12883200  0.87719611  0.24426458  1
  V  V74  1  0.36775220  0.74828415  0.12570295  1
  V  V75  1  0.37408214  0.87270022  0.50267419  1
  V  V76  1  0.12079160  0.74327093  0.88019534  1
  V  V77  1  0.12813006  0.12515262  0.50185374  1
  V  V78  1  0.12714594  0.38382295  0.24513280  1
  V  V79  1  0.61885489  0.37325438  0.75286421  1
  V  V80  1  0.87133195  0.61782206  0.24576519  1
  V  V81  1  0.49673284  0.50767894  0.51290682  1
  V  V82  1  0.87771913  0.87631482  0.51184817  1
  V  V83  1  0.25669091  0.50560746  0.24726480  1
  V  V84  1  0.87957385  0.50195427  0.37982577  1
  Zn  Zn85  1  0.25599223  0.62932711  0.36816053  1
  Zn  Zn86  1  0.62372904  0.86461509  0.75208973  1
  Zn  Zn87  1  -0.01984235  0.61045088  0.58175744  1
  Zn  Zn88  1  0.55750618  0.69141647  0.69806245  1
  Zn  Zn89  1  0.87440593  -0.00315264  0.87513087  1
  Zn  Zn90  1  0.00515347  0.12621029  0.62735522  1
  Zn  Zn91  1  0.60817251  0.00357225  0.12325866  1
  Zn  Zn92  1  0.00267946  0.12505640  0.12387149  1
  Zn  Zn93  1  -0.00213613  0.87932574  0.37325223  1
  Zn  Zn94  1  0.87708494  -0.00242034  0.37701670  1
  Zn  Zn95  1  0.61793269  0.51576769  0.63861679  1
  Zn  Zn96  1  0.87168288  0.87407640  -0.00256041  1
  Zn  Zn97  1  -0.07911937  0.67709643  0.71495501  1
  Zn  Zn98  1  0.24944335  -0.00253713  0.74772305  1
  Zn  Zn99  1  0.12407449  0.12627449  -0.00097872  1
  Zn  Zn100  1  0.00134990  0.00160178  0.49983139  1
  Zn  Zn101  1  0.12433409  0.61796286  0.48551592  1
  Zn  Zn102  1  0.25109513  0.74547452  0.49745532  1
  Zn  Zn103  1  0.51322900  0.37699099  0.37585723  1
  Zn  Zn104  1  0.12338126  -0.00286099  0.62364897  1
  Zn  Zn105  1  0.87948985  0.38202471  0.50717258  1
  Zn  Zn106  1  0.62277180  0.63312479  0.51700015  1
  Zn  Zn107  1  0.18935949  0.18823508  0.18838235  1
  Zn  Zn108  1  0.18892205  0.19311312  0.68646553  1
  Zn  Zn109  1  0.18943863  0.68832318  0.18893014  1
  Zn  Zn110  1  0.09326369  0.67561759  0.69618813  1
  Zn  Zn111  1  0.68860851  0.18654494  0.18391862  1
  Zn  Zn112  1  0.68943713  0.18585349  0.68882404  1
  Zn  Zn113  1  0.68335148  0.68621035  0.18670056  1
  Zn  Zn114  1  0.72700126  0.69963047  0.70101018  1
  Zn  Zn115  1  0.31905584  0.31637717  0.30966516  1
  Zn  Zn116  1  0.31238842  0.31122530  0.80815204  1
  Zn  Zn117  1  0.31121578  0.81866798  0.31066327  1
  Zn  Zn118  1  0.30961219  0.81033557  0.81296772  1
  Zn  Zn119  1  0.81867866  0.30970916  0.31682777  1
  Zn  Zn120  1  0.81412974  0.31279534  0.81429307  1
  Zn  Zn121  1  0.81594312  0.81386557  0.31361824  1
  Zn  Zn122  1  0.81076713  0.80787630  0.81527185  1
  Zn  Zn123  1  0.19829244  0.43249354  0.43373748  1
  Zn  Zn124  1  0.19073565  0.43618801  0.93625760  1
  Zn  Zn125  1  0.18806867  0.93945843  0.43485583  1
  Zn  Zn126  1  0.18949162  0.93352864  0.93646605  1
  Zn  Zn127  1  0.68708736  0.44472911  0.45830140  1
  Zn  Zn128  1  0.68392850  0.43623117  0.94209899  1
  Zn  Zn129  1  0.69100503  0.93943738  0.43726830  1
  Zn  Zn130  1  0.68233361  0.93882453  0.93748947  1
  Zn  Zn131  1  0.30843519  0.06056344  0.05458073  1
  Zn  Zn132  1  0.30884491  0.06071747  0.56072837  1
  Zn  Zn133  1  0.31459006  0.56283747  0.06225481  1
  Zn  Zn134  1  0.29933084  0.55979148  0.55667806  1
  Zn  Zn135  1  0.81395697  0.06148168  0.06186316  1
  Zn  Zn136  1  0.81644303  0.06305395  0.56691679  1
  Zn  Zn137  1  0.81450623  0.56048817  0.06245376  1
  Zn  Zn138  1  0.80272979  0.56711423  0.56424086  1
  Zn  Zn139  1  0.43724803  0.43548731  0.18700996  1
  Zn  Zn140  1  0.42465637  0.55982883  0.68898749  1
  Zn  Zn141  1  0.43180242  0.91986487  0.18749325  1
  Zn  Zn142  1  0.43927822  0.93910740  0.68972848  1
  Zn  Zn143  1  0.93821516  0.43927290  0.19032109  1
  Zn  Zn144  1  0.92747822  0.47276125  0.67838842  1
  Zn  Zn145  1  0.93843509  0.93785628  0.18492804  1
  Zn  Zn146  1  0.93994160  0.94150155  0.68634838  1
  Zn  Zn147  1  0.06346208  0.06275003  0.31672036  1
  Zn  Zn148  1  0.06417868  0.05559350  0.81167068  1
  Zn  Zn149  1  0.06136017  0.56564691  0.31242439  1
  Zn  Zn150  1  0.06621374  0.55631828  0.82304081  1
  Zn  Zn151  1  0.57065083  0.06383533  0.31748194  1
  Zn  Zn152  1  0.56422838  0.06278804  0.81090721  1
  Zn  Zn153  1  0.55421838  0.56679996  0.31606151  1
  Zn  Zn154  1  0.56071442  0.55807854  0.82074229  1
  Zn  Zn155  1  0.44520507  0.19018806  0.42775868  1
  Zn  Zn156  1  0.43233719  0.18812624  0.93762993  1
  Zn  Zn157  1  0.43635031  0.68540749  0.43964124  1
  Zn  Zn158  1  0.43408325  0.68110404  0.93513573  1
  Zn  Zn159  1  0.93889043  0.19164081  0.43992898  1
  Zn  Zn160  1  0.94010998  0.18602140  0.93690390  1
  Zn  Zn161  1  0.93900962  0.69407214  0.42948568  1
  Zn  Zn162  1  0.93705515  0.68679756  0.94289248  1
  Zn  Zn163  1  0.06771307  0.31162033  0.05974030  1
  Zn  Zn164  1  0.06822261  0.31335460  0.56265345  1
  Zn  Zn165  1  0.06469119  0.81472237  0.06126930  1
  Zn  Zn166  1  0.05238530  0.80120854  0.56612092  1
  Zn  Zn167  1  0.56232363  0.31072887  0.06513709  1
  Zn  Zn168  1  0.56083289  0.31781664  0.56383336  1
  Zn  Zn169  1  0.55438093  0.81856626  0.05975381  1
  Zn  Zn170  1  0.56201057  0.81241087  0.56147525  1
  O  O171  1  0.12315527  0.11695322  0.12238947  1
  O  O172  1  0.12713287  0.12713224  0.61547395  1
  O  O173  1  0.11004239  0.63054716  0.12977048  1
  O  O174  1  0.14030888  0.60303599  0.61791803  1
  O  O175  1  0.62980178  0.12251892  0.10868448  1
  O  O176  1  0.61846677  0.11912947  0.62012819  1
  O  O177  1  0.61112323  0.61746252  0.12868582  1
  O  O178  1  0.63849489  0.62960493  0.63204518  1
  O  O179  1  0.37733850  0.38411192  0.38647245  1
  O  O180  1  0.38283873  0.37682836  0.87407663  1
  O  O181  1  0.38141121  0.88416891  0.38080804  1
  O  O182  1  0.38220096  0.88197261  0.87565087  1
  O  O183  1  0.88563953  0.38429291  0.37386581  1
  O  O184  1  0.88268577  0.37523977  0.88696449  1
  O  O185  1  0.87807424  0.87874160  0.38140957  1
  O  O186  1  0.88362814  0.87299717  0.87742945  1
  O  O187  1  0.25851447  0.00815156  0.36637678  1
  O  O188  1  0.25472486  0.01123082  0.87314843  1
  O  O189  1  0.26082161  0.49895069  0.36374504  1
  O  O190  1  0.25547205  0.51142620  0.88095121  1
  O  O191  1  0.75279841  0.01009229  0.36498742  1
  O  O192  1  0.75123049  0.00912811  0.87195608  1
  O  O193  1  0.74917937  0.50467976  0.36704915  1
  O  O194  1  0.75617486  0.50434467  0.88062970  1
  O  O195  1  0.25833981  0.48825380  0.12999120  1
  O  O196  1  0.23982657  0.48035589  0.61857650  1
  O  O197  1  0.23907161  1.00626725  0.13041598  1
  O  O198  1  0.24757727  0.98501836  0.62562464  1
  O  O199  1  0.74028223  0.49397796  0.12239082  1
  O  O200  1  0.74620390  0.48749903  0.63974100  1
  O  O201  1  0.75098223  0.98927493  0.13031938  1
  O  O202  1  0.74046711  1.00917153  0.63625760  1
  O  O203  1  0.00937161  0.37113010  0.25456323  1
  O  O204  1  0.00759396  0.37985294  0.76297086  1
  O  O205  1  0.00920427  0.86981187  0.24602106  1
  O  O206  1  0.00524680  0.87656160  0.76033815  1
  O  O207  1  0.50459335  0.36616835  0.25121016  1
  O  O208  1  0.51113524  0.36618116  0.76292405  1
  O  O209  1  0.50616678  0.86657118  0.25674098  1
  O  O210  1  0.50097510  0.88001136  0.76680253  1
  O  O211  1  0.49967595  0.13468629  0.25737778  1
  O  O212  1  0.49399882  0.12878155  0.74131529  1
  O  O213  1  0.49974581  0.63846136  0.24303188  1
  O  O214  1  0.49617085  0.61638212  0.75366589  1
  O  O215  1  0.99260576  0.13092343  0.24960096  1
  O  O216  1  0.98756921  0.12146592  0.75342409  1
  O  O217  1  0.98991357  0.63182615  0.24195371  1
  O  O218  1  1.00947090  0.62502988  0.75825893  1
  O  O219  1  0.36256986  0.24513668  0.00910452  1
  O  O220  1  0.38727652  0.26494412  0.49457789  1
  O  O221  1  0.36823700  0.75232549  0.00585060  1
  O  O222  1  0.37749335  0.76415044  0.49963549  1
  O  O223  1  0.87217862  0.25656919  0.00617709  1
  O  O224  1  0.86543429  0.25439745  0.51115908  1
  O  O225  1  0.86573192  0.75021784  0.01409954  1
  O  O226  1  0.86469476  0.76068444  0.49053205  1
  O  O227  1  0.12493466  0.24677333  0.48456468  1
  O  O228  1  0.13700815  0.24832936  0.98875580  1
  O  O229  1  0.12539732  0.75828190  0.48135511  1
  O  O230  1  0.13559139  0.75845850  0.98959426  1
  O  O231  1  0.64105135  0.24694342  0.50932628  1
  O  O232  1  0.63132674  0.24065237  0.99740763  1
  O  O233  1  0.63291143  0.75277571  0.48896227  1
  O  O234  1  0.63376123  0.75099961  1.01182887  1
  O  O235  1  0.49095678  0.25311083  0.13508449  1
  O  O236  1  0.50568076  0.23809772  0.62944044  1
  O  O237  1  0.49300067  0.74456358  0.12988740  1
  O  O238  1  0.48487011  0.75036846  0.62127999  1
  O  O239  1  0.99520995  0.24880720  0.12958998  1
  O  O240  1  0.98911604  0.25124262  0.62211803  1
  O  O241  1  0.99131030  0.74501690  0.12499464  1
  O  O242  1  1.00717167  0.71893146  0.62757764  1
  O  O243  1  0.00745588  0.25888738  0.36757405  1
  O  O244  1  0.01134014  0.25948781  0.88338782  1
  O  O245  1  0.00956222  0.75691358  0.35978591  1
  O  O246  1  0.00816843  0.75791832  0.88674383  1
  O  O247  1  0.50349290  0.25852855  0.35803587  1
  O  O248  1  0.50239694  0.25487570  0.87210707  1
  O  O249  1  0.50304217  0.75355705  0.36761431  1
  O  O250  1  0.49512126  0.75718902  0.87390536  1
  O  O251  1  0.24044086  0.12258712  0.48841597  1
  O  O252  1  0.24616876  0.13230504  0.98860495  1
  O  O253  1  0.24243465  0.62883786  0.48680883  1
  O  O254  1  0.25178256  0.63637381  0.99976636  1
  O  O255  1  0.75125700  0.13329453  0.49407610  1
  O  O256  1  0.74913522  0.12919948  0.99036579  1
  O  O257  1  0.74954110  0.63616438  0.48624561  1
  O  O258  1  0.75090057  0.63010745  0.99531809  1
  O  O259  1  0.24552471  0.36597831  0.00962051  1
  O  O260  1  0.26736376  0.37281664  0.50404148  1
  O  O261  1  0.26432495  0.86038026  -0.01328241  1
  O  O262  1  0.25916094  0.87567163  0.50430843  1
  O  O263  1  0.75804610  0.36891432  0.00749554  1
  O  O264  1  0.75276119  0.37032676  0.51442072  1
  O  O265  1  0.74806678  0.86864205  0.00726068  1
  O  O266  1  0.76082600  0.86515287  0.49044784  1
  O  O267  1  0.13367223  0.48794278  0.25500732  1
  O  O268  1  0.12932138  0.48562169  0.75135139  1
  O  O269  1  0.13130792  0.99727193  0.24284153  1
  O  O270  1  0.12843144  0.98384867  0.74833402  1
  O  O271  1  0.62212333  0.50321590  0.24028170  1
  O  O272  1  0.63173919  0.48716836  0.75657027  1
  O  O273  1  0.63693556  0.99884869  0.24593606  1
  O  O274  1  0.63260491  1.00239468  0.74180396  1
  O  O275  1  0.37236310  0.00831406  0.24882384  1
  O  O276  1  0.37244918  0.01143958  0.75710944  1
  O  O277  1  0.36862690  0.49138362  0.25989215  1
  O  O278  1  0.37115289  0.49118838  0.76346157  1
  O  O279  1  0.86549188  0.00816648  0.24777602  1
  O  O280  1  0.86649992  0.00984535  0.75103971  1
  O  O281  1  0.87457832  0.51238209  0.25617042  1
  O  O282  1  0.86133398  0.48075801  0.77212065  1
  O  O283  1  0.12179900  0.36947933  0.36780435  1
  O  O284  1  0.12150137  0.36852191  0.86844628  1
  O  O285  1  0.12516955  0.87252508  0.36013030  1
  O  O286  1  0.11767487  0.86771447  0.86949727  1
  O  O287  1  0.63664198  0.39169061  0.36612202  1
  O  O288  1  0.61838529  0.36729807  0.87281132  1
  O  O289  1  0.61976536  0.87175652  0.36869934  1
  O  O290  1  0.60554001  0.87754213  0.87902268  1
  O  O291  1  0.37091813  0.13250944  0.12440893  1
  O  O292  1  0.38296628  0.11887014  0.63132567  1
  O  O293  1  0.38762614  0.63387996  0.12286982  1
  O  O294  1  0.36583367  0.63508414  0.62164843  1
  O  O295  1  0.87503623  0.13037201  0.13685899  1
  O  O296  1  0.87606120  0.13721593  0.63516802  1
  O  O297  1  0.87741576  0.63125289  0.13130711  1
  O  O298  1  0.88603770  0.58197203  0.63855363  1
  O  O299  1  0.25689149  0.25566952  0.11909756  1
  O  O300  1  0.24717365  0.26637893  0.61981455  1
  O  O301  1  0.26050542  0.74590701  0.11924395  1
  O  O302  1  0.26818744  0.76445921  0.61561052  1
  O  O303  1  0.75731624  0.25800347  0.12075830  1
  O  O304  1  0.75732637  0.26053219  0.62465736  1
  O  O305  1  0.75324750  0.75973462  0.12352929  1
  O  O306  1  0.74769634  0.75239832  0.59841716  1
  O  O307  1  0.24523601  0.24278718  0.36548574  1
  O  O308  1  0.24753793  0.24158397  0.88081821  1
  O  O309  1  0.24319619  0.75159197  0.37152923  1
  O  O310  1  0.24635815  0.73747374  0.88076893  1
  O  O311  1  0.75652874  0.24430046  0.38731943  1
  O  O312  1  0.74467930  0.24345919  0.88185749  1
  O  O313  1  0.74283171  0.74364225  0.37529164  1
  O  O314  1  0.75192463  0.73283635  0.88924628  1
  O  O315  1  0.00291705  0.11102929  -0.00043641  1
  O  O316  1  0.01522252  0.12878956  0.49850296  1
  O  O317  1  -0.00588259  0.61175879  0.01005678  1
  O  O318  1  0.00987163  0.62184751  0.47612976  1
  O  O319  1  0.51213922  0.13016609  -0.00217837  1
  O  O320  1  0.50656305  0.12342516  0.50412109  1
  O  O321  1  0.49666181  0.61327043  0.00703283  1
  O  O322  1  0.50304702  0.61191186  0.49771822  1
  O  O323  1  0.49381540  0.38614461  0.49886090  1
  O  O324  1  0.50422837  0.37997975  0.99175233  1
  O  O325  1  0.49513069  0.88294634  0.49353617  1
  O  O326  1  0.48393888  0.87068339  0.98542462  1
  O  O327  1  0.99914223  0.37074810  0.48620921  1
  O  O328  1  0.99381116  0.37918671  0.99796030  1
  O  O329  1  0.98641288  0.87198009  0.49910277  1
  O  O330  1  0.99924534  0.88465243  0.99353780  1
  O  O331  1  0.49516219  0.49558298  0.38375473  1
  O  O332  1  0.48993260  0.48998152  0.88476508  1
  O  O333  1  0.49603929  0.99797785  0.38029964  1
  O  O334  1  0.48819716  1.00395835  0.87464577  1
  O  O335  1  0.99030632  0.49071419  0.36479243  1
  O  O336  1  0.99274603  0.48988126  0.88739999  1
  O  O337  1  0.99616886  0.99847648  0.38008514  1
  O  O338  1  0.99898446  0.98905645  0.88235597  1
  O  O339  1  0.01026494  0.00103403  0.11735434  1
  O  O340  1  0.00485494  0.00731583  0.61940129  1
  O  O341  1  -0.00509146  0.50853204  0.11815718  1
  O  O342  1  0.02535340  0.49396179  0.62313778  1
  O  O343  1  0.49019120  0.01235431  0.14368399  1
  O  O344  1  0.50641319  0.01181726  0.61948461  1
  O  O345  1  0.50233176  0.50605558  0.11986182  1
  O  O346  1  0.49627160  0.50021454  0.61537276  1
  O  O347  1  0.24502924  0.38163419  0.24147669  1
  O  O348  1  0.24667579  0.37008598  0.73595801  1
  O  O349  1  0.24463675  0.89450073  0.25161411  1
  O  O350  1  0.24264072  0.87419469  0.74230661  1
  O  O351  1  0.75447340  0.37575689  0.24361502  1
  O  O352  1  0.73894574  0.37743567  0.75113451  1
  O  O353  1  0.74502873  0.88265996  0.24349573  1
  O  O354  1  0.74534969  0.89270201  0.76367548  1
  O  O355  1  0.24559206  0.11449878  0.26007885  1
  O  O356  1  0.25663055  0.12463162  0.75462991  1
  O  O357  1  0.25056135  0.60897525  0.24481147  1
  O  O358  1  0.24424245  0.62549860  0.76241339  1
  O  O359  1  0.75577806  0.12147615  0.25572311  1
  O  O360  1  0.75473304  0.12046489  0.76307114  1
  O  O361  1  0.75663919  0.63141174  0.25939653  1
  O  O362  1  0.74642948  0.60463956  0.77232463  1
  O  O363  1  0.36611745  0.12047775  0.38115146  1
  O  O364  1  0.36739704  0.11875956  0.86885435  1
  O  O365  1  0.37668342  0.61049061  0.37515069  1
  O  O366  1  0.35977725  0.61501157  0.87670905  1
  O  O367  1  0.86759115  0.12698598  0.36492528  1
  O  O368  1  0.86726683  0.12527150  0.86935469  1
  O  O369  1  0.86650054  0.61977260  0.36496870  1
  O  O370  1  0.86854943  0.61186648  0.88435178  1
  O  O371  1  0.13664681  0.36727683  0.13525456  1
  O  O372  1  0.13361981  0.37826471  0.63079722  1
  O  O373  1  0.12441512  0.88417372  0.13561414  1
  O  O374  1  0.13122822  0.86696028  0.63232306  1
  O  O375  1  0.63850754  0.38142861  0.12266147  1
  O  O376  1  0.63132001  0.37487495  0.63876972  1
  O  O377  1  0.62723298  0.88245894  0.12983342  1
  O  O378  1  0.61729121  0.89128289  0.62559578  1
  O  O379  1  0.12239951  0.25767645  0.25867657  1
  O  O380  1  0.12988751  0.25949968  0.76289885  1
  O  O381  1  0.12389713  0.76168405  0.25141252  1
  O  O382  1  0.12846040  0.76105475  0.76722804  1
  O  O383  1  0.61172043  0.24833687  0.24032907  1
  O  O384  1  0.61961109  0.25242134  0.75830343  1
  O  O385  1  0.61597697  0.75620527  0.25461378  1
  O  O386  1  0.63747912  0.75414125  0.74482182  1
  O  O387  1  0.38499617  0.24892293  0.23963764  1
  O  O388  1  0.38222533  0.23503020  0.75442748  1
  O  O389  1  0.38306964  0.76169998  0.23905917  1
  O  O390  1  0.37266533  0.75156183  0.73500557  1
  O  O391  1  0.88259497  0.24347267  0.24524963  1
  O  O392  1  0.86955203  0.24199808  0.74296297  1
  O  O393  1  0.87759647  0.74268630  0.23863883  1
  O  O394  1  0.83312652  0.73785229  0.73383652  1
  O  O395  1  0.38417224  0.49496261  0.49466378  1
  O  O396  1  0.38371938  0.49742761  0.99438136  1
  O  O397  1  0.38174481  0.99114349  0.49585148  1
  O  O398  1  0.36796355  0.98949369  0.98873610  1
  O  O399  1  0.86275813  0.49944605  0.48225942  1
  O  O400  1  0.87988025  0.48749247  0.99644188  1
  O  O401  1  0.87251481  0.98770220  0.49943644  1
  O  O402  1  0.88482439  0.99591925  0.99877091  1
  O  O403  1  0.12111870  -0.00168272  0.00700190  1
  O  O404  1  0.12531008  0.01067841  0.50016986  1
  O  O405  1  0.11323348  0.49221384  0.00044444  1
  O  O406  1  0.12931265  0.49322615  0.50352648  1
  O  O407  1  0.62372696  0.01457196  0.00277833  1
  O  O408  1  0.62299566  0.00802248  0.50614096  1
  O  O409  1  0.61272527  0.49544644  0.01309876  1
  O  O410  1  0.61070567  0.50613409  0.51221708  1
  O  O411  1  0.36548353  0.36462037  0.12673280  1
  O  O412  1  0.36683500  0.37517474  0.61133444  1
  O  O413  1  0.37656569  0.86228328  0.11028654  1
  O  O414  1  0.37257283  0.87360715  0.61819341  1
  O  O415  1  0.86669135  0.37361710  0.12007411  1
  O  O416  1  0.86817958  0.37393233  0.62847355  1
  O  O417  1  0.86478531  0.86728813  0.12477907  1
  O  O418  1  0.87592383  0.87659612  0.61109389  1
  O  O419  1  0.13486708  0.13420264  0.37880765  1
  O  O420  1  0.13239488  0.13079623  0.87202768  1
  O  O421  1  0.13149107  0.64037020  0.36151851  1
  O  O422  1  0.13749076  0.63157930  0.87944848  1
  O  O423  1  0.64089630  0.12539895  0.38397433  1
  O  O424  1  0.63116334  0.12952510  0.88469011  1
  O  O425  1  0.63179853  0.63230636  0.37413523  1
  O  O426  1  0.63686902  0.61507492  0.88692097  1
