# generated using pymatgen
data_V85Zn86O256
_symmetry_space_group_name_H-M   'P 1'
_cell_length_a   16.92031358
_cell_length_b   16.92584635
_cell_length_c   16.92569330
_cell_angle_alpha   90.00351899
_cell_angle_beta   90.00107600
_cell_angle_gamma   90.05062526
_symmetry_Int_Tables_number   1
_chemical_formula_structural   V85Zn86O256
_chemical_formula_sum   'V85 Zn86 O256'
_cell_volume   4847.35803065
_cell_formula_units_Z   1
loop_
 _symmetry_equiv_pos_site_id
 _symmetry_equiv_pos_as_xyz
  1  'x, y, z'
loop_
 _atom_site_type_symbol
 _atom_site_label
 _atom_site_symmetry_multiplicity
 _atom_site_fract_x
 _atom_site_fract_y
 _atom_site_fract_z
 _atom_site_occupancy
  V  V0  1  0.37493492  -0.00022509  0.87387476  1
  V  V1  1  0.87617105  0.75294757  0.12040281  1
  V  V2  1  0.11543008  0.11995768  0.00012154  1
  V  V3  1  0.62603838  0.00939313  0.12253207  1
  V  V4  1  0.12907374  0.24310131  0.38009995  1
  V  V5  1  0.11851813  -0.00182807  0.12486377  1
  V  V6  1  0.12478594  0.75092084  0.87471937  1
  V  V7  1  0.87656788  0.75739419  0.61858329  1
  V  V8  1  0.62308399  0.74979474  0.37688886  1
  V  V9  1  0.51441747  0.62364948  0.62771087  1
  V  V10  1  -0.00659428  0.24429812  0.74886874  1
  V  V11  1  0.25231164  0.37898192  0.63127329  1
  V  V12  1  0.87172297  0.49898007  0.87489920  1
  V  V13  1  0.49986395  0.87245394  0.86712180  1
  V  V14  1  0.62157113  0.35915762  0.25497483  1
  V  V15  1  0.13939214  0.74992042  0.37763860  1
  V  V16  1  0.37351312  0.37505615  0.00316855  1
  V  V17  1  0.49488631  -0.00012092  0.50265446  1
  V  V18  1  0.12507521  0.00082345  0.62092897  1
  V  V19  1  0.12337437  0.87547178  0.74951472  1
  V  V20  1  0.25103070  0.00259168  0.74703896  1
  V  V21  1  0.74837289  0.11188259  0.37117060  1
  V  V22  1  0.25032345  0.87823361  0.12795057  1
  V  V23  1  0.87039990  0.10799599  0.25450967  1
  V  V24  1  -0.00504064  0.12458145  0.62311221  1
  V  V25  1  0.62375872  0.12563350  0.49506075  1
  V  V26  1  0.37352049  0.74850328  0.62188985  1
  V  V27  1  0.25438299  0.50120432  0.26424197  1
  V  V28  1  0.12218610  0.24816780  0.87384000  1
  V  V29  1  -0.01411951  -0.00330359  0.49392953  1
  V  V30  1  0.50627796  0.00649787  -0.00296958  1
  V  V31  1  0.00219129  0.62594889  0.62297635  1
  V  V32  1  0.62802158  0.87409880  0.74569373  1
  V  V33  1  0.49645747  0.88011916  0.37490604  1
  V  V34  1  0.62452075  0.36857521  0.73616932  1
  V  V35  1  0.25037168  0.74938616  -0.00051901  1
  V  V36  1  0.74439256  0.49542056  0.73494866  1
  V  V37  1  0.50094527  0.13212380  0.63224091  1
  V  V38  1  0.50043632  0.62430279  0.12378850  1
  V  V39  1  0.74212504  0.24254339  -0.00201510  1
  V  V40  1  0.87495374  0.62398141  0.74859948  1
  V  V41  1  -0.00707662  0.87677795  0.88723399  1
  V  V42  1  0.49869405  0.36876950  0.37484751  1
  V  V43  1  0.62524574  0.88623524  0.24917950  1
  V  V44  1  0.76079225  0.00562186  0.74692977  1
  V  V45  1  -0.00043155  0.49918131  0.00373378  1
  V  V46  1  0.87158789  0.37432560  0.00335478  1
  V  V47  1  0.36770013  0.87291564  0.49747713  1
  V  V48  1  0.87501360  0.50071181  0.37397370  1
  V  V49  1  0.87705654  0.00485460  0.88857900  1
  V  V50  1  -0.01425276  0.87098015  0.37707567  1
  V  V51  1  0.75111873  0.87921576  0.12646860  1
  V  V52  1  0.75114588  0.76062090  0.49751446  1
  V  V53  1  0.50293892  0.36691136  0.86975830  1
  V  V54  1  0.48832948  0.13616686  0.12582315  1
  V  V55  1  0.12756991  0.37442377  0.24599393  1
  V  V56  1  -0.00117424  0.75137648  0.74916369  1
  V  V57  1  0.37573410  0.74861592  0.12566543  1
  V  V58  1  0.51636836  0.50892622  0.49595629  1
  V  V59  1  0.62139434  0.74775043  0.87102693  1
  V  V60  1  0.75145592  0.75459338  -0.00151723  1
  V  V61  1  0.86770058  0.25445806  0.62525241  1
  V  V62  1  0.00219443  0.50380514  0.50021504  1
  V  V63  1  0.74210706  0.50089636  0.24951405  1
  V  V64  1  0.25025874  0.61958766  0.86800597  1
  V  V65  1  0.74512082  0.62537881  0.38327787  1
  V  V66  1  0.12634506  0.62314979  0.00091720  1
  V  V67  1  0.74872426  0.62337678  0.87478580  1
  V  V68  1  0.37284059  0.62402619  0.26348684  1
  V  V69  1  0.37636720  0.87560182  -0.00106759  1
  V  V70  1  -0.00221563  0.37299584  0.87450484  1
  V  V71  1  0.87270052  0.24828218  0.12981297  1
  V  V72  1  0.37459917  0.49654149  0.86752222  1
  V  V73  1  0.24789014  0.12406116  0.87577742  1
  V  V74  1  -0.00136906  0.37412234  0.37541885  1
  V  V75  1  0.87445330  0.62590501  0.24795506  1
  V  V76  1  0.37887151  0.62995322  0.74821439  1
  V  V77  1  0.37556233  0.38631738  0.50225729  1
  V  V78  1  0.24968160  0.25279046  0.00555563  1
  V  V79  1  0.25890236  0.00855897  0.26174162  1
  V  V80  1  -0.00286737  0.24688450  0.25117890  1
  V  V81  1  0.14239760  0.62712265  0.49694022  1
  V  V82  1  0.74640577  0.25671854  0.49228134  1
  V  V83  1  0.12675483  0.38134027  0.75014851  1
  V  V84  1  0.13625305  0.49710304  0.12407532  1
  Zn  Zn85  1  0.75519579  0.87842363  0.62077429  1
  Zn  Zn86  1  0.00186283  0.62551552  0.12680087  1
  Zn  Zn87  1  -0.00604988  0.11715890  0.12350507  1
  Zn  Zn88  1  0.25859447  0.24393012  0.50337637  1
  Zn  Zn89  1  0.50352761  0.49966820  -0.00321801  1
  Zn  Zn90  1  0.24836846  0.86992149  0.62123048  1
  Zn  Zn91  1  0.87008969  0.37982350  0.50468323  1
  Zn  Zn92  1  0.37274226  0.14739572  0.26170413  1
  Zn  Zn93  1  0.38341354  0.13137856  0.75406507  1
  Zn  Zn94  1  0.74475020  0.37530199  0.12640261  1
  Zn  Zn95  1  0.62356735  0.49925905  0.12258335  1
  Zn  Zn96  1  0.12908379  0.50392244  0.62915403  1
  Zn  Zn97  1  0.74646823  0.12419954  0.87408438  1
  Zn  Zn98  1  0.62383337  0.62224230  -0.00047450  1
  Zn  Zn99  1  0.37978599  0.25652378  0.63244649  1
  Zn  Zn100  1  0.61799362  0.24164057  0.87059461  1
  Zn  Zn101  1  0.12529813  0.87629890  0.25492462  1
  Zn  Zn102  1  0.13214294  0.11973296  0.49529976  1
  Zn  Zn103  1  0.50040990  0.75117399  0.24951580  1
  Zn  Zn104  1  0.00254494  0.74977063  0.25117474  1
  Zn  Zn105  1  0.62695430  -0.00065865  0.62605856  1
  Zn  Zn106  1  0.31083789  0.31449997  0.16679686  1
  Zn  Zn107  1  0.18354673  0.18083600  0.19112730  1
  Zn  Zn108  1  0.18723613  0.18966964  0.68358302  1
  Zn  Zn109  1  0.18854122  0.68595190  0.19161048  1
  Zn  Zn110  1  0.18986511  0.68679961  0.68598153  1
  Zn  Zn111  1  0.68675830  0.18449756  0.18656511  1
  Zn  Zn112  1  0.68722721  0.18600510  0.68348622  1
  Zn  Zn113  1  0.68567563  0.69134213  0.19103812  1
  Zn  Zn114  1  0.69219664  0.69013113  0.68873762  1
  Zn  Zn115  1  0.31367428  0.31883681  0.32752559  1
  Zn  Zn116  1  0.31207539  0.30907688  0.81187696  1
  Zn  Zn117  1  0.31536341  0.81581307  0.30987361  1
  Zn  Zn118  1  0.31239199  0.81068616  0.80767356  1
  Zn  Zn119  1  0.80855781  0.31093971  0.31553540  1
  Zn  Zn120  1  0.80927630  0.31288699  0.81051775  1
  Zn  Zn121  1  0.80954693  0.81327246  0.30690695  1
  Zn  Zn122  1  0.81300665  0.81524668  0.81073499  1
  Zn  Zn123  1  0.18528057  0.43353526  0.44175811  1
  Zn  Zn124  1  0.18931463  0.43627154  0.93502567  1
  Zn  Zn125  1  0.18357404  0.93505827  0.43701564  1
  Zn  Zn126  1  0.18485371  0.93772026  0.93841770  1
  Zn  Zn127  1  0.68397585  0.43784708  0.43632757  1
  Zn  Zn128  1  0.68455474  0.43538633  0.93471032  1
  Zn  Zn129  1  0.68196940  0.93894432  0.43796547  1
  Zn  Zn130  1  0.68924935  0.93704927  0.93640063  1
  Zn  Zn131  1  0.31005025  0.06291852  0.06297102  1
  Zn  Zn132  1  0.31437836  0.06466107  0.55872162  1
  Zn  Zn133  1  0.31660825  0.56077316  0.06003320  1
  Zn  Zn134  1  0.31656384  0.55669353  0.56660689  1
  Zn  Zn135  1  0.81241783  0.06176994  0.06508942  1
  Zn  Zn136  1  0.81084337  0.06792221  0.56281366  1
  Zn  Zn137  1  0.80836584  0.56426575  0.06356772  1
  Zn  Zn138  1  0.81414728  0.56864903  0.55983162  1
  Zn  Zn139  1  0.44092446  0.44165956  0.19119405  1
  Zn  Zn140  1  0.44254405  0.44348902  0.68652859  1
  Zn  Zn141  1  0.43972030  0.94211814  0.18748465  1
  Zn  Zn142  1  0.43808569  0.93923511  0.68465361  1
  Zn  Zn143  1  0.93838056  0.43853906  0.18739626  1
  Zn  Zn144  1  0.93770345  0.43553523  0.68685402  1
  Zn  Zn145  1  0.93828290  0.93142737  0.18893718  1
  Zn  Zn146  1  0.93908318  0.93792806  0.68924323  1
  Zn  Zn147  1  0.06091908  0.05879657  0.30944641  1
  Zn  Zn148  1  0.05786941  0.06147234  0.81065448  1
  Zn  Zn149  1  0.06607972  0.56513534  0.31324707  1
  Zn  Zn150  1  0.05983985  0.56250802  0.81519886  1
  Zn  Zn151  1  0.52722135  0.08999964  0.33323654  1
  Zn  Zn152  1  0.57154970  0.06165578  0.81376255  1
  Zn  Zn153  1  0.55892424  0.56434823  0.31381021  1
  Zn  Zn154  1  0.56215512  0.55727497  0.80951579  1
  Zn  Zn155  1  0.43162073  0.19357852  0.44331262  1
  Zn  Zn156  1  0.43459273  0.18857815  0.93961760  1
  Zn  Zn157  1  0.43927189  0.69003748  0.44239544  1
  Zn  Zn158  1  0.43861407  0.68746956  0.93704370  1
  Zn  Zn159  1  0.93311083  0.18417020  0.43844613  1
  Zn  Zn160  1  0.93238213  0.18596643  0.93835298  1
  Zn  Zn161  1  0.93737707  0.68794739  0.43648536  1
  Zn  Zn162  1  0.93718772  0.68732684  0.93870048  1
  Zn  Zn163  1  0.06117456  0.30949463  0.06449296  1
  Zn  Zn164  1  0.06121723  0.31521982  0.56418114  1
  Zn  Zn165  1  0.06348598  0.81107417  0.06500708  1
  Zn  Zn166  1  0.06402358  0.81346489  0.55691615  1
  Zn  Zn167  1  0.56134106  0.31913563  0.06212202  1
  Zn  Zn168  1  0.56369005  0.31307228  0.55716818  1
  Zn  Zn169  1  0.56347066  0.81412201  0.05906717  1
  Zn  Zn170  1  0.55955381  0.80690016  0.56165594  1
  O  O171  1  0.12047199  0.11554293  0.11802611  1
  O  O172  1  0.11264421  0.11717252  0.62394831  1
  O  O173  1  0.12416656  0.61752956  0.11872237  1
  O  O174  1  0.11951260  0.62570574  0.61657496  1
  O  O175  1  0.62258222  0.11244371  0.12322691  1
  O  O176  1  0.61769697  0.12221996  0.61503014  1
  O  O177  1  0.61095485  0.62978904  0.12664288  1
  O  O178  1  0.61296958  0.63233460  0.62977121  1
  O  O179  1  0.39066935  0.38128496  0.38555876  1
  O  O180  1  0.37946847  0.38228227  0.87748677  1
  O  O181  1  0.38526865  0.86895405  0.38348838  1
  O  O182  1  0.38225052  0.87820904  0.87627172  1
  O  O183  1  0.88554100  0.38061620  0.37473822  1
  O  O184  1  0.87944096  0.37883085  0.88264670  1
  O  O185  1  0.88634665  0.87051862  0.37183873  1
  O  O186  1  0.88674218  0.88076449  0.87356169  1
  O  O187  1  0.24428552  -0.00572757  0.35948330  1
  O  O188  1  0.25286166  0.00389831  0.86795723  1
  O  O189  1  0.24399064  0.49719405  0.36245916  1
  O  O190  1  0.25740977  0.51014381  0.87693857  1
  O  O191  1  0.74783485  0.01277892  0.37806832  1
  O  O192  1  0.76317342  -0.00434790  0.86704800  1
  O  O193  1  0.75354025  0.50823285  0.37055931  1
  O  O194  1  0.75610507  0.50559862  0.86931410  1
  O  O195  1  0.23922794  0.50221536  0.12636981  1
  O  O196  1  0.24573966  0.48602997  0.62538049  1
  O  O197  1  0.24155500  0.99251090  0.12904716  1
  O  O198  1  0.24182221  0.99789459  0.63210315  1
  O  O199  1  0.74802802  0.49688376  0.13573701  1
  O  O200  1  0.75683300  0.50421590  0.63667090  1
  O  O201  1  0.74074921  0.98870533  0.11614329  1
  O  O202  1  0.75170860  0.99755465  0.63401437  1
  O  O203  1  0.00500704  0.37003317  0.25774184  1
  O  O204  1  0.00456361  0.36434386  0.75465558  1
  O  O205  1  0.00393579  0.87406936  0.26547205  1
  O  O206  1  0.00609547  0.86880963  0.75731485  1
  O  O207  1  0.50923982  0.38288255  0.26415324  1
  O  O208  1  0.51624584  0.38266608  0.75408616  1
  O  O209  1  0.50461882  0.87388504  0.25772546  1
  O  O210  1  0.50853725  0.88193294  0.76059767  1
  O  O211  1  0.50341642  0.12566089  0.22633666  1
  O  O212  1  0.50445062  0.11565276  0.73503415  1
  O  O213  1  0.49027664  0.62726056  0.24261465  1
  O  O214  1  0.49430189  0.61967242  0.73704275  1
  O  O215  1  0.98771392  0.12973013  0.25128020  1
  O  O216  1  1.00257652  0.13643958  0.74130844  1
  O  O217  1  0.98570545  0.62378819  0.25086386  1
  O  O218  1  0.99573909  0.63167006  0.74536721  1
  O  O219  1  0.36162199  0.26010721  -0.00453360  1
  O  O220  1  0.37771032  0.26793202  0.50932515  1
  O  O221  1  0.36854534  0.75576223  0.00453599  1
  O  O222  1  0.37706666  0.75948129  0.50906906  1
  O  O223  1  0.87075289  0.25588216  0.01178721  1
  O  O224  1  0.86444502  0.25193743  0.50504763  1
  O  O225  1  0.86783967  0.74496272  0.01172123  1
  O  O226  1  0.86605970  0.74450042  0.50766778  1
  O  O227  1  0.11608301  0.25006240  0.48552601  1
  O  O228  1  0.12698028  0.24456193  0.99183270  1
  O  O229  1  0.12437573  0.74174000  0.48870336  1
  O  O230  1  0.13063378  0.74364165  0.99438287  1
  O  O231  1  0.63935526  0.24217332  0.50445726  1
  O  O232  1  0.64154215  0.26099337  0.99871731  1
  O  O233  1  0.63332189  0.75493286  0.48582594  1
  O  O234  1  0.63227798  0.74901406  0.98689266  1
  O  O235  1  0.50186221  0.23340103  0.10798511  1
  O  O236  1  0.50423780  0.23498862  0.62126577  1
  O  O237  1  0.49149353  0.74641263  0.12395650  1
  O  O238  1  0.48997467  0.73327765  0.61912756  1
  O  O239  1  0.99025658  0.24612863  0.13321289  1
  O  O240  1  0.99523625  0.24265789  0.62970532  1
  O  O241  1  0.99145566  0.74804272  0.12873639  1
  O  O242  1  0.99549058  0.74544927  0.62689675  1
  O  O243  1  0.00215853  0.25736381  0.37107094  1
  O  O244  1  -0.00009650  0.25264415  0.86741057  1
  O  O245  1  0.00251906  0.76143865  0.37580581  1
  O  O246  1  0.00329873  0.75922169  0.87110792  1
  O  O247  1  0.50662663  0.27141294  0.38712702  1
  O  O248  1  0.49774938  0.26246371  0.87726172  1
  O  O249  1  0.50858690  0.76014017  0.37614320  1
  O  O250  1  0.50902261  0.75979683  0.87854595  1
  O  O251  1  0.24514832  0.13077412  0.50434608  1
  O  O252  1  0.23991414  0.13147286  0.99496460  1
  O  O253  1  0.24113700  0.61812676  0.50415025  1
  O  O254  1  0.24686709  0.62995504  0.98997172  1
  O  O255  1  0.74402432  0.12951375  0.48967073  1
  O  O256  1  0.75456186  0.14030818  1.00166129  1
  O  O257  1  0.75166681  0.63438759  0.48749346  1
  O  O258  1  0.74760470  0.63611899  0.99381547  1
  O  O259  1  0.25825848  0.36537922  -0.00687499  1
  O  O260  1  0.25991344  0.37599306  0.50758078  1
  O  O261  1  0.25440871  0.87083030  0.00876393  1
  O  O262  1  0.26401655  0.88282714  0.50158533  1
  O  O263  1  0.76146728  0.36886662  0.00093746  1
  O  O264  1  0.75073634  0.36164395  0.49233939  1
  O  O265  1  0.74532360  0.86152217  0.00766477  1
  O  O266  1  0.74814983  0.86512109  0.50024926  1
  O  O267  1  0.13452350  0.49719848  0.24392630  1
  O  O268  1  0.11507403  0.48576747  0.75085733  1
  O  O269  1  0.13524299  0.99923558  0.24138461  1
  O  O270  1  0.12680534  0.99547210  0.73939548  1
  O  O271  1  0.63585724  0.50183875  0.25000069  1
  O  O272  1  0.63923583  0.49159255  0.75073133  1
  O  O273  1  0.61898995  0.98805362  0.23821389  1
  O  O274  1  0.63999465  0.98923744  0.74945056  1
  O  O275  1  0.35939976  -0.00235467  0.24636260  1
  O  O276  1  0.36540607  0.00270047  0.75465789  1
  O  O277  1  0.36162590  0.50652836  0.24755846  1
  O  O278  1  0.37780457  0.51153291  0.76035889  1
  O  O279  1  0.87426447  0.00927437  0.24431499  1
  O  O280  1  0.86425537  -0.00617533  0.75746112  1
  O  O281  1  0.86432958  0.50480095  0.25432611  1
  O  O282  1  0.86715920  0.50208358  0.75462021  1
  O  O283  1  0.11357592  0.36925003  0.36868005  1
  O  O284  1  0.11676442  0.36921880  0.86977952  1
  O  O285  1  0.11667740  0.86148893  0.37696645  1
  O  O286  1  0.11535181  0.87235514  0.86936962  1
  O  O287  1  0.61620707  0.38072048  0.36198357  1
  O  O288  1  0.61681041  0.37019543  0.86590303  1
  O  O289  1  0.62074972  0.87035739  0.36613072  1
  O  O290  1  0.61940621  0.86931529  0.86629729  1
  O  O291  1  0.38514408  0.12262429  0.12564061  1
  O  O292  1  0.39290452  0.12391584  0.62556671  1
  O  O293  1  0.38336791  0.63047399  0.12828530  1
  O  O294  1  0.37905072  0.62909389  0.63272991  1
  O  O295  1  0.87408639  0.13140720  0.13400006  1
  O  O296  1  0.88816110  0.13502827  0.61966851  1
  O  O297  1  0.87511065  0.63155328  0.13245504  1
  O  O298  1  0.88228436  0.63436582  0.63046166  1
  O  O299  1  0.23483400  0.24931509  0.11042501  1
  O  O300  1  0.24691525  0.26578716  0.62207486  1
  O  O301  1  0.25474504  0.75690246  0.12062906  1
  O  O302  1  0.26599201  0.75271305  0.63201202  1
  O  O303  1  0.75546316  0.25292752  0.11633489  1
  O  O304  1  0.75972116  0.23937246  0.60995771  1
  O  O305  1  0.75450123  0.75521283  0.11753871  1
  O  O306  1  0.75840262  0.75021577  0.61479537  1
  O  O307  1  0.23132601  0.26031986  0.38288489  1
  O  O308  1  0.24004252  0.24215944  0.88294024  1
  O  O309  1  0.23808663  0.75505341  0.37267658  1
  O  O310  1  0.24389515  0.74445604  0.87924097  1
  O  O311  1  0.75253446  0.24018303  0.38863379  1
  O  O312  1  0.75756647  0.24816937  0.89026846  1
  O  O313  1  0.74581602  0.74523959  0.37954716  1
  O  O314  1  0.74706942  0.74572986  0.88125468  1
  O  O315  1  0.01126675  0.12955222  0.00199762  1
  O  O316  1  0.00344637  0.11173199  0.50308411  1
  O  O317  1  0.00855699  0.61736144  -0.00057706  1
  O  O318  1  0.00409454  0.61536357  0.50197502  1
  O  O319  1  0.49319325  0.11090989  0.00448151  1
  O  O320  1  0.50755231  0.11805094  0.50810454  1
  O  O321  1  0.50093105  0.62339667  0.00856415  1
  O  O322  1  0.49932154  0.61542300  0.50871602  1
  O  O323  1  0.50031576  0.38769018  0.49433503  1
  O  O324  1  0.49127907  0.37730603  0.98944879  1
  O  O325  1  0.49411792  0.88063685  0.49540058  1
  O  O326  1  0.49478201  0.88258545  0.98898113  1
  O  O327  1  0.99996131  0.38783976  0.49270886  1
  O  O328  1  0.98876793  0.37697192  0.99632358  1
  O  O329  1  0.99943027  0.88527865  0.49017592  1
  O  O330  1  1.00537723  0.87185899  0.98551814  1
  O  O331  1  0.50533504  0.49710230  0.39055106  1
  O  O332  1  0.49203879  0.48980178  0.87458909  1
  O  O333  1  0.51018590  0.98471651  0.38623353  1
  O  O334  1  0.49626860  0.99321148  0.87975528  1
  O  O335  1  0.99714295  0.49409124  0.37970079  1
  O  O336  1  0.99200789  0.49346556  0.88302315  1
  O  O337  1  1.00507561  0.98893092  0.38682745  1
  O  O338  1  0.98681925  0.98986135  0.86967236  1
  O  O339  1  0.01353197  -0.00379048  0.12908228  1
  O  O340  1  0.00381941  0.00472955  0.61750732  1
  O  O341  1  0.00871213  0.50249505  0.11904631  1
  O  O342  1  0.00079014  0.50662877  0.61650486  1
  O  O343  1  0.50726815  0.00348482  0.11415098  1
  O  O344  1  0.50533345  0.00670719  0.61792292  1
  O  O345  1  0.50145677  0.51146463  0.12227827  1
  O  O346  1  0.50048807  0.51556044  0.61513982  1
  O  O347  1  0.24540922  0.38691088  0.24744587  1
  O  O348  1  0.23693033  0.37216186  0.74666318  1
  O  O349  1  0.24860221  0.88069980  0.23839770  1
  O  O350  1  0.24206423  0.88674173  0.75079536  1
  O  O351  1  0.73719525  0.38183036  0.25354225  1
  O  O352  1  0.74154259  0.38782882  0.75238950  1
  O  O353  1  0.73993930  0.87124905  0.23662598  1
  O  O354  1  0.74443777  0.88300774  0.74642179  1
  O  O355  1  0.25526114  0.11372213  0.24929493  1
  O  O356  1  0.24357697  0.11265848  0.75439370  1
  O  O357  1  0.25758962  0.61047651  0.24637149  1
  O  O358  1  0.25760283  0.62859923  0.76180592  1
  O  O359  1  0.75348902  0.12994704  0.26424140  1
  O  O360  1  0.74803476  0.10844003  0.74946064  1
  O  O361  1  0.75820503  0.62021949  0.25622263  1
  O  O362  1  0.75472139  0.61439386  0.75430985  1
  O  O363  1  0.41911533  0.12037691  0.36289519  1
  O  O364  1  0.36695587  0.11653196  0.87472983  1
  O  O365  1  0.38016774  0.63232052  0.36251804  1
  O  O366  1  0.37014514  0.62010337  0.86892766  1
  O  O367  1  0.86000606  0.12590457  0.36800875  1
  O  O368  1  0.87229236  0.10903226  0.87661725  1
  O  O369  1  0.86699343  0.62083272  0.36727882  1
  O  O370  1  0.87023880  0.61968312  0.86822339  1
  O  O371  1  0.11776528  0.38318426  0.13519325  1
  O  O372  1  0.12899616  0.37748809  0.63447627  1
  O  O373  1  0.13357784  0.87958264  0.12689513  1
  O  O374  1  0.12534474  0.88143412  0.63057207  1
  O  O375  1  0.62194137  0.37816533  0.14211612  1
  O  O376  1  0.62299985  0.37303332  0.63718420  1
  O  O377  1  0.63061287  0.87900981  0.13036900  1
  O  O378  1  0.62469245  0.87065770  0.63709581  1
  O  O379  1  0.11985930  0.25459179  0.25967457  1
  O  O380  1  0.11524843  0.25669458  0.75615729  1
  O  O381  1  0.12259301  0.74909070  0.26307184  1
  O  O382  1  0.11965747  0.75438948  0.75592984  1
  O  O383  1  0.62754336  0.26093909  0.25095504  1
  O  O384  1  0.63771211  0.26521293  0.75163300  1
  O  O385  1  0.62278680  0.76066686  0.26050127  1
  O  O386  1  0.63439362  0.75832719  0.76319853  1
  O  O387  1  0.36374346  0.25987424  0.24769293  1
  O  O388  1  0.36997294  0.24296483  0.74516997  1
  O  O389  1  0.37443264  0.74218431  0.24107327  1
  O  O390  1  0.37735845  0.73730860  0.74610379  1
  O  O391  1  0.87495683  0.24821113  0.24070849  1
  O  O392  1  0.88169351  0.25396787  0.74105594  1
  O  O393  1  0.87403584  0.74129689  0.23934336  1
  O  O394  1  0.87961477  0.74345035  0.74368311  1
  O  O395  1  0.38911003  0.49066377  0.50572203  1
  O  O396  1  0.37499140  0.49320435  0.98541609  1
  O  O397  1  0.38823829  0.99056297  0.50627457  1
  O  O398  1  0.37947562  0.99269923  0.99308403  1
  O  O399  1  0.88187843  0.50061204  0.49235978  1
  O  O400  1  0.87744652  0.49228954  0.99775130  1
  O  O401  1  0.88768288  1.00115313  0.50435371  1
  O  O402  1  0.87251482  0.99831504  0.98771133  1
  O  O403  1  0.13042880  0.00944519  0.00945526  1
  O  O404  1  0.11722581  -0.00277999  0.51133375  1
  O  O405  1  0.12119883  0.50160613  0.00618477  1
  O  O406  1  0.11722982  0.50864507  0.49990143  1
  O  O407  1  0.61520778  -0.00921991  0.00727865  1
  O  O408  1  0.61624919  0.00619459  0.50518957  1
  O  O409  1  0.62435431  0.50295844  0.00368699  1
  O  O410  1  0.61567037  0.50142236  0.50276127  1
  O  O411  1  0.37910739  0.38565117  0.10828365  1
  O  O412  1  0.36946653  0.37875610  0.62323345  1
  O  O413  1  0.36894448  0.86998169  0.11979261  1
  O  O414  1  0.37706854  0.86551503  0.61858740  1
  O  O415  1  0.87278198  0.36778797  0.11948365  1
  O  O416  1  0.88182963  0.36001095  0.62067025  1
  O  O417  1  0.86496657  0.86542976  0.12960594  1
  O  O418  1  0.87667191  0.86099322  0.62939051  1
  O  O419  1  0.11763694  0.14043953  0.37303364  1
  O  O420  1  0.12674679  0.12614249  0.88140574  1
  O  O421  1  0.12065298  0.63951225  0.38320364  1
  O  O422  1  0.13266008  0.62867191  0.87899750  1
  O  O423  1  0.63053575  0.12206951  0.38628585  1
  O  O424  1  0.63162511  0.12957710  0.87646126  1
  O  O425  1  0.63464497  0.63612572  0.36621811  1
  O  O426  1  0.62937242  0.63216459  0.87235433  1
