# generated using pymatgen
data_V85Zn86O256
_symmetry_space_group_name_H-M   'P 1'
_cell_length_a   16.94580435
_cell_length_b   16.95432265
_cell_length_c   16.93211155
_cell_angle_alpha   90.02614659
_cell_angle_beta   90.03314905
_cell_angle_gamma   90.12121900
_symmetry_Int_Tables_number   1
_chemical_formula_structural   V85Zn86O256
_chemical_formula_sum   'V85 Zn86 O256'
_cell_volume   4864.66190852
_cell_formula_units_Z   1
loop_
 _symmetry_equiv_pos_site_id
 _symmetry_equiv_pos_as_xyz
  1  'x, y, z'
loop_
 _atom_site_type_symbol
 _atom_site_label
 _atom_site_symmetry_multiplicity
 _atom_site_fract_x
 _atom_site_fract_y
 _atom_site_fract_z
 _atom_site_occupancy
  V  V0  1  0.74751315  0.74978119  0.50150183  1
  V  V1  1  0.13784580  0.88711331  0.23982554  1
  V  V2  1  0.62931612  -0.01017229  0.63665750  1
  V  V3  1  0.12756023  0.62156080  -0.00577314  1
  V  V4  1  0.36942797  0.11917936  0.75015714  1
  V  V5  1  0.00330006  0.75131752  0.25097405  1
  V  V6  1  0.50525924  0.49743642  0.50694532  1
  V  V7  1  0.49925457  -0.00394898  0.50285039  1
  V  V8  1  0.50092634  0.37183676  0.85891933  1
  V  V9  1  0.12078459  0.50083490  0.12131347  1
  V  V10  1  0.12240001  0.37961585  0.25104171  1
  V  V11  1  0.87276284  0.12541684  0.24302668  1
  V  V12  1  0.00313246  0.25312920  0.75111530  1
  V  V13  1  0.49646512  0.24745412  0.25010320  1
  V  V14  1  -0.00129063  0.61904802  0.61891536  1
  V  V15  1  0.74979149  0.62264756  0.37954451  1
  V  V16  1  0.74578001  0.12438500  0.87505826  1
  V  V17  1  0.13332849  0.00346293  0.62466372  1
  V  V18  1  0.62394768  0.24812448  0.37352819  1
  V  V19  1  0.00091034  0.00311835  0.49842770  1
  V  V20  1  0.87543678  0.38712773  -0.00727376  1
  V  V21  1  0.01473650  0.00445890  0.00039645  1
  V  V22  1  0.62879213  0.62065279  0.51586240  1
  V  V23  1  0.31292772  0.67264119  0.81569472  1
  V  V24  1  0.24966933  0.75240968  0.01878382  1
  V  V25  1  0.87523960  0.88537464  0.00200413  1
  V  V26  1  0.75330193  0.37294756  0.12082063  1
  V  V27  1  0.50463829  0.00165483  -0.00114104  1
  V  V28  1  0.62577364  0.62831059  -0.00237750  1
  V  V29  1  0.62506327  0.49867484  0.11834074  1
  V  V30  1  0.25586130  0.12527782  0.37822181  1
  V  V31  1  0.12470766  0.24897720  0.37708146  1
  V  V32  1  0.74750576  0.11963896  0.36757052  1
  V  V33  1  0.62507885  0.75369944  0.86887466  1
  V  V34  1  0.37914281  0.49746780  0.37612231  1
  V  V35  1  0.48279457  0.62734510  0.63167277  1
  V  V36  1  0.00009045  0.37609864  0.38050180  1
  V  V37  1  0.00095425  0.62256027  0.12162555  1
  V  V38  1  0.87570934  0.74845086  0.62601311  1
  V  V39  1  0.24514789  0.37215954  0.62834085  1
  V  V40  1  0.63240760  0.00219651  0.13331554  1
  V  V41  1  0.11989266  0.24909244  0.87736642  1
  V  V42  1  0.25223593  0.62687678  0.38456340  1
  V  V43  1  0.24435224  0.25003765  -0.00150859  1
  V  V44  1  0.87418273  0.24820256  0.62534690  1
  V  V45  1  0.87660264  0.62329140  0.25033501  1
  V  V46  1  0.13113962  0.75234622  0.38053917  1
  V  V47  1  0.62609468  0.37424146  0.24958884  1
  V  V48  1  0.12081928  0.49494648  0.61891645  1
  V  V49  1  0.87418031  0.12387082  0.75582005  1
  V  V50  1  0.73223719  0.37632518  0.63231627  1
  V  V51  1  0.00109604  0.74474182  0.74941476  1
  V  V52  1  0.01675173  0.12343196  0.12165146  1
  V  V53  1  0.37743372  0.37645255  -0.00084936  1
  V  V54  1  0.74962110  0.24759755  0.49983942  1
  V  V55  1  0.38681872  0.75541834  0.13430738  1
  V  V56  1  0.31972419  0.06966375  0.20430788  1
  V  V57  1  0.37816321  0.25109345  0.63031823  1
  V  V58  1  0.37388902  0.25459839  0.12917622  1
  V  V59  1  0.12958836  0.88175589  0.74840909  1
  V  V60  1  0.00065096  0.38859192  0.87434729  1
  V  V61  1  0.00006519  0.88232604  0.87291285  1
  V  V62  1  0.25200533  0.50353699  0.24957512  1
  V  V63  1  0.00250545  0.87580205  0.37266306  1
  V  V64  1  0.50106639  0.86590483  0.36864266  1
  V  V65  1  0.87514503  0.75250418  0.12394196  1
  V  V66  1  0.74420463  0.25085450  -0.00386959  1
  V  V67  1  0.50110399  0.87633537  0.86913651  1
  V  V68  1  0.77018330  0.62121942  0.87476030  1
  V  V69  1  0.24347595  0.11863191  0.87188375  1
  V  V70  1  0.37276170  0.00118798  0.37803199  1
  V  V71  1  0.25147037  0.86356534  0.61979812  1
  V  V72  1  0.62454397  0.12097057  0.50052904  1
  V  V73  1  0.61753868  0.24859554  0.86162917  1
  V  V74  1  0.88131617  0.50061234  0.38045978  1
  V  V75  1  0.86990324  -0.00336747  0.36587666  1
  V  V76  1  0.37261977  0.49804788  0.86955550  1
  V  V77  1  0.81504523  -0.04425968  0.81736897  1
  V  V78  1  0.50446431  0.12471782  0.12345781  1
  V  V79  1  0.87461975  0.37852195  0.50453057  1
  V  V80  1  0.50144286  0.12569307  0.63389999  1
  V  V81  1  0.12916332  0.74841938  0.87299799  1
  V  V82  1  0.37221470  0.85842864  0.50359479  1
  V  V83  1  0.87235090  0.87642965  0.49892953  1
  V  V84  1  0.24272694  0.49432432  0.75450305  1
  Zn  Zn85  1  0.49532427  0.74948103  0.74635978  1
  Zn  Zn86  1  0.74935125  0.75517891  0.00385755  1
  Zn  Zn87  1  0.74878932  0.87529510  0.64168232  1
  Zn  Zn88  1  0.37619187  0.37290327  0.50260896  1
  Zn  Zn89  1  0.75010542  0.50139391  0.75214541  1
  Zn  Zn90  1  0.75680527  0.88411111  0.13543351  1
  Zn  Zn91  1  0.61454796  0.73676798  0.36815945  1
  Zn  Zn92  1  0.37137869  0.87770562  0.00232903  1
  Zn  Zn93  1  0.87838446  0.24935380  0.11989656  1
  Zn  Zn94  1  0.24848608  0.37909505  0.12324044  1
  Zn  Zn95  1  0.12460392  0.12623311  0.50027912  1
  Zn  Zn96  1  0.12428065  0.62488556  0.49910669  1
  Zn  Zn97  1  0.63495703  0.86974939  0.25138260  1
  Zn  Zn98  1  0.25116505  0.25109219  0.50222882  1
  Zn  Zn99  1  0.50123991  0.37348531  0.37782823  1
  Zn  Zn100  1  0.75210269  0.49794965  0.25117292  1
  Zn  Zn101  1  0.49872914  0.50237568  -0.00349170  1
  Zn  Zn102  1  0.37554995  0.00200965  0.87343997  1
  Zn  Zn103  1  0.00052040  0.12460558  0.62641671  1
  Zn  Zn104  1  0.38591950  0.62825559  0.25166507  1
  Zn  Zn105  1  -0.00235748  0.25133938  0.24764011  1
  Zn  Zn106  1  0.50717510  0.63024849  0.13174364  1
  Zn  Zn107  1  0.18488404  0.19693958  0.18879829  1
  Zn  Zn108  1  0.18515302  0.18876125  0.69003758  1
  Zn  Zn109  1  0.18653038  0.68626752  0.19474749  1
  Zn  Zn110  1  0.18165868  0.68709113  0.68205514  1
  Zn  Zn111  1  0.68706680  0.18718282  0.18458357  1
  Zn  Zn112  1  0.68948432  0.18356207  0.68863322  1
  Zn  Zn113  1  0.68820861  0.68839571  0.19186731  1
  Zn  Zn114  1  0.68975399  0.68820325  0.69296794  1
  Zn  Zn115  1  0.30975356  0.31637300  0.31267555  1
  Zn  Zn116  1  0.31193478  0.30975468  0.80919476  1
  Zn  Zn117  1  0.31213124  0.81457358  0.31331962  1
  Zn  Zn118  1  0.31271382  0.83568911  0.81016123  1
  Zn  Zn119  1  0.81233074  0.30963100  0.31144987  1
  Zn  Zn120  1  0.81358664  0.31219066  0.81299120  1
  Zn  Zn121  1  0.80736594  0.80937348  0.30928194  1
  Zn  Zn122  1  0.81677190  0.78975808  0.81678062  1
  Zn  Zn123  1  0.19017905  0.43762866  0.44158975  1
  Zn  Zn124  1  0.18545758  0.43449022  0.93669237  1
  Zn  Zn125  1  0.18966218  0.93694470  0.43587495  1
  Zn  Zn126  1  0.18652727  0.93469268  0.94044446  1
  Zn  Zn127  1  0.68941127  0.43764131  0.44194228  1
  Zn  Zn128  1  0.67312693  0.45474475  0.90378134  1
  Zn  Zn129  1  0.68532114  0.93580989  0.43882200  1
  Zn  Zn130  1  0.68139108  0.93447818  0.95050356  1
  Zn  Zn131  1  0.31249837  0.06510296  0.04214109  1
  Zn  Zn132  1  0.31261413  0.06114836  0.56143969  1
  Zn  Zn133  1  0.31246673  0.56870298  0.06212822  1
  Zn  Zn134  1  0.31213739  0.55719506  0.56302983  1
  Zn  Zn135  1  0.81388930  0.06433376  0.05568416  1
  Zn  Zn136  1  0.81134512  0.06135544  0.56310732  1
  Zn  Zn137  1  0.80867107  0.56347361  0.05947375  1
  Zn  Zn138  1  0.82392437  0.54500070  0.59541067  1
  Zn  Zn139  1  0.44119068  0.43949061  0.18845655  1
  Zn  Zn140  1  0.43411118  0.44252711  0.68687949  1
  Zn  Zn141  1  0.44213946  0.93084649  0.18313197  1
  Zn  Zn142  1  0.43551942  0.93666200  0.68749891  1
  Zn  Zn143  1  0.93693929  0.43755180  0.18801209  1
  Zn  Zn144  1  0.93074545  0.43904909  0.69528161  1
  Zn  Zn145  1  0.94564117  0.94000602  0.18728825  1
  Zn  Zn146  1  0.94491324  0.93303566  0.68050800  1
  Zn  Zn147  1  0.06163314  0.06407482  0.30941003  1
  Zn  Zn148  1  0.06055907  0.06451294  0.81227493  1
  Zn  Zn149  1  0.06282220  0.56394530  0.31425331  1
  Zn  Zn150  1  0.06526043  0.56479708  0.80761419  1
  Zn  Zn151  1  0.55554782  0.06138428  0.30955481  1
  Zn  Zn152  1  0.56473298  0.06536281  0.81301661  1
  Zn  Zn153  1  0.56474447  0.56037010  0.31272685  1
  Zn  Zn154  1  0.56511607  0.56080075  0.80685116  1
  Zn  Zn155  1  0.43691303  0.18658200  0.44282615  1
  Zn  Zn156  1  0.43609288  0.18771640  0.93832045  1
  Zn  Zn157  1  0.43817933  0.68091076  0.44166281  1
  Zn  Zn158  1  0.44438936  0.69194201  0.94939997  1
  Zn  Zn159  1  0.93591734  0.18709226  0.43480725  1
  Zn  Zn160  1  0.93265840  0.18861491  0.93996708  1
  Zn  Zn161  1  0.93858247  0.68858059  0.44057707  1
  Zn  Zn162  1  0.94632898  0.69441989  0.94305151  1
  Zn  Zn163  1  0.05882177  0.31386858  0.06009202  1
  Zn  Zn164  1  0.06148829  0.31324520  0.56284494  1
  Zn  Zn165  1  0.06280133  0.81447172  0.06235236  1
  Zn  Zn166  1  0.06311751  0.81460299  0.56109258  1
  Zn  Zn167  1  0.56270473  0.31233709  0.05599521  1
  Zn  Zn168  1  0.55846174  0.30712662  0.56106167  1
  Zn  Zn169  1  0.56449914  0.81917161  0.06016084  1
  Zn  Zn170  1  0.56134504  0.80832963  0.56236580  1
  O  O171  1  0.11510085  0.12797842  0.12887994  1
  O  O172  1  0.12248477  0.11803834  0.62209354  1
  O  O173  1  0.12134260  0.61912275  0.12044388  1
  O  O174  1  0.11708727  0.61695483  0.62013185  1
  O  O175  1  0.61620323  0.11575240  0.12775973  1
  O  O176  1  0.61900139  0.11646726  0.62039893  1
  O  O177  1  0.63386548  0.61507846  0.11530141  1
  O  O178  1  0.62680824  0.62602135  0.61765121  1
  O  O179  1  0.37552050  0.38647527  0.37827152  1
  O  O180  1  0.37959463  0.37855592  0.87963003  1
  O  O181  1  0.38285233  0.88091210  0.38285412  1
  O  O182  1  0.38408073  0.88299126  0.88136417  1
  O  O183  1  0.87965286  0.38047319  0.38052659  1
  O  O184  1  0.88270509  0.37472764  0.88482484  1
  O  O185  1  0.88079840  0.88174859  0.37902136  1
  O  O186  1  0.87538497  0.88184333  0.87917131  1
  O  O187  1  0.26438502  0.00746666  0.37867506  1
  O  O188  1  0.24857811  0.01557471  0.88465677  1
  O  O189  1  0.25700475  0.50472839  0.36989664  1
  O  O190  1  0.25454700  0.49333212  0.86563248  1
  O  O191  1  0.75901250  0.00810450  0.38296853  1
  O  O192  1  0.74515854  0.00570165  0.88058186  1
  O  O193  1  0.76249759  0.50754753  0.37910312  1
  O  O194  1  0.77053103  0.51891768  0.88432620  1
  O  O195  1  0.24176226  0.50197345  0.13299656  1
  O  O196  1  0.24440783  0.49224533  0.63228274  1
  O  O197  1  0.26621327  1.01813155  0.13924554  1
  O  O198  1  0.23635751  0.99366299  0.61710668  1
  O  O199  1  0.74198459  0.48823591  0.12451623  1
  O  O200  1  0.73075020  0.47734750  0.61362615  1
  O  O201  1  0.73456145  1.00768677  0.11957609  1
  O  O202  1  0.73401068  0.99530017  0.61872397  1
  O  O203  1  0.00370939  0.37447262  0.26247766  1
  O  O204  1  -0.01203686  0.36705643  0.76552313  1
  O  O205  1  0.00574496  0.86875436  0.25694738  1
  O  O206  1  0.01076836  0.86711945  0.75178527  1
  O  O207  1  0.51023116  0.36720104  0.25122919  1
  O  O208  1  0.49266875  0.37539791  0.75978139  1
  O  O209  1  0.49929598  0.87760944  0.26755390  1
  O  O210  1  0.49225233  0.87052662  0.76357404  1
  O  O211  1  0.50023939  0.13507933  0.23777228  1
  O  O212  1  0.49301589  0.12103878  0.73860538  1
  O  O213  1  0.49926311  0.61635937  0.24390519  1
  O  O214  1  0.50158480  0.62442637  0.73602809  1
  O  O215  1  0.99257027  0.12671499  0.23765997  1
  O  O216  1  0.99100986  0.13366152  0.74899782  1
  O  O217  1  0.99621137  0.63101983  0.24376752  1
  O  O218  1  1.00730269  0.63905760  0.73887467  1
  O  O219  1  0.36909426  0.25685860  0.01022000  1
  O  O220  1  0.37244195  0.25043636  0.51424645  1
  O  O221  1  0.36249909  0.74911226  0.01099886  1
  O  O222  1  0.37641419  0.75977747  0.49833340  1
  O  O223  1  0.86287009  0.25971347  0.00024293  1
  O  O224  1  0.86929502  0.25634335  0.50254541  1
  O  O225  1  0.87953134  0.76526683  0.00840222  1
  O  O226  1  0.86845325  0.75782745  0.50484878  1
  O  O227  1  0.12570502  0.24863879  0.48827309  1
  O  O228  1  0.13305907  0.25644731  0.99154506  1
  O  O229  1  0.12067852  0.75095901  0.48461720  1
  O  O230  1  0.13557180  0.74722356  0.99424789  1
  O  O231  1  0.62802056  0.23966747  0.49207224  1
  O  O232  1  0.63948671  0.25146201  0.99550573  1
  O  O233  1  0.63271605  0.74027410  0.49503158  1
  O  O234  1  0.62704315  0.74378485  0.99669954  1
  O  O235  1  0.49243706  0.24423852  0.12635384  1
  O  O236  1  0.49130775  0.23674548  0.62128148  1
  O  O237  1  0.48934374  0.75241481  0.12110272  1
  O  O238  1  0.50296046  0.73345120  0.62728927  1
  O  O239  1  0.99851173  0.23754031  0.12488868  1
  O  O240  1  0.99308758  0.24925046  0.63316470  1
  O  O241  1  0.99250944  0.74449278  0.13030071  1
  O  O242  1  0.99569389  0.74710288  0.63000628  1
  O  O243  1  0.00730131  0.25644238  0.37248143  1
  O  O244  1  0.00414704  0.25366215  0.87063394  1
  O  O245  1  0.00579105  0.75526631  0.36957616  1
  O  O246  1  0.00726729  0.76023861  0.86610562  1
  O  O247  1  0.50540492  0.24948851  0.36995170  1
  O  O248  1  0.51012685  0.25267099  0.87779225  1
  O  O249  1  0.49754752  0.76241282  0.38240605  1
  O  O250  1  0.50877853  0.75646093  0.87582861  1
  O  O251  1  0.24751619  0.12717452  0.48864084  1
  O  O252  1  0.25302651  0.14254762  0.98812859  1
  O  O253  1  0.24871812  0.61882694  0.48803759  1
  O  O254  1  0.23857318  0.63988003  1.00231156  1
  O  O255  1  0.74547879  0.12866232  0.49012828  1
  O  O256  1  0.75901146  0.13513420  0.98395892  1
  O  O257  1  0.74578587  0.63249355  0.49935318  1
  O  O258  1  0.74511973  0.63111125  0.99051768  1
  O  O259  1  0.26031677  0.36590629  -0.00121974  1
  O  O260  1  0.25423671  0.37404016  0.51409778  1
  O  O261  1  0.25084445  0.85528733  -0.00748528  1
  O  O262  1  0.26151285  0.87885594  0.50534780  1
  O  O263  1  0.76093175  0.37081302  0.00380721  1
  O  O264  1  0.75525248  0.36472498  0.50688662  1
  O  O265  1  0.76075305  0.87522238  0.01109359  1
  O  O266  1  0.75262460  0.86065259  0.49700198  1
  O  O267  1  0.13147784  0.49791991  0.24455571  1
  O  O268  1  0.13737781  0.50531992  0.73922337  1
  O  O269  1  0.12118687  0.98595567  0.25374570  1
  O  O270  1  0.11623189  0.99212736  0.73841442  1
  O  O271  1  0.63013291  0.48654113  0.24237384  1
  O  O272  1  0.64506563  0.48662848  0.79384205  1
  O  O273  1  0.61798957  0.99780004  0.23634616  1
  O  O274  1  0.62225545  1.00139145  0.73479146  1
  O  O275  1  0.37946888  0.00238097  0.25650118  1
  O  O276  1  0.37612240  0.01371539  0.75138293  1
  O  O277  1  0.36766400  0.49866870  0.25685776  1
  O  O278  1  0.36289324  0.50002292  0.76227371  1
  O  O279  1  0.88152902  0.00733418  0.26086772  1
  O  O280  1  0.88121607  0.00489861  0.74973096  1
  O  O281  1  0.87381981  0.50513226  0.26063304  1
  O  O282  1  0.85309785  0.51595137  0.70570347  1
  O  O283  1  0.11733842  0.37154120  0.37472680  1
  O  O284  1  0.10796157  0.36656889  0.87949652  1
  O  O285  1  0.12067547  0.86923447  0.36942542  1
  O  O286  1  0.12332950  0.87007375  0.86465978  1
  O  O287  1  0.62781663  0.36904435  0.36567395  1
  O  O288  1  0.61195285  0.35670937  0.88482030  1
  O  O289  1  0.60706336  0.87669483  0.37870509  1
  O  O290  1  0.61931088  0.86115185  0.88335786  1
  O  O291  1  0.37557876  0.13053558  0.13437374  1
  O  O292  1  0.38024698  0.12798110  0.63014229  1
  O  O293  1  0.37598154  0.64031886  0.12721199  1
  O  O294  1  0.38411361  0.62525223  0.62313270  1
  O  O295  1  0.87269751  0.12517909  0.13589220  1
  O  O296  1  0.87351186  0.12925796  0.63616745  1
  O  O297  1  0.88140067  0.62994119  0.12726783  1
  O  O298  1  0.88370242  0.64283279  0.61381744  1
  O  O299  1  0.25598960  0.25418245  0.11766744  1
  O  O300  1  0.25419786  0.25679711  0.62549035  1
  O  O301  1  0.25226613  0.74917520  0.12011270  1
  O  O302  1  0.24283936  0.76404790  0.62433660  1
  O  O303  1  0.74991217  0.26000260  0.11729992  1
  O  O304  1  0.75568566  0.25129318  0.61841554  1
  O  O305  1  0.76779282  0.74751453  0.12508121  1
  O  O306  1  0.75714607  0.75399675  0.62176835  1
  O  O307  1  0.24425759  0.24415839  0.37685810  1
  O  O308  1  0.23954029  0.24827528  0.87942460  1
  O  O309  1  0.24353932  0.73940127  0.36951096  1
  O  O310  1  0.25347339  0.74076617  0.86930374  1
  O  O311  1  0.74387035  0.24078953  0.37984617  1
  O  O312  1  0.73987559  0.24568473  0.87749800  1
  O  O313  1  0.75739925  0.73388487  0.38533161  1
  O  O314  1  0.73767179  0.74437436  0.88300823  1
  O  O315  1  -0.00545303  0.11940432  0.01290124  1
  O  O316  1  -0.00123859  0.11371805  0.49987562  1
  O  O317  1  0.01598671  0.63186708  0.00894309  1
  O  O318  1  0.00314648  0.62820904  0.51394439  1
  O  O319  1  0.49110101  0.11996119  0.01495309  1
  O  O320  1  0.50381343  0.11425476  0.50988742  1
  O  O321  1  0.51124141  0.62134800  0.00999380  1
  O  O322  1  0.50830621  0.61829835  0.51125887  1
  O  O323  1  0.49856492  0.38298135  0.49967478  1
  O  O324  1  0.48621347  0.37482645  0.99327458  1
  O  O325  1  0.49261031  0.88062203  0.49561854  1
  O  O326  1  0.49771252  0.88404740  0.98949836  1
  O  O327  1  0.99009603  0.36945116  0.48835589  1
  O  O328  1  0.98637998  0.37091591  0.98747598  1
  O  O329  1  0.99483415  0.88589067  0.49332036  1
  O  O330  1  0.99593446  0.88248710  0.99306383  1
  O  O331  1  0.49328175  0.49699954  0.38390870  1
  O  O332  1  0.48859637  0.49085007  0.87633512  1
  O  O333  1  0.49037527  0.99421849  0.38279467  1
  O  O334  1  0.50476752  0.99519781  0.88195238  1
  O  O335  1  0.98952152  0.49370456  0.37539341  1
  O  O336  1  1.00424290  0.48735731  0.86799887  1
  O  O337  1  0.99181331  0.99730512  0.38060081  1
  O  O338  1  1.00511818  0.99436991  0.88457366  1
  O  O339  1  -0.00160678  0.01650704  0.11870702  1
  O  O340  1  0.00976650  0.00096358  0.61354879  1
  O  O341  1  0.01322959  0.50555207  0.13095177  1
  O  O342  1  0.00843379  0.50851983  0.63414099  1
  O  O343  1  0.50500652  0.00738850  0.12072258  1
  O  O344  1  0.50825469  0.00279002  0.61927288  1
  O  O345  1  0.51683954  0.49382463  0.11919109  1
  O  O346  1  0.49637383  0.51208189  0.61887756  1
  O  O347  1  0.24162701  0.38831101  0.24926251  1
  O  O348  1  0.25162220  0.38170853  0.73963389  1
  O  O349  1  0.23687361  0.87612312  0.25472095  1
  O  O350  1  0.23737904  0.87897231  0.73938745  1
  O  O351  1  0.74451009  0.37345287  0.24023689  1
  O  O352  1  0.75678810  0.37215174  0.73396170  1
  O  O353  1  0.75117955  0.88155537  0.24892702  1
  O  O354  1  0.76567013  0.88222783  0.76025431  1
  O  O355  1  0.25314960  0.12941634  0.25856233  1
  O  O356  1  0.25581175  0.12947687  0.75991904  1
  O  O357  1  0.25182819  0.61349487  0.26042106  1
  O  O358  1  0.25222653  0.62001688  0.75052362  1
  O  O359  1  0.75538473  0.12861167  0.26033737  1
  O  O360  1  0.75758264  0.12473525  0.76280306  1
  O  O361  1  0.75894981  0.62011253  0.26197519  1
  O  O362  1  0.74658573  0.62893071  0.77231916  1
  O  O363  1  0.36838457  0.11725189  0.37679064  1
  O  O364  1  0.36569811  0.12721365  0.86665424  1
  O  O365  1  0.37000038  0.61409389  0.37412536  1
  O  O366  1  0.37490764  0.61926817  0.88020558  1
  O  O367  1  0.86805187  0.11829747  0.36473800  1
  O  O368  1  0.86746585  0.12635210  0.86350626  1
  O  O369  1  0.87284268  0.61605285  0.37481888  1
  O  O370  1  0.86746474  0.64472358  0.87732037  1
  O  O371  1  0.12447211  0.38390320  0.12875553  1
  O  O372  1  0.13150585  0.38088995  0.62401484  1
  O  O373  1  0.12232117  0.87029494  0.14070355  1
  O  O374  1  0.12955754  0.88221033  0.62902504  1
  O  O375  1  0.63304764  0.37804841  0.12784977  1
  O  O376  1  0.63512295  0.35716933  0.62793635  1
  O  O377  1  0.62596827  0.89081077  0.12672019  1
  O  O378  1  0.62604140  0.88535775  0.62296673  1
  O  O379  1  0.12353825  0.26108654  0.26187769  1
  O  O380  1  0.10936187  0.25001065  0.75627250  1
  O  O381  1  0.11928757  0.75525034  0.26063026  1
  O  O382  1  0.12045766  0.75798694  0.75412202  1
  O  O383  1  0.62049094  0.25811253  0.25286487  1
  O  O384  1  0.62555696  0.24690251  0.76295107  1
  O  O385  1  0.63118469  0.75464445  0.25845785  1
  O  O386  1  0.62168717  0.74916076  0.76603786  1
  O  O387  1  0.37817471  0.26046991  0.23678340  1
  O  O388  1  0.37129635  0.23785436  0.73801648  1
  O  O389  1  0.37127163  0.74991532  0.23707068  1
  O  O390  1  0.36961843  0.73936818  0.76368632  1
  O  O391  1  0.87743109  0.23946571  0.24729406  1
  O  O392  1  0.88247346  0.24183362  0.74675533  1
  O  O393  1  0.88387469  0.74271233  0.24476870  1
  O  O394  1  0.88887839  0.75512061  0.73831466  1
  O  O395  1  0.38630891  0.49876749  0.49335980  1
  O  O396  1  0.37064167  0.49325113  0.99008472  1
  O  O397  1  0.38546260  0.99592829  0.49463552  1
  O  O398  1  0.38861578  0.99808746  0.99615650  1
  O  O399  1  0.87037648  0.48515413  0.49759814  1
  O  O400  1  0.87624671  0.48504864  1.00820555  1
  O  O401  1  0.88055566  0.99547759  0.49231971  1
  O  O402  1  0.88613147  0.98947170  1.00542440  1
  O  O403  1  0.11451824  -0.00360169  0.00353586  1
  O  O404  1  0.11652291  0.00150750  0.50329572  1
  O  O405  1  0.13301112  0.50935042  0.00867899  1
  O  O406  1  0.12704127  0.50117549  0.51429897  1
  O  O407  1  0.61154308  0.00145951  0.01332195  1
  O  O408  1  0.61357111  0.00309397  0.50497408  1
  O  O409  1  0.62665061  0.50814875  0.00202807  1
  O  O410  1  0.61285771  0.50614547  0.49563521  1
  O  O411  1  0.37349337  0.37122694  0.11685084  1
  O  O412  1  0.36829662  0.36619521  0.62712848  1
  O  O413  1  0.37534655  0.86092771  0.12167782  1
  O  O414  1  0.36527224  0.88027147  0.61555978  1
  O  O415  1  0.86956884  0.37247087  0.11764604  1
  O  O416  1  0.87071003  0.36526909  0.61607557  1
  O  O417  1  0.88054318  0.86922212  0.11996331  1
  O  O418  1  0.87239509  0.86694221  0.61663975  1
  O  O419  1  0.13272880  0.13351401  0.37318137  1
  O  O420  1  0.12986669  0.13927385  0.86957231  1
  O  O421  1  0.13305580  0.63223321  0.37662965  1
  O  O422  1  0.11982628  0.63375818  0.88315696  1
  O  O423  1  0.63090363  0.12475762  0.37758964  1
  O  O424  1  0.63080996  0.13728518  0.87467373  1
  O  O425  1  0.63630621  0.61953816  0.38637290  1
  O  O426  1  0.62348141  0.63707526  0.88671183  1
