# generated using pymatgen
data_V85Zn86O256
_symmetry_space_group_name_H-M   'P 1'
_cell_length_a   16.93811210
_cell_length_b   16.93215498
_cell_length_c   16.93989695
_cell_angle_alpha   89.99713617
_cell_angle_beta   89.97375146
_cell_angle_gamma   89.99381808
_symmetry_Int_Tables_number   1
_chemical_formula_structural   V85Zn86O256
_chemical_formula_sum   'V85 Zn86 O256'
_cell_volume   4858.34054475
_cell_formula_units_Z   1
loop_
 _symmetry_equiv_pos_site_id
 _symmetry_equiv_pos_as_xyz
  1  'x, y, z'
loop_
 _atom_site_type_symbol
 _atom_site_label
 _atom_site_symmetry_multiplicity
 _atom_site_fract_x
 _atom_site_fract_y
 _atom_site_fract_z
 _atom_site_occupancy
  V  V0  1  0.62519999  0.49935425  0.62706646  1
  V  V1  1  0.23384566  0.37918735  0.13279116  1
  V  V2  1  0.37410019  0.25370718  0.12661840  1
  V  V3  1  -0.00071109  0.86983544  0.87212694  1
  V  V4  1  0.37476813  0.12583438  0.74632545  1
  V  V5  1  0.74702107  0.25261724  0.00071602  1
  V  V6  1  0.24737908  0.37686306  0.62481361  1
  V  V7  1  0.37132391  0.50431169  0.87764458  1
  V  V8  1  0.37500434  0.25023438  0.62516491  1
  V  V9  1  0.12613303  0.73797240  0.87573463  1
  V  V10  1  0.87158043  0.60883662  0.24620175  1
  V  V11  1  0.87565499  0.25097444  0.63721955  1
  V  V12  1  0.63101030  0.12365326  0.48155700  1
  V  V13  1  -0.00075749  0.25468025  0.25420052  1
  V  V14  1  0.37387696  0.49734050  0.36903007  1
  V  V15  1  0.62892185  0.74573220  0.37143249  1
  V  V16  1  -0.00348153  0.12314500  0.12778439  1
  V  V17  1  -0.00484817  0.12799054  0.63852427  1
  V  V18  1  0.38182774  0.74221364  0.12468761  1
  V  V19  1  0.75382526  0.00171847  0.26030040  1
  V  V20  1  0.62591375  0.74865585  0.86633355  1
  V  V21  1  0.88653916  0.37574647  0.49077603  1
  V  V22  1  0.11759448  0.51599541  0.61940409  1
  V  V23  1  0.24932749  0.00079641  0.25195256  1
  V  V24  1  0.50065523  0.63167001  0.62882524  1
  V  V25  1  0.24578176  0.73473908  -0.00266088  1
  V  V26  1  0.37647997  0.37415544  0.50112748  1
  V  V27  1  0.24926316  -0.00081794  0.74870007  1
  V  V28  1  0.37671919  0.87237177  0.49941196  1
  V  V29  1  0.87510248  0.74654032  0.12259507  1
  V  V30  1  0.50564433  0.12383463  0.11930205  1
  V  V31  1  0.62469485  0.62859874  0.00640072  1
  V  V32  1  0.01513208  0.61824571  0.11401669  1
  V  V33  1  0.51484205  0.12129047  0.62471496  1
  V  V34  1  0.88911310  0.75153072  0.62834632  1
  V  V35  1  0.24954575  0.12693248  0.87553085  1
  V  V36  1  0.12262746  -0.00014426  0.62405631  1
  V  V37  1  0.37650190  0.63034038  0.75235828  1
  V  V38  1  0.12472673  0.00039178  0.12584361  1
  V  V39  1  -0.00404043  -0.00069326  -0.00463886  1
  V  V40  1  0.00400379  0.48095949  -0.01012684  1
  V  V41  1  0.50764419  0.24754503  0.25310387  1
  V  V42  1  0.50729141  0.36900352  0.37610425  1
  V  V43  1  0.25077773  0.87420900  0.62370095  1
  V  V44  1  0.12267943  0.87611125  0.25237373  1
  V  V45  1  0.37878528  0.00009406  0.37652355  1
  V  V46  1  0.25051502  0.74277749  0.50222414  1
  V  V47  1  0.62398551  0.37554768  0.75260914  1
  V  V48  1  -0.00563508  0.52160304  0.49420418  1
  V  V49  1  0.49902466  0.37652131  0.87901861  1
  V  V50  1  0.87357127  0.87689546  -0.00712402  1
  V  V51  1  0.24964409  0.62266442  0.37353006  1
  V  V52  1  0.76294045  0.00367155  0.74617943  1
  V  V53  1  0.25108689  0.12561884  0.37678681  1
  V  V54  1  0.61944825  0.23202465  0.88122550  1
  V  V55  1  0.37383358  -0.00068689  0.87499400  1
  V  V56  1  0.75109170  0.50676868  0.75183591  1
  V  V57  1  0.50085956  0.50542557  0.00970427  1
  V  V58  1  0.49889365  0.86815079  0.86966747  1
  V  V59  1  0.50392842  0.87169922  0.37165968  1
  V  V60  1  0.62879844  0.62214248  0.49944374  1
  V  V61  1  0.63449144  0.38064130  0.24869815  1
  V  V62  1  0.62176839  0.88296120  0.74030191  1
  V  V63  1  0.75498731  0.61116594  0.37007504  1
  V  V64  1  0.12645280  0.12404636  0.00035173  1
  V  V65  1  0.87219164  0.25210527  0.12206335  1
  V  V66  1  0.76699838  0.11555778  0.87999128  1
  V  V67  1  0.12271478  0.12296141  0.50138194  1
  V  V68  1  -0.01950887  -0.00172432  0.49826908  1
  V  V69  1  0.89414955  0.62667233  0.74944375  1
  V  V70  1  0.12095973  0.25410716  0.87056564  1
  V  V71  1  0.75334874  0.75620947  0.50496550  1
  V  V72  1  0.25001558  0.87533241  0.12351652  1
  V  V73  1  -0.00096886  0.75224181  0.24748825  1
  V  V74  1  0.12155290  0.86850752  0.75013996  1
  V  V75  1  0.74876944  0.25112868  0.48778734  1
  V  V76  1  0.11694193  0.37417832  0.74823300  1
  V  V77  1  0.49991086  0.25007777  0.75071990  1
  V  V78  1  0.12581055  0.75181665  0.38005825  1
  V  V79  1  0.87259220  0.12189253  0.26676863  1
  V  V80  1  0.12226386  0.25480672  0.37405594  1
  V  V81  1  0.74890665  0.87805780  0.12164979  1
  V  V82  1  0.37345452  0.87631071  -0.00033444  1
  V  V83  1  0.50064740  0.49831416  0.50149059  1
  V  V84  1  0.24758862  0.50567630  0.75438760  1
  Zn  Zn85  1  0.62670299  0.87530816  0.24684401  1
  Zn  Zn86  1  0.24901417  0.25507445  0.00188776  1
  Zn  Zn87  1  0.75360628  0.88012051  0.62180384  1
  Zn  Zn88  1  0.63283816  0.00744645  0.11940295  1
  Zn  Zn89  1  0.87353286  0.47770143  0.88237825  1
  Zn  Zn90  1  0.24909915  0.25051587  0.49925489  1
  Zn  Zn91  1  0.22112987  0.49999102  0.24693258  1
  Zn  Zn92  1  0.75560759  0.38445948  0.12086837  1
  Zn  Zn93  1  0.51179342  -0.00389367  0.50388673  1
  Zn  Zn94  1  0.37929892  0.75255326  0.62986391  1
  Zn  Zn95  1  0.37091596  0.37747929  0.00288269  1
  Zn  Zn96  1  0.37728114  0.12610968  0.25136633  1
  Zn  Zn97  1  0.50573001  0.00401307  -0.00438030  1
  Zn  Zn98  1  0.50917711  0.74039560  0.23991497  1
  Zn  Zn99  1  0.75172594  0.37510927  0.62296057  1
  Zn  Zn100  1  0.74978415  0.75008053  -0.00485140  1
  Zn  Zn101  1  -0.01980426  0.89014932  0.37221770  1
  Zn  Zn102  1  0.75412937  0.62483923  0.87560765  1
  Zn  Zn103  1  0.37807604  0.61865028  0.24446166  1
  Zn  Zn104  1  -0.04471553  0.31919384  0.81688593  1
  Zn  Zn105  1  0.05419357  0.42007504  0.32290457  1
  Zn  Zn106  1  0.63174027  0.50944320  0.13086191  1
  Zn  Zn107  1  0.18737057  0.18986520  0.19052814  1
  Zn  Zn108  1  0.18573424  0.18934665  0.68691505  1
  Zn  Zn109  1  0.19312713  0.68794170  0.19030185  1
  Zn  Zn110  1  0.18923966  0.68822867  0.69012277  1
  Zn  Zn111  1  0.68822764  0.18832274  0.19253442  1
  Zn  Zn112  1  0.69383437  0.18663789  0.69056278  1
  Zn  Zn113  1  0.69302848  0.68787420  0.18547885  1
  Zn  Zn114  1  0.68631984  0.69100972  0.68757376  1
  Zn  Zn115  1  0.31279574  0.31292055  0.31008747  1
  Zn  Zn116  1  0.30930073  0.31653877  0.81291431  1
  Zn  Zn117  1  0.31310682  0.81279688  0.31065962  1
  Zn  Zn118  1  0.30801456  0.81011880  0.81425768  1
  Zn  Zn119  1  0.81849316  0.31410478  0.31212143  1
  Zn  Zn120  1  0.79263448  0.31057337  0.81420945  1
  Zn  Zn121  1  0.81087840  0.81222223  0.30995309  1
  Zn  Zn122  1  0.81077625  0.81218204  0.80715317  1
  Zn  Zn123  1  0.18642977  0.44349468  0.44441672  1
  Zn  Zn124  1  0.18426759  0.43828581  0.94204280  1
  Zn  Zn125  1  0.18590110  0.93597242  0.43842113  1
  Zn  Zn126  1  0.18590863  0.93496428  0.93676166  1
  Zn  Zn127  1  0.68925726  0.43241935  0.43748751  1
  Zn  Zn128  1  0.68757190  0.43916010  0.93851510  1
  Zn  Zn129  1  0.68847178  0.93698737  0.43802631  1
  Zn  Zn130  1  0.68397774  0.94088874  0.93638383  1
  Zn  Zn131  1  0.31639948  0.06528724  0.06379850  1
  Zn  Zn132  1  0.31478641  0.06208915  0.56086808  1
  Zn  Zn133  1  0.30731848  0.55700940  0.06430485  1
  Zn  Zn134  1  0.31367822  0.56174445  0.56381541  1
  Zn  Zn135  1  0.81295616  0.06487303  0.06276412  1
  Zn  Zn136  1  0.80742915  0.06967295  0.56683513  1
  Zn  Zn137  1  0.81422327  0.55911518  0.05650272  1
  Zn  Zn138  1  0.81515611  0.56687280  0.56445357  1
  Zn  Zn139  1  0.44153899  0.43363127  0.18854204  1
  Zn  Zn140  1  0.43706330  0.44107278  0.68980894  1
  Zn  Zn141  1  0.43791535  0.93566585  0.18932053  1
  Zn  Zn142  1  0.43943471  0.93970097  0.68570581  1
  Zn  Zn143  1  0.94232166  0.43749677  0.17453976  1
  Zn  Zn144  1  0.93322606  0.44494977  0.67769234  1
  Zn  Zn145  1  0.93324813  0.93717313  0.18460472  1
  Zn  Zn146  1  0.93750199  0.93496499  0.68528411  1
  Zn  Zn147  1  0.05923310  0.06593435  0.31631244  1
  Zn  Zn148  1  0.06278834  0.05767929  0.81460884  1
  Zn  Zn149  1  0.05667393  0.58372451  0.31748186  1
  Zn  Zn150  1  0.06165085  0.55379933  0.81866517  1
  Zn  Zn151  1  0.56541627  0.05881107  0.30630096  1
  Zn  Zn152  1  0.55977158  0.05534030  0.80893111  1
  Zn  Zn153  1  0.55890151  0.56199044  0.31065825  1
  Zn  Zn154  1  0.55997448  0.56408462  0.81650692  1
  Zn  Zn155  1  0.44093885  0.18713054  0.44032612  1
  Zn  Zn156  1  0.43322913  0.18988904  0.94070192  1
  Zn  Zn157  1  0.43945043  0.68512409  0.43534482  1
  Zn  Zn158  1  0.43816264  0.68705021  0.93771814  1
  Zn  Zn159  1  0.93855310  0.18910097  0.44379408  1
  Zn  Zn160  1  0.93677476  0.18913786  0.94191101  1
  Zn  Zn161  1  0.92227161  0.71528610  0.42346957  1
  Zn  Zn162  1  0.93760437  0.68612015  0.93500555  1
  Zn  Zn163  1  0.06255062  0.30689088  0.06250185  1
  Zn  Zn164  1  0.06072188  0.31109619  0.56444749  1
  Zn  Zn165  1  0.06292951  0.80969584  0.06094879  1
  Zn  Zn166  1  0.06109657  0.81471706  0.55896360  1
  Zn  Zn167  1  0.56395493  0.31249326  0.06335043  1
  Zn  Zn168  1  0.56622121  0.30741478  0.56343408  1
  Zn  Zn169  1  0.56439752  0.81751030  0.05538450  1
  Zn  Zn170  1  0.56527051  0.81011443  0.55892317  1
  O  O171  1  0.11903548  0.11962618  0.12124898  1
  O  O172  1  0.11889835  0.12140768  0.61902347  1
  O  O173  1  0.11243417  0.63051646  0.13149222  1
  O  O174  1  0.12786938  0.61380885  0.62699812  1
  O  O175  1  0.60854500  0.12797480  0.12879529  1
  O  O176  1  0.61689878  0.13176704  0.62335121  1
  O  O177  1  0.62528611  0.63065070  0.11095967  1
  O  O178  1  0.61793323  0.61928575  0.62179695  1
  O  O179  1  0.38037158  0.37965453  0.38247392  1
  O  O180  1  0.38016569  0.38535908  0.87609843  1
  O  O181  1  0.38274110  0.87891165  0.37921257  1
  O  O182  1  0.37888229  0.87754615  0.87877151  1
  O  O183  1  0.87469807  0.37537422  0.39161825  1
  O  O184  1  0.87089359  0.36396508  0.87152178  1
  O  O185  1  0.89259381  0.82265331  0.38332954  1
  O  O186  1  0.88313840  0.86683474  0.88464303  1
  O  O187  1  0.25731697  0.00478706  0.37242260  1
  O  O188  1  0.25362483  0.00696075  0.86971122  1
  O  O189  1  0.25683686  0.50625072  0.37706531  1
  O  O190  1  0.25780220  0.49379189  0.86574298  1
  O  O191  1  0.75123170  -0.00805733  0.35912208  1
  O  O192  1  0.74845341  0.01088012  0.86872240  1
  O  O193  1  0.74887746  0.51227278  0.38056715  1
  O  O194  1  0.75487365  0.50090921  0.86654070  1
  O  O195  1  0.25089677  0.48526335  0.13122477  1
  O  O196  1  0.23902106  0.49488064  0.62769022  1
  O  O197  1  0.24632085  0.99608660  0.13124016  1
  O  O198  1  0.24408484  0.99450382  0.62847007  1
  O  O199  1  0.74376935  0.49583681  0.11432664  1
  O  O200  1  0.74197263  0.49819827  0.63140199  1
  O  O201  1  0.75326303  0.99168367  0.13045341  1
  O  O202  1  0.75222599  1.00035685  0.64048849  1
  O  O203  1  -0.00961002  0.35955368  0.24889486  1
  O  O204  1  0.01277402  0.38135710  0.73981915  1
  O  O205  1  0.00471164  0.87196427  0.25236892  1
  O  O206  1  0.00994525  0.88149098  0.75977855  1
  O  O207  1  0.50840095  0.36763145  0.25863033  1
  O  O208  1  0.50416525  0.37115386  0.75791366  1
  O  O209  1  0.50165359  0.86873511  0.26112650  1
  O  O210  1  0.51102325  0.88036865  0.75464738  1
  O  O211  1  0.49863344  0.13198125  0.24385592  1
  O  O212  1  0.49465969  0.12891551  0.74251705  1
  O  O213  1  0.48988046  0.63049350  0.25793733  1
  O  O214  1  0.49002932  0.61742441  0.74024169  1
  O  O215  1  0.99141807  0.12926511  0.24555623  1
  O  O216  1  1.00516566  0.11752873  0.73746447  1
  O  O217  1  0.98646485  0.63300183  0.23734787  1
  O  O218  1  0.99199969  0.61927965  0.74922961  1
  O  O219  1  0.36979722  0.25432968  0.01041365  1
  O  O220  1  0.37341687  0.25641922  0.50740609  1
  O  O221  1  0.36552288  0.75482589  0.00588796  1
  O  O222  1  0.36872230  0.75712903  0.49979352  1
  O  O223  1  0.86332635  0.24136805  0.01124670  1
  O  O224  1  0.86782412  0.25907707  0.50604700  1
  O  O225  1  0.87576993  0.75754281  0.00784281  1
  O  O226  1  0.86342176  0.73573616  0.52134681  1
  O  O227  1  0.12465227  0.23700035  0.49704320  1
  O  O228  1  0.12800368  0.24104394  0.99103395  1
  O  O229  1  0.13631194  0.75880103  0.49065957  1
  O  O230  1  0.13970422  0.75643130  0.99304156  1
  O  O231  1  0.64064738  0.24308645  0.50317501  1
  O  O232  1  0.62860974  0.24884989  0.99032904  1
  O  O233  1  0.63258199  0.74044494  0.49352479  1
  O  O234  1  0.62343159  0.74519250  0.98664259  1
  O  O235  1  0.49442916  0.24165718  0.13136256  1
  O  O236  1  0.49440138  0.24337875  0.63213925  1
  O  O237  1  0.48449612  0.75815278  0.12105949  1
  O  O238  1  0.49877727  0.73569232  0.61934867  1
  O  O239  1  0.99367769  0.24126068  0.13221877  1
  O  O240  1  0.98731091  0.24171196  0.62181960  1
  O  O241  1  0.99461357  0.74604665  0.12974030  1
  O  O242  1  0.98846168  0.75167563  0.62106525  1
  O  O243  1  0.00914691  0.24273018  0.36781775  1
  O  O244  1  0.01534709  0.23924324  0.87370406  1
  O  O245  1  0.02199775  0.73098276  0.36264396  1
  O  O246  1  0.01146237  0.76270782  0.88269518  1
  O  O247  1  0.49455044  0.26119229  0.36894567  1
  O  O248  1  0.50267010  0.25497426  0.87124605  1
  O  O249  1  0.51334886  0.75540197  0.37792968  1
  O  O250  1  0.50313544  0.76228393  0.87489806  1
  O  O251  1  0.24230657  0.12617762  0.49414092  1
  O  O252  1  0.24515030  0.12540874  0.99122950  1
  O  O253  1  0.25671051  0.63756829  0.49555091  1
  O  O254  1  0.24991767  0.63635463  1.00227183  1
  O  O255  1  0.73978857  0.13646603  0.50104189  1
  O  O256  1  0.75138617  0.12846936  0.98598640  1
  O  O257  1  0.74594850  0.63045760  0.49279990  1
  O  O258  1  0.73983844  0.62946136  0.99324310  1
  O  O259  1  0.25055356  0.37493007  0.01545318  1
  O  O260  1  0.25487960  0.37539799  0.51237610  1
  O  O261  1  0.26057200  0.87230161  0.00300410  1
  O  O262  1  0.25675590  0.86721016  0.50430615  1
  O  O263  1  0.74233707  0.35655933  -0.00118254  1
  O  O264  1  0.75645583  0.36457817  0.50320381  1
  O  O265  1  0.75918554  0.87521562  0.00319835  1
  O  O266  1  0.74440229  0.86095695  0.50221065  1
  O  O267  1  0.11083155  0.49899617  0.26654424  1
  O  O268  1  0.13073898  0.49526972  0.74035925  1
  O  O269  1  0.12766166  0.99529739  0.24726574  1
  O  O270  1  0.13119339  0.98995511  0.74430795  1
  O  O271  1  0.61963667  0.48494836  0.24894106  1
  O  O272  1  0.62822891  0.49297627  0.74848051  1
  O  O273  1  0.63905968  0.99667077  0.24201086  1
  O  O274  1  0.63233886  0.98663804  0.75276045  1
  O  O275  1  0.36979377  -0.00091495  0.26292935  1
  O  O276  1  0.36858685  0.00646461  0.75480634  1
  O  O277  1  0.37847815  0.49504888  0.26456622  1
  O  O278  1  0.36672121  0.50659440  0.75682862  1
  O  O279  1  0.86500332  0.00697325  0.24710114  1
  O  O280  1  0.86166208  -0.00580130  0.75205011  1
  O  O281  1  0.88120296  0.51076431  0.24382351  1
  O  O282  1  0.86779985  0.51191957  0.74813694  1
  O  O283  1  0.12897162  0.35892057  0.38777958  1
  O  O284  1  0.13231350  0.36475892  0.86314865  1
  O  O285  1  0.12258483  0.86853737  0.36780299  1
  O  O286  1  0.12000176  0.86881603  0.86739216  1
  O  O287  1  0.61678380  0.37720803  0.36522103  1
  O  O288  1  0.61882821  0.36844051  0.86562320  1
  O  O289  1  0.61916868  0.86611016  0.37353958  1
  O  O290  1  0.61587870  0.86954143  0.86655100  1
  O  O291  1  0.38065914  0.13724177  0.12936853  1
  O  O292  1  0.37982189  0.13248640  0.62838254  1
  O  O293  1  0.36982081  0.63941696  0.12187684  1
  O  O294  1  0.38342978  0.62395759  0.63320337  1
  O  O295  1  0.88131089  0.13208888  0.13245537  1
  O  O296  1  0.88137811  0.14059402  0.62272826  1
  O  O297  1  0.87897029  0.63177442  0.13098726  1
  O  O298  1  0.87065413  0.63378447  0.64210956  1
  O  O299  1  0.25747646  0.25803745  0.12796336  1
  O  O300  1  0.25593149  0.25985584  0.62465720  1
  O  O301  1  0.25563387  0.75644670  0.11392565  1
  O  O302  1  0.25251504  0.75547748  0.61702693  1
  O  O303  1  0.75491230  0.24610366  0.11622885  1
  O  O304  1  0.76269212  0.25065636  0.62025933  1
  O  O305  1  0.75964457  0.75853445  0.11967514  1
  O  O306  1  0.75185733  0.75286755  0.61773774  1
  O  O307  1  0.24424618  0.24168238  0.37563454  1
  O  O308  1  0.24258508  0.24204999  0.87509048  1
  O  O309  1  0.24644838  0.74483482  0.38009669  1
  O  O310  1  0.24353005  0.75252689  0.88992208  1
  O  O311  1  0.75458846  0.25188806  0.38933912  1
  O  O312  1  0.73756020  0.23227013  0.87932557  1
  O  O313  1  0.73954390  0.74242447  0.38149941  1
  O  O314  1  0.73909903  0.75027779  0.87473407  1
  O  O315  1  0.00552000  0.11597978  0.00501836  1
  O  O316  1  0.00606872  0.11526239  0.50878342  1
  O  O317  1  0.00391860  0.63524196  0.01456434  1
  O  O318  1  -0.01589839  0.61842901  0.49308115  1
  O  O319  1  0.49251358  0.12447105  0.01558617  1
  O  O320  1  0.51716480  0.12862980  0.50611871  1
  O  O321  1  0.50857702  0.61617619  -0.00613785  1
  O  O322  1  0.50708174  0.61712105  0.50558717  1
  O  O323  1  0.49870609  0.37626072  0.49452130  1
  O  O324  1  0.49950328  0.38242622  0.99241229  1
  O  O325  1  0.49710086  0.87630556  0.48967935  1
  O  O326  1  0.48541466  0.87470614  0.99054206  1
  O  O327  1  0.98877052  0.37562335  0.50124205  1
  O  O328  1  0.99867139  0.38172302  1.00657858  1
  O  O329  1  1.00460215  0.89671424  0.50035161  1
  O  O330  1  0.99449017  0.88112603  0.99495462  1
  O  O331  1  0.49326869  0.48825095  0.38304100  1
  O  O332  1  0.49151436  0.49266024  0.88087227  1
  O  O333  1  0.49500285  0.99154821  0.37550923  1
  O  O334  1  0.49012000  0.98880124  0.87437595  1
  O  O335  1  1.00390608  0.50257646  0.39258418  1
  O  O336  1  0.99486285  0.48974358  0.88218014  1
  O  O337  1  0.99823931  1.00405276  0.39206414  1
  O  O338  1  1.00755411  0.98805001  0.88787976  1
  O  O339  1  0.00526588  0.00294201  0.11642629  1
  O  O340  1  0.00341245  0.00640980  0.61673606  1
  O  O341  1  -0.00006009  0.51251062  0.11089603  1
  O  O342  1  0.01184481  0.50250825  0.61452747  1
  O  O343  1  0.49462715  0.01649943  0.12894795  1
  O  O344  1  0.49342505  0.01553332  0.61883683  1
  O  O345  1  0.50331333  0.49618001  0.11248326  1
  O  O346  1  0.50512601  0.50684002  0.61994081  1
  O  O347  1  0.25153407  0.37713782  0.23755980  1
  O  O348  1  0.24520891  0.38583993  0.73926807  1
  O  O349  1  0.24358936  0.88183743  0.24486123  1
  O  O350  1  0.24477543  0.88009905  0.74363884  1
  O  O351  1  0.73625748  0.36733403  0.25140945  1
  O  O352  1  0.73816646  0.38601663  0.74558504  1
  O  O353  1  0.75397088  0.88456242  0.24025312  1
  O  O354  1  0.73989412  0.88791973  0.75108797  1
  O  O355  1  0.25258437  0.11822092  0.25919601  1
  O  O356  1  0.25398146  0.12012448  0.75557708  1
  O  O357  1  0.25787517  0.61887134  0.25811311  1
  O  O358  1  0.25826463  0.61157537  0.74420272  1
  O  O359  1  0.75705416  0.11107570  0.24663218  1
  O  O360  1  0.74510354  0.11152166  0.76278254  1
  O  O361  1  0.76293631  0.62537311  0.25349885  1
  O  O362  1  0.74399624  0.61266273  0.75171075  1
  O  O363  1  0.37143133  0.11624092  0.37731292  1
  O  O364  1  0.36517835  0.12259022  0.86959234  1
  O  O365  1  0.36565174  0.61488497  0.37863390  1
  O  O366  1  0.38030631  0.61317711  0.86766042  1
  O  O367  1  0.87776452  0.12867486  0.36581531  1
  O  O368  1  0.86498580  0.12555821  0.87451998  1
  O  O369  1  0.86829943  0.63161930  0.35455465  1
  O  O370  1  0.87350128  0.63083994  0.85722625  1
  O  O371  1  0.13563514  0.36666304  0.12877716  1
  O  O372  1  0.13233427  0.38016885  0.62892462  1
  O  O373  1  0.13038595  0.88108065  0.13064139  1
  O  O374  1  0.12905950  0.87865341  0.63240428  1
  O  O375  1  0.62485795  0.37369329  0.14078424  1
  O  O376  1  0.62192970  0.37835429  0.63862645  1
  O  O377  1  0.64021284  0.86933620  0.12559058  1
  O  O378  1  0.62437605  0.87158992  0.63771243  1
  O  O379  1  0.11312270  0.24229098  0.26199581  1
  O  O380  1  0.13036048  0.26187693  0.75611955  1
  O  O381  1  0.12473557  0.76001861  0.25499474  1
  O  O382  1  0.13404421  0.76200112  0.75823971  1
  O  O383  1  0.61372549  0.25788645  0.24958587  1
  O  O384  1  0.62005527  0.25638117  0.75802566  1
  O  O385  1  0.62729061  0.75245486  0.25769891  1
  O  O386  1  0.62820705  0.76458940  0.75870113  1
  O  O387  1  0.38779566  0.24952329  0.24475502  1
  O  O388  1  0.37993627  0.24581879  0.74638910  1
  O  O389  1  0.37117103  0.75280425  0.23052239  1
  O  O390  1  0.36736973  0.73473732  0.75033242  1
  O  O391  1  0.87954556  0.23950511  0.24629277  1
  O  O392  1  0.87325244  0.25730330  0.73873717  1
  O  O393  1  0.87864202  0.74888196  0.23228635  1
  O  O394  1  0.87264781  0.73800877  0.73998797  1
  O  O395  1  0.38039390  0.49293321  0.49322937  1
  O  O396  1  0.38129893  0.50071102  0.99334507  1
  O  O397  1  0.37676730  0.99226753  0.48860035  1
  O  O398  1  0.37630082  0.99248931  0.99314905  1
  O  O399  1  0.88772444  0.48871311  0.51205531  1
  O  O400  1  0.89666753  0.51336012  0.99240051  1
  O  O401  1  0.88167699  1.00302244  0.50592732  1
  O  O402  1  0.88593512  0.99108589  1.00425486  1
  O  O403  1  0.11952215  0.00414102  0.00609021  1
  O  O404  1  0.12559214  0.01096372  0.50630820  1
  O  O405  1  0.10509636  0.50237106  -0.00879534  1
  O  O406  1  0.11223568  0.50273048  0.51157980  1
  O  O407  1  0.61660382  -0.00951577  0.00881555  1
  O  O408  1  0.62940131  0.01768235  0.49640466  1
  O  O409  1  0.61554201  0.51095502  -0.00422607  1
  O  O410  1  0.62102825  0.50209550  0.50708827  1
  O  O411  1  0.37476585  0.36323575  0.12554777  1
  O  O412  1  0.36849148  0.37253453  0.62200814  1
  O  O413  1  0.36956276  0.86993657  0.11643212  1
  O  O414  1  0.37127446  0.87338567  0.61824285  1
  O  O415  1  0.87138691  0.35696629  0.13237082  1
  O  O416  1  0.87422485  0.36436446  0.61720734  1
  O  O417  1  0.86857999  0.86869320  0.11337273  1
  O  O418  1  0.87140913  0.85673432  0.63311563  1
  O  O419  1  0.13082614  0.13062944  0.38428517  1
  O  O420  1  0.13614317  0.12781495  0.87649700  1
  O  O421  1  0.14344805  0.63513660  0.37683742  1
  O  O422  1  0.12259543  0.63904442  0.86454611  1
  O  O423  1  0.62124286  0.12771501  0.38357507  1
  O  O424  1  0.61927764  0.13104919  0.87224118  1
  O  O425  1  0.63246791  0.62903701  0.37814085  1
  O  O426  1  0.62376678  0.63634835  0.87843479  1
