# generated using pymatgen
data_V85Zn86O256
_symmetry_space_group_name_H-M   'P 1'
_cell_length_a   16.93591208
_cell_length_b   16.95161292
_cell_length_c   16.93755853
_cell_angle_alpha   90.05707579
_cell_angle_beta   90.00354185
_cell_angle_gamma   90.05060369
_symmetry_Int_Tables_number   1
_chemical_formula_structural   V85Zn86O256
_chemical_formula_sum   'V85 Zn86 O256'
_cell_volume   4862.61673909
_cell_formula_units_Z   1
loop_
 _symmetry_equiv_pos_site_id
 _symmetry_equiv_pos_as_xyz
  1  'x, y, z'
loop_
 _atom_site_type_symbol
 _atom_site_label
 _atom_site_symmetry_multiplicity
 _atom_site_fract_x
 _atom_site_fract_y
 _atom_site_fract_z
 _atom_site_occupancy
  V  V0  1  0.74883054  0.87419148  0.12393556  1
  V  V1  1  0.62363015  0.24731404  0.87228679  1
  V  V2  1  0.64078186  0.75164413  0.87863213  1
  V  V3  1  0.25091412  0.12645275  0.88559993  1
  V  V4  1  0.49584053  -0.00108436  0.50056119  1
  V  V5  1  0.62826774  0.12279290  0.49379705  1
  V  V6  1  -0.00370772  0.38700323  0.87678613  1
  V  V7  1  0.37200148  0.37219704  0.00344375  1
  V  V8  1  0.50123730  0.62161844  0.62891727  1
  V  V9  1  0.12747918  0.87144404  0.74774718  1
  V  V10  1  -0.00555627  0.24994776  0.24567199  1
  V  V11  1  0.25176463  0.87044647  0.12577797  1
  V  V12  1  0.87041983  0.74991942  0.11791581  1
  V  V13  1  0.12183202  0.87438068  0.24921017  1
  V  V14  1  0.62537114  0.37132063  0.74977249  1
  V  V15  1  0.75961371  -0.00174792  0.74483364  1
  V  V16  1  0.50124198  0.49677574  0.49647123  1
  V  V17  1  0.13085086  -0.00169972  0.62364211  1
  V  V18  1  0.13992519  0.62579839  0.49920075  1
  V  V19  1  0.12343990  0.25543303  0.37069183  1
  V  V20  1  0.87458862  0.37211815  0.49936287  1
  V  V21  1  0.37432391  0.37358961  0.50017514  1
  V  V22  1  0.62292913  0.50180428  0.12587395  1
  V  V23  1  0.37943061  0.24907466  0.63318331  1
  V  V24  1  0.61542995  0.36607529  0.24820125  1
  V  V25  1  0.87886062  0.38996194  -0.00181198  1
  V  V26  1  0.76265405  0.24814667  -0.00140121  1
  V  V27  1  0.12172216  0.74132297  0.87829836  1
  V  V28  1  0.24870036  0.37177881  0.62767448  1
  V  V29  1  0.62884547  0.62233226  0.50009089  1
  V  V30  1  0.86923359  0.12051467  0.25548014  1
  V  V31  1  0.24714167  0.74436165  0.00173433  1
  V  V32  1  0.62465785  0.00226604  0.12710680  1
  V  V33  1  0.49933251  0.37230770  0.87014817  1
  V  V34  1  0.12340438  0.00519127  0.11500044  1
  V  V35  1  0.87715907  0.76504152  0.62315388  1
  V  V36  1  0.00070633  0.50331917  0.49873317  1
  V  V37  1  0.11625412  0.24307046  0.88477528  1
  V  V38  1  0.75006933  0.76374589  0.50468200  1
  V  V39  1  0.11931894  0.36351981  0.75135385  1
  V  V40  1  0.24668167  0.00315147  0.24798689  1
  V  V41  1  -0.00229649  0.12863685  0.11878182  1
  V  V42  1  0.25143120  -0.00100843  0.75185831  1
  V  V43  1  0.12215522  0.49820471  0.62632581  1
  V  V44  1  0.00423839  0.62533204  0.10790352  1
  V  V45  1  0.50262189  0.00263214  0.00326544  1
  V  V46  1  -0.00571991  -0.00750469  0.49788758  1
  V  V47  1  0.87714715  0.24573798  0.63807828  1
  V  V48  1  0.75156926  0.62520370  0.37586419  1
  V  V49  1  0.50063676  0.74873977  0.75309602  1
  V  V50  1  0.62049007  0.75098117  0.37083055  1
  V  V51  1  0.13542404  0.74608812  0.37916221  1
  V  V52  1  0.75091031  0.37201580  0.62930762  1
  V  V53  1  0.87026041  0.87857012  -0.00350942  1
  V  V54  1  0.75449178  0.60797902  0.87723567  1
  V  V55  1  0.37401066  0.00023161  0.37638075  1
  V  V56  1  -0.00045490  0.87593252  0.87627882  1
  V  V57  1  0.38702767  0.13139494  0.24525963  1
  V  V58  1  0.49478514  0.63817183  0.12887128  1
  V  V59  1  0.87632747  0.50001474  0.37282643  1
  V  V60  1  0.63000432  0.12674493  0.00291308  1
  V  V61  1  0.62679897  -0.01375337  0.62438904  1
  V  V62  1  0.75059049  0.49740546  0.24908267  1
  V  V63  1  0.12367967  0.50467258  0.11122385  1
  V  V64  1  0.86724075  0.60809876  0.74528674  1
  V  V65  1  0.24372070  0.37511895  0.13008996  1
  V  V66  1  0.87738919  0.62522437  0.24716318  1
  V  V67  1  0.63031535  0.49737589  0.62943471  1
  V  V68  1  0.49964062  0.50231025  0.00043147  1
  V  V69  1  0.75113733  0.24408557  0.49151274  1
  V  V70  1  0.12036625  0.12825632  0.50070808  1
  V  V71  1  0.37477621  0.49967316  0.87500797  1
  V  V72  1  0.24935357  0.12909272  0.37312203  1
  V  V73  1  0.50234720  0.87333576  0.87500910  1
  V  V74  1  0.37721436  0.00373065  0.87702084  1
  V  V75  1  0.00298113  0.37719753  0.36693997  1
  V  V76  1  0.37442020  0.63624028  0.25521205  1
  V  V77  1  0.50324012  0.12647040  0.63350415  1
  V  V78  1  0.37244335  0.62590422  0.75272432  1
  V  V79  1  0.24700111  0.49721231  0.75369639  1
  V  V80  1  0.37650563  0.86850061  0.00342473  1
  V  V81  1  -0.00090544  0.13024917  0.63763724  1
  V  V82  1  0.24470204  0.50395856  0.25680820  1
  V  V83  1  -0.00160832  0.74958257  0.25172357  1
  V  V84  1  0.75814843  0.37096513  0.12409881  1
  Zn  Zn85  1  0.62880403  0.87133032  0.74394109  1
  Zn  Zn86  1  0.39367149  0.25819080  0.14123186  1
  Zn  Zn87  1  -0.00420482  0.62599263  0.62479250  1
  Zn  Zn88  1  0.49385915  0.36901514  0.36769542  1
  Zn  Zn89  1  0.62120499  0.24245342  0.36836607  1
  Zn  Zn90  1  0.87979406  0.01013063  0.86773359  1
  Zn  Zn91  1  0.75817123  0.12840198  0.86281953  1
  Zn  Zn92  1  0.24312135  0.61968482  0.88336320  1
  Zn  Zn93  1  0.00055916  0.00801132  -0.00409103  1
  Zn  Zn94  1  -0.00628575  0.74762300  0.74910572  1
  Zn  Zn95  1  0.61625378  0.86493467  0.24299022  1
  Zn  Zn96  1  0.48929651  0.86469113  0.36752690  1
  Zn  Zn97  1  0.24936031  0.25030796  0.50219803  1
  Zn  Zn98  1  0.24414861  0.24344867  0.01115472  1
  Zn  Zn99  1  -0.00685814  0.86831956  0.38455425  1
  Zn  Zn100  1  0.38079376  0.13096617  0.75810183  1
  Zn  Zn101  1  0.74636327  -0.00050400  0.25666746  1
  Zn  Zn102  1  0.63095537  0.62930206  0.00353054  1
  Zn  Zn103  1  0.37178596  0.50360067  0.37593686  1
  Zn  Zn104  1  0.35114461  0.75659715  0.62302643  1
  Zn  Zn105  1  0.35002529  0.86914272  0.50276514  1
  Zn  Zn106  1  0.85907350  -0.00676442  0.38623551  1
  Zn  Zn107  1  0.18281111  0.18962938  0.18910027  1
  Zn  Zn108  1  0.19074956  0.18466930  0.69198368  1
  Zn  Zn109  1  0.18740061  0.68521931  0.18839833  1
  Zn  Zn110  1  0.18127717  0.67989896  0.69384033  1
  Zn  Zn111  1  0.69034222  0.18850512  0.18157046  1
  Zn  Zn112  1  0.68802652  0.18444151  0.68344696  1
  Zn  Zn113  1  0.69062635  0.68612579  0.18690895  1
  Zn  Zn114  1  0.69064585  0.68811039  0.68923178  1
  Zn  Zn115  1  0.31008649  0.31559197  0.31226615  1
  Zn  Zn116  1  0.30921539  0.30920000  0.81667084  1
  Zn  Zn117  1  0.31148870  0.81532118  0.31233894  1
  Zn  Zn118  1  0.31146417  0.81255756  0.81556484  1
  Zn  Zn119  1  0.81314044  0.30998314  0.31044203  1
  Zn  Zn120  1  0.81208572  0.31664208  0.81455043  1
  Zn  Zn121  1  0.81134736  0.81779531  0.31281506  1
  Zn  Zn122  1  0.81299433  0.81823354  0.80381416  1
  Zn  Zn123  1  0.18740465  0.43740177  0.43797204  1
  Zn  Zn124  1  0.18547681  0.43313939  0.93860718  1
  Zn  Zn125  1  0.17920236  0.94087291  0.43066149  1
  Zn  Zn126  1  0.18769511  0.93332711  0.93622412  1
  Zn  Zn127  1  0.68829638  0.43379897  0.43620406  1
  Zn  Zn128  1  0.68689808  0.43606893  0.94072874  1
  Zn  Zn129  1  0.68484736  0.93747952  0.43498947  1
  Zn  Zn130  1  0.69293889  0.93899397  0.93351706  1
  Zn  Zn131  1  0.31514690  0.05988733  0.06503670  1
  Zn  Zn132  1  0.31146920  0.06451641  0.56271067  1
  Zn  Zn133  1  0.31412089  0.56184336  0.06788533  1
  Zn  Zn134  1  0.31426510  0.56030921  0.56908567  1
  Zn  Zn135  1  0.81602621  0.06271193  0.06592095  1
  Zn  Zn136  1  0.81180506  0.06288011  0.56820468  1
  Zn  Zn137  1  0.81130714  0.56426195  0.06070676  1
  Zn  Zn138  1  0.81193774  0.56008034  0.56255780  1
  Zn  Zn139  1  0.43315867  0.44546524  0.18729934  1
  Zn  Zn140  1  0.43950236  0.43625495  0.68844420  1
  Zn  Zn141  1  0.43843940  0.93691150  0.18948653  1
  Zn  Zn142  1  0.43703600  0.93932714  0.69061132  1
  Zn  Zn143  1  0.94168192  0.43883633  0.18341589  1
  Zn  Zn144  1  0.93878990  0.43245897  0.68840970  1
  Zn  Zn145  1  0.93686843  0.93888112  0.18812024  1
  Zn  Zn146  1  0.94510886  0.93730342  0.68344868  1
  Zn  Zn147  1  0.05927239  0.06450614  0.31096958  1
  Zn  Zn148  1  0.06422705  0.06193352  0.81446580  1
  Zn  Zn149  1  0.06577542  0.56763851  0.30931587  1
  Zn  Zn150  1  0.05653118  0.56265172  0.80949440  1
  Zn  Zn151  1  0.56138945  0.06055498  0.31250330  1
  Zn  Zn152  1  0.56902084  0.06076129  0.81237895  1
  Zn  Zn153  1  0.55979921  0.56206856  0.31160105  1
  Zn  Zn154  1  0.56788502  0.56111342  0.81351547  1
  Zn  Zn155  1  0.44075653  0.18977822  0.43934308  1
  Zn  Zn156  1  0.45304067  0.20263086  0.97388269  1
  Zn  Zn157  1  0.43498944  0.68396531  0.44018615  1
  Zn  Zn158  1  0.43893664  0.68716333  0.93878266  1
  Zn  Zn159  1  0.93641452  0.18542276  0.43818981  1
  Zn  Zn160  1  0.93703224  0.18970761  0.93341558  1
  Zn  Zn161  1  0.93701633  0.69026365  0.43998752  1
  Zn  Zn162  1  0.93002234  0.68967368  0.93286677  1
  Zn  Zn163  1  0.06102898  0.31760613  0.06370116  1
  Zn  Zn164  1  0.05889980  0.31232434  0.55975003  1
  Zn  Zn165  1  0.06154876  0.81336940  0.06146419  1
  Zn  Zn166  1  0.17823263  0.81183896  0.56257758  1
  Zn  Zn167  1  0.56647795  0.31365356  0.06174723  1
  Zn  Zn168  1  0.56164145  0.30788873  0.55788330  1
  Zn  Zn169  1  0.56605143  0.81311070  0.05828698  1
  Zn  Zn170  1  0.49864990  0.81862226  0.56739608  1
  O  O171  1  0.11538091  0.11457666  0.13231787  1
  O  O172  1  0.12177316  0.12229764  0.61814051  1
  O  O173  1  0.11784000  0.61639351  0.12477676  1
  O  O174  1  0.11708390  0.61501992  0.61811327  1
  O  O175  1  0.62970800  0.11883903  0.11097888  1
  O  O176  1  0.61668180  0.11871605  0.61565016  1
  O  O177  1  0.61663161  0.61824574  0.12594271  1
  O  O178  1  0.62362672  0.61330098  0.62323491  1
  O  O179  1  0.37300459  0.37727781  0.38930626  1
  O  O180  1  0.38164805  0.38056005  0.87772471  1
  O  O181  1  0.37119655  0.88652044  0.37943891  1
  O  O182  1  0.38089217  0.88215960  0.88372495  1
  O  O183  1  0.88157660  0.38069943  0.37950003  1
  O  O184  1  0.88903498  0.37349653  0.87922463  1
  O  O185  1  0.88315910  0.88187183  0.36731828  1
  O  O186  1  0.88178379  0.87625842  0.88082803  1
  O  O187  1  0.25518085  0.01003871  0.36937986  1
  O  O188  1  0.25365207  0.00652167  0.87220517  1
  O  O189  1  0.24885953  0.49689124  0.36040847  1
  O  O190  1  0.25449087  0.49952739  0.87110071  1
  O  O191  1  0.74642091  0.00131336  0.37009141  1
  O  O192  1  0.75249786  0.00154172  0.85830195  1
  O  O193  1  0.75599744  0.50323920  0.36826280  1
  O  O194  1  0.74464465  0.50963711  0.87287906  1
  O  O195  1  0.24059906  0.49767552  0.13191025  1
  O  O196  1  0.24289155  0.49141567  0.63398367  1
  O  O197  1  0.24172220  0.99308780  0.12885443  1
  O  O198  1  0.23817750  1.01020114  0.63566475  1
  O  O199  1  0.74217088  0.49392586  0.12884285  1
  O  O200  1  0.73711456  0.48818864  0.61752874  1
  O  O201  1  0.74225643  0.99223258  0.12740486  1
  O  O202  1  0.73904494  0.99972033  0.63141812  1
  O  O203  1  -0.00606900  0.36827085  0.26000822  1
  O  O204  1  0.00702695  0.37678384  0.76317847  1
  O  O205  1  0.00534613  0.86078979  0.24238314  1
  O  O206  1  0.00765688  0.87386144  0.75991459  1
  O  O207  1  0.51213082  0.37828989  0.24432371  1
  O  O208  1  0.50578505  0.37589480  0.76315630  1
  O  O209  1  0.50444653  0.88026786  0.25689989  1
  O  O210  1  0.50272251  0.86480210  0.75915963  1
  O  O211  1  0.48536124  0.12417430  0.25062807  1
  O  O212  1  0.50057161  0.12036025  0.73792063  1
  O  O213  1  0.48877875  0.61983490  0.23829881  1
  O  O214  1  0.49307186  0.62805366  0.75092847  1
  O  O215  1  0.99310211  0.13266775  0.24337284  1
  O  O216  1  1.00805841  0.12317919  0.73650525  1
  O  O217  1  0.99531055  0.63480417  0.24130725  1
  O  O218  1  0.98159393  0.62651699  0.74963737  1
  O  O219  1  0.35944932  0.26882949  -0.01275915  1
  O  O220  1  0.37138938  0.25841505  0.51123302  1
  O  O221  1  0.36950007  0.76340178  -0.00543584  1
  O  O222  1  0.39989502  0.75960844  0.51304222  1
  O  O223  1  0.86476803  0.26179634  -0.00508153  1
  O  O224  1  0.86839496  0.25502696  0.50374455  1
  O  O225  1  0.88015208  0.76295008  0.01028415  1
  O  O226  1  0.86094878  0.74224575  0.51112188  1
  O  O227  1  0.12537032  0.24470564  0.49026645  1
  O  O228  1  0.12768947  0.25569546  0.98761782  1
  O  O229  1  0.11994674  0.74033923  0.48733683  1
  O  O230  1  0.13472143  0.75775442  0.99051517  1
  O  O231  1  0.63614013  0.24051541  0.50305187  1
  O  O232  1  0.63702210  0.24313163  0.99241881  1
  O  O233  1  0.64051593  0.73782895  0.48968411  1
  O  O234  1  0.62073647  0.74527968  0.98237455  1
  O  O235  1  0.48627189  0.24104978  0.08133149  1
  O  O236  1  0.49158457  0.23983195  0.62035820  1
  O  O237  1  0.50644337  0.73625218  0.12205296  1
  O  O238  1  0.51413404  0.73570386  0.64516792  1
  O  O239  1  1.00947784  0.24398881  0.13620253  1
  O  O240  1  0.99008239  0.24333104  0.62052124  1
  O  O241  1  0.99484891  0.74302080  0.12977763  1
  O  O242  1  0.97947980  0.74452348  0.62410693  1
  O  O243  1  0.00445479  0.25895840  0.37145517  1
  O  O244  1  0.01393250  0.25725582  0.87652706  1
  O  O245  1  0.00477182  0.74815261  0.36561239  1
  O  O246  1  0.00485775  0.75738893  0.87281123  1
  O  O247  1  0.50966861  0.25920806  0.38719110  1
  O  O248  1  0.51454801  0.25888968  0.88440955  1
  O  O249  1  0.51816037  0.74521242  0.38188943  1
  O  O250  1  0.50808418  0.75087895  0.86705525  1
  O  O251  1  0.23901063  0.12602276  0.48964304  1
  O  O252  1  0.25295917  0.12391997  0.99058988  1
  O  O253  1  0.23936780  0.61581275  0.50281046  1
  O  O254  1  0.26010523  0.64082243  1.00252128  1
  O  O255  1  0.74179923  0.13377480  0.50684750  1
  O  O256  1  0.74678348  0.13337769  1.00074525  1
  O  O257  1  0.74474211  0.61971350  0.48995030  1
  O  O258  1  0.75029168  0.62345712  0.98311605  1
  O  O259  1  0.25567451  0.37875584  0.01400890  1
  O  O260  1  0.25752650  0.37602756  0.50927692  1
  O  O261  1  0.25761784  0.86815065  0.00584379  1
  O  O262  1  0.23922036  0.88596682  0.50539760  1
  O  O263  1  0.75700764  0.37039716  0.00522356  1
  O  O264  1  0.75294060  0.36716356  0.50950781  1
  O  O265  1  0.75801514  0.87822887  0.00968011  1
  O  O266  1  0.74562655  0.86152117  0.50132948  1
  O  O267  1  0.14059028  0.50981969  0.24236055  1
  O  O268  1  0.12783360  0.49086314  0.74616613  1
  O  O269  1  0.12881957  0.99402688  0.24515994  1
  O  O270  1  0.13186028  0.99381039  0.74488559  1
  O  O271  1  0.62876690  0.49293508  0.23968931  1
  O  O272  1  0.62068731  0.48485469  0.74152107  1
  O  O273  1  0.62443126  1.00583405  0.23432816  1
  O  O274  1  0.62876776  0.99463701  0.73878601  1
  O  O275  1  0.36644107  0.01221584  0.25727436  1
  O  O276  1  0.36760775  0.00205483  0.75843417  1
  O  O277  1  0.36321191  0.50875949  0.25196383  1
  O  O278  1  0.36949272  0.50472453  0.75529015  1
  O  O279  1  0.87402971  0.01270560  0.24957294  1
  O  O280  1  0.86333909  -0.00501573  0.74312459  1
  O  O281  1  0.87170122  0.50479037  0.25322059  1
  O  O282  1  0.87307034  0.50924737  0.74589949  1
  O  O283  1  0.11533487  0.36748602  0.37958961  1
  O  O284  1  0.11755402  0.36566056  0.87077013  1
  O  O285  1  0.11569014  0.86308071  0.36725624  1
  O  O286  1  0.11844674  0.86807614  0.86685482  1
  O  O287  1  0.62688164  0.37808174  0.35408175  1
  O  O288  1  0.61982422  0.37049113  0.86881184  1
  O  O289  1  0.62735931  0.85631596  0.37306077  1
  O  O290  1  0.62187590  0.86330938  0.87568090  1
  O  O291  1  0.36611530  0.12745766  0.14321483  1
  O  O292  1  0.38230132  0.13307330  0.62766786  1
  O  O293  1  0.38833043  0.62317722  0.13399927  1
  O  O294  1  0.38189178  0.62373943  0.64008605  1
  O  O295  1  0.88739855  0.12283883  0.13738924  1
  O  O296  1  0.88633458  0.13484158  0.62171160  1
  O  O297  1  0.87999579  0.63223720  0.12728349  1
  O  O298  1  0.87140047  0.62358957  0.63658394  1
  O  O299  1  0.24665098  0.26238608  0.12801829  1
  O  O300  1  0.25587580  0.25497825  0.62422173  1
  O  O301  1  0.24151937  0.76298243  0.11873667  1
  O  O302  1  0.24078573  0.74614528  0.62847337  1
  O  O303  1  0.74666798  0.26335952  0.11333313  1
  O  O304  1  0.75687293  0.25537776  0.61668166  1
  O  O305  1  0.76039146  0.75553623  0.12558035  1
  O  O306  1  0.75509844  0.74468096  0.61111541  1
  O  O307  1  0.24064335  0.24619156  0.37666085  1
  O  O308  1  0.23755780  0.24166169  0.87695691  1
  O  O309  1  0.23410899  0.75325430  0.37198945  1
  O  O310  1  0.24055896  0.74856505  0.88364327  1
  O  O311  1  0.74522026  0.25621145  0.38776736  1
  O  O312  1  0.73966939  0.25315779  0.88129379  1
  O  O313  1  0.74854924  0.74290629  0.38471794  1
  O  O314  1  0.74172431  0.74862125  0.87022943  1
  O  O315  1  -0.00352756  0.12840371  0.01439865  1
  O  O316  1  0.01143046  0.12348260  0.50600011  1
  O  O317  1  -0.00687205  0.63016591  0.00903273  1
  O  O318  1  0.00278061  0.61146221  0.49844301  1
  O  O319  1  0.51443928  0.10757555  -0.01253467  1
  O  O320  1  0.50559430  0.11567375  0.50884904  1
  O  O321  1  0.50015440  0.61957230  0.01155843  1
  O  O322  1  0.50694145  0.61142050  0.50708174  1
  O  O323  1  0.49203966  0.38568915  0.50589336  1
  O  O324  1  0.49301029  0.38441023  0.98938301  1
  O  O325  1  0.50867829  0.89566973  0.48340989  1
  O  O326  1  0.49387383  0.88044493  0.99509333  1
  O  O327  1  0.99622514  0.38525597  0.48915413  1
  O  O328  1  0.99208672  0.37132317  0.98839313  1
  O  O329  1  1.00476569  0.89490827  0.50446248  1
  O  O330  1  0.99442767  0.87648113  0.98843392  1
  O  O331  1  0.49841330  0.49244804  0.38419843  1
  O  O332  1  0.49682297  0.49435448  0.88073463  1
  O  O333  1  0.48336634  1.00827509  0.38089886  1
  O  O334  1  0.49886870  0.99130933  0.88008277  1
  O  O335  1  0.99849750  0.49443301  0.37658873  1
  O  O336  1  1.00840353  0.48528974  0.87892640  1
  O  O337  1  1.00625246  1.00119272  0.39207255  1
  O  O338  1  1.00001991  0.99176959  0.87732424  1
  O  O339  1  0.00783377  0.00856223  0.12359688  1
  O  O340  1  0.01170091  0.00925740  0.61794098  1
  O  O341  1  0.01560223  0.50923687  0.12945377  1
  O  O342  1  0.00430334  0.49681690  0.61438310  1
  O  O343  1  0.50907216  -0.00506428  0.11233308  1
  O  O344  1  0.50422727  0.00882990  0.61810414  1
  O  O345  1  0.50736753  0.50623824  0.11965564  1
  O  O346  1  0.51062722  0.50245086  0.62071508  1
  O  O347  1  0.25501093  0.38991326  0.23966214  1
  O  O348  1  0.24103358  0.37914605  0.74771557  1
  O  O349  1  0.24449033  0.88134970  0.24177873  1
  O  O350  1  0.24249842  0.88896475  0.75922562  1
  O  O351  1  0.74571051  0.37850587  0.24059384  1
  O  O352  1  0.74319483  0.37287727  0.73676973  1
  O  O353  1  0.74318975  0.87479068  0.23456969  1
  O  O354  1  0.74392718  0.88979638  0.74771166  1
  O  O355  1  0.24823027  0.12260344  0.26230769  1
  O  O356  1  0.25086193  0.11363683  0.76340647  1
  O  O357  1  0.26365095  0.61537045  0.24177567  1
  O  O358  1  0.25699819  0.61485525  0.75607459  1
  O  O359  1  0.76680323  0.12936424  0.24330114  1
  O  O360  1  0.74125430  0.10615582  0.74665853  1
  O  O361  1  0.75790016  0.61700357  0.25515803  1
  O  O362  1  0.75953404  0.62408274  0.75892312  1
  O  O363  1  0.36541736  0.12252292  0.37017731  1
  O  O364  1  0.36763811  0.11938807  0.87654894  1
  O  O365  1  0.38173883  0.62192371  0.36033879  1
  O  O366  1  0.37417454  0.61886325  0.86656436  1
  O  O367  1  0.88343568  0.12045202  0.35923973  1
  O  O368  1  0.87073465  0.12283307  0.87712398  1
  O  O369  1  0.87158060  0.61889346  0.36868411  1
  O  O370  1  0.86110108  0.62884537  0.86313204  1
  O  O371  1  0.13026783  0.39136354  0.12367025  1
  O  O372  1  0.12622553  0.37631137  0.63329701  1
  O  O373  1  0.13077107  0.88258087  0.13043707  1
  O  O374  1  0.12110369  0.88501123  0.64037541  1
  O  O375  1  0.63220432  0.38134142  0.13165103  1
  O  O376  1  0.62952690  0.37598347  0.63120824  1
  O  O377  1  0.63233600  0.88184153  0.12185862  1
  O  O378  1  0.60780065  0.88673605  0.62101170  1
  O  O379  1  0.11225970  0.24587596  0.26453177  1
  O  O380  1  0.12956774  0.26001788  0.75976604  1
  O  O381  1  0.11782229  0.75033972  0.25884037  1
  O  O382  1  0.11952081  0.75742434  0.75862281  1
  O  O383  1  0.62885923  0.26270585  0.24662408  1
  O  O384  1  0.62985298  0.26080454  0.75694653  1
  O  O385  1  0.63226129  0.74411886  0.26690862  1
  O  O386  1  0.62073266  0.74990532  0.76217370  1
  O  O387  1  0.37231387  0.23752839  0.25397634  1
  O  O388  1  0.37099931  0.25073523  0.73810729  1
  O  O389  1  0.36853566  0.73565543  0.25216048  1
  O  O390  1  0.38194664  0.74170103  0.75206410  1
  O  O391  1  0.88706014  0.24070321  0.25523512  1
  O  O392  1  0.86950678  0.25483636  0.73693829  1
  O  O393  1  0.88141198  0.74560371  0.23904553  1
  O  O394  1  0.86939110  0.74485689  0.73389569  1
  O  O395  1  0.38270212  0.49326553  0.50122115  1
  O  O396  1  0.37756022  0.49145309  0.99522600  1
  O  O397  1  0.37981813  1.00225246  0.49307909  1
  O  O398  1  0.38474296  0.99324823  0.99654614  1
  O  O399  1  0.88216713  0.49307429  0.49379635  1
  O  O400  1  0.87199657  0.48946409  0.99945612  1
  O  O401  1  0.89053531  1.00896309  0.50225954  1
  O  O402  1  0.87894952  0.98745490  1.00082733  1
  O  O403  1  0.12360363  -0.00562333  0.01184767  1
  O  O404  1  0.11862559  0.01086347  0.50823594  1
  O  O405  1  0.13137349  0.50460820  0.01216508  1
  O  O406  1  0.11827353  0.50519380  0.50373707  1
  O  O407  1  0.62330184  0.00545563  0.00573282  1
  O  O408  1  0.61943675  0.00662240  0.50701498  1
  O  O409  1  0.62072820  0.50192230  0.01203335  1
  O  O410  1  0.61838996  0.49998888  0.50598234  1
  O  O411  1  0.36830477  0.37435665  0.11863144  1
  O  O412  1  0.37156120  0.36962498  0.61897328  1
  O  O413  1  0.36334816  0.88360454  0.11606197  1
  O  O414  1  0.39733987  0.86666911  0.61620412  1
  O  O415  1  0.86684906  0.38039788  0.11682915  1
  O  O416  1  0.86802444  0.36932764  0.61898284  1
  O  O417  1  0.86922983  0.86909706  0.11893737  1
  O  O418  1  0.87735098  0.86366849  0.62442675  1
  O  O419  1  0.12926079  0.13237440  0.38172405  1
  O  O420  1  0.12985379  0.13753622  0.87341438  1
  O  O421  1  0.12276251  0.63686002  0.38302084  1
  O  O422  1  0.12343330  0.63755266  0.86939568  1
  O  O423  1  0.61997615  0.12373829  0.38926699  1
  O  O424  1  0.63140659  0.13273132  0.88247473  1
  O  O425  1  0.63176443  0.62807624  0.37787198  1
  O  O426  1  0.63948128  0.63284564  0.87306878  1
