# generated using pymatgen
data_V85Zn86O256
_symmetry_space_group_name_H-M   'P 1'
_cell_length_a   16.91902860
_cell_length_b   16.92231885
_cell_length_c   16.91578739
_cell_angle_alpha   90.04137700
_cell_angle_beta   89.98532413
_cell_angle_gamma   89.96099439
_symmetry_Int_Tables_number   1
_chemical_formula_structural   V85Zn86O256
_chemical_formula_sum   'V85 Zn86 O256'
_cell_volume   4843.14295180
_cell_formula_units_Z   1
loop_
 _symmetry_equiv_pos_site_id
 _symmetry_equiv_pos_as_xyz
  1  'x, y, z'
loop_
 _atom_site_type_symbol
 _atom_site_label
 _atom_site_symmetry_multiplicity
 _atom_site_fract_x
 _atom_site_fract_y
 _atom_site_fract_z
 _atom_site_occupancy
  V  V0  1  0.75155251  0.37282316  0.12174186  1
  V  V1  1  0.88142091  0.49391957  0.87483051  1
  V  V2  1  0.62076569  0.24586693  0.86772633  1
  V  V3  1  -0.00168686  0.87474013  0.37971525  1
  V  V4  1  0.35711853  0.50623028  0.37170284  1
  V  V5  1  0.25186234  0.37774007  0.13055831  1
  V  V6  1  0.13013693  0.74110986  0.37635101  1
  V  V7  1  0.38081223  0.13432958  0.75460941  1
  V  V8  1  -0.00082529  0.11811201  0.12419061  1
  V  V9  1  0.49912031  0.25199820  0.24968206  1
  V  V10  1  0.62469370  0.62829054  0.49824641  1
  V  V11  1  0.13332043  0.00281191  0.62338122  1
  V  V12  1  0.62128943  0.12608608  0.50100580  1
  V  V13  1  0.49161808  0.86647756  0.86888824  1
  V  V14  1  0.37602294  0.12258195  0.25894878  1
  V  V15  1  0.24678282  0.25461335  0.49827091  1
  V  V16  1  0.62942754  0.49823647  0.62394583  1
  V  V17  1  0.49958883  0.37162583  0.86687743  1
  V  V18  1  0.75504329  0.75894942  0.50926622  1
  V  V19  1  0.62696381  0.75555209  0.36726464  1
  V  V20  1  0.12049749  0.12075483  -0.00012984  1
  V  V21  1  0.74965969  0.12698345  0.37466728  1
  V  V22  1  0.88850225  -0.00410702  0.88733139  1
  V  V23  1  0.87503478  0.24702803  0.12413080  1
  V  V24  1  0.11744512  0.50793853  0.63025124  1
  V  V25  1  0.87596165  0.12641433  0.74388417  1
  V  V26  1  0.62495543  0.37635807  0.24892093  1
  V  V27  1  0.36493207  0.62727653  0.25091267  1
  V  V28  1  0.76015433  0.49834675  0.25169959  1
  V  V29  1  0.00527804  0.24779730  0.25838344  1
  V  V30  1  0.36886682  0.87780958  0.01528345  1
  V  V31  1  0.74782546  0.11155876  0.87061863  1
  V  V32  1  0.24776600  0.38126796  0.63259811  1
  V  V33  1  -0.00188087  0.74898868  0.73545764  1
  V  V34  1  0.00036685  0.00461045  0.50435358  1
  V  V35  1  0.49838394  0.50471114  0.49719554  1
  V  V36  1  0.49647521  -0.00322489  -0.00511002  1
  V  V37  1  0.49898326  0.12280662  0.12422006  1
  V  V38  1  0.75721741  0.62423062  0.37301511  1
  V  V39  1  -0.00218086  0.74853682  0.25119552  1
  V  V40  1  0.62640538  0.49960457  0.12274011  1
  V  V41  1  0.75225037  0.75180029  -0.00241262  1
  V  V42  1  0.87804416  0.62749915  0.73797247  1
  V  V43  1  0.74754371  0.87280734  0.12522134  1
  V  V44  1  0.87489433  0.12242649  0.25157171  1
  V  V45  1  0.25010049  0.11821176  0.87812766  1
  V  V46  1  0.12072441  0.37762065  0.75611365  1
  V  V47  1  0.50027782  0.75311373  0.24355137  1
  V  V48  1  0.25210209  0.75077203  0.01156409  1
  V  V49  1  0.30999575  0.82099284  0.67323295  1
  V  V50  1  0.37569164  0.37658304  -0.00058025  1
  V  V51  1  -0.00250716  0.62110363  0.12371092  1
  V  V52  1  0.12834990  0.87473915  0.24919428  1
  V  V53  1  0.62156717  -0.00625062  0.62795744  1
  V  V54  1  0.00001239  0.25192105  0.75244863  1
  V  V55  1  0.12246136  0.87388157  0.75014352  1
  V  V56  1  0.25033301  0.24813783  0.00086950  1
  V  V57  1  0.12885297  0.37227269  0.25862413  1
  V  V58  1  0.62948246  0.37112395  0.74263946  1
  V  V59  1  0.49693446  0.63855689  0.63110192  1
  V  V60  1  0.12753978  -0.00357919  0.12683400  1
  V  V61  1  0.25673641  0.74430200  0.49570701  1
  V  V62  1  0.25462071  -0.00422492  0.25628043  1
  V  V63  1  0.87849815  0.25508641  0.62439028  1
  V  V64  1  0.12114778  0.13372640  0.50384698  1
  V  V65  1  0.37250022  0.37897366  0.49991840  1
  V  V66  1  0.87406676  0.37875413  0.49463070  1
  V  V67  1  0.50119221  0.49988350  -0.00217646  1
  V  V68  1  0.49717220  0.62701279  0.12534790  1
  V  V69  1  0.12890751  0.49845173  0.13202012  1
  V  V70  1  0.49166927  0.00387570  0.49542565  1
  V  V71  1  0.49885547  0.88007784  0.36867929  1
  V  V72  1  -0.00492574  0.50939133  0.49458490  1
  V  V73  1  0.11557225  0.75417133  0.87827384  1
  V  V74  1  0.24582604  0.12657902  0.37751374  1
  V  V75  1  0.74879349  0.24761675  -0.00378318  1
  V  V76  1  0.74973636  0.62264881  0.87279351  1
  V  V77  1  0.74360962  -0.00594165  0.25075507  1
  V  V78  1  0.37013713  0.50409932  0.86362604  1
  V  V79  1  0.74758188  0.25668818  0.50781473  1
  V  V80  1  0.25527411  0.00375788  0.75095110  1
  V  V81  1  0.79965612  -0.05613396  0.69024412  1
  V  V82  1  0.12584827  0.62305180  -0.00109800  1
  V  V83  1  0.36965512  0.87692313  0.49283907  1
  V  V84  1  0.49799808  0.38108235  0.37288127  1
  Zn  Zn85  1  0.87658229  0.75015674  0.12239278  1
  Zn  Zn86  1  0.88740212  0.36498962  -0.01000041  1
  Zn  Zn87  1  0.62067493  0.74849738  0.86789151  1
  Zn  Zn88  1  0.62218487  0.12112156  -0.00076524  1
  Zn  Zn89  1  0.50208907  0.13337544  0.63181098  1
  Zn  Zn90  1  0.87324526  -0.00267484  0.37863141  1
  Zn  Zn91  1  0.12443046  0.62798955  0.50310814  1
  Zn  Zn92  1  0.37554330  0.25054097  0.12600905  1
  Zn  Zn93  1  0.00651489  0.48505672  -0.00397405  1
  Zn  Zn94  1  0.11466365  0.25693840  0.88222916  1
  Zn  Zn95  1  0.87983060  0.61898822  0.25311475  1
  Zn  Zn96  1  0.62206963  0.87213676  0.74755635  1
  Zn  Zn97  1  0.89911681  0.87333299  0.00042472  1
  Zn  Zn98  1  0.37314867  0.63569159  0.74286303  1
  Zn  Zn99  1  0.87484333  0.87550488  0.51395482  1
  Zn  Zn100  1  0.37866315  0.25619535  0.62998979  1
  Zn  Zn101  1  0.24643466  0.62331764  0.86390200  1
  Zn  Zn102  1  0.75344805  0.49670336  0.74451068  1
  Zn  Zn103  1  0.62377196  0.25424706  0.37652826  1
  Zn  Zn104  1  0.00016866  0.37561637  0.37558918  1
  Zn  Zn105  1  0.62050572  -0.00787126  0.12738459  1
  Zn  Zn106  1  0.62545915  0.62596779  -0.00313674  1
  Zn  Zn107  1  0.18809548  0.18761428  0.18770924  1
  Zn  Zn108  1  0.18830039  0.19179352  0.68587504  1
  Zn  Zn109  1  0.18321341  0.68827641  0.18699470  1
  Zn  Zn110  1  0.18715816  0.68177670  0.69199520  1
  Zn  Zn111  1  0.68403571  0.18597944  0.18751123  1
  Zn  Zn112  1  0.68943847  0.18381959  0.68719517  1
  Zn  Zn113  1  0.68717977  0.68669845  0.18528909  1
  Zn  Zn114  1  0.68466544  0.69070057  0.69148370  1
  Zn  Zn115  1  0.31264558  0.31072715  0.31538491  1
  Zn  Zn116  1  0.30627185  0.31316043  0.81669006  1
  Zn  Zn117  1  0.31585608  0.81044848  0.31106053  1
  Zn  Zn118  1  0.30783870  0.81409537  0.83834717  1
  Zn  Zn119  1  0.81379961  0.31078242  0.31392548  1
  Zn  Zn120  1  0.80790827  0.31091464  0.81079914  1
  Zn  Zn121  1  0.81466983  0.81246497  0.31344204  1
  Zn  Zn122  1  0.81840175  0.80846900  0.81843287  1
  Zn  Zn123  1  0.18225358  0.44096947  0.44269882  1
  Zn  Zn124  1  0.18891918  0.43789964  0.94043332  1
  Zn  Zn125  1  0.18762346  0.93741495  0.43507560  1
  Zn  Zn126  1  0.17724251  0.93440300  0.94159797  1
  Zn  Zn127  1  0.68819387  0.43946313  0.43590794  1
  Zn  Zn128  1  0.69004329  0.43595458  0.93323334  1
  Zn  Zn129  1  0.68314515  0.93828143  0.43788209  1
  Zn  Zn130  1  0.68249114  0.93273486  0.94064447  1
  Zn  Zn131  1  0.31184779  0.06017645  0.06953570  1
  Zn  Zn132  1  0.31361329  0.06556040  0.56651555  1
  Zn  Zn133  1  0.31354914  0.56263272  0.06264207  1
  Zn  Zn134  1  0.31049928  0.56250522  0.56716791  1
  Zn  Zn135  1  0.80898781  0.06028896  0.06172069  1
  Zn  Zn136  1  0.81601952  0.07017079  0.55723241  1
  Zn  Zn137  1  0.81477041  0.56078947  0.05782545  1
  Zn  Zn138  1  0.81055107  0.56421189  0.55941602  1
  Zn  Zn139  1  0.43422725  0.44357895  0.18825717  1
  Zn  Zn140  1  0.44469539  0.43823617  0.68364472  1
  Zn  Zn141  1  0.43537458  0.93783666  0.18701958  1
  Zn  Zn142  1  0.44098917  0.95175242  0.68929649  1
  Zn  Zn143  1  0.94053973  0.43199059  0.18229488  1
  Zn  Zn144  1  0.93781231  0.43642742  0.68488146  1
  Zn  Zn145  1  0.93388018  0.93569721  0.18673457  1
  Zn  Zn146  1  0.96161642  0.94154989  0.69168114  1
  Zn  Zn147  1  0.06472782  0.06276156  0.31757063  1
  Zn  Zn148  1  0.06338913  0.06831838  0.80874696  1
  Zn  Zn149  1  0.06481126  0.56005543  0.31361733  1
  Zn  Zn150  1  0.05897895  0.56584919  0.81125823  1
  Zn  Zn151  1  0.56397115  0.06275271  0.31404272  1
  Zn  Zn152  1  0.56103141  0.05400884  0.81520367  1
  Zn  Zn153  1  0.56456454  0.56458034  0.31038184  1
  Zn  Zn154  1  0.56107903  0.56259638  0.80821445  1
  Zn  Zn155  1  0.43467091  0.19326884  0.43844737  1
  Zn  Zn156  1  0.43524802  0.18713654  0.93583528  1
  Zn  Zn157  1  0.43722709  0.69087724  0.43317883  1
  Zn  Zn158  1  0.43368340  0.68743865  0.94102116  1
  Zn  Zn159  1  0.93640608  0.18821461  0.43852002  1
  Zn  Zn160  1  0.93654418  0.18154834  0.93516272  1
  Zn  Zn161  1  0.93505198  0.69014803  0.44058126  1
  Zn  Zn162  1  0.93674496  0.68415398  0.93467161  1
  Zn  Zn163  1  0.06256773  0.30817300  0.06851539  1
  Zn  Zn164  1  0.05816533  0.31663049  0.56743837  1
  Zn  Zn165  1  0.06090939  0.81265518  0.06368319  1
  Zn  Zn166  1  0.07029317  0.81720637  0.56315144  1
  Zn  Zn167  1  0.56279142  0.30986739  0.05830296  1
  Zn  Zn168  1  0.55727300  0.31222343  0.56319607  1
  Zn  Zn169  1  0.56611051  0.81144162  0.05836118  1
  Zn  Zn170  1  0.56152411  0.81446094  0.55548813  1
  O  O171  1  0.11843379  0.11795307  0.12136061  1
  O  O172  1  0.13147402  0.11719503  0.61554059  1
  O  O173  1  0.11800088  0.61645918  0.12144589  1
  O  O174  1  0.12359995  0.61131685  0.62421667  1
  O  O175  1  0.60897620  0.12451768  0.12414140  1
  O  O176  1  0.62626233  0.11771570  0.61365552  1
  O  O177  1  0.61505268  0.61669838  0.12339784  1
  O  O178  1  0.61591090  0.62074699  0.61623892  1
  O  O179  1  0.37860057  0.38633203  0.37756014  1
  O  O180  1  0.38081604  0.38187416  0.87806660  1
  O  O181  1  0.38799453  0.87371516  0.38004232  1
  O  O182  1  0.38584002  0.87592458  0.89187653  1
  O  O183  1  0.87712173  0.37049444  0.38928839  1
  O  O184  1  0.86793228  0.38973565  0.87103295  1
  O  O185  1  0.88944728  0.87625120  0.37656530  1
  O  O186  1  0.86986722  0.89375362  0.87729385  1
  O  O187  1  0.24697082  0.01014537  0.36535265  1
  O  O188  1  0.24100438  0.01110481  0.86863706  1
  O  O189  1  0.25785796  0.50080346  0.37935079  1
  O  O190  1  0.26731621  0.50134794  0.88253250  1
  O  O191  1  0.74917242  0.00984034  0.37095260  1
  O  O192  1  0.75291038  0.00953417  0.88216754  1
  O  O193  1  0.74349833  0.51068529  0.36309921  1
  O  O194  1  0.75938396  0.50629461  0.87117789  1
  O  O195  1  0.24264875  0.48927803  0.12065814  1
  O  O196  1  0.23174360  0.49142714  0.61560752  1
  O  O197  1  0.23596225  1.00721430  0.14124343  1
  O  O198  1  0.24226137  1.00303230  0.63418003  1
  O  O199  1  0.74609627  0.49354040  0.12849399  1
  O  O200  1  0.73410644  0.50554041  0.62286563  1
  O  O201  1  0.74839093  0.99267018  0.13289288  1
  O  O202  1  0.74376584  1.00164021  0.62425201  1
  O  O203  1  0.00897676  0.36593578  0.25042317  1
  O  O204  1  0.00813744  0.36602660  0.74696147  1
  O  O205  1  0.00626700  0.86821438  0.25724538  1
  O  O206  1  0.01120787  0.86449578  0.75552794  1
  O  O207  1  0.50336949  0.37331382  0.25321633  1
  O  O208  1  0.50951645  0.37767115  0.76086647  1
  O  O209  1  0.49466402  0.86604856  0.25521201  1
  O  O210  1  0.49097419  0.88312561  0.76715929  1
  O  O211  1  0.49301509  0.12891817  0.24752114  1
  O  O212  1  0.48305652  0.11926011  0.75612356  1
  O  O213  1  0.49591090  0.63269618  0.24294729  1
  O  O214  1  0.49536571  0.62646501  0.73592547  1
  O  O215  1  0.99618205  0.12870742  0.24801335  1
  O  O216  1  0.98426192  0.13014252  0.74911207  1
  O  O217  1  1.00068940  0.62998135  0.24432713  1
  O  O218  1  0.98655635  0.63203967  0.74969156  1
  O  O219  1  0.36730784  0.25748318  0.00166803  1
  O  O220  1  0.36462305  0.26239343  0.50022520  1
  O  O221  1  0.35901288  0.75589388  -0.00117046  1
  O  O222  1  0.36891089  0.76121635  0.49479211  1
  O  O223  1  0.86624880  0.24520024  0.00418535  1
  O  O224  1  0.86887070  0.25567036  0.50617390  1
  O  O225  1  0.86625696  0.75038686  -0.00071511  1
  O  O226  1  0.86064651  0.75481716  0.49971924  1
  O  O227  1  0.12917426  0.24191437  0.50822745  1
  O  O228  1  0.13248674  0.23715303  1.00309571  1
  O  O229  1  0.13417266  0.75193938  0.49248153  1
  O  O230  1  0.13202232  0.74268968  0.99611892  1
  O  O231  1  0.63135499  0.24466620  0.49837851  1
  O  O232  1  0.63100841  0.24556422  0.98723020  1
  O  O233  1  0.63175667  0.74505403  0.48838038  1
  O  O234  1  0.63820809  0.74628614  0.99300756  1
  O  O235  1  0.49788854  0.24293507  0.13048193  1
  O  O236  1  0.49172925  0.24501768  0.62101374  1
  O  O237  1  0.50837425  0.74234346  0.13471714  1
  O  O238  1  0.50382577  0.73660530  0.61680505  1
  O  O239  1  0.99619313  0.23538913  0.13675074  1
  O  O240  1  0.99009207  0.25063959  0.63628438  1
  O  O241  1  1.00383273  0.73914459  0.13530166  1
  O  O242  1  1.00533375  0.75500311  0.63558386  1
  O  O243  1  -0.00290443  0.25060815  0.36220343  1
  O  O244  1  -0.00148261  0.24280867  0.85982686  1
  O  O245  1  0.00639228  0.75564836  0.37129287  1
  O  O246  1  0.01279001  0.74152769  0.86720170  1
  O  O247  1  0.49902215  0.26287970  0.36851501  1
  O  O248  1  0.50867477  0.25829236  0.87969040  1
  O  O249  1  0.50817285  0.75695296  0.36519279  1
  O  O250  1  0.49745796  0.76247683  0.88065211  1
  O  O251  1  0.24621925  0.13319975  0.49549041  1
  O  O252  1  0.24690734  0.12905714  0.99695092  1
  O  O253  1  0.24910657  0.64105890  0.50650985  1
  O  O254  1  0.24155083  0.63394621  1.00255821  1
  O  O255  1  0.74206213  0.13200254  0.49207508  1
  O  O256  1  0.74630654  0.13301567  0.99286247  1
  O  O257  1  0.74227705  0.63287677  0.49160619  1
  O  O258  1  0.75009924  0.63070568  0.99167013  1
  O  O259  1  0.25300744  0.36640081  0.00934958  1
  O  O260  1  0.25044815  0.37041403  0.50712311  1
  O  O261  1  0.25924420  0.86592852  -0.00357659  1
  O  O262  1  0.26320806  0.87250920  0.49458244  1
  O  O263  1  0.75150039  0.36038347  0.00159323  1
  O  O264  1  0.75623563  0.36674258  0.49388608  1
  O  O265  1  0.75449107  0.86642502  0.00551311  1
  O  O266  1  0.75161060  0.86354255  0.49491837  1
  O  O267  1  0.12273371  0.49141523  0.23951768  1
  O  O268  1  0.11526001  0.49456943  0.73847285  1
  O  O269  1  0.13080158  0.99261393  0.24885465  1
  O  O270  1  0.13314177  0.99597016  0.74499428  1
  O  O271  1  0.63338614  0.49487997  0.24131279  1
  O  O272  1  0.62518352  0.49154726  0.74021324  1
  O  O273  1  0.63915908  1.00587331  0.24768439  1
  O  O274  1  0.61993692  0.99440875  0.73772119  1
  O  O275  1  0.36574074  0.00898357  0.24700430  1
  O  O276  1  0.36088222  0.01185482  0.74902013  1
  O  O277  1  0.37775204  0.51536081  0.25874497  1
  O  O278  1  0.38133743  0.49641556  0.76321675  1
  O  O279  1  0.86507027  0.00690785  0.25387287  1
  O  O280  1  0.86944181  0.00330040  0.74622642  1
  O  O281  1  0.86402350  0.49710387  0.24461475  1
  O  O282  1  0.87558379  0.50797263  0.75562759  1
  O  O283  1  0.12635448  0.37898331  0.36175034  1
  O  O284  1  0.13374093  0.37578830  0.86092626  1
  O  O285  1  0.11527929  0.86869050  0.36811636  1
  O  O286  1  0.13591656  0.86690851  0.86006990  1
  O  O287  1  0.61658767  0.37665150  0.36727295  1
  O  O288  1  0.61838620  0.36646723  0.86796191  1
  O  O289  1  0.61216768  0.86701954  0.37908435  1
  O  O290  1  0.60430136  0.87575517  0.87794633  1
  O  O291  1  0.38372285  0.12635852  0.13711977  1
  O  O292  1  0.37166985  0.12901604  0.64342038  1
  O  O293  1  0.38824386  0.61780133  0.13548145  1
  O  O294  1  0.39270640  0.62157069  0.62155337  1
  O  O295  1  0.88176106  0.12575922  0.13008007  1
  O  O296  1  0.86826031  0.13982729  0.63176985  1
  O  O297  1  0.88834712  0.62397903  0.12526784  1
  O  O298  1  0.87048717  0.62157507  0.63926745  1
  O  O299  1  0.25238874  0.25436974  0.11508882  1
  O  O300  1  0.25306919  0.26069626  0.61464059  1
  O  O301  1  0.24002431  0.75225080  0.11051783  1
  O  O302  1  0.24711140  0.76018780  0.61879899  1
  O  O303  1  0.75257368  0.25082216  0.11634478  1
  O  O304  1  0.75427999  0.24772511  0.61239184  1
  O  O305  1  0.75355635  0.75371865  0.11824946  1
  O  O306  1  0.74310417  0.74668655  0.60662485  1
  O  O307  1  0.25040151  0.24478952  0.38931388  1
  O  O308  1  0.24471005  0.24248334  0.88881084  1
  O  O309  1  0.24183784  0.75556119  0.38324966  1
  O  O310  1  0.23520444  0.74334508  0.88787443  1
  O  O311  1  0.74843894  0.23950436  0.38223648  1
  O  O312  1  0.74351590  0.24034782  0.88061127  1
  O  O313  1  0.74295763  0.74460222  0.37749668  1
  O  O314  1  0.75129576  0.74009565  0.88178500  1
  O  O315  1  0.00874289  0.12828841  0.01111836  1
  O  O316  1  0.01060234  0.11879148  0.49331308  1
  O  O317  1  0.01164531  0.62442479  0.00761365  1
  O  O318  1  -0.00102321  0.61337076  0.49869420  1
  O  O319  1  0.49439998  0.11634769  0.00799135  1
  O  O320  1  0.50616279  0.12025442  0.49460706  1
  O  O321  1  0.50094642  0.62005630  0.00821580  1
  O  O322  1  0.50964436  0.62389774  0.50043602  1
  O  O323  1  0.49332922  0.38421010  0.49169150  1
  O  O324  1  0.49599899  0.37944724  0.98956765  1
  O  O325  1  0.48961681  0.88340806  0.49218290  1
  O  O326  1  0.48782184  0.87842121  1.00025526  1
  O  O327  1  0.99245593  0.38339579  0.49746267  1
  O  O328  1  1.00071578  0.37111645  1.00205181  1
  O  O329  1  0.99880032  0.88236927  0.49573523  1
  O  O330  1  1.01092085  0.87874585  0.99448158  1
  O  O331  1  0.49603676  0.49631076  0.37883450  1
  O  O332  1  0.49356130  0.49291554  0.87955972  1
  O  O333  1  0.50425658  0.99228405  0.38184325  1
  O  O334  1  0.49652672  0.99274183  0.89038049  1
  O  O335  1  1.00337273  0.49738841  0.39019714  1
  O  O336  1  0.98530008  0.50507826  0.87702132  1
  O  O337  1  1.00259900  0.99238084  0.38725805  1
  O  O338  1  0.98556757  1.00622970  0.86744991  1
  O  O339  1  0.01116514  0.01100612  0.13749150  1
  O  O340  1  0.01403319  0.00271224  0.61239990  1
  O  O341  1  0.00889870  0.50568109  0.12229035  1
  O  O342  1  0.01127250  0.49430327  0.61357917  1
  O  O343  1  0.49980127  0.00624264  0.11875848  1
  O  O344  1  0.50605387  0.01176385  0.61524060  1
  O  O345  1  0.50637554  0.50549938  0.11853020  1
  O  O346  1  0.51007717  0.50874675  0.61488797  1
  O  O347  1  0.24524835  0.36575780  0.23823553  1
  O  O348  1  0.24250087  0.37011333  0.73840747  1
  O  O349  1  0.24218399  0.88341509  0.25886329  1
  O  O350  1  0.25256526  0.87966948  0.74475244  1
  O  O351  1  0.74565756  0.37955785  0.24509907  1
  O  O352  1  0.73437024  0.37721696  0.75160956  1
  O  O353  1  0.75634524  0.88344104  0.24325723  1
  O  O354  1  0.75011074  0.87982938  0.75141157  1
  O  O355  1  0.25532227  0.12233478  0.25919582  1
  O  O356  1  0.25199541  0.12088757  0.75938979  1
  O  O357  1  0.26595232  0.63223737  0.24243264  1
  O  O358  1  0.26080127  0.62487107  0.75066971  1
  O  O359  1  0.75407930  0.12149005  0.25739921  1
  O  O360  1  0.76232674  0.12876748  0.75893247  1
  O  O361  1  0.75256645  0.61641839  0.25459974  1
  O  O362  1  0.76087718  0.62322865  0.75527961  1
  O  O363  1  0.36486769  0.13014616  0.36610111  1
  O  O364  1  0.36330205  0.12771020  0.86643094  1
  O  O365  1  0.37880100  0.61953781  0.36132357  1
  O  O366  1  0.37829536  0.61254588  0.87192823  1
  O  O367  1  0.86551526  0.12263340  0.37127087  1
  O  O368  1  0.86733863  0.11231066  0.86695087  1
  O  O369  1  0.86160957  0.62867809  0.37354901  1
  O  O370  1  0.86668674  0.61413608  0.86797809  1
  O  O371  1  0.13323842  0.38041580  0.13361613  1
  O  O372  1  0.12964483  0.38308779  0.63457759  1
  O  O373  1  0.12239786  0.88211160  0.14117055  1
  O  O374  1  0.12538845  0.88703351  0.63851279  1
  O  O375  1  0.63129059  0.37855375  0.12818620  1
  O  O376  1  0.61779189  0.38373504  0.63173452  1
  O  O377  1  0.64118704  0.87373882  0.12184443  1
  O  O378  1  0.61899914  0.88974303  0.61937004  1
  O  O379  1  0.11707994  0.25821262  0.24474229  1
  O  O380  1  0.11629513  0.25730812  0.75051426  1
  O  O381  1  0.11760485  0.75571158  0.25680320  1
  O  O382  1  0.11963711  0.75601035  0.75496166  1
  O  O383  1  0.61745425  0.25736483  0.25253226  1
  O  O384  1  0.62878120  0.25399844  0.75907084  1
  O  O385  1  0.61811023  0.74433430  0.26040667  1
  O  O386  1  0.62546648  0.75899014  0.75421538  1
  O  O387  1  0.38129388  0.24217448  0.24872765  1
  O  O388  1  0.36734962  0.23780618  0.75293404  1
  O  O389  1  0.38615948  0.73762192  0.25349105  1
  O  O390  1  0.36170977  0.76459868  0.74003415  1
  O  O391  1  0.88072749  0.24230476  0.24365815  1
  O  O392  1  0.87800314  0.24618338  0.74357668  1
  O  O393  1  0.88895070  0.74720709  0.24874008  1
  O  O394  1  0.88319045  0.73736893  0.75464453  1
  O  O395  1  0.37831425  0.49881746  0.49124468  1
  O  O396  1  0.38309884  0.49480307  0.99302101  1
  O  O397  1  0.38493477  0.99749573  0.50351509  1
  O  O398  1  0.37658782  0.98562588  1.00907154  1
  O  O399  1  0.88628533  0.49428568  0.50697304  1
  O  O400  1  0.87742150  0.49557752  0.98521414  1
  O  O401  1  0.88523945  0.99815322  0.49993528  1
  O  O402  1  0.87897145  1.00332229  0.98974996  1
  O  O403  1  0.13291663  0.01160600  0.01276427  1
  O  O404  1  0.12337290  0.00725860  0.50656384  1
  O  O405  1  0.12607582  0.50731134  0.00948608  1
  O  O406  1  0.11167514  0.50342519  0.50869596  1
  O  O407  1  0.61256394  0.00189515  0.00555554  1
  O  O408  1  0.61460008  0.00849149  0.50365978  1
  O  O409  1  0.61916207  0.49890531  0.00480416  1
  O  O410  1  0.62067833  0.51051580  0.50223038  1
  O  O411  1  0.36795159  0.37588210  0.11995211  1
  O  O412  1  0.36558310  0.38189394  0.61903935  1
  O  O413  1  0.37479089  0.86971108  0.11435277  1
  O  O414  1  0.37632647  0.87850974  0.61909271  1
  O  O415  1  0.86730610  0.36402179  0.12206433  1
  O  O416  1  0.87520165  0.36412441  0.61453883  1
  O  O417  1  0.86571397  0.87218899  0.11975769  1
  O  O418  1  0.86710134  0.88957776  0.63539256  1
  O  O419  1  0.13766569  0.12365715  0.38606984  1
  O  O420  1  0.13031894  0.12743661  0.88476112  1
  O  O421  1  0.12313015  0.63773409  0.37705525  1
  O  O422  1  0.12599496  0.62798402  0.88444058  1
  O  O423  1  0.63110173  0.12829992  0.38547492  1
  O  O424  1  0.63014229  0.12914329  0.87312117  1
  O  O425  1  0.63194075  0.63266306  0.38135505  1
  O  O426  1  0.63756637  0.62134104  0.87340843  1
