# generated using pymatgen
data_V85Zn86O256
_symmetry_space_group_name_H-M   'P 1'
_cell_length_a   16.93484816
_cell_length_b   16.92914468
_cell_length_c   16.93882967
_cell_angle_alpha   89.95539743
_cell_angle_beta   89.95158416
_cell_angle_gamma   90.00871428
_symmetry_Int_Tables_number   1
_chemical_formula_structural   V85Zn86O256
_chemical_formula_sum   'V85 Zn86 O256'
_cell_volume   4856.23207178
_cell_formula_units_Z   1
loop_
 _symmetry_equiv_pos_site_id
 _symmetry_equiv_pos_as_xyz
  1  'x, y, z'
loop_
 _atom_site_type_symbol
 _atom_site_label
 _atom_site_symmetry_multiplicity
 _atom_site_fract_x
 _atom_site_fract_y
 _atom_site_fract_z
 _atom_site_occupancy
  V  V0  1  0.74590158  0.87897474  0.12519269  1
  V  V1  1  0.38215695  0.87791011  0.00063237  1
  V  V2  1  0.74632910  0.50020099  0.73931552  1
  V  V3  1  0.00063286  0.75421494  0.74817915  1
  V  V4  1  0.62335587  0.49513759  0.12532362  1
  V  V5  1  0.62301128  0.87841735  0.24984471  1
  V  V6  1  0.37270268  0.00722745  0.37500957  1
  V  V7  1  0.00343268  0.37513230  0.37458910  1
  V  V8  1  0.37529016  0.00349534  0.87667725  1
  V  V9  1  0.50190800  0.62255805  0.12876151  1
  V  V10  1  0.37704283  0.62399528  0.25916798  1
  V  V11  1  0.74801184  0.12669791  0.37535640  1
  V  V12  1  0.01220773  0.12633830  0.61721282  1
  V  V13  1  0.75218362  0.62442004  0.87485196  1
  V  V14  1  0.37384743  0.25267668  0.62343698  1
  V  V15  1  0.12502598  0.75712419  0.34999472  1
  V  V16  1  0.12544749  -0.00398887  0.13043511  1
  V  V17  1  0.24871000  0.87146490  0.13264485  1
  V  V18  1  0.49412521  0.11257664  0.13712007  1
  V  V19  1  0.62282606  -0.00276857  0.62613596  1
  V  V20  1  0.37828967  0.62705127  0.75411849  1
  V  V21  1  0.12268997  0.37808726  0.75347658  1
  V  V22  1  0.87511794  0.48812577  0.87585521  1
  V  V23  1  0.24590352  0.51086239  0.75777107  1
  V  V24  1  0.87478184  0.37362810  0.50341168  1
  V  V25  1  0.62464673  0.62425970  0.00207431  1
  V  V26  1  0.00417631  0.00020660  -0.00232546  1
  V  V27  1  0.75093285  0.75089532  0.00642451  1
  V  V28  1  0.62082517  0.36771415  0.25102046  1
  V  V29  1  0.12404527  0.49383011  0.12624292  1
  V  V30  1  0.37677700  0.74861250  0.12738790  1
  V  V31  1  0.75269624  0.49985127  0.24772726  1
  V  V32  1  0.35694851  0.86825785  0.50552847  1
  V  V33  1  0.62327806  0.12548546  0.50264449  1
  V  V34  1  0.24841707  0.62756228  0.37609134  1
  V  V35  1  0.00958015  0.87357800  0.87463687  1
  V  V36  1  0.60919494  0.11692764  0.00475534  1
  V  V37  1  0.75443532  0.62740988  0.36981200  1
  V  V38  1  0.74573780  0.00370457  0.23954166  1
  V  V39  1  0.87613877  0.50346345  0.37348738  1
  V  V40  1  0.49842179  0.24856343  0.75279771  1
  V  V41  1  0.13815136  0.11996870  -0.00527389  1
  V  V42  1  0.87366012  0.12806360  0.24711573  1
  V  V43  1  0.76063044  0.75073771  0.50455623  1
  V  V44  1  0.12367485  0.24056060  0.37835743  1
  V  V45  1  0.35911982  0.12740392  0.75256593  1
  V  V46  1  -0.00021660  0.87574050  0.35995890  1
  V  V47  1  0.38172472  0.25059650  0.14468501  1
  V  V48  1  0.49632597  -0.00130600  0.50354984  1
  V  V49  1  0.74825810  0.00060333  0.75080052  1
  V  V50  1  0.87388115  0.87826960  0.00511213  1
  V  V51  1  0.49727071  0.87324578  0.38180788  1
  V  V52  1  0.60917525  0.24814277  0.37649789  1
  V  V53  1  0.74441393  0.13166171  0.88041563  1
  V  V54  1  0.37537971  0.39937051  0.50112218  1
  V  V55  1  0.49997095  0.49549397  0.00040085  1
  V  V56  1  0.00260121  0.12974122  0.12228179  1
  V  V57  1  0.62189870  0.75291267  0.87467335  1
  V  V58  1  0.12322631  0.64153835  0.49935611  1
  V  V59  1  0.87476259  0.63124674  0.75399711  1
  V  V60  1  0.12890735  0.74139391  0.87161711  1
  V  V61  1  0.87659972  0.00021526  0.87470058  1
  V  V62  1  0.25214331  0.74199602  -0.00296388  1
  V  V63  1  0.24469231  -0.02011808  0.75169046  1
  V  V64  1  0.24958194  0.38211367  0.62316696  1
  V  V65  1  0.62502323  0.75187882  0.38032079  1
  V  V66  1  0.25284173  0.00759905  0.24958327  1
  V  V67  1  0.12291904  0.50440655  0.62484230  1
  V  V68  1  0.87838361  0.12498706  0.74574716  1
  V  V69  1  0.00252057  0.50338310  0.49978279  1
  V  V70  1  0.75231118  0.36144631  0.11492707  1
  V  V71  1  -0.00427626  0.25338869  0.24511682  1
  V  V72  1  0.13112933  -0.01616214  0.61911332  1
  V  V73  1  0.24859233  0.24527992  0.50003014  1
  V  V74  1  0.25705824  0.25431806  0.00673462  1
  V  V75  1  0.76054276  0.87310819  0.62575021  1
  V  V76  1  0.62429789  0.61387678  0.50441001  1
  V  V77  1  0.12024611  0.62079392  0.00244081  1
  V  V78  1  0.36985966  0.50095840  0.87976443  1
  V  V79  1  0.49649665  0.39529025  0.37980795  1
  V  V80  1  -0.00720390  0.63170653  0.62051403  1
  V  V81  1  0.50437237  0.61137289  0.62358339  1
  V  V82  1  0.25706422  0.49188721  0.24968916  1
  V  V83  1  0.13474210  0.24527514  0.87250538  1
  V  V84  1  0.62100942  0.37818298  0.74411442  1
  Zn  Zn85  1  0.62531240  0.25230436  0.88189882  1
  Zn  Zn86  1  0.50137445  0.75196097  0.74431554  1
  Zn  Zn87  1  0.49588313  0.12354982  0.62810569  1
  Zn  Zn88  1  0.90842890  0.30639286  0.05245491  1
  Zn  Zn89  1  0.37376087  0.37515668  0.00761357  1
  Zn  Zn90  1  -0.02077352  0.64684852  0.15024600  1
  Zn  Zn91  1  0.62089750  0.87513414  0.75126364  1
  Zn  Zn92  1  0.00365682  -0.00048648  0.49615276  1
  Zn  Zn93  1  0.25000376  0.12576231  0.37509295  1
  Zn  Zn94  1  0.00231213  0.25035405  0.74860015  1
  Zn  Zn95  1  0.13244800  0.36962873  0.24803178  1
  Zn  Zn96  1  0.74289677  0.37380269  0.62039863  1
  Zn  Zn97  1  -0.00153205  0.36837883  0.88513334  1
  Zn  Zn98  1  0.36947117  0.75195394  0.62338213  1
  Zn  Zn99  1  -0.01174706  0.49031837  0.01004246  1
  Zn  Zn100  1  0.50168461  0.88012625  0.87513031  1
  Zn  Zn101  1  0.87394111  0.24710182  0.62262075  1
  Zn  Zn102  1  0.74829688  0.25011239  0.50263200  1
  Zn  Zn103  1  0.50247491  0.74881901  0.25240245  1
  Zn  Zn104  1  0.87587511  0.00053452  0.37776911  1
  Zn  Zn105  1  0.49938791  0.37443750  0.87609177  1
  Zn  Zn106  1  0.88357961  0.87511318  0.50095078  1
  Zn  Zn107  1  0.18821766  0.18774744  0.18610266  1
  Zn  Zn108  1  0.18809952  0.19020944  0.68434260  1
  Zn  Zn109  1  0.18920479  0.67897223  0.18312570  1
  Zn  Zn110  1  0.18705689  0.69616991  0.68574730  1
  Zn  Zn111  1  0.67716658  0.18666805  0.18439200  1
  Zn  Zn112  1  0.68692875  0.18946301  0.68679156  1
  Zn  Zn113  1  0.80745898  0.68289814  0.18376737  1
  Zn  Zn114  1  0.68626450  0.68879808  0.68726344  1
  Zn  Zn115  1  0.31811035  0.31480502  0.32118447  1
  Zn  Zn116  1  0.31075669  0.31797883  0.81503954  1
  Zn  Zn117  1  0.31236140  0.81294450  0.31489760  1
  Zn  Zn118  1  0.31489791  0.81114384  0.81633918  1
  Zn  Zn119  1  0.81025196  0.31223247  0.31354199  1
  Zn  Zn120  1  0.80914602  0.31003044  0.80477831  1
  Zn  Zn121  1  0.80971006  0.81921278  0.31630861  1
  Zn  Zn122  1  0.81248156  0.81374379  0.81820366  1
  Zn  Zn123  1  0.18845601  0.43995154  0.43556032  1
  Zn  Zn124  1  0.18883002  0.43362539  0.93931151  1
  Zn  Zn125  1  0.18219406  0.93578642  0.43467064  1
  Zn  Zn126  1  0.19502679  0.93153263  0.93947783  1
  Zn  Zn127  1  0.68817784  0.43641889  0.43538020  1
  Zn  Zn128  1  0.68653616  0.43403814  0.93196424  1
  Zn  Zn129  1  0.68955894  0.94033233  0.43954662  1
  Zn  Zn130  1  0.68432911  0.94326718  0.93933995  1
  Zn  Zn131  1  0.31772615  0.06384234  0.06475050  1
  Zn  Zn132  1  0.30960192  0.06112529  0.56521898  1
  Zn  Zn133  1  0.31186648  0.56243125  0.06769964  1
  Zn  Zn134  1  0.29762760  0.59364417  0.57652892  1
  Zn  Zn135  1  0.82959897  0.11494820  0.04327666  1
  Zn  Zn136  1  0.81545571  0.05980522  0.56030419  1
  Zn  Zn137  1  0.80739377  0.55245861  0.05764691  1
  Zn  Zn138  1  0.81520281  0.56612521  0.55995169  1
  Zn  Zn139  1  0.43637372  0.43142149  0.19062261  1
  Zn  Zn140  1  0.43587014  0.44020253  0.68922151  1
  Zn  Zn141  1  0.43504794  0.93588236  0.19268105  1
  Zn  Zn142  1  0.43416041  0.93406042  0.68983969  1
  Zn  Zn143  1  0.93585902  0.44250712  0.18817310  1
  Zn  Zn144  1  0.93731215  0.44092765  0.68900472  1
  Zn  Zn145  1  0.93330150  0.94297306  0.18698723  1
  Zn  Zn146  1  0.94288929  0.94041355  0.68719828  1
  Zn  Zn147  1  0.06318220  0.06169885  0.30927320  1
  Zn  Zn148  1  0.06850877  0.06222681  0.80824220  1
  Zn  Zn149  1  0.06995137  0.55997254  0.31141465  1
  Zn  Zn150  1  0.05704726  0.56513418  0.81802664  1
  Zn  Zn151  1  0.55984908  0.06001575  0.31398062  1
  Zn  Zn152  1  0.55773020  0.06502177  0.81219088  1
  Zn  Zn153  1  0.57082414  0.56436107  0.31160217  1
  Zn  Zn154  1  0.56279274  0.56222568  0.81407898  1
  Zn  Zn155  1  0.43458617  0.18891143  0.44293208  1
  Zn  Zn156  1  0.43691344  0.18229473  0.93580664  1
  Zn  Zn157  1  0.43863638  0.68458792  0.44325924  1
  Zn  Zn158  1  0.43801960  0.68444978  0.93844838  1
  Zn  Zn159  1  0.93671003  0.18720846  0.43717753  1
  Zn  Zn160  1  0.94822548  0.18239395  0.92682651  1
  Zn  Zn161  1  0.93737587  0.69256219  0.32101878  1
  Zn  Zn162  1  0.95248294  0.70084098  0.97452930  1
  Zn  Zn163  1  0.07605568  0.31441888  0.06114102  1
  Zn  Zn164  1  0.06332130  0.31265933  0.56290966  1
  Zn  Zn165  1  0.06530444  0.81114503  0.06772447  1
  Zn  Zn166  1  0.05685551  0.81420507  0.55851952  1
  Zn  Zn167  1  0.56167913  0.30311719  0.06219517  1
  Zn  Zn168  1  0.55773535  0.31598105  0.56244509  1
  Zn  Zn169  1  0.56350083  0.81253344  0.06578526  1
  Zn  Zn170  1  0.56061975  0.80665255  0.56626410  1
  O  O171  1  0.12142424  0.11733850  0.11684338  1
  O  O172  1  0.11432283  0.11998952  0.62979574  1
  O  O173  1  0.12325441  0.61274134  0.11677064  1
  O  O174  1  0.11349583  0.62204620  0.61805294  1
  O  O175  1  0.60824186  0.12618971  0.11566568  1
  O  O176  1  0.62343361  0.11287577  0.62170678  1
  O  O177  1  0.61456461  0.61266651  0.11757336  1
  O  O178  1  0.61424455  0.62944810  0.61842376  1
  O  O179  1  0.38856804  0.38023715  0.38444274  1
  O  O180  1  0.37725537  0.38821572  0.88023703  1
  O  O181  1  0.38062881  0.88215777  0.38416360  1
  O  O182  1  0.37588905  0.88088554  0.88505314  1
  O  O183  1  0.88466567  0.37916047  0.38378188  1
  O  O184  1  0.87533218  0.38420439  0.86386462  1
  O  O185  1  0.88959351  0.87766638  0.37591280  1
  O  O186  1  0.88314014  0.88339380  0.88279701  1
  O  O187  1  0.25363424  0.00045298  0.36745101  1
  O  O188  1  0.25593430  -0.00894324  0.85949741  1
  O  O189  1  0.24029594  0.51090456  0.35760724  1
  O  O190  1  0.25689859  0.49616227  0.87007094  1
  O  O191  1  0.74723028  0.01471362  0.36785909  1
  O  O192  1  0.75516105  0.00537501  0.86540193  1
  O  O193  1  0.75323916  0.50747614  0.36770929  1
  O  O194  1  0.75873433  0.50273216  0.86578180  1
  O  O195  1  0.24189558  0.50614044  0.14110204  1
  O  O196  1  0.24096463  0.50096641  0.63626495  1
  O  O197  1  0.24656548  0.99291455  0.13041365  1
  O  O198  1  0.23791072  1.00252426  0.63534376  1
  O  O199  1  0.74012088  0.48875387  0.13227766  1
  O  O200  1  0.75675363  0.49955866  0.63651260  1
  O  O201  1  0.74913002  0.99735417  0.13815208  1
  O  O202  1  0.74287594  0.99479497  0.63173428  1
  O  O203  1  -0.00041483  0.36869235  0.25758991  1
  O  O204  1  0.01440978  0.37428943  0.74695835  1
  O  O205  1  -0.00252138  0.88075200  0.25970757  1
  O  O206  1  -0.00814975  0.86220088  0.75965716  1
  O  O207  1  0.50714463  0.38056033  0.26764792  1
  O  O208  1  0.50358273  0.36879788  0.75150924  1
  O  O209  1  0.50480157  0.87493872  0.26461017  1
  O  O210  1  0.50119366  0.86969489  0.75491732  1
  O  O211  1  0.50489602  0.12224525  0.23678147  1
  O  O212  1  0.48697404  0.13338413  0.74739494  1
  O  O213  1  0.49385867  0.62395362  0.24865670  1
  O  O214  1  0.49612147  0.62586756  0.74376685  1
  O  O215  1  0.99317255  0.13294683  0.24577658  1
  O  O216  1  0.99408853  0.12397737  0.74039315  1
  O  O217  1  0.99965536  0.62435402  0.25661215  1
  O  O218  1  0.99236472  0.63384023  0.74561524  1
  O  O219  1  0.36328562  0.24912173  -0.00221332  1
  O  O220  1  0.36799026  0.26000654  0.50792865  1
  O  O221  1  0.36927386  0.75223243  0.00556599  1
  O  O222  1  0.37595126  0.76655844  0.49499830  1
  O  O223  1  0.87369552  0.21541252  0.00261267  1
  O  O224  1  0.87349689  0.25986514  0.49997376  1
  O  O225  1  0.85905857  0.76725580  -0.01632292  1
  O  O226  1  0.85941823  0.75364868  0.49996392  1
  O  O227  1  0.13512754  0.25871615  0.49009004  1
  O  O228  1  0.13887961  0.24142132  0.99550186  1
  O  O229  1  0.12424191  0.74224710  0.49572666  1
  O  O230  1  0.13400915  0.73916466  0.99335310  1
  O  O231  1  0.62354829  0.24362182  0.49421908  1
  O  O232  1  0.61870413  0.23110549  0.99545848  1
  O  O233  1  0.63066686  0.74477303  0.49186706  1
  O  O234  1  0.63167131  0.74477299  0.99592934  1
  O  O235  1  0.48554028  0.24104324  0.12630887  1
  O  O236  1  0.48957428  0.25077539  0.63514559  1
  O  O237  1  0.49556792  0.74063280  0.12936700  1
  O  O238  1  0.49206716  0.73770432  0.62696405  1
  O  O239  1  1.00362523  0.24765786  0.13144543  1
  O  O240  1  1.00108342  0.23751161  0.62686879  1
  O  O241  1  0.98962288  0.73440948  0.08069367  1
  O  O242  1  1.00379365  0.74423106  0.63616147  1
  O  O243  1  0.00621979  0.25608124  0.36980387  1
  O  O244  1  0.01720165  0.25136173  0.86857666  1
  O  O245  1  0.01513768  0.76359540  0.37171679  1
  O  O246  1  0.00896873  0.75530710  0.87340353  1
  O  O247  1  0.50716655  0.25501434  0.37976049  1
  O  O248  1  0.49480682  0.25218504  0.86225884  1
  O  O249  1  0.50674675  0.75704636  0.37779859  1
  O  O250  1  0.51404120  0.74727164  0.87816822  1
  O  O251  1  0.25466658  0.14143933  0.49995324  1
  O  O252  1  0.24287754  0.13244831  1.00353545  1
  O  O253  1  0.23582053  0.61223278  0.48040305  1
  O  O254  1  0.24440796  0.63591629  1.00633640  1
  O  O255  1  0.74222706  0.12473095  0.49161111  1
  O  O256  1  0.73334197  0.11478291  0.98692982  1
  O  O257  1  0.74396031  0.63306313  0.49602974  1
  O  O258  1  0.74403334  0.63288854  0.99487116  1
  O  O259  1  0.25075162  0.35794088  0.00369933  1
  O  O260  1  0.25779724  0.37198335  0.50248596  1
  O  O261  1  0.25929915  0.86207031  0.01075914  1
  O  O262  1  0.25886698  0.87532092  0.49706997  1
  O  O263  1  0.74089107  0.37471123  0.01587593  1
  O  O264  1  0.76003386  0.37499058  0.49997792  1
  O  O265  1  0.75378172  0.87303961  0.00366241  1
  O  O266  1  0.75059535  0.86929339  0.50876317  1
  O  O267  1  0.13601250  0.49627445  0.24038817  1
  O  O268  1  0.12893710  0.49785172  0.74982704  1
  O  O269  1  0.13218958  1.00197641  0.23607025  1
  O  O270  1  0.13917778  0.99838156  0.74312431  1
  O  O271  1  0.63344927  0.48856476  0.24734461  1
  O  O272  1  0.63555071  0.49289938  0.75622504  1
  O  O273  1  0.63138483  0.98741130  0.25940336  1
  O  O274  1  0.63190127  1.00048669  0.74373297  1
  O  O275  1  0.36480075  -0.00602278  0.26318808  1
  O  O276  1  0.36037574  0.00656026  0.75135149  1
  O  O277  1  0.36428391  0.50738266  0.24599393  1
  O  O278  1  0.36668491  0.50557592  0.75993948  1
  O  O279  1  0.86402133  0.00953973  0.25612205  1
  O  O280  1  0.86950743  0.00750919  0.75328009  1
  O  O281  1  0.86033167  0.49195162  0.25929777  1
  O  O282  1  0.86866962  0.50890022  0.75685467  1
  O  O283  1  0.11380643  0.36911020  0.37248514  1
  O  O284  1  0.12337179  0.36820334  0.86851468  1
  O  O285  1  0.12010311  0.86346990  0.36960383  1
  O  O286  1  0.11409715  0.86527964  0.88382563  1
  O  O287  1  0.61471906  0.36892548  0.37328522  1
  O  O288  1  0.62140940  0.37037948  0.86216341  1
  O  O289  1  0.61690313  0.87135160  0.37646493  1
  O  O290  1  0.62298681  0.86731526  0.87630491  1
  O  O291  1  0.38539497  0.13565946  0.12275367  1
  O  O292  1  0.37308807  0.13442803  0.63208170  1
  O  O293  1  0.38179985  0.62886904  0.13739698  1
  O  O294  1  0.39215293  0.61564685  0.64014866  1
  O  O295  1  0.88617976  0.11738253  0.14118596  1
  O  O296  1  0.88680749  0.12125128  0.63178011  1
  O  O297  1  0.87169487  0.61426286  0.12198170  1
  O  O298  1  0.88686928  0.62193121  0.63386700  1
  O  O299  1  0.26345581  0.24217301  0.11481423  1
  O  O300  1  0.25313592  0.26166657  0.61804767  1
  O  O301  1  0.25553687  0.75445811  0.12054719  1
  O  O302  1  0.26620462  0.70411061  0.61153051  1
  O  O303  1  0.74629152  0.26225862  0.13067996  1
  O  O304  1  0.75485930  0.25365465  0.62176326  1
  O  O305  1  0.74848253  0.75889546  0.11145063  1
  O  O306  1  0.74284419  0.76192054  0.61798242  1
  O  O307  1  0.24244239  0.25062310  0.38152254  1
  O  O308  1  0.24181087  0.25384899  0.88571082  1
  O  O309  1  0.23527261  0.74373040  0.36752051  1
  O  O310  1  0.24077799  0.75555100  0.88502864  1
  O  O311  1  0.73941165  0.23900721  0.37558506  1
  O  O312  1  0.74724452  0.23423787  0.86478572  1
  O  O313  1  0.74266868  0.74498520  0.38365761  1
  O  O314  1  0.73887544  0.74602296  0.88225558  1
  O  O315  1  0.01732568  0.11669442  0.00181265  1
  O  O316  1  -0.00220439  0.12257359  0.51389396  1
  O  O317  1  0.01768901  0.60517563  -0.01356445  1
  O  O318  1  0.00733037  0.62069074  0.50871544  1
  O  O319  1  0.50351777  0.12261262  0.00822071  1
  O  O320  1  0.50470924  0.11717162  0.50487802  1
  O  O321  1  0.50256161  0.61294596  0.00762505  1
  O  O322  1  0.50757143  0.62411830  0.51331985  1
  O  O323  1  0.49144754  0.37804819  0.48983572  1
  O  O324  1  0.49990026  0.38563108  1.00146063  1
  O  O325  1  0.49895149  0.88016956  0.49222098  1
  O  O326  1  0.48549930  0.86916576  1.00124400  1
  O  O327  1  0.99566950  0.38064192  0.49288428  1
  O  O328  1  0.99456470  0.37143146  1.00346083  1
  O  O329  1  1.00124364  0.87896041  0.48576724  1
  O  O330  1  0.99249954  0.88215854  0.99282942  1
  O  O331  1  0.50612446  0.49342836  0.37843482  1
  O  O332  1  0.49298924  0.49911299  0.88579836  1
  O  O333  1  0.49149781  0.99289627  0.38256108  1
  O  O334  1  0.48018288  0.99867397  0.86710564  1
  O  O335  1  0.99805069  0.49188865  0.37942387  1
  O  O336  1  0.98436904  0.49234647  0.87213607  1
  O  O337  1  1.00550422  0.98845215  0.37439423  1
  O  O338  1  0.99968401  0.99187010  0.87593101  1
  O  O339  1  0.00947990  0.00501201  0.11904828  1
  O  O340  1  0.01589088  0.00799998  0.62709769  1
  O  O341  1  0.01490330  0.49873059  0.12637586  1
  O  O342  1  0.00459547  0.50982564  0.62101950  1
  O  O343  1  0.48755980  0.01253568  0.12711532  1
  O  O344  1  0.50653681  -0.00046764  0.62165646  1
  O  O345  1  0.50278268  0.50136460  0.12051139  1
  O  O346  1  0.50579976  0.51182377  0.63117859  1
  O  O347  1  0.25317546  0.38885944  0.25797690  1
  O  O348  1  0.23986275  0.38645055  0.74555721  1
  O  O349  1  0.25500187  0.88173947  0.23693890  1
  O  O350  1  0.25466066  0.88155638  0.74505180  1
  O  O351  1  0.74010548  0.38016269  0.24726473  1
  O  O352  1  0.74158952  0.38352029  0.74558953  1
  O  O353  1  0.74153710  0.88513196  0.24827356  1
  O  O354  1  0.74986465  0.88592047  0.74543206  1
  O  O355  1  0.24742687  0.11176929  0.25104883  1
  O  O356  1  0.25720291  0.12211243  0.74728815  1
  O  O357  1  0.25821329  0.61843005  0.25714382  1
  O  O358  1  0.25784092  0.61424438  0.75338197  1
  O  O359  1  0.75321536  0.12283262  0.25280574  1
  O  O360  1  0.75611203  0.11409456  0.75185110  1
  O  O361  1  0.74231350  0.61334042  0.25914895  1
  O  O362  1  0.75615230  0.61992277  0.75318536  1
  O  O363  1  0.37305244  0.11130636  0.38279477  1
  O  O364  1  0.37166397  0.11659221  0.86570417  1
  O  O365  1  0.36735417  0.63158332  0.36654958  1
  O  O366  1  0.38090473  0.61176684  0.86843767  1
  O  O367  1  0.86627557  0.12670864  0.36469975  1
  O  O368  1  0.86851249  0.11683289  0.86379272  1
  O  O369  1  0.86038582  0.61986885  0.37941870  1
  O  O370  1  0.86809181  0.61442984  0.86681169  1
  O  O371  1  0.13124977  0.38858142  0.12907231  1
  O  O372  1  0.13006696  0.38385742  0.63137287  1
  O  O373  1  0.13560625  0.88378274  0.11685711  1
  O  O374  1  0.12205051  0.88548037  0.62570267  1
  O  O375  1  0.62691242  0.37510617  0.13480658  1
  O  O376  1  0.62343670  0.37234234  0.63813209  1
  O  O377  1  0.63039928  0.87120766  0.13856722  1
  O  O378  1  0.63164367  0.88647899  0.62525295  1
  O  O379  1  0.11566045  0.25133599  0.25569673  1
  O  O380  1  0.13029240  0.25980808  0.75709509  1
  O  O381  1  0.12634769  0.74969979  0.25160386  1
  O  O382  1  0.11543810  0.74464003  0.75920605  1
  O  O383  1  0.62607344  0.26071747  0.26033785  1
  O  O384  1  0.61272940  0.25432685  0.75161345  1
  O  O385  1  0.62369920  0.76557461  0.27038339  1
  O  O386  1  0.62536990  0.75266066  0.76118779  1
  O  O387  1  0.36993109  0.24846165  0.24303903  1
  O  O388  1  0.37463356  0.24620645  0.74483087  1
  O  O389  1  0.37789201  0.74201077  0.24600117  1
  O  O390  1  0.37509490  0.73551403  0.75402866  1
  O  O391  1  0.88724705  0.24458360  0.25580330  1
  O  O392  1  0.87879348  0.23636162  0.74684322  1
  O  O393  1  0.86605488  0.74814065  0.25338007  1
  O  O394  1  0.88087763  0.73821798  0.75926412  1
  O  O395  1  0.36269450  0.49630991  0.51221650  1
  O  O396  1  0.38002996  0.49921807  0.99751236  1
  O  O397  1  0.37672822  0.98999500  0.49652922  1
  O  O398  1  0.36207345  0.98948079  0.98923502  1
  O  O399  1  0.88233867  0.49519417  0.49282905  1
  O  O400  1  0.87122681  0.49672696  0.97992812  1
  O  O401  1  0.88084570  0.99588619  0.49447192  1
  O  O402  1  0.88400235  1.00161942  0.99091221  1
  O  O403  1  0.12736706  0.00415728  0.00601124  1
  O  O404  1  0.12770841  -0.00079198  0.51513728  1
  O  O405  1  0.13357848  0.50292548  0.01350622  1
  O  O406  1  0.11742265  0.50643192  0.50361995  1
  O  O407  1  0.61783154  0.01595839  -0.00511845  1
  O  O408  1  0.61857903  0.00542285  0.50781260  1
  O  O409  1  0.61765572  0.50326485  0.00231190  1
  O  O410  1  0.63305305  0.51489482  0.49763557  1
  O  O411  1  0.37847486  0.35652264  0.12519137  1
  O  O412  1  0.36853341  0.37311657  0.62024338  1
  O  O413  1  0.36940178  0.86794202  0.12070123  1
  O  O414  1  0.37432394  0.87315056  0.60980948  1
  O  O415  1  0.85862241  0.37780729  0.12673188  1
  O  O416  1  0.87952968  0.37597300  0.61156598  1
  O  O417  1  0.86713860  0.88564955  0.11044475  1
  O  O418  1  0.86383935  0.88099658  0.62568123  1
  O  O419  1  0.12539417  0.13705580  0.37329753  1
  O  O420  1  0.12590094  0.13169903  0.88232942  1
  O  O421  1  0.12864201  0.63938384  0.37848942  1
  O  O422  1  0.12665357  0.63408843  0.88105878  1
  O  O423  1  0.62748357  0.13160336  0.38002480  1
  O  O424  1  0.62865839  0.12556019  0.88031858  1
  O  O425  1  0.63362565  0.63356910  0.38201241  1
  O  O426  1  0.63230847  0.63006364  0.88250647  1
