# generated using pymatgen
data_V85Zn86O256
_symmetry_space_group_name_H-M   'P 1'
_cell_length_a   16.93852268
_cell_length_b   16.93606135
_cell_length_c   16.94055824
_cell_angle_alpha   89.90116204
_cell_angle_beta   90.01399692
_cell_angle_gamma   89.99493230
_symmetry_Int_Tables_number   1
_chemical_formula_structural   V85Zn86O256
_chemical_formula_sum   'V85 Zn86 O256'
_cell_volume   4859.76204507
_cell_formula_units_Z   1
loop_
 _symmetry_equiv_pos_site_id
 _symmetry_equiv_pos_as_xyz
  1  'x, y, z'
loop_
 _atom_site_type_symbol
 _atom_site_label
 _atom_site_symmetry_multiplicity
 _atom_site_fract_x
 _atom_site_fract_y
 _atom_site_fract_z
 _atom_site_occupancy
  V  V0  1  0.74978476  0.87517837  0.62515117  1
  V  V1  1  0.62244020  0.87255886  0.25137146  1
  V  V2  1  0.13293510  0.12564056  0.00340323  1
  V  V3  1  0.30846530  0.31673166  0.68420367  1
  V  V4  1  0.12784086  0.49381452  0.62332616  1
  V  V5  1  0.61682990  0.62407587  -0.00163444  1
  V  V6  1  0.68122235  0.43845935  0.57836340  1
  V  V7  1  0.25308301  0.50201447  0.24851486  1
  V  V8  1  0.75220422  0.00900262  0.25013664  1
  V  V9  1  -0.00051040  0.88336762  0.87109074  1
  V  V10  1  0.49924639  0.87382028  0.37862372  1
  V  V11  1  0.12528468  0.87743217  0.25092537  1
  V  V12  1  0.74774015  0.74902597  -0.00251391  1
  V  V13  1  -0.00199695  0.12477470  0.12899188  1
  V  V14  1  0.49663781  0.49739374  0.50797990  1
  V  V15  1  0.74873132  0.87699002  0.12589614  1
  V  V16  1  -0.01769380  0.37983964  0.37479821  1
  V  V17  1  0.50070397  0.87285887  0.87426238  1
  V  V18  1  0.38309059  0.50263070  0.87900707  1
  V  V19  1  0.74697063  0.12451060  0.38694874  1
  V  V20  1  0.87361272  0.12191544  0.76465806  1
  V  V21  1  0.50346015  0.01002800  0.50025616  1
  V  V22  1  0.74724991  0.23541763  -0.00744731  1
  V  V23  1  0.62005574  0.37033449  0.24606962  1
  V  V24  1  0.74983027  0.37383027  0.12258522  1
  V  V25  1  0.12335401  0.62519038  -0.00015086  1
  V  V26  1  0.00310504  0.00051845  0.49825997  1
  V  V27  1  0.37564555  0.00828439  0.37338746  1
  V  V28  1  0.36531291  0.37125269  0.49910322  1
  V  V29  1  0.62124783  0.24355697  0.37846811  1
  V  V30  1  0.87130458  0.62496009  0.26331219  1
  V  V31  1  0.25818725  0.75305334  0.50428368  1
  V  V32  1  0.48513324  0.24594518  0.24824475  1
  V  V33  1  0.37029394  0.00332696  0.86417754  1
  V  V34  1  0.25086860  0.74979012  -0.00126450  1
  V  V35  1  0.37695244  0.50664800  0.37137010  1
  V  V36  1  -0.00273817  0.25157628  0.74966157  1
  V  V37  1  0.49325784  0.62319519  0.13392757  1
  V  V38  1  0.25071251  0.12194562  0.86351886  1
  V  V39  1  0.62206023  0.23636792  0.87236726  1
  V  V40  1  0.37589937  0.87542199  0.00025766  1
  V  V41  1  0.12528993  0.37438959  0.74758354  1
  V  V42  1  0.12542452  0.25274020  0.88293438  1
  V  V43  1  0.87753829  0.00815236  0.37131732  1
  V  V44  1  0.24626808  0.36963249  0.11855404  1
  V  V45  1  0.12613437  0.75109278  0.37580725  1
  V  V46  1  0.25389174  0.87435094  0.63855624  1
  V  V47  1  -0.00931452  0.50193814  -0.00339933  1
  V  V48  1  0.62789484  0.87362313  0.74902804  1
  V  V49  1  0.12825284  0.12654476  0.49537111  1
  V  V50  1  0.12793036  -0.00587028  0.63644298  1
  V  V51  1  0.75207115  0.74835088  0.48900247  1
  V  V52  1  0.75362379  0.50413072  0.25456322  1
  V  V53  1  0.62838182  0.01278961  0.62229928  1
  V  V54  1  0.00078461  0.62442910  0.62698629  1
  V  V55  1  -0.00128197  0.25451115  0.25087884  1
  V  V56  1  0.62431929  0.37625389  0.75203092  1
  V  V57  1  0.87189755  0.24577810  0.12843026  1
  V  V58  1  0.75568388  0.00111629  0.76454746  1
  V  V59  1  0.87527514  0.75075424  0.12661865  1
  V  V60  1  0.12446180  0.75602234  0.87220582  1
  V  V61  1  -0.01056316  0.49686804  0.49611281  1
  V  V62  1  0.12948802  0.62239818  0.49791051  1
  V  V63  1  0.75444346  0.49617630  0.76212186  1
  V  V64  1  0.87750032  0.87664916  0.49981472  1
  V  V65  1  -0.00323676  0.12551937  0.62429662  1
  V  V66  1  0.63014691  0.62622901  0.50120201  1
  V  V67  1  0.00208223  0.75446333  0.74899493  1
  V  V68  1  0.12671260  0.26237198  0.37318504  1
  V  V69  1  0.24928974  0.87645096  0.12474930  1
  V  V70  1  -0.01003760  0.37960753  0.87389221  1
  V  V71  1  0.48988579  0.12320539  0.12811165  1
  V  V72  1  0.50692687  0.37887564  0.88417318  1
  V  V73  1  0.25329519  0.50148679  0.74664249  1
  V  V74  1  0.12289611  0.49680463  0.13168429  1
  V  V75  1  0.86837095  0.25985776  0.61769608  1
  V  V76  1  0.61934103  0.49962227  0.12062729  1
  V  V77  1  0.50223351  0.00545404  -0.00271506  1
  V  V78  1  0.25325228  0.00926242  0.24935161  1
  V  V79  1  0.49938409  0.75218997  0.73860159  1
  V  V80  1  0.87582773  0.88172875  -0.00509179  1
  V  V81  1  0.37668516  0.63009706  0.74280983  1
  V  V82  1  0.62335132  0.00582845  0.12178883  1
  V  V83  1  0.48140597  0.13040666  0.63839502  1
  V  V84  1  -0.00210236  0.62506508  0.12626204  1
  Zn  Zn85  1  0.49511303  0.37219535  0.37509032  1
  Zn  Zn86  1  0.87778014  0.62021606  0.76018867  1
  Zn  Zn87  1  0.25708259  0.63251519  0.36180560  1
  Zn  Zn88  1  0.36584243  0.24552565  0.10479866  1
  Zn  Zn89  1  0.62463933  0.74573826  0.87098062  1
  Zn  Zn90  1  0.37708669  0.87442647  0.50619277  1
  Zn  Zn91  1  0.37150040  0.74415185  0.13167369  1
  Zn  Zn92  1  0.62539557  0.73851978  0.37004876  1
  Zn  Zn93  1  0.48480206  0.74545620  0.25695074  1
  Zn  Zn94  1  0.25456701  0.13374579  0.37040502  1
  Zn  Zn95  1  0.74588174  0.25737309  0.50345499  1
  Zn  Zn96  1  0.00065517  0.75034834  0.25114725  1
  Zn  Zn97  1  0.12218925  0.00037477  0.12446909  1
  Zn  Zn98  1  0.25158260  0.62436655  0.87403201  1
  Zn  Zn99  1  0.86982659  0.37737329  -0.00408909  1
  Zn  Zn100  1  -0.00289591  0.00528449  -0.00283093  1
  Zn  Zn101  1  0.38312976  0.38076645  0.00488401  1
  Zn  Zn102  1  0.50377249  0.62452637  0.62462420  1
  Zn  Zn103  1  0.75504231  0.61950926  0.87990038  1
  Zn  Zn104  1  0.25164155  0.25199157  0.50581381  1
  Zn  Zn105  1  0.00145250  0.87716268  0.37360166  1
  Zn  Zn106  1  0.87547915  0.74944488  0.62585173  1
  Zn  Zn107  1  0.18234240  0.19188959  0.19024687  1
  Zn  Zn108  1  0.17944748  0.18263537  0.69031316  1
  Zn  Zn109  1  0.18803292  0.68745952  0.18602085  1
  Zn  Zn110  1  0.18679052  0.68837060  0.68741508  1
  Zn  Zn111  1  0.68278231  0.18523510  0.18790746  1
  Zn  Zn112  1  0.69049484  0.18729140  0.69244955  1
  Zn  Zn113  1  0.68605984  0.68702799  0.18613989  1
  Zn  Zn114  1  0.68853506  0.68314726  0.68419693  1
  Zn  Zn115  1  0.30789013  0.32175233  0.30862457  1
  Zn  Zn116  1  0.33317084  0.28943238  0.86998707  1
  Zn  Zn117  1  0.31260381  0.81738823  0.31414011  1
  Zn  Zn118  1  0.31556104  0.81192239  0.81319846  1
  Zn  Zn119  1  0.80974173  0.30823000  0.30944566  1
  Zn  Zn120  1  0.80883447  0.31030692  0.80762442  1
  Zn  Zn121  1  0.81385907  0.81868193  0.31148778  1
  Zn  Zn122  1  0.81712745  0.80827751  0.81268908  1
  Zn  Zn123  1  0.18768554  0.43862431  0.43369091  1
  Zn  Zn124  1  0.18531546  0.44079817  0.93674323  1
  Zn  Zn125  1  0.19141690  0.93818787  0.43900406  1
  Zn  Zn126  1  0.18427143  0.94058052  0.93728143  1
  Zn  Zn127  1  0.68498956  0.43756081  0.41793558  1
  Zn  Zn128  1  0.68547248  0.43550107  0.94034722  1
  Zn  Zn129  1  0.68603087  0.93815406  0.43820873  1
  Zn  Zn130  1  0.68502899  0.93534453  0.93840376  1
  Zn  Zn131  1  0.31172313  0.05987294  0.05857519  1
  Zn  Zn132  1  0.31039431  0.05850497  0.56057973  1
  Zn  Zn133  1  0.31057172  0.56029661  0.06094494  1
  Zn  Zn134  1  0.31356559  0.56133013  0.56359655  1
  Zn  Zn135  1  0.81402144  0.06313940  0.06314422  1
  Zn  Zn136  1  0.81448117  0.06272809  0.56570106  1
  Zn  Zn137  1  0.80953174  0.56421861  0.06658085  1
  Zn  Zn138  1  0.81624743  0.56851147  0.56272606  1
  Zn  Zn139  1  0.43390180  0.43642275  0.18654839  1
  Zn  Zn140  1  0.44519347  0.43783981  0.69411189  1
  Zn  Zn141  1  0.43543426  0.93433517  0.18903161  1
  Zn  Zn142  1  0.43903943  0.94018882  0.68478367  1
  Zn  Zn143  1  0.93531949  0.43620877  0.18897430  1
  Zn  Zn144  1  0.93721015  0.43929425  0.68592647  1
  Zn  Zn145  1  0.93805700  0.93853456  0.18786741  1
  Zn  Zn146  1  0.93804123  0.93876310  0.68843195  1
  Zn  Zn147  1  0.06414878  0.06756773  0.31006518  1
  Zn  Zn148  1  0.06206548  0.06582504  0.81313192  1
  Zn  Zn149  1  0.06059964  0.56294237  0.31229425  1
  Zn  Zn150  1  0.06485298  0.56411803  0.81352771  1
  Zn  Zn151  1  0.56247026  0.06283807  0.30985557  1
  Zn  Zn152  1  0.56275247  0.05770682  0.80773491  1
  Zn  Zn153  1  0.56405810  0.55872021  0.31508920  1
  Zn  Zn154  1  0.56782093  0.56160265  0.80890783  1
  Zn  Zn155  1  0.43692843  0.18726025  0.44158618  1
  Zn  Zn156  1  0.44250477  0.18548834  0.93774373  1
  Zn  Zn157  1  0.44063822  0.68576149  0.43953579  1
  Zn  Zn158  1  0.43913109  0.68745511  0.93456212  1
  Zn  Zn159  1  0.93587775  0.18947920  0.43759179  1
  Zn  Zn160  1  0.93969792  0.19244002  0.94345674  1
  Zn  Zn161  1  0.94244616  0.68935505  0.43988355  1
  Zn  Zn162  1  0.93496330  0.69061736  0.93571449  1
  Zn  Zn163  1  0.06112055  0.31572552  0.06236845  1
  Zn  Zn164  1  0.06034293  0.31323746  0.55872602  1
  Zn  Zn165  1  0.06123035  0.81445490  0.06153497  1
  Zn  Zn166  1  0.06660364  0.81288789  0.56242666  1
  Zn  Zn167  1  0.56352002  0.30475693  0.05953625  1
  Zn  Zn168  1  0.54975195  0.30353222  0.55908056  1
  Zn  Zn169  1  0.56027521  0.81024634  0.06567924  1
  Zn  Zn170  1  0.56714806  0.81513078  0.55996513  1
  O  O171  1  0.11749438  0.12733407  0.11838103  1
  O  O172  1  0.11578792  0.11682319  0.61768983  1
  O  O173  1  0.11678346  0.62020141  0.11845560  1
  O  O174  1  0.11746515  0.61821954  0.61867724  1
  O  O175  1  0.61478969  0.11084816  0.12878001  1
  O  O176  1  0.62393330  0.11433750  0.63062294  1
  O  O177  1  0.61683488  0.61674937  0.12067777  1
  O  O178  1  0.62230403  0.62627568  0.60895482  1
  O  O179  1  0.37411332  0.38695317  0.38260103  1
  O  O180  1  0.39109445  0.38618745  0.87364731  1
  O  O181  1  0.38752206  0.88477392  0.37812105  1
  O  O182  1  0.37866677  0.88053430  0.88517031  1
  O  O183  1  0.88337953  0.37218021  0.37448643  1
  O  O184  1  0.88670208  0.36937834  0.87432930  1
  O  O185  1  0.87630319  0.88687731  0.38500310  1
  O  O186  1  0.88560703  0.86863860  0.88455295  1
  O  O187  1  0.25903042  0.00145750  0.36777643  1
  O  O188  1  0.25527064  0.01184814  0.88029732  1
  O  O189  1  0.25611026  0.50232160  0.36486875  1
  O  O190  1  0.25571288  0.50066806  0.86191881  1
  O  O191  1  0.75488830  0.00589242  0.36957275  1
  O  O192  1  0.74880536  -0.00666395  0.86376568  1
  O  O193  1  0.75249240  0.49792779  0.35463362  1
  O  O194  1  0.75059788  0.49695810  0.86576286  1
  O  O195  1  0.24150942  0.49542418  0.12770768  1
  O  O196  1  0.24443859  0.50451192  0.63808284  1
  O  O197  1  0.24900255  0.99366220  0.13205664  1
  O  O198  1  0.23653412  0.98878258  0.62047430  1
  O  O199  1  0.74186882  0.48998600  0.12961462  1
  O  O200  1  0.74703493  0.49790983  0.62818788  1
  O  O201  1  0.74306638  0.99796208  0.13106293  1
  O  O202  1  0.74521814  0.99048998  0.62708418  1
  O  O203  1  -0.00406954  0.37033109  0.26333058  1
  O  O204  1  0.00449913  0.37310468  0.75728870  1
  O  O205  1  0.01318785  0.87408662  0.25113295  1
  O  O206  1  -0.00316837  0.86712713  0.75715717  1
  O  O207  1  0.50625771  0.36579980  0.24746249  1
  O  O208  1  0.51708801  0.37861922  0.76118063  1
  O  O209  1  0.50781447  0.87424182  0.25797151  1
  O  O210  1  0.50557858  0.86999629  0.75291359  1
  O  O211  1  0.50163262  0.13223207  0.23946002  1
  O  O212  1  0.49619811  0.11649342  0.73747920  1
  O  O213  1  0.50719230  0.62623102  0.23778302  1
  O  O214  1  0.49684971  0.63401951  0.74733922  1
  O  O215  1  1.00244643  0.13463504  0.23681791  1
  O  O216  1  0.99592451  0.13121198  0.74188310  1
  O  O217  1  0.99149253  0.62743236  0.24286380  1
  O  O218  1  1.00120003  0.62977893  0.74194051  1
  O  O219  1  0.37395940  0.26251679  -0.01460924  1
  O  O220  1  0.37003985  0.26230015  0.49435394  1
  O  O221  1  0.36701008  0.75654462  0.00002198  1
  O  O222  1  0.36162197  0.75001768  0.49768816  1
  O  O223  1  0.86180469  0.25398857  0.00619142  1
  O  O224  1  0.87067369  0.24696691  0.51297357  1
  O  O225  1  0.86791228  0.75967529  0.00875998  1
  O  O226  1  0.87104969  0.75935969  0.50104027  1
  O  O227  1  0.12752309  0.24389182  0.49286395  1
  O  O228  1  0.11652253  0.24369363  0.98952208  1
  O  O229  1  0.13167175  0.74309128  0.49320528  1
  O  O230  1  0.13108247  0.74567094  0.99479116  1
  O  O231  1  0.62491622  0.25752678  0.48250884  1
  O  O232  1  0.63762566  0.25014770  0.98774165  1
  O  O233  1  0.63467601  0.74397209  0.49641806  1
  O  O234  1  0.63220740  0.74387562  1.00086039  1
  O  O235  1  0.49767712  0.23960096  0.12897862  1
  O  O236  1  0.49914277  0.22919163  0.62495064  1
  O  O237  1  0.49913587  0.73558337  0.12972442  1
  O  O238  1  0.50236327  0.75335289  0.63514225  1
  O  O239  1  0.99137985  0.24952886  0.13134240  1
  O  O240  1  0.99414754  0.24182551  0.62833199  1
  O  O241  1  0.99104751  0.74629534  0.12688099  1
  O  O242  1  1.00438953  0.74363654  0.63203448  1
  O  O243  1  0.00043529  0.26008916  0.36994384  1
  O  O244  1  0.00624536  0.25913253  0.87064962  1
  O  O245  1  0.01436935  0.75402342  0.37426900  1
  O  O246  1  0.00727781  0.75878513  0.86898491  1
  O  O247  1  0.50455837  0.24759313  0.36563491  1
  O  O248  1  0.51683266  0.25704387  0.87804905  1
  O  O249  1  0.50387102  0.75898033  0.37512304  1
  O  O250  1  0.50258326  0.75809779  0.86582657  1
  O  O251  1  0.23799655  0.12706868  0.49749541  1
  O  O252  1  0.23630935  0.12285987  0.99630629  1
  O  O253  1  0.23955071  0.63192650  0.50424341  1
  O  O254  1  0.24389304  0.63367994  0.99766267  1
  O  O255  1  0.75043486  0.12382124  0.48938973  1
  O  O256  1  0.75031636  0.13688547  1.00226794  1
  O  O257  1  0.74628168  0.63752556  0.50427169  1
  O  O258  1  0.73911854  0.63411133  1.00500084  1
  O  O259  1  0.24854340  0.38318958  0.01497179  1
  O  O260  1  0.26054101  0.37771547  0.50124923  1
  O  O261  1  0.25628757  0.86995194  0.00246352  1
  O  O262  1  0.25125558  0.86713117  0.50842787  1
  O  O263  1  0.74915861  0.36792292  0.01197272  1
  O  O264  1  0.73553704  0.38388684  0.51091499  1
  O  O265  1  0.75525397  0.86944615  0.00709589  1
  O  O266  1  0.75746341  0.87182031  0.50603327  1
  O  O267  1  0.12730992  0.50439461  0.23607153  1
  O  O268  1  0.13431829  0.49459634  0.74684016  1
  O  O269  1  0.13164209  0.99306108  0.24960526  1
  O  O270  1  0.12163507  1.00443702  0.73438487  1
  O  O271  1  0.62980944  0.49076295  0.24051464  1
  O  O272  1  0.63893859  0.49050119  0.74858335  1
  O  O273  1  0.63065966  0.99025122  0.24369998  1
  O  O274  1  0.63545632  0.99243279  0.74224310  1
  O  O275  1  0.36471570  -0.00648858  0.25865890  1
  O  O276  1  0.37700839  -0.00770558  0.76578169  1
  O  O277  1  0.36813692  0.49763546  0.25951132  1
  O  O278  1  0.37014772  0.50615089  0.75682800  1
  O  O279  1  0.86487767  -0.00691971  0.25982495  1
  O  O280  1  0.86749580  0.00922702  0.74506018  1
  O  O281  1  0.86580035  0.51312514  0.23812951  1
  O  O282  1  0.85860676  0.49978268  0.74269828  1
  O  O283  1  0.11537481  0.36496175  0.37904582  1
  O  O284  1  0.12005094  0.36770615  0.86975975  1
  O  O285  1  0.12585666  0.86912493  0.36860575  1
  O  O286  1  0.11734301  0.86342651  0.88126331  1
  O  O287  1  0.61908591  0.36654198  0.35895317  1
  O  O288  1  0.62276469  0.36949764  0.86966434  1
  O  O289  1  0.61393701  0.87785029  0.36779766  1
  O  O290  1  0.61762160  0.87328100  0.86639206  1
  O  O291  1  0.38474224  0.12723620  0.11763966  1
  O  O292  1  0.38191961  0.11786774  0.62554366  1
  O  O293  1  0.39097036  0.62188659  0.11723173  1
  O  O294  1  0.37934575  0.62104970  0.63872110  1
  O  O295  1  0.88145915  0.13778092  0.12061923  1
  O  O296  1  0.88785991  0.12869016  0.62817224  1
  O  O297  1  0.87835092  0.63853591  0.12775074  1
  O  O298  1  0.89137131  0.62880752  0.62641712  1
  O  O299  1  0.24892640  0.26537733  0.13110588  1
  O  O300  1  0.24830039  0.25281750  0.62889370  1
  O  O301  1  0.24885000  0.75579986  0.11195109  1
  O  O302  1  0.23890957  0.76559256  0.61809656  1
  O  O303  1  0.75236177  0.25260870  0.11889539  1
  O  O304  1  0.76356398  0.24521474  0.62227636  1
  O  O305  1  0.75482547  0.75646945  0.11652831  1
  O  O306  1  0.75261608  0.76291559  0.61848910  1
  O  O307  1  0.23995608  0.25188551  0.37195139  1
  O  O308  1  0.23637664  0.23410348  0.87637810  1
  O  O309  1  0.24116434  0.75055305  0.38410449  1
  O  O310  1  0.24323102  0.75118495  0.88416187  1
  O  O311  1  0.74305395  0.24164215  0.37731931  1
  O  O312  1  0.74360207  0.25246933  0.88720065  1
  O  O313  1  0.74755080  0.76008307  0.38623141  1
  O  O314  1  0.74722100  0.75352712  0.88919372  1
  O  O315  1  0.00693078  0.12665394  0.01158197  1
  O  O316  1  0.00858961  0.12254310  0.50598083  1
  O  O317  1  0.00343082  0.62027823  0.00557178  1
  O  O318  1  0.01204147  0.62073198  0.50520275  1
  O  O319  1  0.49929906  0.11102417  0.00588535  1
  O  O320  1  0.49822577  0.11355985  0.50852501  1
  O  O321  1  0.51240094  0.63109360  0.00912895  1
  O  O322  1  0.50753964  0.61541999  0.50352451  1
  O  O323  1  0.48761957  0.38030072  0.49838719  1
  O  O324  1  0.50664849  0.37709224  0.98925562  1
  O  O325  1  0.49907541  0.88363416  0.49412590  1
  O  O326  1  0.49278056  0.88058236  0.99679615  1
  O  O327  1  1.00059643  0.38307140  0.48601173  1
  O  O328  1  0.99709075  0.38390196  0.99167145  1
  O  O329  1  0.99334750  0.88040245  0.49823537  1
  O  O330  1  0.99164895  0.87642367  0.99200386  1
  O  O331  1  0.49365876  0.49594659  0.38522217  1
  O  O332  1  0.49460445  0.49385566  0.87004806  1
  O  O333  1  0.49627236  0.99675129  0.38114119  1
  O  O334  1  0.49480069  0.99434000  0.88176299  1
  O  O335  1  1.00348059  0.48723963  0.37972973  1
  O  O336  1  1.00744257  0.49164469  0.88448568  1
  O  O337  1  0.99294840  1.00168739  0.37808988  1
  O  O338  1  1.00558309  0.98725781  0.87480170  1
  O  O339  1  -0.00021477  0.01145517  0.12436659  1
  O  O340  1  0.00952334  0.00508165  0.61914404  1
  O  O341  1  0.00608723  0.50230018  0.11895483  1
  O  O342  1  0.00649994  0.50642837  0.61782127  1
  O  O343  1  0.50389098  0.00363734  0.11973964  1
  O  O344  1  0.50870399  0.00556872  0.61809067  1
  O  O345  1  0.50743768  0.50963249  0.12930177  1
  O  O346  1  0.49801033  0.49910617  0.61222483  1
  O  O347  1  0.24887421  0.39062472  0.23458572  1
  O  O348  1  0.24684213  0.38142292  0.74308943  1
  O  O349  1  0.23951315  0.88444239  0.24662848  1
  O  O350  1  0.24877799  0.86890034  0.73764662  1
  O  O351  1  0.74197183  0.37676563  0.23875188  1
  O  O352  1  0.74268744  0.38621094  0.75029663  1
  O  O353  1  0.74298424  0.88539296  0.24475084  1
  O  O354  1  0.75065902  0.87877831  0.74208413  1
  O  O355  1  0.24309145  0.11311174  0.25040089  1
  O  O356  1  0.24273163  0.12225270  0.76499164  1
  O  O357  1  0.24572178  0.61006374  0.24610475  1
  O  O358  1  0.25769332  0.62019874  0.75187088  1
  O  O359  1  0.74549676  0.11274981  0.25635010  1
  O  O360  1  0.76169390  0.11322252  0.74698002  1
  O  O361  1  0.75809006  0.61700310  0.24171677  1
  O  O362  1  0.74909179  0.60925513  0.75034602  1
  O  O363  1  0.37395831  0.11288377  0.37754924  1
  O  O364  1  0.35958076  0.11926135  0.87971571  1
  O  O365  1  0.37243472  0.61158937  0.38276298  1
  O  O366  1  0.37563926  0.61891967  0.86445109  1
  O  O367  1  0.86746374  0.11453274  0.37771388  1
  O  O368  1  0.88554597  0.12980380  0.86354346  1
  O  O369  1  0.87995830  0.63266415  0.36229826  1
  O  O370  1  0.86855737  0.62874062  0.87395049  1
  O  O371  1  0.13358236  0.38395493  0.12109562  1
  O  O372  1  0.11648274  0.38206164  0.63341041  1
  O  O373  1  0.13088587  0.87616244  0.13259300  1
  O  O374  1  0.13070212  0.88858290  0.62209479  1
  O  O375  1  0.62787426  0.37834167  0.12976396  1
  O  O376  1  0.62151535  0.37097077  0.63047061  1
  O  O377  1  0.62754666  0.88348211  0.13235349  1
  O  O378  1  0.63425890  0.88301121  0.62985791  1
  O  O379  1  0.10877122  0.24927166  0.25881897  1
  O  O380  1  0.11567103  0.25419546  0.75932614  1
  O  O381  1  0.12754687  0.75792996  0.25812171  1
  O  O382  1  0.11391924  0.74475996  0.75963898  1
  O  O383  1  0.61721433  0.25553933  0.25481565  1
  O  O384  1  0.63870950  0.25917776  0.76600767  1
  O  O385  1  0.62778716  0.76329965  0.25158561  1
  O  O386  1  0.62013603  0.75561565  0.74925996  1
  O  O387  1  0.38419830  0.25604532  0.24695560  1
  O  O388  1  0.35908383  0.26598917  0.75190474  1
  O  O389  1  0.37130497  0.75402550  0.24504097  1
  O  O390  1  0.38537732  0.74195041  0.75473789  1
  O  O391  1  0.88473495  0.25149744  0.24165715  1
  O  O392  1  0.87840704  0.24175570  0.74015374  1
  O  O393  1  0.87443733  0.74713302  0.24262045  1
  O  O394  1  0.88897797  0.74664363  0.74578345  1
  O  O395  1  0.38084153  0.49419953  0.49596856  1
  O  O396  1  0.37029953  0.50083034  0.98264974  1
  O  O397  1  0.38333850  0.99637218  0.49152057  1
  O  O398  1  0.38236500  0.99194860  0.99265808  1
  O  O399  1  0.89044227  0.50696992  0.50158730  1
  O  O400  1  0.88684657  0.49858454  1.00901862  1
  O  O401  1  0.88205448  0.99540409  0.49410775  1
  O  O402  1  0.87528630  0.98594262  1.00514642  1
  O  O403  1  0.11921073  0.01039487  0.00381754  1
  O  O404  1  0.11986645  0.00836082  0.50279994  1
  O  O405  1  0.11546646  0.50759677  0.00750778  1
  O  O406  1  0.12093032  0.50726859  0.50297929  1
  O  O407  1  0.61483675  -0.00842297  0.00993728  1
  O  O408  1  0.61706267  -0.00426455  0.51033053  1
  O  O409  1  0.63045835  0.50805402  0.01295716  1
  O  O410  1  0.62415939  0.49682627  0.50621232  1
  O  O411  1  0.36153720  0.37463997  0.12049621  1
  O  O412  1  0.37334414  0.37295137  0.62440113  1
  O  O413  1  0.36960258  0.87489234  0.11207517  1
  O  O414  1  0.35818581  0.88224928  0.62456940  1
  O  O415  1  0.86559224  0.36399623  0.12396959  1
  O  O416  1  0.88145671  0.35767502  0.62686475  1
  O  O417  1  0.87038353  0.86641766  0.12138070  1
  O  O418  1  0.86968703  0.87699106  0.61323852  1
  O  O419  1  0.12341466  0.13746025  0.38237988  1
  O  O420  1  0.12992722  0.13021531  0.88230425  1
  O  O421  1  0.12857804  0.63229941  0.38179079  1
  O  O422  1  0.12598693  0.63727246  0.88281537  1
  O  O423  1  0.63377145  0.13199447  0.36918493  1
  O  O424  1  0.62099039  0.13741876  0.86889986  1
  O  O425  1  0.62211695  0.62147910  0.39176669  1
  O  O426  1  0.63081947  0.62549685  0.88513679  1
