# generated using pymatgen
data_V85Zn86O256
_symmetry_space_group_name_H-M   'P 1'
_cell_length_a   16.94120602
_cell_length_b   16.93067733
_cell_length_c   16.93482302
_cell_angle_alpha   89.97500592
_cell_angle_beta   90.06259858
_cell_angle_gamma   90.03092604
_symmetry_Int_Tables_number   1
_chemical_formula_structural   V85Zn86O256
_chemical_formula_sum   'V85 Zn86 O256'
_cell_volume   4857.34505045
_cell_formula_units_Z   1
loop_
 _symmetry_equiv_pos_site_id
 _symmetry_equiv_pos_as_xyz
  1  'x, y, z'
loop_
 _atom_site_type_symbol
 _atom_site_label
 _atom_site_symmetry_multiplicity
 _atom_site_fract_x
 _atom_site_fract_y
 _atom_site_fract_z
 _atom_site_occupancy
  V  V0  1  0.75050133  0.49904550  0.25099453  1
  V  V1  1  0.86971704  0.49734189  0.87199532  1
  V  V2  1  0.12497896  0.25038783  0.36535771  1
  V  V3  1  0.50452535  0.01544584  0.50213695  1
  V  V4  1  0.37848965  0.62455109  0.75251892  1
  V  V5  1  0.24990150  0.49614562  0.75107658  1
  V  V6  1  0.00750545  0.62804389  0.12936842  1
  V  V7  1  0.50057812  0.25102017  0.24336645  1
  V  V8  1  0.61921332  0.01864335  0.63172945  1
  V  V9  1  0.75971466  -0.00037407  0.75181273  1
  V  V10  1  0.49669016  0.12905335  0.12068835  1
  V  V11  1  0.26440550  0.37910468  0.12285660  1
  V  V12  1  0.87121038  0.75011566  0.62429213  1
  V  V13  1  0.00557760  0.00109177  0.00696537  1
  V  V14  1  0.73204161  0.25583621  0.49558069  1
  V  V15  1  0.86968912  0.13418229  0.23897605  1
  V  V16  1  0.76519461  0.12030162  0.87150870  1
  V  V17  1  0.12423049  0.24635649  0.88308077  1
  V  V18  1  0.13584594  0.62900780  0.50277175  1
  V  V19  1  0.00114880  0.50049554  0.00354981  1
  V  V20  1  0.37099883  0.87590682  0.50099738  1
  V  V21  1  0.50545482  -0.00150781  0.00482115  1
  V  V22  1  -0.00127153  0.62257650  0.62396911  1
  V  V23  1  0.63061951  0.12006336  0.00300645  1
  V  V24  1  0.62276349  0.62455213  0.49937607  1
  V  V25  1  -0.00244307  0.37266031  0.37700801  1
  V  V26  1  0.63028465  0.24793080  0.87376447  1
  V  V27  1  -0.00978072  0.88152847  0.87569469  1
  V  V28  1  0.26570576  0.25520883  0.00533702  1
  V  V29  1  0.74820630  0.00234139  0.24349671  1
  V  V30  1  0.87585066  0.62672419  0.25032412  1
  V  V31  1  0.62820574  0.49981114  0.12385647  1
  V  V32  1  0.49920574  0.62321461  0.62544773  1
  V  V33  1  0.12404284  0.75086156  0.87540988  1
  V  V34  1  0.37936839  0.24606098  0.62344335  1
  V  V35  1  0.37204003  0.37617472  0.49867377  1
  V  V36  1  0.37945191  0.12546492  0.74625894  1
  V  V37  1  0.62238464  0.88225412  0.24524457  1
  V  V38  1  0.12549766  0.87536172  0.74750073  1
  V  V39  1  0.75311168  0.63059664  0.88171630  1
  V  V40  1  0.63320638  0.49931107  0.62722513  1
  V  V41  1  0.75728825  0.24531921  0.00505645  1
  V  V42  1  0.50751258  0.87214874  0.86939489  1
  V  V43  1  0.24652791  0.12590089  0.87724264  1
  V  V44  1  0.74819554  0.75199313  0.50016314  1
  V  V45  1  -0.00219113  0.49663770  0.50074342  1
  V  V46  1  -0.00139822  0.74817726  0.75096032  1
  V  V47  1  0.24734487  0.24907110  0.50035734  1
  V  V48  1  0.49591073  0.49976002  0.49956289  1
  V  V49  1  0.12979557  0.38253253  0.24552836  1
  V  V50  1  0.49861509  0.37575753  0.88075425  1
  V  V51  1  0.63445505  0.37794705  0.74956630  1
  V  V52  1  0.74897884  0.62484102  0.37470879  1
  V  V53  1  0.12236446  0.37099213  0.74884851  1
  V  V54  1  0.87640393  0.49719668  0.37794474  1
  V  V55  1  -0.00802766  0.23365606  0.74633442  1
  V  V56  1  0.36771954  0.50193691  0.35985985  1
  V  V57  1  0.37450299  0.87327965  0.00251976  1
  V  V58  1  0.49247585  0.62387429  0.12663027  1
  V  V59  1  0.25186674  0.11997193  0.36877017  1
  V  V60  1  0.11206498  0.12444375  0.50311871  1
  V  V61  1  -0.00115604  0.76232617  0.25888159  1
  V  V62  1  0.50362196  0.37101124  0.37344096  1
  V  V63  1  0.37636150  -0.00078380  0.87232515  1
  V  V64  1  0.87644600  0.37124358  0.00381557  1
  V  V65  1  -0.00105221  0.37266948  0.87499892  1
  V  V66  1  0.73783951  0.12604348  0.38066068  1
  V  V67  1  0.24976672  0.74949476  0.00338159  1
  V  V68  1  0.25145099  0.63040192  0.35601066  1
  V  V69  1  0.87615353  0.88697277  0.50136149  1
  V  V70  1  0.24970968  0.00056073  0.74351753  1
  V  V71  1  0.50116248  0.87778070  0.37847402  1
  V  V72  1  0.10854726  0.00477540  0.62293115  1
  V  V73  1  0.24980487  0.62509892  0.87403424  1
  V  V74  1  0.62311811  0.75017345  0.37529200  1
  V  V75  1  0.75618030  0.36913708  0.12830202  1
  V  V76  1  0.62989040  0.63501925  0.00302762  1
  V  V77  1  0.50619796  0.24516835  0.74537331  1
  V  V78  1  0.01596657  0.12995355  0.12248348  1
  V  V79  1  0.49494990  0.74701553  0.24996931  1
  V  V80  1  0.86765035  0.61806196  0.74830986  1
  V  V81  1  0.87962873  0.24442724  0.60808592  1
  V  V82  1  0.74959356  0.87014290  0.11910862  1
  V  V83  1  0.36786747  0.74957882  0.62148455  1
  V  V84  1  0.73262142  0.87411021  0.62850538  1
  Zn  Zn85  1  0.12402114  0.49690646  0.62508685  1
  Zn  Zn86  1  0.00662642  0.88887922  0.38527458  1
  Zn  Zn87  1  0.87230355  0.74986941  0.11907626  1
  Zn  Zn88  1  0.50563876  0.75524001  0.74632285  1
  Zn  Zn89  1  0.13409403  0.75893816  0.38277999  1
  Zn  Zn90  1  -0.00774665  0.25629745  0.23921365  1
  Zn  Zn91  1  0.12422568  0.62462366  0.00081281  1
  Zn  Zn92  1  0.13970612  0.90035523  0.25643832  1
  Zn  Zn93  1  0.63231900  0.75363251  0.87158641  1
  Zn  Zn94  1  0.49726776  0.49697484  0.00280800  1
  Zn  Zn95  1  0.24612787  0.87324906  0.61877033  1
  Zn  Zn96  1  0.24276567  0.90027531  0.12785417  1
  Zn  Zn97  1  0.75941685  0.37715618  0.62209763  1
  Zn  Zn98  1  0.87484536  0.00684320  0.37702233  1
  Zn  Zn99  1  0.37256486  0.49316395  0.88004183  1
  Zn  Zn100  1  0.62946163  0.36953738  0.25490316  1
  Zn  Zn101  1  0.37420908  0.00179639  0.36873365  1
  Zn  Zn102  1  0.37257499  0.74938906  0.13097479  1
  Zn  Zn103  1  0.87209676  0.87342730  -0.00424522  1
  Zn  Zn104  1  0.24998127  0.37276286  0.62645325  1
  Zn  Zn105  1  0.13134830  0.50134755  0.12835133  1
  Zn  Zn106  1  0.36679454  0.12528590  0.23442312  1
  Zn  Zn107  1  0.18917307  0.07049313  0.18800553  1
  Zn  Zn108  1  0.18602952  0.18704103  0.68753422  1
  Zn  Zn109  1  0.18623865  0.75370793  0.19236424  1
  Zn  Zn110  1  0.18833485  0.68577861  0.68654456  1
  Zn  Zn111  1  0.68071224  0.18821626  0.18861882  1
  Zn  Zn112  1  0.69771656  0.18861158  0.68619712  1
  Zn  Zn113  1  0.68327034  0.69052616  0.18979960  1
  Zn  Zn114  1  0.68578078  0.68633929  0.69231488  1
  Zn  Zn115  1  0.31464985  0.30837137  0.30529159  1
  Zn  Zn116  1  0.31464409  0.30979015  0.81254107  1
  Zn  Zn117  1  0.31535233  0.81145996  0.31827126  1
  Zn  Zn118  1  0.31537921  0.81258201  0.81191944  1
  Zn  Zn119  1  0.81228479  0.30977847  0.31805159  1
  Zn  Zn120  1  0.81430009  0.30911184  0.81246928  1
  Zn  Zn121  1  0.81227780  0.81503515  0.31293006  1
  Zn  Zn122  1  0.80946287  0.81208310  0.80735274  1
  Zn  Zn123  1  0.18595890  0.44045856  0.43571588  1
  Zn  Zn124  1  0.18713961  0.43507948  0.93891443  1
  Zn  Zn125  1  0.18448136  0.94236776  0.43836185  1
  Zn  Zn126  1  0.18511324  0.93779395  0.93878871  1
  Zn  Zn127  1  0.68624940  0.43765666  0.43998252  1
  Zn  Zn128  1  0.68779119  0.43815027  0.93986831  1
  Zn  Zn129  1  0.68589657  0.94372624  0.43953033  1
  Zn  Zn130  1  0.68820789  0.93979024  0.93549589  1
  Zn  Zn131  1  0.31749535  0.06817656  0.05234766  1
  Zn  Zn132  1  0.31245546  0.06436478  0.55884390  1
  Zn  Zn133  1  0.31491146  0.55860528  0.05736956  1
  Zn  Zn134  1  0.31278048  0.55779660  0.56634181  1
  Zn  Zn135  1  0.81831859  0.05164634  0.06026391  1
  Zn  Zn136  1  0.80725492  0.06924032  0.56841833  1
  Zn  Zn137  1  0.81579209  0.56219643  0.06337450  1
  Zn  Zn138  1  0.81285021  0.56166239  0.55958018  1
  Zn  Zn139  1  0.43957416  0.43759610  0.18596711  1
  Zn  Zn140  1  0.44063895  0.43342703  0.69053138  1
  Zn  Zn141  1  0.43137114  0.94252626  0.18646483  1
  Zn  Zn142  1  0.43939213  0.93887933  0.68408227  1
  Zn  Zn143  1  0.93906460  0.43830523  0.18987768  1
  Zn  Zn144  1  0.93615675  0.43058019  0.68598943  1
  Zn  Zn145  1  0.93480233  0.94566468  0.18679013  1
  Zn  Zn146  1  0.93383964  0.93312671  0.68586143  1
  Zn  Zn147  1  0.05038572  0.06300475  0.31728609  1
  Zn  Zn148  1  0.06321618  0.05926368  0.81654799  1
  Zn  Zn149  1  0.06637361  0.56507352  0.31460652  1
  Zn  Zn150  1  0.05953609  0.56065671  0.81265845  1
  Zn  Zn151  1  0.55630963  0.06268065  0.30880146  1
  Zn  Zn152  1  0.56805304  0.06153310  0.81504439  1
  Zn  Zn153  1  0.55994929  0.55869614  0.31086909  1
  Zn  Zn154  1  0.56817690  0.56301057  0.81232628  1
  Zn  Zn155  1  0.43766500  0.19231649  0.43294476  1
  Zn  Zn156  1  0.44006830  0.18741217  0.93304608  1
  Zn  Zn157  1  0.43088133  0.68735324  0.43646588  1
  Zn  Zn158  1  0.43910862  0.68438614  0.94071167  1
  Zn  Zn159  1  0.93303639  0.18418511  0.42840902  1
  Zn  Zn160  1  0.94050989  0.18424087  0.94137408  1
  Zn  Zn161  1  0.93765993  0.68862019  0.43961802  1
  Zn  Zn162  1  0.93481361  0.69132229  0.94157081  1
  Zn  Zn163  1  0.06736486  0.30827547  0.06528853  1
  Zn  Zn164  1  0.05984791  0.30988440  0.56314425  1
  Zn  Zn165  1  0.06024402  0.81538494  0.06537252  1
  Zn  Zn166  1  0.06058728  0.81156550  0.56396722  1
  Zn  Zn167  1  0.57079403  0.31004365  0.06353982  1
  Zn  Zn168  1  0.56039346  0.31498792  0.56412425  1
  Zn  Zn169  1  0.56388594  0.81277588  0.06342578  1
  Zn  Zn170  1  0.55552078  0.81111008  0.56219142  1
  O  O171  1  0.11352746  0.13565923  0.12590082  1
  O  O172  1  0.12702208  0.12105461  0.61218543  1
  O  O173  1  0.11110248  0.62227489  0.12530021  1
  O  O174  1  0.11924338  0.62207671  0.61735031  1
  O  O175  1  0.61708356  0.13017054  0.10896315  1
  O  O176  1  0.62655317  0.11667398  0.62620904  1
  O  O177  1  0.62358618  0.61901309  0.11920236  1
  O  O178  1  0.62038367  0.61680218  0.61971712  1
  O  O179  1  0.37827525  0.38585797  0.37713432  1
  O  O180  1  0.39554443  0.37307698  0.86535786  1
  O  O181  1  0.38668180  0.87818977  0.38199077  1
  O  O182  1  0.38188709  0.88022535  0.88437443  1
  O  O183  1  0.88954204  0.38063653  0.36951082  1
  O  O184  1  0.87915737  0.38038479  0.88078883  1
  O  O185  1  0.86618579  0.87810629  0.39430616  1
  O  O186  1  0.88799607  0.86969407  0.86973712  1
  O  O187  1  0.25183403  0.01707341  0.37996081  1
  O  O188  1  0.25233539  0.00705900  0.86599163  1
  O  O189  1  0.26098987  0.50883703  0.37678777  1
  O  O190  1  0.24827099  0.50441781  0.86521224  1
  O  O191  1  0.75039983  0.01169776  0.36811261  1
  O  O192  1  0.74661226  0.00340524  0.85983911  1
  O  O193  1  0.75532709  0.50480971  0.37187624  1
  O  O194  1  0.76459007  0.50605421  0.88119410  1
  O  O195  1  0.24729575  0.48444338  0.11590371  1
  O  O196  1  0.24715458  0.49488794  0.63918645  1
  O  O197  1  0.25872412  1.01059323  0.12488054  1
  O  O198  1  0.24627853  1.00190830  0.63551868  1
  O  O199  1  0.74644945  0.49377478  0.13093598  1
  O  O200  1  0.73819062  0.49607158  0.61644587  1
  O  O201  1  0.74811672  0.99159894  0.13737208  1
  O  O202  1  0.73593899  0.99617302  0.63162974  1
  O  O203  1  0.00803174  0.37323631  0.25612401  1
  O  O204  1  0.00725497  0.36717277  0.75771834  1
  O  O205  1  -0.00634993  0.86558992  0.25082410  1
  O  O206  1  0.00545077  0.86981705  0.75604674  1
  O  O207  1  0.50050686  0.36655340  0.25421884  1
  O  O208  1  0.51297958  0.36416309  0.75644320  1
  O  O209  1  0.50622170  0.87145019  0.25697570  1
  O  O210  1  0.49262765  0.87665403  0.76659673  1
  O  O211  1  0.50639676  0.13573696  0.23652642  1
  O  O212  1  0.49723577  0.13774481  0.75836599  1
  O  O213  1  0.51144050  0.63524240  0.23959042  1
  O  O214  1  0.48827749  0.61852080  0.74591384  1
  O  O215  1  0.98591196  0.12979528  0.23647026  1
  O  O216  1  1.00488629  0.13592240  0.75198941  1
  O  O217  1  0.99106693  0.62747697  0.24777836  1
  O  O218  1  0.99072790  0.62791091  0.74398796  1
  O  O219  1  0.36405311  0.25384803  -0.01173949  1
  O  O220  1  0.36849210  0.25539884  0.50563402  1
  O  O221  1  0.36763867  0.75806826  -0.00241801  1
  O  O222  1  0.38106000  0.76093342  0.50963727  1
  O  O223  1  0.86418407  0.25457581  -0.00418622  1
  O  O224  1  0.87386792  0.24876520  0.50586334  1
  O  O225  1  0.87724953  0.75951893  0.00581321  1
  O  O226  1  0.86487742  0.75368600  0.50696265  1
  O  O227  1  0.13091228  0.24392649  0.49528863  1
  O  O228  1  0.13393713  0.25469702  0.98528401  1
  O  O229  1  0.11691808  0.73369960  0.49850503  1
  O  O230  1  0.13089660  0.74807227  0.99019360  1
  O  O231  1  0.63360084  0.25076583  0.50220153  1
  O  O232  1  0.63981610  0.24357829  0.99359437  1
  O  O233  1  0.62784584  0.74424011  0.49521370  1
  O  O234  1  0.62488925  0.73817344  0.99592577  1
  O  O235  1  0.50419295  0.24697338  0.13283653  1
  O  O236  1  0.49271861  0.25304206  0.63351173  1
  O  O237  1  0.50085839  0.74261744  0.13272053  1
  O  O238  1  0.48989197  0.74046798  0.62705847  1
  O  O239  1  0.99663756  0.23522096  0.12000801  1
  O  O240  1  0.99025890  0.25046789  0.63501275  1
  O  O241  1  0.99500708  0.74239705  0.13973435  1
  O  O242  1  0.99221111  0.74287465  0.63193063  1
  O  O243  1  0.00657778  0.25842574  0.37390953  1
  O  O244  1  0.00675556  0.25125629  0.86851760  1
  O  O245  1  -0.00824012  0.75848297  0.36667702  1
  O  O246  1  0.00788573  0.75403511  0.86896654  1
  O  O247  1  0.49820982  0.26179978  0.36610078  1
  O  O248  1  0.51006176  0.25809035  0.86789584  1
  O  O249  1  0.50419665  0.75640751  0.37100766  1
  O  O250  1  0.49759618  0.76582418  0.87766062  1
  O  O251  1  0.24320482  0.13664776  0.49372849  1
  O  O252  1  0.25545770  0.13901328  0.98439009  1
  O  O253  1  0.23649284  0.61956873  0.50564550  1
  O  O254  1  0.24642670  0.62925181  0.98822139  1
  O  O255  1  0.75040306  0.13339682  0.48696559  1
  O  O256  1  0.74805806  0.12640324  0.99671126  1
  O  O257  1  0.74383068  0.63128327  0.49367834  1
  O  O258  1  0.74453920  0.62005775  0.99362783  1
  O  O259  1  0.24782230  0.36561567  0.00732969  1
  O  O260  1  0.25190506  0.36505346  0.50027000  1
  O  O261  1  0.25744048  0.86728713  0.00003459  1
  O  O262  1  0.26638659  0.88552834  0.50044287  1
  O  O263  1  0.75538431  0.36599520  0.00721391  1
  O  O264  1  0.74746203  0.36033458  0.49809055  1
  O  O265  1  0.74714529  0.88245760  0.01608136  1
  O  O266  1  0.75219976  0.87045853  0.50874011  1
  O  O267  1  0.12346447  0.48665511  0.25123236  1
  O  O268  1  0.13036117  0.49034226  0.75044140  1
  O  O269  1  0.12030597  1.00958567  0.25067801  1
  O  O270  1  0.13218100  0.99684181  0.74267162  1
  O  O271  1  0.63302814  0.49894500  0.23959250  1
  O  O272  1  0.62259159  0.49146289  0.73855168  1
  O  O273  1  0.62928355  0.98890552  0.25455680  1
  O  O274  1  0.62742355  1.00150110  0.73577873  1
  O  O275  1  0.39079264  0.01594485  0.25753827  1
  O  O276  1  0.36891203  0.00457911  0.75164477  1
  O  O277  1  0.37652325  0.50024396  0.26170973  1
  O  O278  1  0.36721533  0.50440185  0.75380833  1
  O  O279  1  0.86352896  0.01206675  0.25222520  1
  O  O280  1  0.85812013  0.00047160  0.74001630  1
  O  O281  1  0.86979207  0.50762380  0.25726944  1
  O  O282  1  0.88246938  0.50557663  0.75961474  1
  O  O283  1  0.11836177  0.37045889  0.37022084  1
  O  O284  1  0.11964836  0.36723216  0.86602066  1
  O  O285  1  0.12285502  0.87368579  0.37428016  1
  O  O286  1  0.11996051  0.86435223  0.86788769  1
  O  O287  1  0.60715419  0.38953916  0.37193447  1
  O  O288  1  0.62329171  0.36919128  0.86769116  1
  O  O289  1  0.61526171  0.87238268  0.37212498  1
  O  O290  1  0.61106589  0.87318501  0.88078128  1
  O  O291  1  0.39313163  0.13081786  0.11526048  1
  O  O292  1  0.37102645  0.13786985  0.62955948  1
  O  O293  1  0.39008343  0.62475647  0.12158435  1
  O  O294  1  0.37819455  0.62965705  0.63201239  1
  O  O295  1  0.86921976  0.12301585  0.13738441  1
  O  O296  1  0.86837114  0.14518160  0.62820105  1
  O  O297  1  0.88177856  0.62372901  0.13835074  1
  O  O298  1  0.87704799  0.62761357  0.63172826  1
  O  O299  1  0.25392097  0.25861729  0.10566239  1
  O  O300  1  0.25651823  0.25140717  0.61736226  1
  O  O301  1  0.25709816  0.73141524  0.10595666  1
  O  O302  1  0.26312455  0.75254130  0.62965393  1
  O  O303  1  0.74509483  0.25763885  0.11748305  1
  O  O304  1  0.75699324  0.25064668  0.60822680  1
  O  O305  1  0.75058853  0.76615683  0.13438893  1
  O  O306  1  0.75098937  0.75651068  0.62201747  1
  O  O307  1  0.24273931  0.24684847  0.38209073  1
  O  O308  1  0.24323332  0.24457874  0.87599217  1
  O  O309  1  0.25378155  0.73279224  0.38125832  1
  O  O310  1  0.24363165  0.74644821  0.88081373  1
  O  O311  1  0.74913745  0.24217036  0.38720122  1
  O  O312  1  0.74758313  0.24038376  0.88097429  1
  O  O313  1  0.74237275  0.74459365  0.37864527  1
  O  O314  1  0.75271601  0.73492173  0.87162625  1
  O  O315  1  -0.00254630  0.11509675  0.01237927  1
  O  O316  1  0.01400417  0.13397653  0.49648121  1
  O  O317  1  -0.00164536  0.61711007  0.01004402  1
  O  O318  1  0.00643959  0.61771889  0.50517339  1
  O  O319  1  0.50948508  0.11969987  -0.00069472  1
  O  O320  1  0.49744234  0.11391298  0.49486278  1
  O  O321  1  0.51222939  0.62363374  0.00897836  1
  O  O322  1  0.50263453  0.61986914  0.50481922  1
  O  O323  1  0.49235998  0.37879865  0.49141199  1
  O  O324  1  0.51230083  0.37213971  0.98352503  1
  O  O325  1  0.49342827  0.88212083  0.49320135  1
  O  O326  1  0.49517699  0.88102071  0.99452953  1
  O  O327  1  1.00825173  0.38511302  0.49097630  1
  O  O328  1  0.99606616  0.37919254  0.99585355  1
  O  O329  1  0.97921001  0.86975823  0.50509561  1
  O  O330  1  1.00123919  0.88167496  0.99194585  1
  O  O331  1  0.48555440  0.49777619  0.37951952  1
  O  O332  1  0.50668726  0.48256727  0.87225049  1
  O  O333  1  0.50363763  0.99439917  0.38844563  1
  O  O334  1  0.49806877  0.99008014  0.88193384  1
  O  O335  1  0.99741156  0.49456180  0.38200066  1
  O  O336  1  0.99059425  0.49485794  0.88256997  1
  O  O337  1  0.98733607  1.00103439  0.38364497  1
  O  O338  1  1.00307306  0.99077692  0.88377908  1
  O  O339  1  -0.00159608  0.01307497  0.11733559  1
  O  O340  1  0.00962546  -0.00142983  0.63095229  1
  O  O341  1  0.00096593  0.50640425  0.11814358  1
  O  O342  1  -0.00025833  0.50324740  0.61773178  1
  O  O343  1  0.49939958  0.00757622  0.10985975  1
  O  O344  1  0.51048849  0.00052173  0.61709989  1
  O  O345  1  0.51124295  0.50613012  0.12694294  1
  O  O346  1  0.50611280  0.50370999  0.61926518  1
  O  O347  1  0.24450361  0.36561416  0.23225201  1
  O  O348  1  0.24227722  0.37985363  0.75217608  1
  O  O349  1  0.24578260  0.84892776  0.23977384  1
  O  O350  1  0.24480178  0.88469736  0.74909629  1
  O  O351  1  0.75061765  0.37877958  0.24539950  1
  O  O352  1  0.73800586  0.36750138  0.74810612  1
  O  O353  1  0.74155469  0.88369159  0.24757852  1
  O  O354  1  0.74970189  0.88670847  0.74187934  1
  O  O355  1  0.25039934  0.13671515  0.26624223  1
  O  O356  1  0.25635099  0.11996178  0.75729219  1
  O  O357  1  0.24316462  0.63562021  0.25994592  1
  O  O358  1  0.25843163  0.61712352  0.75348244  1
  O  O359  1  0.75284593  0.12175400  0.25314293  1
  O  O360  1  0.74525775  0.11200963  0.75843122  1
  O  O361  1  0.75594129  0.62145679  0.25506920  1
  O  O362  1  0.76320423  0.62170294  0.75671884  1
  O  O363  1  0.35684034  0.12799889  0.38194981  1
  O  O364  1  0.36980051  0.11845677  0.86625039  1
  O  O365  1  0.36303270  0.61297416  0.37812474  1
  O  O366  1  0.36967073  0.62617574  0.86524432  1
  O  O367  1  0.86099744  0.12670293  0.36055923  1
  O  O368  1  0.86403070  0.12546917  0.87856438  1
  O  O369  1  0.87064574  0.61994740  0.36662643  1
  O  O370  1  0.87186455  0.61720717  0.86940872  1
  O  O371  1  0.13193707  0.37589657  0.13222751  1
  O  O372  1  0.12527202  0.37339567  0.63784043  1
  O  O373  1  0.13526134  0.85219945  0.13939921  1
  O  O374  1  0.12647191  0.88345845  0.62820992  1
  O  O375  1  0.63875747  0.38340236  0.12617243  1
  O  O376  1  0.62682089  0.38305337  0.63177751  1
  O  O377  1  0.63450778  0.87165991  0.13497625  1
  O  O378  1  0.63084857  0.87718346  0.62205955  1
  O  O379  1  0.11985998  0.26096354  0.26314840  1
  O  O380  1  0.11610214  0.25482854  0.75524048  1
  O  O381  1  0.10112694  0.73747429  0.26700317  1
  O  O382  1  0.12005316  0.75436703  0.75412538  1
  O  O383  1  0.60956175  0.25402116  0.25071700  1
  O  O384  1  0.62215969  0.25374324  0.75199392  1
  O  O385  1  0.61723178  0.76143167  0.25800715  1
  O  O386  1  0.61652393  0.73909818  0.75969450  1
  O  O387  1  0.39330660  0.24176613  0.25400185  1
  O  O388  1  0.38443343  0.24631352  0.74221933  1
  O  O389  1  0.39177783  0.75173522  0.25065754  1
  O  O390  1  0.37961947  0.74071618  0.74372674  1
  O  O391  1  0.87319214  0.23860626  0.25014634  1
  O  O392  1  0.89075121  0.24795340  0.75313582  1
  O  O393  1  0.88213459  0.74236779  0.25091528  1
  O  O394  1  0.87891022  0.74040456  0.74322180  1
  O  O395  1  0.37840671  0.49255311  0.49693554  1
  O  O396  1  0.38505576  0.50334692  0.99080772  1
  O  O397  1  0.38960114  0.99526232  0.50172249  1
  O  O398  1  0.38461539  0.99362295  0.98948819  1
  O  O399  1  0.88800047  0.50473993  0.49307822  1
  O  O400  1  0.88544207  0.49366196  0.99458074  1
  O  O401  1  0.86357366  0.98837320  0.50729267  1
  O  O402  1  0.89244962  0.98928489  1.00124980  1
  O  O403  1  0.10760425  -0.00471590  -0.00122068  1
  O  O404  1  0.12869615  0.01613258  0.50908111  1
  O  O405  1  0.11116901  0.50202929  -0.00230143  1
  O  O406  1  0.11596414  0.51003667  0.50244493  1
  O  O407  1  0.61790253  0.00880182  -0.00520550  1
  O  O408  1  0.61269546  -0.00204011  0.51335207  1
  O  O409  1  0.62483495  0.50588620  0.01289596  1
  O  O410  1  0.61636923  0.50540805  0.50639981  1
  O  O411  1  0.36351834  0.37691647  0.12614860  1
  O  O412  1  0.37380841  0.36407449  0.62031028  1
  O  O413  1  0.37600909  0.87209591  0.11143799  1
  O  O414  1  0.37583135  0.86697594  0.61848174  1
  O  O415  1  0.86358997  0.38039961  0.12097053  1
  O  O416  1  0.87175876  0.35313506  0.63375116  1
  O  O417  1  0.85747554  0.87588094  0.13172922  1
  O  O418  1  0.86224116  0.86909511  0.61731770  1
  O  O419  1  0.13325675  0.13380437  0.38515441  1
  O  O420  1  0.13584311  0.13330881  0.86846578  1
  O  O421  1  0.13977402  0.62144592  0.38627674  1
  O  O422  1  0.12877074  0.63697402  0.87142758  1
  O  O423  1  0.63966091  0.12299357  0.36702579  1
  O  O424  1  0.63360755  0.13004927  0.88540951  1
  O  O425  1  0.62846492  0.62750202  0.38046783  1
  O  O426  1  0.63715041  0.61869583  0.88626484  1
