# generated using pymatgen
data_V85Zn86O256
_symmetry_space_group_name_H-M   'P 1'
_cell_length_a   16.92129949
_cell_length_b   16.92412647
_cell_length_c   16.93451372
_cell_angle_alpha   90.02109479
_cell_angle_beta   89.96797904
_cell_angle_gamma   89.94858606
_symmetry_Int_Tables_number   1
_chemical_formula_structural   V85Zn86O256
_chemical_formula_sum   'V85 Zn86 O256'
_cell_volume   4849.67273055
_cell_formula_units_Z   1
loop_
 _symmetry_equiv_pos_site_id
 _symmetry_equiv_pos_as_xyz
  1  'x, y, z'
loop_
 _atom_site_type_symbol
 _atom_site_label
 _atom_site_symmetry_multiplicity
 _atom_site_fract_x
 _atom_site_fract_y
 _atom_site_fract_z
 _atom_site_occupancy
  V  V0  1  0.74632162  0.87557241  0.61928254  1
  V  V1  1  0.87525988  0.74527086  0.62282739  1
  V  V2  1  0.00244337  0.24661748  0.24084143  1
  V  V3  1  0.12436874  0.62517720  -0.00076670  1
  V  V4  1  -0.00323798  0.49461069  0.00200035  1
  V  V5  1  0.50583585  0.12687315  0.13116938  1
  V  V6  1  0.74615327  0.00239505  0.24700197  1
  V  V7  1  -0.00215338  0.37613953  0.37762707  1
  V  V8  1  0.13147464  0.37465751  0.24651754  1
  V  V9  1  0.61823918  0.35728444  0.75058022  1
  V  V10  1  0.37600679  0.62414955  0.75196295  1
  V  V11  1  0.49740317  0.62047968  0.12195335  1
  V  V12  1  -0.00289398  -0.00016480  0.50070894  1
  V  V13  1  0.74882301  0.13068510  0.87171945  1
  V  V14  1  0.24857837  -0.00102135  0.25085682  1
  V  V15  1  0.00694863  0.37478586  0.86911338  1
  V  V16  1  0.38291454  0.37409679  0.48878661  1
  V  V17  1  0.00089269  0.24708209  0.74648582  1
  V  V18  1  0.50616326  0.00230940  0.00517289  1
  V  V19  1  0.50033688  0.13228029  0.62827597  1
  V  V20  1  0.13576524  0.61457780  0.50038253  1
  V  V21  1  -0.00235261  0.86589885  0.37360815  1
  V  V22  1  0.24940163  0.50432231  0.25934197  1
  V  V23  1  0.61072754  0.25240206  0.36773788  1
  V  V24  1  0.87648829  0.62274399  0.74979385  1
  V  V25  1  0.74659959  0.87878078  0.12517509  1
  V  V26  1  0.12162810  0.12300235  0.50699718  1
  V  V27  1  0.74003206  0.49920041  0.74598632  1
  V  V28  1  0.00011622  0.49778836  0.50666295  1
  V  V29  1  0.75166100  0.37783228  0.62195209  1
  V  V30  1  0.37711988  0.25969660  0.13015938  1
  V  V31  1  0.62045002  0.61899231  -0.00304179  1
  V  V32  1  0.24835760  0.12289401  0.37824710  1
  V  V33  1  0.37454705  0.87453533  0.50202834  1
  V  V34  1  0.11689267  -0.00198329  0.63169899  1
  V  V35  1  0.88068010  0.12461158  0.24111911  1
  V  V36  1  0.87933211  0.75011431  0.13079025  1
  V  V37  1  0.74702716  0.73400558  0.49495115  1
  V  V38  1  0.12280431  0.24792467  0.37605665  1
  V  V39  1  0.37717446  0.75103596  0.62662154  1
  V  V40  1  0.74379786  0.75176056  -0.00285909  1
  V  V41  1  0.75774670  0.25730347  0.49478255  1
  V  V42  1  0.37553450  0.87861677  0.00084701  1
  V  V43  1  0.37476718  -0.00006151  0.37719207  1
  V  V44  1  0.24907317  0.62231775  0.87456113  1
  V  V45  1  0.37058621  0.13062404  0.75273527  1
  V  V46  1  0.13570866  0.49706375  0.12214161  1
  V  V47  1  0.87375882  0.49208070  0.87783699  1
  V  V48  1  0.62414794  0.87689348  0.25092863  1
  V  V49  1  0.37688456  0.25626672  0.62806214  1
  V  V50  1  0.13640735  0.24716288  0.86793609  1
  V  V51  1  0.76192426  0.37678013  0.12605969  1
  V  V52  1  0.62973473  0.12890030  0.00522663  1
  V  V53  1  0.39067435  0.49234154  0.87648049  1
  V  V54  1  0.61302484  0.37641799  0.24865937  1
  V  V55  1  0.62876127  0.88028989  0.76042493  1
  V  V56  1  -0.00165859  0.01118871  0.00367404  1
  V  V57  1  0.62579459  0.73449637  0.37438589  1
  V  V58  1  0.50516013  0.75342953  0.75707720  1
  V  V59  1  0.23768773  0.49627207  0.74882756  1
  V  V60  1  0.00171027  0.62704624  0.13219706  1
  V  V61  1  0.00629697  0.75301902  0.74821863  1
  V  V62  1  0.24922052  0.87690478  0.12483707  1
  V  V63  1  0.23911000  0.37875164  0.62721266  1
  V  V64  1  0.62537919  0.12834806  0.49922015  1
  V  V65  1  0.87473192  0.00051946  0.87164807  1
  V  V66  1  0.87636183  0.87395871  0.00052800  1
  V  V67  1  0.86847025  0.62275843  0.25297519  1
  V  V68  1  0.00691126  0.87534194  0.87275075  1
  V  V69  1  0.87963118  0.24557830  0.61918915  1
  V  V70  1  0.24556532  0.00009716  0.75586822  1
  V  V71  1  0.75332362  0.12852064  0.37231146  1
  V  V72  1  0.24879364  0.25421244  0.01114891  1
  V  V73  1  0.24906870  0.75154214  -0.00176221  1
  V  V74  1  0.12022976  0.86597886  0.24998914  1
  V  V75  1  0.24300955  0.87373409  0.63181359  1
  V  V76  1  0.24851648  0.74573068  0.49342851  1
  V  V77  1  0.37274844  0.62934032  0.25868962  1
  V  V78  1  0.75556115  0.25769209  -0.00318792  1
  V  V79  1  0.74817808  0.62868366  0.87619595  1
  V  V80  1  0.86927467  0.50008501  0.38259485  1
  V  V81  1  0.11983650  0.00821132  0.12731950  1
  V  V82  1  0.50099143  -0.00166970  0.50234659  1
  V  V83  1  0.37421533  0.00446960  0.87664879  1
  V  V84  1  0.37887749  0.12884669  0.25089631  1
  Zn  Zn85  1  0.12343922  0.74186012  0.37189952  1
  Zn  Zn86  1  0.62425822  0.49608611  0.11921979  1
  Zn  Zn87  1  0.50275994  0.87307071  0.37552649  1
  Zn  Zn88  1  0.87804593  0.12281584  0.74391070  1
  Zn  Zn89  1  0.75151348  0.00305415  0.74528310  1
  Zn  Zn90  1  0.49993894  0.75127700  0.24806308  1
  Zn  Zn91  1  0.50508446  0.87697409  0.87969273  1
  Zn  Zn92  1  0.12914086  0.12714994  0.00036496  1
  Zn  Zn93  1  0.00507564  0.61766344  0.62638324  1
  Zn  Zn94  1  0.88247770  0.25048672  0.11716445  1
  Zn  Zn95  1  0.87201008  0.87323462  0.49659105  1
  Zn  Zn96  1  0.38304002  0.49819781  0.37199777  1
  Zn  Zn97  1  0.12820065  0.75339855  0.86763564  1
  Zn  Zn98  1  0.62634337  0.00109306  0.62440157  1
  Zn  Zn99  1  0.87510592  -0.00249660  0.37442394  1
  Zn  Zn100  1  0.74773412  0.50048391  0.25104189  1
  Zn  Zn101  1  0.51816809  0.51424299  0.49437604  1
  Zn  Zn102  1  0.37707103  0.74987974  0.12502349  1
  Zn  Zn103  1  0.51908483  0.62047592  0.62296480  1
  Zn  Zn104  1  0.24768517  0.24913324  0.50345856  1
  Zn  Zn105  1  0.54027554  0.31128417  0.89923933  1
  Zn  Zn106  1  0.38804712  0.37766676  -0.00011738  1
  Zn  Zn107  1  0.19091837  0.18692727  0.18776068  1
  Zn  Zn108  1  0.18881661  0.18743183  0.68744553  1
  Zn  Zn109  1  0.19101645  0.68673635  0.18512372  1
  Zn  Zn110  1  0.18850609  0.68098565  0.68109448  1
  Zn  Zn111  1  0.68960106  0.19331032  0.18520731  1
  Zn  Zn112  1  0.69171784  0.18776822  0.68412209  1
  Zn  Zn113  1  0.68647275  0.68833418  0.18426247  1
  Zn  Zn114  1  0.69052116  0.69671337  0.69348503  1
  Zn  Zn115  1  0.30672454  0.30950115  0.31117506  1
  Zn  Zn116  1  0.31341485  0.31559293  0.81134642  1
  Zn  Zn117  1  0.31367336  0.81379671  0.31292632  1
  Zn  Zn118  1  0.31422883  0.81592988  0.81410258  1
  Zn  Zn119  1  0.81484339  0.31517268  0.30753123  1
  Zn  Zn120  1  0.81412540  0.31283030  0.80921450  1
  Zn  Zn121  1  0.81224643  0.80971522  0.31284000  1
  Zn  Zn122  1  0.81543711  0.81325375  0.81168312  1
  Zn  Zn123  1  0.19071485  0.43406807  0.44109977  1
  Zn  Zn124  1  0.19243735  0.43282134  0.93621669  1
  Zn  Zn125  1  0.18511064  0.93329638  0.43976204  1
  Zn  Zn126  1  0.18519959  0.94007414  0.93844377  1
  Zn  Zn127  1  0.68550834  0.43459528  0.43179234  1
  Zn  Zn128  1  0.68589252  0.43555851  0.93369409  1
  Zn  Zn129  1  0.68772902  0.93712138  0.43602016  1
  Zn  Zn130  1  0.68794105  0.94533971  0.93927605  1
  Zn  Zn131  1  0.31030442  0.06891153  0.06314610  1
  Zn  Zn132  1  0.30987215  0.06239013  0.56757683  1
  Zn  Zn133  1  0.31641074  0.56107212  0.06070546  1
  Zn  Zn134  1  0.35022882  0.54443268  0.57922459  1
  Zn  Zn135  1  0.81263002  0.06300350  0.06198822  1
  Zn  Zn136  1  0.81330888  0.06459673  0.56058965  1
  Zn  Zn137  1  0.81168789  0.56093192  0.06327151  1
  Zn  Zn138  1  0.68484661  0.55739062  0.56967618  1
  Zn  Zn139  1  0.43894905  0.44427199  0.18761691  1
  Zn  Zn140  1  0.44182695  0.43855510  0.68741025  1
  Zn  Zn141  1  0.43827033  0.94013494  0.18689022  1
  Zn  Zn142  1  0.43911275  0.93978288  0.68986407  1
  Zn  Zn143  1  0.94177970  0.43901990  0.19125809  1
  Zn  Zn144  1  0.93184270  0.43153396  0.68795859  1
  Zn  Zn145  1  0.93715701  0.93761258  0.18947899  1
  Zn  Zn146  1  0.93534246  0.93298750  0.68633135  1
  Zn  Zn147  1  0.06059504  0.05857963  0.31574439  1
  Zn  Zn148  1  0.06224100  0.06779611  0.81445448  1
  Zn  Zn149  1  0.06246699  0.56293261  0.31586850  1
  Zn  Zn150  1  0.06204310  0.56413373  0.81369402  1
  Zn  Zn151  1  0.56430353  0.06175567  0.31452365  1
  Zn  Zn152  1  0.54189422  0.11193492  0.83419690  1
  Zn  Zn153  1  0.55600859  0.55805088  0.31103208  1
  Zn  Zn154  1  0.56737022  0.56878212  0.80432515  1
  Zn  Zn155  1  0.43477487  0.18812917  0.44277523  1
  Zn  Zn156  1  0.42748731  0.18443331  0.94518045  1
  Zn  Zn157  1  0.44279413  0.68449431  0.43836091  1
  Zn  Zn158  1  0.43674642  0.68847417  0.93601645  1
  Zn  Zn159  1  0.93862626  0.18497217  0.43325418  1
  Zn  Zn160  1  0.93578187  0.19014562  0.93293660  1
  Zn  Zn161  1  0.93873647  0.68094256  0.44024487  1
  Zn  Zn162  1  0.93624708  0.68621862  0.93941701  1
  Zn  Zn163  1  0.06413067  0.31672088  0.05894397  1
  Zn  Zn164  1  0.06109301  0.31339030  0.56186067  1
  Zn  Zn165  1  0.06259435  0.81549301  0.06137914  1
  Zn  Zn166  1  0.06357657  0.81119869  0.56024085  1
  Zn  Zn167  1  0.56363484  0.30922900  0.07093860  1
  Zn  Zn168  1  0.56779102  0.31930371  0.56121922  1
  Zn  Zn169  1  0.56304003  0.80929939  0.06455068  1
  Zn  Zn170  1  0.56370426  0.80540317  0.56241326  1
  O  O171  1  0.12749002  0.11198798  0.12583057  1
  O  O172  1  0.12870386  0.11587682  0.61389709  1
  O  O173  1  0.11845438  0.61929551  0.11977452  1
  O  O174  1  0.12076526  0.62535535  0.60763745  1
  O  O175  1  0.61798655  0.12795221  0.12110856  1
  O  O176  1  0.61695482  0.12516269  0.61839633  1
  O  O177  1  0.61925890  0.62461296  0.11475694  1
  O  O178  1  0.62995875  0.61642068  0.64845316  1
  O  O179  1  0.37201978  0.36423660  0.38690690  1
  O  O180  1  0.38007131  0.38834610  0.87003932  1
  O  O181  1  0.37843979  0.88270666  0.38265817  1
  O  O182  1  0.37898736  0.88872628  0.88112160  1
  O  O183  1  0.88666460  0.38755821  0.36560223  1
  O  O184  1  0.88233654  0.38740508  0.87142581  1
  O  O185  1  0.88224703  0.87663787  0.37480745  1
  O  O186  1  0.88186438  0.88253385  0.88094234  1
  O  O187  1  0.25396771  0.00337488  0.37215927  1
  O  O188  1  0.25352556  -0.00592447  0.86287726  1
  O  O189  1  0.24974371  0.49541187  0.36106140  1
  O  O190  1  0.25456069  0.50481921  0.86669174  1
  O  O191  1  0.75026359  0.01280713  0.36789416  1
  O  O192  1  0.76332769  0.00532255  0.87441590  1
  O  O193  1  0.76591511  0.49349579  0.37176718  1
  O  O194  1  0.75877975  0.50644279  0.86967346  1
  O  O195  1  0.23911048  0.50397202  0.12980055  1
  O  O196  1  0.25963996  0.48612800  0.63378047  1
  O  O197  1  0.24225912  0.99513632  0.12913520  1
  O  O198  1  0.24132611  0.99232459  0.63420502  1
  O  O199  1  0.74658227  0.49071425  0.12600393  1
  O  O200  1  0.75939810  0.48985255  0.63539343  1
  O  O201  1  0.75499452  0.98703135  0.13070236  1
  O  O202  1  0.74937121  0.99097632  0.62424267  1
  O  O203  1  0.01171755  0.36911237  0.25786006  1
  O  O204  1  -0.00280577  0.36690226  0.76183679  1
  O  O205  1  0.00893532  0.87930127  0.25909895  1
  O  O206  1  -0.00688675  0.86475111  0.76003456  1
  O  O207  1  0.51394922  0.37472912  0.24473257  1
  O  O208  1  0.51874104  0.37557675  0.74178789  1
  O  O209  1  0.51003191  0.87611471  0.25087405  1
  O  O210  1  0.51228468  0.87357939  0.75260859  1
  O  O211  1  0.48993506  0.11472689  0.24448996  1
  O  O212  1  0.48533383  0.11082991  0.73329351  1
  O  O213  1  0.49033081  0.62740281  0.24041146  1
  O  O214  1  0.49144434  0.63574665  0.74771722  1
  O  O215  1  0.99346111  0.13344567  0.25630927  1
  O  O216  1  0.99724925  0.14165003  0.75505496  1
  O  O217  1  0.99394489  0.62026098  0.23664633  1
  O  O218  1  0.98994421  0.62905735  0.74912124  1
  O  O219  1  0.36486475  0.24951805  0.01303822  1
  O  O220  1  0.36984090  0.25700122  0.50875486  1
  O  O221  1  0.36372433  0.75848426  -0.00157521  1
  O  O222  1  0.36866209  0.75409366  0.50861798  1
  O  O223  1  0.86266865  0.24598911  0.00141618  1
  O  O224  1  0.86953199  0.24479035  0.50351894  1
  O  O225  1  0.86701047  0.75356267  0.01019282  1
  O  O226  1  0.86436798  0.74776633  0.50571950  1
  O  O227  1  0.12235025  0.23830489  0.49568227  1
  O  O228  1  0.13489773  0.25120275  0.99522621  1
  O  O229  1  0.13358075  0.74101311  0.49929439  1
  O  O230  1  0.13604329  0.74730364  0.99839048  1
  O  O231  1  0.63304148  0.24802073  0.48567915  1
  O  O232  1  0.63722567  0.23699886  1.00278497  1
  O  O233  1  0.63633022  0.75350079  0.48633883  1
  O  O234  1  0.63927444  0.74407607  1.00247613  1
  O  O235  1  0.49107406  0.23467631  0.12721717  1
  O  O236  1  0.49249265  0.24147587  0.61835013  1
  O  O237  1  0.49816082  0.73946980  0.12806566  1
  O  O238  1  0.49059238  0.75308505  0.63691504  1
  O  O239  1  1.00207019  0.25540842  0.13650121  1
  O  O240  1  0.99291423  0.25797319  0.63357666  1
  O  O241  1  0.99172993  0.74023880  0.11624844  1
  O  O242  1  0.99105703  0.75257681  0.63100859  1
  O  O243  1  0.00455767  0.25667306  0.36563652  1
  O  O244  1  0.00742863  0.25861952  0.87046987  1
  O  O245  1  0.00115837  0.76207568  0.38315138  1
  O  O246  1  -0.00135853  0.75797183  0.86853591  1
  O  O247  1  0.51295109  0.24306953  0.37676966  1
  O  O248  1  0.49911340  0.21483878  0.86579243  1
  O  O249  1  0.51532100  0.75296813  0.37169085  1
  O  O250  1  0.49354874  0.75674084  0.86138923  1
  O  O251  1  0.24088868  0.12377185  0.49565884  1
  O  O252  1  0.24838964  0.14438318  1.00192685  1
  O  O253  1  0.23967822  0.63045749  0.50486646  1
  O  O254  1  0.24600931  0.63310876  0.99522364  1
  O  O255  1  0.74472567  0.13244729  0.49004904  1
  O  O256  1  0.74565881  0.13014072  0.99619518  1
  O  O257  1  0.74760081  0.63629499  0.50411099  1
  O  O258  1  0.74668980  0.63320545  0.99433010  1
  O  O259  1  0.26008129  0.35906095  -0.00499429  1
  O  O260  1  0.25608463  0.36947063  0.51296483  1
  O  O261  1  0.25297900  0.87003548  0.00349604  1
  O  O262  1  0.25527155  0.86958117  0.51151486  1
  O  O263  1  0.74207957  0.36670158  0.00919899  1
  O  O264  1  0.75052462  0.36211006  0.50399124  1
  O  O265  1  0.75360821  0.87122170  0.00634434  1
  O  O266  1  0.75149742  0.86855488  0.50590613  1
  O  O267  1  0.12972475  0.49507125  0.24330201  1
  O  O268  1  0.13792470  0.50662207  0.75044341  1
  O  O269  1  0.12864299  0.99215441  0.24434876  1
  O  O270  1  0.13076114  1.00755137  0.74274895  1
  O  O271  1  0.62800965  0.48612718  0.24919246  1
  O  O272  1  0.63856481  0.49130231  0.75656108  1
  O  O273  1  0.63830379  0.99435157  0.25321270  1
  O  O274  1  0.62847932  0.98441792  0.74386218  1
  O  O275  1  0.36846713  0.00772221  0.25627396  1
  O  O276  1  0.36706411  0.00447154  0.75699638  1
  O  O277  1  0.36549643  0.50728600  0.25034478  1
  O  O278  1  0.36894777  0.50916584  0.75953256  1
  O  O279  1  0.86460795  0.00620504  0.25104650  1
  O  O280  1  0.87457759  0.00130032  0.75787345  1
  O  O281  1  0.87646231  0.50797970  0.25791240  1
  O  O282  1  0.87007762  0.50728904  0.75740079  1
  O  O283  1  0.12048912  0.36749079  0.36810865  1
  O  O284  1  0.11760133  0.36175857  0.87876698  1
  O  O285  1  0.11804075  0.87259676  0.36633049  1
  O  O286  1  0.11093128  0.87420759  0.87788994  1
  O  O287  1  0.63071969  0.36048435  0.36067641  1
  O  O288  1  0.62951481  0.37095048  0.85794822  1
  O  O289  1  0.62676168  0.87025985  0.36275953  1
  O  O290  1  0.62682531  0.88027914  0.86425824  1
  O  O291  1  0.38067468  0.13138966  0.13513874  1
  O  O292  1  0.37860955  0.13593861  0.62887103  1
  O  O293  1  0.38203936  0.62660930  0.12934731  1
  O  O294  1  0.36237413  0.64230416  0.64036662  1
  O  O295  1  0.87282625  0.12649606  0.13743557  1
  O  O296  1  0.87116190  0.13942945  0.62597354  1
  O  O297  1  0.88262830  0.63095853  0.12926827  1
  O  O298  1  0.87877652  0.63816920  0.63597743  1
  O  O299  1  0.25703311  0.25184411  0.11903189  1
  O  O300  1  0.25668184  0.26035901  0.62663238  1
  O  O301  1  0.25095032  0.75862224  0.11478854  1
  O  O302  1  0.25412961  0.75859533  0.61951006  1
  O  O303  1  0.75567292  0.25871034  0.11630398  1
  O  O304  1  0.75756873  0.25292593  0.61250353  1
  O  O305  1  0.75765956  0.76035097  0.11864215  1
  O  O306  1  0.75485217  0.75510084  0.61374925  1
  O  O307  1  0.23977559  0.23980564  0.37780232  1
  O  O308  1  0.23935250  0.25394237  0.87973571  1
  O  O309  1  0.24866528  0.75774246  0.39108312  1
  O  O310  1  0.24851319  0.74505933  0.88046519  1
  O  O311  1  0.75114375  0.24158445  0.37703224  1
  O  O312  1  0.75768507  0.24197790  0.88222225  1
  O  O313  1  0.74366346  0.75053080  0.38723066  1
  O  O314  1  0.76103728  0.74131043  0.88508407  1
  O  O315  1  -0.00003048  0.11380238  -0.00336083  1
  O  O316  1  0.00766034  0.10979218  0.49295442  1
  O  O317  1  0.00583523  0.61565274  0.00648838  1
  O  O318  1  0.00809866  0.61349905  0.50398674  1
  O  O319  1  0.50890546  0.12034424  0.01097671  1
  O  O320  1  0.50353118  0.11859703  0.50892957  1
  O  O321  1  0.51066790  0.63503537  0.00477645  1
  O  O322  1  0.50542919  0.63067214  0.50998221  1
  O  O323  1  0.48325330  0.37363696  0.50565098  1
  O  O324  1  0.50200172  0.35969766  0.99306347  1
  O  O325  1  0.49472332  0.88174637  0.50127113  1
  O  O326  1  0.49752354  0.88386372  1.00094077  1
  O  O327  1  1.00762773  0.38115905  0.48545105  1
  O  O328  1  1.00229296  0.38803189  0.99025554  1
  O  O329  1  0.99831579  0.88366602  0.49372441  1
  O  O330  1  0.99369024  0.88244464  0.99232040  1
  O  O331  1  0.49570538  0.49966801  0.38217011  1
  O  O332  1  0.48808819  0.50878981  0.86822589  1
  O  O333  1  0.49495816  1.00068063  0.38808090  1
  O  O334  1  0.49161902  1.00743699  0.88918273  1
  O  O335  1  0.99537685  0.49161658  0.37999855  1
  O  O336  1  0.99599316  0.49415194  0.88039663  1
  O  O337  1  0.99916934  0.98789066  0.38413141  1
  O  O338  1  0.99240953  0.99540385  0.88013595  1
  O  O339  1  0.00742154  -0.00674027  0.11553820  1
  O  O340  1  0.00920651  -0.00703501  0.61905986  1
  O  O341  1  0.00725894  0.50631305  0.11761955  1
  O  O342  1  -0.00942469  0.49335235  0.61011450  1
  O  O343  1  0.49271703  0.01148498  0.11328645  1
  O  O344  1  0.49963749  0.00581620  0.61352965  1
  O  O345  1  0.50487233  0.51439183  0.12375000  1
  O  O346  1  0.46338105  0.51610882  0.61022306  1
  O  O347  1  0.23745699  0.38109584  0.24999392  1
  O  O348  1  0.25229717  0.38241309  0.73824893  1
  O  O349  1  0.24312463  0.88129206  0.24537806  1
  O  O350  1  0.25283026  0.88206430  0.73954893  1
  O  O351  1  0.74365717  0.37513603  0.23975386  1
  O  O352  1  0.74564674  0.38151687  0.74343848  1
  O  O353  1  0.74681108  0.88254866  0.24418409  1
  O  O354  1  0.74106782  0.87311444  0.74355979  1
  O  O355  1  0.25618871  0.11749254  0.25740277  1
  O  O356  1  0.26055824  0.11331284  0.74263171  1
  O  O357  1  0.25871637  0.61664077  0.24448670  1
  O  O358  1  0.25602712  0.61999389  0.75583829  1
  O  O359  1  0.75518253  0.11999231  0.25322040  1
  O  O360  1  0.75289146  0.12309385  0.75804193  1
  O  O361  1  0.76468640  0.62249563  0.24121225  1
  O  O362  1  0.76087162  0.62062291  0.75850695  1
  O  O363  1  0.36996423  0.12055789  0.37056000  1
  O  O364  1  0.36983430  0.11250665  0.86677965  1
  O  O365  1  0.37609373  0.62767625  0.36161829  1
  O  O366  1  0.36880881  0.62107450  0.86623112  1
  O  O367  1  0.86750611  0.12253641  0.36301341  1
  O  O368  1  0.86673985  0.11643782  0.87337957  1
  O  O369  1  0.88328405  0.61180848  0.36522998  1
  O  O370  1  0.86897899  0.61711560  0.86967776  1
  O  O371  1  0.11906581  0.38630618  0.13339954  1
  O  O372  1  0.14028585  0.37311847  0.62167991  1
  O  O373  1  0.12909740  0.88324706  0.13177858  1
  O  O374  1  0.13280773  0.88416099  0.62187127  1
  O  O375  1  0.63337154  0.37224785  0.13826645  1
  O  O376  1  0.64206562  0.36530679  0.63607197  1
  O  O377  1  0.63486365  0.86817771  0.13849021  1
  O  O378  1  0.63612794  0.87309602  0.62930854  1
  O  O379  1  0.12130781  0.25514769  0.25381629  1
  O  O380  1  0.12151858  0.24733444  0.76143501  1
  O  O381  1  0.13059610  0.76177075  0.25038777  1
  O  O382  1  0.11010824  0.74107466  0.74795929  1
  O  O383  1  0.62734625  0.25645086  0.26083191  1
  O  O384  1  0.62729878  0.25746098  0.74919083  1
  O  O385  1  0.62992584  0.75754238  0.26095316  1
  O  O386  1  0.61725281  0.76685587  0.74877009  1
  O  O387  1  0.36769033  0.23707633  0.24489229  1
  O  O388  1  0.36922778  0.23946762  0.74378169  1
  O  O389  1  0.37483757  0.74397666  0.24650572  1
  O  O390  1  0.38029474  0.74688532  0.74555932  1
  O  O391  1  0.88603791  0.24257555  0.24773514  1
  O  O392  1  0.88410916  0.24835126  0.74145186  1
  O  O393  1  0.87230220  0.74321613  0.23794208  1
  O  O394  1  0.88206448  0.74245413  0.74491445  1
  O  O395  1  0.35946488  0.47850502  0.48696791  1
  O  O396  1  0.37155609  0.49813550  0.98155646  1
  O  O397  1  0.38031887  0.99567729  0.49835650  1
  O  O398  1  0.37788397  0.99879786  0.99428070  1
  O  O399  1  0.88517529  0.50255207  0.48265963  1
  O  O400  1  0.88522360  0.50765794  0.99039365  1
  O  O401  1  0.88381246  0.99753816  0.49820797  1
  O  O402  1  0.88123953  0.99473168  0.99417527  1
  O  O403  1  0.11691281  0.00282322  0.00817667  1
  O  O404  1  0.11873474  0.00379327  0.50890307  1
  O  O405  1  0.12153309  0.50336586  0.00575207  1
  O  O406  1  0.11943709  0.50784383  0.49577336  1
  O  O407  1  0.61736181  0.01152542  0.00173763  1
  O  O408  1  0.61728870  0.00813035  0.49952217  1
  O  O409  1  0.63134645  0.51531882  -0.00241548  1
  O  O410  1  0.62739270  0.48231301  0.51090938  1
  O  O411  1  0.38333639  0.36257279  0.12741865  1
  O  O412  1  0.37006754  0.36412359  0.62269409  1
  O  O413  1  0.36688974  0.87640020  0.11827320  1
  O  O414  1  0.36825539  0.86705933  0.62354419  1
  O  O415  1  0.86617070  0.37465913  0.13036046  1
  O  O416  1  0.86123376  0.36038904  0.62879298  1
  O  O417  1  0.87027870  0.86755596  0.12144375  1
  O  O418  1  0.86265131  0.86275853  0.62547074  1
  O  O419  1  0.12863050  0.12608102  0.38497712  1
  O  O420  1  0.12114614  0.14345094  0.88068155  1
  O  O421  1  0.11996302  0.62744010  0.39129178  1
  O  O422  1  0.13059230  0.62850589  0.88316433  1
  O  O423  1  0.63313679  0.13620946  0.37552867  1
  O  O424  1  0.64331566  0.11636745  0.88639706  1
  O  O425  1  0.62838712  0.63659087  0.36294831  1
  O  O426  1  0.64006272  0.62473678  0.87841414  1
