# generated using pymatgen
data_V85Zn86O256
_symmetry_space_group_name_H-M   'P 1'
_cell_length_a   16.91905129
_cell_length_b   16.91597666
_cell_length_c   16.92132373
_cell_angle_alpha   90.01795058
_cell_angle_beta   90.02001666
_cell_angle_gamma   89.97628987
_symmetry_Int_Tables_number   1
_chemical_formula_structural   V85Zn86O256
_chemical_formula_sum   'V85 Zn86 O256'
_cell_volume   4842.92042665
_cell_formula_units_Z   1
loop_
 _symmetry_equiv_pos_site_id
 _symmetry_equiv_pos_as_xyz
  1  'x, y, z'
loop_
 _atom_site_type_symbol
 _atom_site_label
 _atom_site_symmetry_multiplicity
 _atom_site_fract_x
 _atom_site_fract_y
 _atom_site_fract_z
 _atom_site_occupancy
  V  V0  1  0.88811781  0.25026601  0.62289244  1
  V  V1  1  0.87326998  -0.00009426  0.87388385  1
  V  V2  1  -0.00061010  0.12311478  0.12523863  1
  V  V3  1  0.50055585  0.00076785  -0.00196333  1
  V  V4  1  0.24762584  0.74936015  0.00587837  1
  V  V5  1  0.37418761  0.25081168  0.62328604  1
  V  V6  1  0.37574858  0.37741502  0.00061834  1
  V  V7  1  0.87680501  0.37709438  0.00155670  1
  V  V8  1  0.49858940  0.62284451  0.61998814  1
  V  V9  1  0.88219602  0.49964770  0.87701769  1
  V  V10  1  0.87780036  0.87448608  0.49915182  1
  V  V11  1  0.24968471  0.50219124  0.25211943  1
  V  V12  1  0.87359449  0.62748707  0.75018986  1
  V  V13  1  0.74885347  0.74765764  0.00609088  1
  V  V14  1  0.11828599  0.25071852  0.86588300  1
  V  V15  1  0.89195377  0.13048612  0.74910957  1
  V  V16  1  0.12490376  -0.00255949  0.12758949  1
  V  V17  1  0.38823906  0.37990900  0.49755351  1
  V  V18  1  0.24611909  -0.00032359  0.25182329  1
  V  V19  1  0.36872398  0.12252448  0.74740807  1
  V  V20  1  0.74396389  0.62336392  0.87929220  1
  V  V21  1  0.62089985  0.49787433  0.61863226  1
  V  V22  1  0.38195553  0.62630730  0.24812250  1
  V  V23  1  0.38292973  0.75148095  0.12904498  1
  V  V24  1  0.50190840  0.25596704  0.25921187  1
  V  V25  1  0.62677657  0.00006334  0.12357353  1
  V  V26  1  0.62843525  0.24221676  0.87402239  1
  V  V27  1  0.23899065  0.49979629  0.74790047  1
  V  V28  1  0.74639097  0.01066444  0.75266178  1
  V  V29  1  0.37245347  0.62434557  0.74789922  1
  V  V30  1  0.74980030  0.74978496  0.49855280  1
  V  V31  1  0.36663304  0.74944132  0.61622397  1
  V  V32  1  0.74836544  0.88287757  0.62455057  1
  V  V33  1  0.62113484  0.62127983  0.49422199  1
  V  V34  1  0.62504320  0.87806552  0.74617671  1
  V  V35  1  0.74607290  0.12584964  0.37767782  1
  V  V36  1  -0.01823226  0.62808301  0.12104572  1
  V  V37  1  0.87561634  0.12276161  0.25008492  1
  V  V38  1  0.75035504  0.24618364  -0.00400925  1
  V  V39  1  0.37173469  0.87838498  0.49523467  1
  V  V40  1  0.12086699  0.50104949  0.12057216  1
  V  V41  1  0.76701750  0.62444288  0.37027028  1
  V  V42  1  0.00084495  -0.01208705  -0.00368582  1
  V  V43  1  0.12386039  0.00091025  0.63875384  1
  V  V44  1  0.12392113  0.12721012  0.00078343  1
  V  V45  1  0.50914879  0.62799997  0.11768215  1
  V  V46  1  0.24374715  0.38068371  0.62095444  1
  V  V47  1  -0.00539721  0.74592756  0.24963683  1
  V  V48  1  0.01221163  0.61899797  0.62929534  1
  V  V49  1  0.11936676  0.12201424  0.50376276  1
  V  V50  1  0.11832109  0.62223414  0.00469725  1
  V  V51  1  0.76249300  0.49684278  0.25194079  1
  V  V52  1  0.24650828  0.62676524  0.87767025  1
  V  V53  1  0.37685691  0.25356316  0.12499670  1
  V  V54  1  0.25091948  0.25428225  0.49858655  1
  V  V55  1  -0.00848328  0.38424728  0.37472257  1
  V  V56  1  0.62883980  0.49408447  0.12023786  1
  V  V57  1  0.62265777  0.74658830  0.87810422  1
  V  V58  1  0.49774154  0.25019567  0.75026872  1
  V  V59  1  0.62378871  0.37899383  0.25896262  1
  V  V60  1  0.87764502  -0.00488185  0.37669430  1
  V  V61  1  0.00225600  0.76427901  0.75550187  1
  V  V62  1  0.37808259  0.12643912  0.25090767  1
  V  V63  1  0.87425992  0.87071234  0.00147308  1
  V  V64  1  0.11976199  0.76461370  0.87763676  1
  V  V65  1  0.24446830  0.87729705  0.63751220  1
  V  V66  1  0.62414510  0.37540104  0.75108919  1
  V  V67  1  0.37467294  0.49960867  0.87473690  1
  V  V68  1  0.24996656  0.87427223  0.12939007  1
  V  V69  1  0.25036388  0.12222412  0.87393974  1
  V  V70  1  0.86694319  0.25295123  0.12499988  1
  V  V71  1  0.61385403  0.75255761  0.36959670  1
  V  V72  1  0.02091142  0.87235549  0.36934227  1
  V  V73  1  0.25060331  0.12604946  0.37575906  1
  V  V74  1  0.87565830  0.74990134  0.62771693  1
  V  V75  1  0.74736236  0.50119119  0.74982019  1
  V  V76  1  0.49808763  0.74902963  0.74901787  1
  V  V77  1  0.12460747  0.25512875  0.37458396  1
  V  V78  1  0.61074283  0.87331073  0.25285265  1
  V  V79  1  0.37243803  -0.00244444  0.87133354  1
  V  V80  1  0.00034370  0.24957674  0.24922785  1
  V  V81  1  0.75023597  -0.00550735  0.24947106  1
  V  V82  1  0.38825011  0.49915244  0.37769253  1
  V  V83  1  0.50493603  0.11390860  0.62352668  1
  V  V84  1  0.12751515  0.62978817  0.48475261  1
  Zn  Zn85  1  0.25043960  0.25071797  0.00043603  1
  Zn  Zn86  1  0.50383128  0.12773172  0.12350719  1
  Zn  Zn87  1  0.50031307  0.37435313  0.87676216  1
  Zn  Zn88  1  0.50713745  0.50219687  -0.00369692  1
  Zn  Zn89  1  0.24667095  0.37579705  0.12401341  1
  Zn  Zn90  1  0.63139995  0.11735619  0.50918916  1
  Zn  Zn91  1  0.62467618  0.25454838  0.38322157  1
  Zn  Zn92  1  0.38098706  -0.00745700  0.37038485  1
  Zn  Zn93  1  0.75016812  0.37044163  0.62178756  1
  Zn  Zn94  1  -0.00170839  0.50255401  0.50269118  1
  Zn  Zn95  1  0.25391251  0.63580998  0.37959722  1
  Zn  Zn96  1  0.51144267  -0.01223011  0.49140970  1
  Zn  Zn97  1  0.12563261  0.37711443  0.24717937  1
  Zn  Zn98  1  0.75338505  0.86690846  0.12857204  1
  Zn  Zn99  1  0.00460643  -0.00241266  0.50362350  1
  Zn  Zn100  1  0.49843195  0.87404525  0.87370637  1
  Zn  Zn101  1  0.11472264  0.37363892  0.73885651  1
  Zn  Zn102  1  0.63103450  0.12134883  -0.00510338  1
  Zn  Zn103  1  0.74974952  0.24996033  0.50352911  1
  Zn  Zn104  1  -0.00200993  0.37248631  0.87228304  1
  Zn  Zn105  1  0.37656056  0.87411623  -0.00095340  1
  Zn  Zn106  1  0.86907161  0.38345520  0.49812557  1
  Zn  Zn107  1  0.18998115  0.18872486  0.18709918  1
  Zn  Zn108  1  0.18791567  0.18585283  0.68550255  1
  Zn  Zn109  1  0.19559560  0.70937909  0.22411971  1
  Zn  Zn110  1  0.18620854  0.69446037  0.69140103  1
  Zn  Zn111  1  0.68705838  0.18616363  0.19018627  1
  Zn  Zn112  1  0.69039873  0.19084157  0.68580694  1
  Zn  Zn113  1  0.68781056  0.68246692  0.19160742  1
  Zn  Zn114  1  0.68648978  0.68886642  0.68653291  1
  Zn  Zn115  1  0.31343797  0.31891939  0.31247825  1
  Zn  Zn116  1  0.30641950  0.31224467  0.81198366  1
  Zn  Zn117  1  0.31265534  0.80980117  0.31273822  1
  Zn  Zn118  1  0.30997068  0.81050692  0.81298423  1
  Zn  Zn119  1  0.80985355  0.31303947  0.30999872  1
  Zn  Zn120  1  0.81219015  0.31095026  0.81020341  1
  Zn  Zn121  1  0.81366711  0.80927295  0.31055936  1
  Zn  Zn122  1  0.81261446  0.81556949  0.81652389  1
  Zn  Zn123  1  0.18454401  0.44818275  0.43938161  1
  Zn  Zn124  1  0.18901796  0.43653028  0.93905581  1
  Zn  Zn125  1  0.19664858  0.93694189  0.44508821  1
  Zn  Zn126  1  0.19151248  0.93923182  0.94236527  1
  Zn  Zn127  1  0.69214103  0.43915851  0.43660681  1
  Zn  Zn128  1  0.69415824  0.42889616  0.93794559  1
  Zn  Zn129  1  0.68462655  0.93913511  0.43819083  1
  Zn  Zn130  1  0.68897715  0.93393933  0.93348048  1
  Zn  Zn131  1  0.31398906  0.06424286  0.06218860  1
  Zn  Zn132  1  0.30818985  0.05876368  0.56279446  1
  Zn  Zn133  1  0.31023759  0.56350758  0.06592025  1
  Zn  Zn134  1  0.30593683  0.56224511  0.55835491  1
  Zn  Zn135  1  0.81208799  0.06251880  0.06160575  1
  Zn  Zn136  1  0.81759320  0.06453623  0.56520788  1
  Zn  Zn137  1  0.80327115  0.55688661  0.05915967  1
  Zn  Zn138  1  0.81359159  0.56021392  0.56088596  1
  Zn  Zn139  1  0.44219350  0.43959942  0.18757723  1
  Zn  Zn140  1  0.43599433  0.43767155  0.68543481  1
  Zn  Zn141  1  0.43649747  0.94049032  0.18595858  1
  Zn  Zn142  1  0.43297877  0.93434691  0.68805566  1
  Zn  Zn143  1  0.94226139  0.43590152  0.18433423  1
  Zn  Zn144  1  0.93690087  0.43462810  0.69156508  1
  Zn  Zn145  1  0.93747389  0.93025978  0.18752631  1
  Zn  Zn146  1  0.93773190  0.94133507  0.68688903  1
  Zn  Zn147  1  0.06375422  0.06226551  0.31634925  1
  Zn  Zn148  1  0.06206395  0.05772506  0.81711342  1
  Zn  Zn149  1  0.05919364  0.56581607  0.30430452  1
  Zn  Zn150  1  0.06051061  0.56949711  0.81463369  1
  Zn  Zn151  1  0.56016509  0.06083505  0.31359151  1
  Zn  Zn152  1  0.55960346  0.06179469  0.80882090  1
  Zn  Zn153  1  0.56504742  0.56611660  0.30742082  1
  Zn  Zn154  1  0.55979037  0.56297558  0.81107470  1
  Zn  Zn155  1  0.43871030  0.18488926  0.43877148  1
  Zn  Zn156  1  0.44066748  0.18680183  0.93772546  1
  Zn  Zn157  1  0.43703701  0.68771837  0.43705560  1
  Zn  Zn158  1  0.43635336  0.68624093  0.94140008  1
  Zn  Zn159  1  0.93714381  0.18806077  0.43816302  1
  Zn  Zn160  1  0.93535303  0.18119029  0.93680694  1
  Zn  Zn161  1  0.94626380  0.69246270  0.44055491  1
  Zn  Zn162  1  0.93618606  0.68707532  0.93840376  1
  Zn  Zn163  1  0.05748687  0.31351994  0.05943879  1
  Zn  Zn164  1  0.06061685  0.31270517  0.55872109  1
  Zn  Zn165  1  0.06551191  0.80453893  0.07970742  1
  Zn  Zn166  1  0.06395402  0.81114243  0.56389458  1
  Zn  Zn167  1  0.56268486  0.31579470  0.06468447  1
  Zn  Zn168  1  0.56584439  0.30492924  0.56296958  1
  Zn  Zn169  1  0.56437490  0.81627363  0.06193452  1
  Zn  Zn170  1  0.56069421  0.81085909  0.56167757  1
  O  O171  1  0.12245956  0.11897813  0.11767277  1
  O  O172  1  0.13361657  0.11093961  0.61803263  1
  O  O173  1  0.11805786  0.62078295  0.11279109  1
  O  O174  1  0.11273564  0.62612993  0.63228651  1
  O  O175  1  0.62537626  0.11094095  0.12475610  1
  O  O176  1  0.60721373  0.12679864  0.63329771  1
  O  O177  1  0.61784832  0.61175335  0.13218617  1
  O  O178  1  0.62075326  0.62011729  0.61531422  1
  O  O179  1  0.37396671  0.39004889  0.38187459  1
  O  O180  1  0.37418938  0.38241951  0.88036282  1
  O  O181  1  0.36925315  0.87047208  0.39077167  1
  O  O182  1  0.37443746  0.88338671  0.87678759  1
  O  O183  1  0.88952137  0.36737834  0.37455851  1
  O  O184  1  0.87151589  0.38399833  0.87948685  1
  O  O185  1  0.87453070  0.88534074  0.37983710  1
  O  O186  1  0.87182653  0.88897808  0.88578885  1
  O  O187  1  0.25569113  0.00550952  0.36682068  1
  O  O188  1  0.25685508  0.01274420  0.88082602  1
  O  O189  1  0.25667474  0.50829041  0.36499288  1
  O  O190  1  0.25854551  0.50444105  0.86931889  1
  O  O191  1  0.75911673  0.00352306  0.36755420  1
  O  O192  1  0.75886033  -0.00297196  0.86505940  1
  O  O193  1  0.74802152  0.51354076  0.36348466  1
  O  O194  1  0.75094247  0.50735273  0.86908536  1
  O  O195  1  0.23795803  0.49820579  0.12944582  1
  O  O196  1  0.25601964  0.49241392  0.63570403  1
  O  O197  1  0.24608091  0.99589989  0.12996105  1
  O  O198  1  0.24025768  0.98735572  0.62476458  1
  O  O199  1  0.73720348  0.50781804  0.13969587  1
  O  O200  1  0.73602115  0.50235049  0.63335174  1
  O  O201  1  0.74382771  0.99825852  0.13265270  1
  O  O202  1  0.75740772  0.98765060  0.63303911  1
  O  O203  1  0.00369560  0.36729184  0.25884718  1
  O  O204  1  0.00541419  0.38040671  0.76002896  1
  O  O205  1  0.00165270  0.87581762  0.26586109  1
  O  O206  1  -0.00637151  0.86354648  0.75005578  1
  O  O207  1  0.50867424  0.36720197  0.24769042  1
  O  O208  1  0.50919508  0.37021245  0.74992321  1
  O  O209  1  0.51135700  0.87972359  0.24812690  1
  O  O210  1  0.50710881  0.86757255  0.74928143  1
  O  O211  1  0.49234134  0.13288132  0.24522706  1
  O  O212  1  0.48735397  0.12893016  0.74249240  1
  O  O213  1  0.48902726  0.61932692  0.23656541  1
  O  O214  1  0.49190150  0.62986104  0.74217652  1
  O  O215  1  0.99486801  0.12869199  0.24679706  1
  O  O216  1  0.99007993  0.12158907  0.75064959  1
  O  O217  1  0.99540111  0.63648492  0.23869476  1
  O  O218  1  0.99274437  0.63334972  0.74326992  1
  O  O219  1  0.37695660  0.25651955  0.00783720  1
  O  O220  1  0.36929112  0.25861143  0.50216453  1
  O  O221  1  0.36644947  0.74941386  0.01169117  1
  O  O222  1  0.37603407  0.75459015  0.51101541  1
  O  O223  1  0.86993824  0.25088903  0.00543970  1
  O  O224  1  0.87613284  0.24917223  0.51391621  1
  O  O225  1  0.86268973  0.75962709  -0.01028096  1
  O  O226  1  0.87008588  0.75565889  0.50614833  1
  O  O227  1  0.13137678  0.24406468  0.49318048  1
  O  O228  1  0.12550396  0.23756670  0.99633592  1
  O  O229  1  0.11791272  0.72892939  0.50699417  1
  O  O230  1  0.12877411  0.74309579  0.99883752  1
  O  O231  1  0.62873409  0.23687933  0.49869257  1
  O  O232  1  0.63125870  0.25113568  0.99308412  1
  O  O233  1  0.63115606  0.74552972  0.48952612  1
  O  O234  1  0.63123901  0.75795641  0.98493519  1
  O  O235  1  0.49062992  0.24938077  0.13222450  1
  O  O236  1  0.49123675  0.24122983  0.63270452  1
  O  O237  1  0.49520438  0.74245797  0.11768497  1
  O  O238  1  0.49176546  0.74169522  0.63092898  1
  O  O239  1  0.99233653  0.24196557  0.12985985  1
  O  O240  1  0.98860126  0.25109218  0.62496150  1
  O  O241  1  0.98523704  0.73390652  0.12262547  1
  O  O242  1  0.99383742  0.74433548  0.63532279  1
  O  O243  1  0.00775501  0.25482246  0.36915946  1
  O  O244  1  0.01637798  0.24310311  0.87864108  1
  O  O245  1  0.00094913  0.76040510  0.36174835  1
  O  O246  1  0.00794617  0.74548611  0.86834339  1
  O  O247  1  0.50338441  0.24380095  0.36289774  1
  O  O248  1  0.50577275  0.25232102  0.86691903  1
  O  O249  1  0.51503725  0.74803111  0.37583494  1
  O  O250  1  0.50503936  0.74903687  0.86959356  1
  O  O251  1  0.24463249  0.13202737  0.49345040  1
  O  O252  1  0.24123545  0.12631737  0.99391842  1
  O  O253  1  0.23427640  0.62417846  0.49534890  1
  O  O254  1  0.24203148  0.63183445  0.99778998  1
  O  O255  1  0.75386198  0.12364952  0.49013193  1
  O  O256  1  0.74917535  0.13878939  1.00245944  1
  O  O257  1  0.74075693  0.62887414  0.48895314  1
  O  O258  1  0.75091387  0.63125365  0.98681772  1
  O  O259  1  0.26328024  0.37135251  0.00168676  1
  O  O260  1  0.25576836  0.37444946  0.50441485  1
  O  O261  1  0.25432757  0.87006868  0.01319179  1
  O  O262  1  0.26402196  0.87277192  0.51328388  1
  O  O263  1  0.76265288  0.35888476  0.00022427  1
  O  O264  1  0.75244209  0.37042362  0.50228428  1
  O  O265  1  0.75605639  0.86536592  0.00067591  1
  O  O266  1  0.75617289  0.87015316  0.50753776  1
  O  O267  1  0.13411298  0.50225145  0.24194622  1
  O  O268  1  0.13706236  0.50051201  0.76021435  1
  O  O269  1  0.13847889  1.00846551  0.24436296  1
  O  O270  1  0.12534854  1.00437391  0.73807936  1
  O  O271  1  0.63072934  0.49409216  0.24431054  1
  O  O272  1  0.62728446  0.49316352  0.74486560  1
  O  O273  1  0.63228780  0.99360101  0.24420651  1
  O  O274  1  0.63258344  0.98988906  0.75507998  1
  O  O275  1  0.36575506  0.01087690  0.24714047  1
  O  O276  1  0.37851209  0.00753137  0.76298576  1
  O  O277  1  0.37187198  0.50370134  0.25865492  1
  O  O278  1  0.36798228  0.50477015  0.75752831  1
  O  O279  1  0.86930762  0.00071485  0.25649123  1
  O  O280  1  0.87009185  0.00846722  0.75460244  1
  O  O281  1  0.86091923  0.49338684  0.24408410  1
  O  O282  1  0.86446036  0.50652840  0.75682365  1
  O  O283  1  0.11978902  0.36525745  0.37492699  1
  O  O284  1  0.12757785  0.35637879  0.88098901  1
  O  O285  1  0.11874325  0.88038455  0.37844301  1
  O  O286  1  0.12877529  0.86388492  0.88446423  1
  O  O287  1  0.62685886  0.37457673  0.36380967  1
  O  O288  1  0.62206102  0.36758519  0.86707967  1
  O  O289  1  0.63263343  0.86043734  0.36806986  1
  O  O290  1  0.62365828  0.86595258  0.86179218  1
  O  O291  1  0.37555906  0.13397462  0.13514004  1
  O  O292  1  0.37640691  0.12881480  0.63193729  1
  O  O293  1  0.38461209  0.63095355  0.12846869  1
  O  O294  1  0.37620600  0.63091205  0.62578306  1
  O  O295  1  0.88069354  0.12929513  0.13129328  1
  O  O296  1  0.87604966  0.13360662  0.63868828  1
  O  O297  1  0.88445863  0.61311515  0.11822130  1
  O  O298  1  0.87677067  0.63414457  0.63317945  1
  O  O299  1  0.26381988  0.25326249  0.12463668  1
  O  O300  1  0.25667171  0.25692886  0.61903203  1
  O  O301  1  0.25655936  0.75901836  0.12753034  1
  O  O302  1  0.25568337  0.76106266  0.62940035  1
  O  O303  1  0.76221893  0.24526461  0.12183226  1
  O  O304  1  0.76318401  0.25021008  0.62448289  1
  O  O305  1  0.74110264  0.74580224  0.11025812  1
  O  O306  1  0.75592919  0.75796035  0.62016119  1
  O  O307  1  0.24276252  0.24872114  0.37751347  1
  O  O308  1  0.24217746  0.23770568  0.87852961  1
  O  O309  1  0.23407913  0.73531743  0.33032107  1
  O  O310  1  0.24286358  0.74467030  0.88333343  1
  O  O311  1  0.75153019  0.23824073  0.37452476  1
  O  O312  1  0.74029746  0.25273010  0.88190345  1
  O  O313  1  0.74634245  0.73875068  0.37767855  1
  O  O314  1  0.74156019  0.74251438  0.87963206  1
  O  O315  1  0.00629689  0.11474195  0.00603572  1
  O  O316  1  0.01624448  0.12281089  0.49345793  1
  O  O317  1  0.00396517  0.62577445  0.01047286  1
  O  O318  1  0.00521210  0.62733406  0.51587516  1
  O  O319  1  0.50478883  0.11342931  0.00188590  1
  O  O320  1  0.49560565  0.12387628  0.51785950  1
  O  O321  1  0.49852067  0.61964972  0.01217686  1
  O  O322  1  0.51322428  0.63000886  0.50417032  1
  O  O323  1  0.48695507  0.37117221  0.50840696  1
  O  O324  1  0.48865305  0.37950080  0.99802833  1
  O  O325  1  0.47872310  0.87472861  0.51478239  1
  O  O326  1  0.49857342  0.88792968  0.99621056  1
  O  O327  1  1.00068799  0.37655320  0.48396092  1
  O  O328  1  0.98320029  0.36842938  0.99040704  1
  O  O329  1  0.99544749  0.87065053  0.48593217  1
  O  O330  1  0.99576617  0.88385017  1.00940890  1
  O  O331  1  0.48688829  0.50582285  0.37133151  1
  O  O332  1  0.48707975  0.49986815  0.87569794  1
  O  O333  1  0.49204223  1.00509274  0.37926143  1
  O  O334  1  0.49200796  0.99914660  0.88079644  1
  O  O335  1  1.00348041  0.48533759  0.36733958  1
  O  O336  1  0.98413020  0.50634005  0.87529300  1
  O  O337  1  0.99552326  0.98870894  0.37695776  1
  O  O338  1  0.99177350  1.00103051  0.88636658  1
  O  O339  1  0.00683570  0.00403698  0.12181576  1
  O  O340  1  0.01855509  -0.00886053  0.62151079  1
  O  O341  1  0.01280831  0.51271367  0.13398249  1
  O  O342  1  -0.00425274  0.51763983  0.63217685  1
  O  O343  1  0.50786531  0.00175409  0.11615215  1
  O  O344  1  0.49279192  0.01297462  0.62813442  1
  O  O345  1  0.51315982  0.50633150  0.12208410  1
  O  O346  1  0.51211150  0.50757211  0.63018987  1
  O  O347  1  0.24831226  0.38856226  0.24669568  1
  O  O348  1  0.24594163  0.38341391  0.74129659  1
  O  O349  1  0.25846028  0.88739775  0.23810691  1
  O  O350  1  0.25195928  0.87476957  0.73706932  1
  O  O351  1  0.74315960  0.38977234  0.25432091  1
  O  O352  1  0.73722512  0.38096608  0.74863686  1
  O  O353  1  0.74538129  0.88466732  0.24922292  1
  O  O354  1  0.74406313  0.88125159  0.74348821  1
  O  O355  1  0.25771477  0.12077111  0.25480240  1
  O  O356  1  0.26155592  0.12774404  0.75697225  1
  O  O357  1  0.26731351  0.61128251  0.23606621  1
  O  O358  1  0.25412319  0.61925750  0.75566034  1
  O  O359  1  0.75678665  0.11272956  0.25478199  1
  O  O360  1  0.75254894  0.11215234  0.74552355  1
  O  O361  1  0.75173451  0.61658088  0.26268914  1
  O  O362  1  0.75330690  0.62233185  0.75853143  1
  O  O363  1  0.36817381  0.12978423  0.36237253  1
  O  O364  1  0.36854933  0.12091291  0.86898090  1
  O  O365  1  0.37511721  0.61857259  0.36717966  1
  O  O366  1  0.36720861  0.61884670  0.87131516  1
  O  O367  1  0.87162785  0.11309261  0.37017151  1
  O  O368  1  0.87667144  0.11502107  0.86146885  1
  O  O369  1  0.86510287  0.63118745  0.38004333  1
  O  O370  1  0.86512470  0.61914473  0.86950094  1
  O  O371  1  0.12317214  0.38395512  0.12362378  1
  O  O372  1  0.13866470  0.37002200  0.62179597  1
  O  O373  1  0.13592360  0.88783233  0.11901579  1
  O  O374  1  0.13671196  0.88364159  0.62021723  1
  O  O375  1  0.62227464  0.38865316  0.13593461  1
  O  O376  1  0.62404868  0.38221038  0.63188367  1
  O  O377  1  0.62904612  0.88428119  0.13317608  1
  O  O378  1  0.63426273  0.86513629  0.63698072  1
  O  O379  1  0.12068808  0.25070815  0.25771996  1
  O  O380  1  0.13058992  0.24983722  0.76298993  1
  O  O381  1  0.09350409  0.76126331  0.21844066  1
  O  O382  1  0.11495309  0.74742722  0.76492664  1
  O  O383  1  0.61836996  0.25967681  0.24815091  1
  O  O384  1  0.62052619  0.25716771  0.75547156  1
  O  O385  1  0.63008038  0.75722694  0.26133580  1
  O  O386  1  0.61880601  0.75439670  0.75803976  1
  O  O387  1  0.38162032  0.24821561  0.24497901  1
  O  O388  1  0.37778701  0.24377727  0.74539958  1
  O  O389  1  0.37866702  0.74213735  0.23687598  1
  O  O390  1  0.37840620  0.74318329  0.74188478  1
  O  O391  1  0.87889112  0.24435250  0.24213932  1
  O  O392  1  0.87346461  0.23628068  0.74549952  1
  O  O393  1  0.89386607  0.76741556  0.24173398  1
  O  O394  1  0.87901580  0.74599128  0.74877532  1
  O  O395  1  0.37245287  0.49659869  0.48607583  1
  O  O396  1  0.37339776  0.49425108  0.99180473  1
  O  O397  1  0.37390496  0.98656387  0.49929544  1
  O  O398  1  0.38249030  1.00183317  0.98981435  1
  O  O399  1  0.88409598  0.49648172  0.50479598  1
  O  O400  1  0.86348724  0.48850401  0.98986876  1
  O  O401  1  0.88144558  0.99436474  0.49370490  1
  O  O402  1  0.88142594  0.99769228  0.99189384  1
  O  O403  1  0.11836872  0.00916427  0.00405606  1
  O  O404  1  0.12783015  0.00837548  0.50664852  1
  O  O405  1  0.12851990  0.50855293  0.00629987  1
  O  O406  1  0.11534092  0.51851466  0.49940667  1
  O  O407  1  0.62100869  -0.00132347  0.00532869  1
  O  O408  1  0.62367797  0.00350371  0.50365843  1
  O  O409  1  0.63057718  0.49075199  0.01564434  1
  O  O410  1  0.62828106  0.50912672  0.50663026  1
  O  O411  1  0.37522284  0.37066368  0.11805871  1
  O  O412  1  0.36595957  0.37133312  0.61793178  1
  O  O413  1  0.37104946  0.86781720  0.12283218  1
  O  O414  1  0.36340689  0.86796394  0.62302533  1
  O  O415  1  0.88217385  0.36408765  0.11656086  1
  O  O416  1  0.87309528  0.36013604  0.62904975  1
  O  O417  1  0.86999366  0.88334869  0.10742797  1
  O  O418  1  0.86884785  0.86954670  0.62033209  1
  O  O419  1  0.13145738  0.13556424  0.38055247  1
  O  O420  1  0.13122484  0.13042252  0.88036413  1
  O  O421  1  0.11862787  0.62707976  0.38219180  1
  O  O422  1  0.12878006  0.63069244  0.88816861  1
  O  O423  1  0.64102455  0.12469095  0.36834100  1
  O  O424  1  0.61976147  0.13799896  0.87326045  1
  O  O425  1  0.62984665  0.63476505  0.37802266  1
  O  O426  1  0.63164463  0.63299104  0.86921934  1
