# generated using pymatgen
data_V85Zn86O256
_symmetry_space_group_name_H-M   'P 1'
_cell_length_a   16.92229905
_cell_length_b   16.92207089
_cell_length_c   16.92209208
_cell_angle_alpha   90.04724379
_cell_angle_beta   89.98604023
_cell_angle_gamma   89.96598007
_symmetry_Int_Tables_number   1
_chemical_formula_structural   V85Zn86O256
_chemical_formula_sum   'V85 Zn86 O256'
_cell_volume   4845.81346325
_cell_formula_units_Z   1
loop_
 _symmetry_equiv_pos_site_id
 _symmetry_equiv_pos_as_xyz
  1  'x, y, z'
loop_
 _atom_site_type_symbol
 _atom_site_label
 _atom_site_symmetry_multiplicity
 _atom_site_fract_x
 _atom_site_fract_y
 _atom_site_fract_z
 _atom_site_occupancy
  V  V0  1  0.37966640  0.25084125  0.13719706  1
  V  V1  1  -0.00400140  0.12354092  0.11779903  1
  V  V2  1  0.25072138  -0.00143694  0.74903778  1
  V  V3  1  0.49821003  0.36730659  0.87373107  1
  V  V4  1  0.74633106  0.63069513  0.87178397  1
  V  V5  1  0.24877043  0.74985479  0.48871551  1
  V  V6  1  0.25299573  0.49685097  0.74704759  1
  V  V7  1  0.86431502  0.37142884  0.00206178  1
  V  V8  1  0.11576062  0.00223338  0.62347588  1
  V  V9  1  0.36682287  0.62708587  0.25478768  1
  V  V10  1  0.24917869  0.24843488  0.00286585  1
  V  V11  1  0.12307559  0.12923316  0.50307102  1
  V  V12  1  0.87119410  0.87872532  0.50227528  1
  V  V13  1  0.62500839  0.48643797  0.62530959  1
  V  V14  1  0.00711735  0.24348757  0.74328002  1
  V  V15  1  0.12057672  0.51014796  0.12542659  1
  V  V16  1  -0.00232984  0.50399202  0.00234952  1
  V  V17  1  0.87263405  0.49954102  0.37184186  1
  V  V18  1  0.74546666  0.49902865  0.74530385  1
  V  V19  1  0.50364006  0.74844049  0.25588106  1
  V  V20  1  0.50609294  0.86051368  0.87272663  1
  V  V21  1  0.62296321  0.62644418  0.49522519  1
  V  V22  1  0.61661413  0.24909885  0.39065271  1
  V  V23  1  0.50349173  0.12610621  0.13480453  1
  V  V24  1  0.12836358  0.37510916  0.74528222  1
  V  V25  1  0.37748238  -0.00043183  0.87618426  1
  V  V26  1  0.13162361  0.50085638  0.62307061  1
  V  V27  1  0.24844184  0.37609687  0.12665938  1
  V  V28  1  0.12227020  0.37574850  0.24917471  1
  V  V29  1  0.12628858  0.24985298  0.87684342  1
  V  V30  1  0.38380284  0.00191184  0.37984108  1
  V  V31  1  -0.00550566  0.24785738  0.24968153  1
  V  V32  1  0.75072725  0.75110686  -0.00107267  1
  V  V33  1  0.87620500  0.62378493  0.74904429  1
  V  V34  1  0.50011240  0.11939679  0.60966441  1
  V  V35  1  0.75468980  0.87103586  0.12896464  1
  V  V36  1  0.49996189  0.25006971  0.74745374  1
  V  V37  1  0.74841062  0.75075608  0.50440458  1
  V  V38  1  0.37693062  0.75103642  0.12663545  1
  V  V39  1  0.63203778  -0.00384601  0.12314530  1
  V  V40  1  0.25117855  0.12317337  0.87786988  1
  V  V41  1  0.87396851  0.25919225  0.62419105  1
  V  V42  1  0.86098967  0.11349900  0.26321344  1
  V  V43  1  0.62887750  0.49530113  0.12721393  1
  V  V44  1  0.24940730  0.74847550  0.00023513  1
  V  V45  1  0.37452284  0.37351157  0.00253015  1
  V  V46  1  0.74745356  0.62940113  0.37160918  1
  V  V47  1  0.88000581  0.12141832  0.74384860  1
  V  V48  1  0.12874044  0.63003067  0.48604075  1
  V  V49  1  0.87580811  0.62921940  0.23648953  1
  V  V50  1  0.25046957  0.87426883  0.62381016  1
  V  V51  1  0.74719488  -0.00260154  0.74503802  1
  V  V52  1  0.86023222  0.25240143  0.12575125  1
  V  V53  1  0.67183113  0.31427329  0.80465375  1
  V  V54  1  0.62202493  -0.00293822  0.61901374  1
  V  V55  1  -0.00025954  0.50168859  0.49831212  1
  V  V56  1  0.87358341  0.00368836  0.88101147  1
  V  V57  1  0.62934491  0.86946343  0.25299209  1
  V  V58  1  0.00065078  0.75116879  0.75056092  1
  V  V59  1  -0.00114105  0.74706622  0.23095071  1
  V  V60  1  0.12480699  0.87432479  0.75061704  1
  V  V61  1  -0.00032236  0.87988951  0.87901001  1
  V  V62  1  0.62717214  0.86065633  0.74955255  1
  V  V63  1  0.49839642  0.49804445  0.49906524  1
  V  V64  1  0.38182607  0.62822233  0.75096324  1
  V  V65  1  0.63183561  0.13940165  -0.00530001  1
  V  V66  1  0.50402512  0.00130356  -0.00175758  1
  V  V67  1  0.37799459  0.87611398  0.00259008  1
  V  V68  1  0.62362092  0.36166498  0.24853011  1
  V  V69  1  0.50355944  0.87458141  0.38232392  1
  V  V70  1  0.12256256  0.00109313  0.12211313  1
  V  V71  1  0.87687710  0.87458740  0.00427032  1
  V  V72  1  0.62243928  0.62762568  -0.00294351  1
  V  V73  1  0.38006687  0.75083984  0.62792364  1
  V  V74  1  0.25020738  0.12519638  0.37597067  1
  V  V75  1  0.12730596  0.25107865  0.37862153  1
  V  V76  1  -0.00312644  0.00271582  0.48728044  1
  V  V77  1  0.36308371  0.25221608  0.61969298  1
  V  V78  1  0.37760702  0.12376457  0.74955425  1
  V  V79  1  0.12521988  0.87458959  0.25628449  1
  V  V80  1  -0.00291785  0.86172228  0.37614189  1
  V  V81  1  0.36577731  0.50507434  0.37640620  1
  V  V82  1  0.00313617  0.62742653  0.62525575  1
  V  V83  1  0.35889258  0.37426019  0.50270178  1
  V  V84  1  0.37383921  0.49873750  0.87651745  1
  Zn  Zn85  1  0.50399757  0.62703041  0.62914555  1
  Zn  Zn86  1  0.74713676  0.25875271  0.50035274  1
  Zn  Zn87  1  0.25080751  0.87933287  0.12811810  1
  Zn  Zn88  1  0.38005268  0.87910999  0.50283997  1
  Zn  Zn89  1  0.69586527  0.09474712  0.44380225  1
  Zn  Zn90  1  -0.00474224  0.37362363  0.37669106  1
  Zn  Zn91  1  0.87662863  0.49832960  0.87497843  1
  Zn  Zn92  1  0.75146650  0.49736077  0.24532474  1
  Zn  Zn93  1  0.86779720  0.38405630  0.50763980  1
  Zn  Zn94  1  0.24412786  0.50761171  0.25350177  1
  Zn  Zn95  1  0.50015028  0.49944870  0.00063344  1
  Zn  Zn96  1  0.11550082  0.63095740  0.00136789  1
  Zn  Zn97  1  0.12583284  0.74929351  0.87654169  1
  Zn  Zn98  1  0.12024988  0.12020939  -0.00059082  1
  Zn  Zn99  1  0.24721171  0.62605853  0.87613259  1
  Zn  Zn100  1  0.87206055  0.75585935  0.62688216  1
  Zn  Zn101  1  0.25192549  0.00087786  0.25090140  1
  Zn  Zn102  1  0.74583328  0.13292875  0.87147910  1
  Zn  Zn103  1  0.50027647  0.62304971  0.12534457  1
  Zn  Zn104  1  0.38224106  0.12605765  0.25566930  1
  Zn  Zn105  1  0.49222315  0.37589628  0.36505189  1
  Zn  Zn106  1  0.00389886  0.37581976  0.87878234  1
  Zn  Zn107  1  0.18632853  0.18660389  0.19056069  1
  Zn  Zn108  1  0.18801270  0.18258939  0.68733413  1
  Zn  Zn109  1  0.18694926  0.69387286  0.18867484  1
  Zn  Zn110  1  0.19162592  0.68650967  0.68655916  1
  Zn  Zn111  1  0.68617809  0.18423716  0.18761222  1
  Zn  Zn112  1  0.70323359  0.16800432  0.65531705  1
  Zn  Zn113  1  0.68963851  0.68689948  0.18214857  1
  Zn  Zn114  1  0.68638538  0.68170747  0.67990826  1
  Zn  Zn115  1  0.30806019  0.31519419  0.31611882  1
  Zn  Zn116  1  0.31233307  0.31173749  0.80922699  1
  Zn  Zn117  1  0.31585337  0.81789225  0.31242887  1
  Zn  Zn118  1  0.31525325  0.81292994  0.81457533  1
  Zn  Zn119  1  0.80156584  0.31221860  0.31568618  1
  Zn  Zn120  1  0.83161880  0.31391701  0.81108475  1
  Zn  Zn121  1  0.81605789  0.81144063  0.31606451  1
  Zn  Zn122  1  0.81124961  0.81285483  0.81285563  1
  Zn  Zn123  1  0.18539004  0.43881643  0.43528543  1
  Zn  Zn124  1  0.18594091  0.43837827  0.93862458  1
  Zn  Zn125  1  0.18839555  0.93901655  0.43567736  1
  Zn  Zn126  1  0.18831000  0.93547188  0.94123868  1
  Zn  Zn127  1  0.68869534  0.43350786  0.43420980  1
  Zn  Zn128  1  0.68976777  0.44564394  0.93809648  1
  Zn  Zn129  1  0.68985134  0.92629085  0.43138562  1
  Zn  Zn130  1  0.68879038  0.93805839  0.93298812  1
  Zn  Zn131  1  0.31296677  0.06383287  0.06723746  1
  Zn  Zn132  1  0.31032354  0.06344815  0.55865952  1
  Zn  Zn133  1  0.31084414  0.56358879  0.06628165  1
  Zn  Zn134  1  0.31210412  0.56729578  0.56180035  1
  Zn  Zn135  1  0.81023719  0.06432052  0.06423380  1
  Zn  Zn136  1  0.81915142  0.06312847  0.56704614  1
  Zn  Zn137  1  0.81058730  0.56031452  0.06008339  1
  Zn  Zn138  1  0.81012487  0.56290840  0.56376543  1
  Zn  Zn139  1  0.44060687  0.44277672  0.18773003  1
  Zn  Zn140  1  0.43931312  0.43503238  0.68468065  1
  Zn  Zn141  1  0.44099044  0.94043392  0.19260777  1
  Zn  Zn142  1  0.44240208  0.93459268  0.68950553  1
  Zn  Zn143  1  0.93643977  0.43700154  0.18533090  1
  Zn  Zn144  1  0.94495708  0.43947668  0.69165314  1
  Zn  Zn145  1  0.93781922  0.94012563  0.18951026  1
  Zn  Zn146  1  0.93694297  0.93761079  0.68541704  1
  Zn  Zn147  1  0.05880043  0.06315627  0.30902240  1
  Zn  Zn148  1  0.06267337  0.06086294  0.81518357  1
  Zn  Zn149  1  0.05777461  0.56614753  0.31001202  1
  Zn  Zn150  1  0.06390298  0.56331313  0.81847253  1
  Zn  Zn151  1  0.58757376  0.04776945  0.32124516  1
  Zn  Zn152  1  0.56551108  0.06205811  0.81147384  1
  Zn  Zn153  1  0.55802043  0.56162387  0.31277117  1
  Zn  Zn154  1  0.56210407  0.55900660  0.81377786  1
  Zn  Zn155  1  0.43901730  0.19467084  0.43408510  1
  Zn  Zn156  1  0.43995451  0.18735211  0.94237722  1
  Zn  Zn157  1  0.43560469  0.68842447  0.43839242  1
  Zn  Zn158  1  0.43521029  0.68493846  0.93865134  1
  Zn  Zn159  1  0.93833955  0.18651416  0.43776092  1
  Zn  Zn160  1  0.93665899  0.19023965  0.93591327  1
  Zn  Zn161  1  0.93306529  0.68633508  0.43578498  1
  Zn  Zn162  1  0.93557487  0.68927763  0.93724528  1
  Zn  Zn163  1  0.05736873  0.31466597  0.06356201  1
  Zn  Zn164  1  0.06080123  0.31574787  0.56308580  1
  Zn  Zn165  1  0.06398015  0.81893384  0.06277937  1
  Zn  Zn166  1  0.06278270  0.81318341  0.56139415  1
  Zn  Zn167  1  0.56111550  0.31455644  0.06544067  1
  Zn  Zn168  1  0.54944541  0.31565679  0.56460201  1
  Zn  Zn169  1  0.56463557  0.80974055  0.06228294  1
  Zn  Zn170  1  0.56671871  0.80977207  0.56560853  1
  O  O171  1  0.11513514  0.11954151  0.12647943  1
  O  O172  1  0.13034143  0.11490821  0.61567795  1
  O  O173  1  0.13046918  0.61327747  0.12418473  1
  O  O174  1  0.12064481  0.61835901  0.61953878  1
  O  O175  1  0.62224929  0.11597667  0.11479145  1
  O  O176  1  0.60671390  0.11397475  0.63106326  1
  O  O177  1  0.62443492  0.61752315  0.11289891  1
  O  O178  1  0.62266116  0.61469892  0.61084257  1
  O  O179  1  0.37300492  0.38322010  0.38269217  1
  O  O180  1  0.37999014  0.37883401  0.87967884  1
  O  O181  1  0.38609080  0.88345226  0.37670810  1
  O  O182  1  0.38459001  0.88191130  0.88096532  1
  O  O183  1  0.87516870  0.38925196  0.37106433  1
  O  O184  1  0.88193761  0.37569148  0.88947682  1
  O  O185  1  0.88433762  0.87371532  0.38720576  1
  O  O186  1  0.87943424  0.88282736  0.88224500  1
  O  O187  1  0.25741988  0.00861458  0.37271642  1
  O  O188  1  0.25604631  0.00275447  0.87092721  1
  O  O189  1  0.26041279  0.50003050  0.37252403  1
  O  O190  1  0.26106081  0.49858342  0.86873360  1
  O  O191  1  0.69326956  0.01612266  0.36762478  1
  O  O192  1  0.75813790  0.00261316  0.86360146  1
  O  O193  1  0.75682234  0.51164114  0.37157038  1
  O  O194  1  0.75214979  0.51098299  0.86304766  1
  O  O195  1  0.24145640  0.49172144  0.12796513  1
  O  O196  1  0.23918402  0.50523731  0.63091407  1
  O  O197  1  0.24121306  1.00052546  0.13094914  1
  O  O198  1  0.24344411  0.99220028  0.62812118  1
  O  O199  1  0.73363580  0.50272837  0.12439989  1
  O  O200  1  0.74347146  0.50191150  0.63703724  1
  O  O201  1  0.74298444  0.98545610  0.11770368  1
  O  O202  1  0.74337174  1.00211114  0.63825808  1
  O  O203  1  0.00725994  0.36534451  0.24933134  1
  O  O204  1  0.01213637  0.36725976  0.75529015  1
  O  O205  1  0.00125782  0.86453116  0.25577989  1
  O  O206  1  0.00415492  0.87031928  0.75566223  1
  O  O207  1  0.51772448  0.38451220  0.24889670  1
  O  O208  1  0.49479696  0.35976989  0.75599188  1
  O  O209  1  0.50782154  0.86602347  0.25510223  1
  O  O210  1  0.51289267  0.87782818  0.76179766  1
  O  O211  1  0.50685048  0.11535902  0.23577611  1
  O  O212  1  0.49438506  0.13534746  0.75114765  1
  O  O213  1  0.49020849  0.63343066  0.24853494  1
  O  O214  1  0.48616664  0.61959434  0.75071827  1
  O  O215  1  0.99074456  0.13584749  0.24357385  1
  O  O216  1  0.99502310  0.13197886  0.75534159  1
  O  O217  1  0.99388783  0.63994842  0.24974999  1
  O  O218  1  0.99398900  0.62985962  0.74820405  1
  O  O219  1  0.36833863  0.25473134  0.01002406  1
  O  O220  1  0.37726856  0.26147087  0.50732079  1
  O  O221  1  0.37126652  0.75490600  0.00859778  1
  O  O222  1  0.36340287  0.75180258  0.50807355  1
  O  O223  1  0.87918988  0.26156058  0.01042695  1
  O  O224  1  0.88439317  0.25101588  0.51780944  1
  O  O225  1  0.86201211  0.76020296  -0.00683818  1
  O  O226  1  0.86809085  0.75633024  0.50222499  1
  O  O227  1  0.11579490  0.24269773  0.49182608  1
  O  O228  1  0.13090551  0.25059932  0.99404836  1
  O  O229  1  0.13837135  0.74403244  0.50491575  1
  O  O230  1  0.13486159  0.75132065  1.00242732  1
  O  O231  1  0.61983469  0.25927606  0.49379584  1
  O  O232  1  0.62249714  0.23768806  1.00366681  1
  O  O233  1  0.63298878  0.73892429  0.50289648  1
  O  O234  1  0.63791885  0.74141450  1.00298300  1
  O  O235  1  0.49063820  0.24011785  0.12022747  1
  O  O236  1  0.49208121  0.23750461  0.63122437  1
  O  O237  1  0.48947393  0.74991650  0.13172837  1
  O  O238  1  0.48453281  0.74753256  0.61983344  1
  O  O239  1  0.99322937  0.24350065  0.13368010  1
  O  O240  1  0.99833326  0.25109254  0.63822492  1
  O  O241  1  0.99675258  0.75334739  0.13259937  1
  O  O242  1  0.99966688  0.74423718  0.63288558  1
  O  O243  1  0.00740985  0.25207899  0.36654521  1
  O  O244  1  0.01135534  0.25024117  0.86595565  1
  O  O245  1  0.00112805  0.75951792  0.37456352  1
  O  O246  1  -0.00039531  0.76217538  0.86817641  1
  O  O247  1  0.50922664  0.26130978  0.37421378  1
  O  O248  1  0.49457838  0.25943638  0.86766069  1
  O  O249  1  0.49248488  0.75681017  0.36226953  1
  O  O250  1  0.49640511  0.76182063  0.87970852  1
  O  O251  1  0.23565849  0.12152775  0.48816447  1
  O  O252  1  0.24876095  0.13209475  0.99568176  1
  O  O253  1  0.24284708  0.64034729  0.50374589  1
  O  O254  1  0.25239695  0.63931871  1.00080495  1
  O  O255  1  0.74430268  0.14294186  0.52973793  1
  O  O256  1  0.73623127  0.12403738  0.99583476  1
  O  O257  1  0.74299632  0.62813460  0.49260371  1
  O  O258  1  0.74667670  0.63087457  0.99096278  1
  O  O259  1  0.25467381  0.36896957  0.00662755  1
  O  O260  1  0.25906194  0.38143804  0.50165073  1
  O  O261  1  0.25932438  0.86558774  0.00333273  1
  O  O262  1  0.24924988  0.86636674  0.50687412  1
  O  O263  1  0.76522418  0.37914454  -0.00479592  1
  O  O264  1  0.75631206  0.37277370  0.49861028  1
  O  O265  1  0.75552897  0.86806802  0.00212442  1
  O  O266  1  0.75825274  0.86373542  0.49375878  1
  O  O267  1  0.12184239  0.49364791  0.24405270  1
  O  O268  1  0.13179397  0.49471275  0.74474046  1
  O  O269  1  0.12409740  0.99300248  0.24207979  1
  O  O270  1  0.12962301  0.99567196  0.74191941  1
  O  O271  1  0.62560630  0.50418270  0.23600766  1
  O  O272  1  0.63332898  0.50631918  0.73973605  1
  O  O273  1  0.61616476  0.98318204  0.22831079  1
  O  O274  1  0.63241603  0.99387274  0.74511631  1
  O  O275  1  0.37389102  0.00379794  0.26289110  1
  O  O276  1  0.37112597  0.00372123  0.75616513  1
  O  O277  1  0.37242107  0.50947989  0.25719789  1
  O  O278  1  0.36928166  0.50235051  0.75482878  1
  O  O279  1  0.87856072  0.01476408  0.25174134  1
  O  O280  1  0.87059626  0.00446611  0.75581876  1
  O  O281  1  0.87496272  0.50832097  0.25456452  1
  O  O282  1  0.86843850  0.50588650  0.75044481  1
  O  O283  1  0.12086444  0.36940756  0.36759789  1
  O  O284  1  0.12874817  0.36814860  0.86352701  1
  O  O285  1  0.11622913  0.88039172  0.36297211  1
  O  O286  1  0.11622048  0.87630475  0.87018843  1
  O  O287  1  0.61815354  0.36989150  0.36246118  1
  O  O288  1  0.61827039  0.37379787  0.87337738  1
  O  O289  1  0.61837706  0.86582678  0.35968649  1
  O  O290  1  0.61812271  0.87668705  0.86303894  1
  O  O291  1  0.38482982  0.13300740  0.12889219  1
  O  O292  1  0.38330266  0.12719764  0.62878543  1
  O  O293  1  0.37812179  0.63368284  0.13216936  1
  O  O294  1  0.37557967  0.63277358  0.63378946  1
  O  O295  1  0.87908736  0.13548037  0.12888379  1
  O  O296  1  0.88018291  0.13482374  0.63919867  1
  O  O297  1  0.86790007  0.62269712  0.13721618  1
  O  O298  1  0.88251533  0.62433825  0.63639256  1
  O  O299  1  0.25585056  0.25531849  0.12222416  1
  O  O300  1  0.26398243  0.24304482  0.62857719  1
  O  O301  1  0.26191933  0.75449674  0.12045331  1
  O  O302  1  0.25831178  0.75869799  0.62082281  1
  O  O303  1  0.76171181  0.24830887  0.12471126  1
  O  O304  1  0.77227471  0.25783256  0.63613995  1
  O  O305  1  0.75067511  0.76214906  0.11455241  1
  O  O306  1  0.75450477  0.74249031  0.60969989  1
  O  O307  1  0.23471833  0.24457148  0.37259820  1
  O  O308  1  0.24473577  0.24433785  0.87952800  1
  O  O309  1  0.25477497  0.75628221  0.39014886  1
  O  O310  1  0.24980211  0.75052105  0.88589418  1
  O  O311  1  0.72620755  0.25158902  0.37767970  1
  O  O312  1  0.73757555  0.25567905  0.85706013  1
  O  O313  1  0.75584608  0.73567672  0.38476560  1
  O  O314  1  0.75079213  0.73734702  0.87845918  1
  O  O315  1  -0.00032652  0.13040800  0.01312688  1
  O  O316  1  0.01190445  0.11553558  0.49437155  1
  O  O317  1  -0.00499211  0.61096481  -0.00280105  1
  O  O318  1  0.00662632  0.61846351  0.50369879  1
  O  O319  1  0.51037604  0.11757071  0.00592706  1
  O  O320  1  0.49473115  0.12551849  0.51171843  1
  O  O321  1  0.50911203  0.62287862  0.00022558  1
  O  O322  1  0.50558438  0.61626419  0.49922001  1
  O  O323  1  0.48787273  0.38986600  0.49890730  1
  O  O324  1  0.49294278  0.37475102  0.99090326  1
  O  O325  1  0.50268617  0.86556032  0.48567705  1
  O  O326  1  0.49837629  0.88192298  0.99462554  1
  O  O327  1  0.99730276  0.39107427  0.49866838  1
  O  O328  1  0.99219937  0.38557186  0.99992995  1
  O  O329  1  0.99632995  0.88044028  0.49213609  1
  O  O330  1  0.98983854  0.87123887  0.99110854  1
  O  O331  1  0.48671050  0.49893384  0.38218014  1
  O  O332  1  0.48884527  0.48665343  0.87328543  1
  O  O333  1  0.49656282  0.98777948  0.37032173  1
  O  O334  1  0.49750346  0.99615401  0.88571528  1
  O  O335  1  0.99206916  0.50129028  0.38234626  1
  O  O336  1  0.99786294  0.49599476  0.88471539  1
  O  O337  1  1.00460714  0.99054546  0.38413710  1
  O  O338  1  0.99043258  0.98828711  0.87039222  1
  O  O339  1  0.00737832  0.01225179  0.13051748  1
  O  O340  1  0.01230638  -0.00524752  0.61588502  1
  O  O341  1  0.00976106  0.49561984  0.11752936  1
  O  O342  1  0.01138809  0.50645483  0.61944325  1
  O  O343  1  0.50505244  0.00457299  0.11275093  1
  O  O344  1  0.50354387  0.01199736  0.62899008  1
  O  O345  1  0.51207475  0.50388572  0.12000084  1
  O  O346  1  0.50540017  0.50400609  0.61781930  1
  O  O347  1  0.23534790  0.37633269  0.24595958  1
  O  O348  1  0.24560612  0.38798637  0.75100927  1
  O  O349  1  0.23901504  0.87525588  0.24936720  1
  O  O350  1  0.24527821  0.88035189  0.74507357  1
  O  O351  1  0.72993682  0.38110391  0.25255311  1
  O  O352  1  0.74137853  0.37859534  0.75999498  1
  O  O353  1  0.74344310  0.86447818  0.24199741  1
  O  O354  1  0.73673280  0.88078453  0.75540531  1
  O  O355  1  0.25107760  0.12538659  0.26458513  1
  O  O356  1  0.25688289  0.11683284  0.75717130  1
  O  O357  1  0.26198226  0.62817312  0.24678313  1
  O  O358  1  0.25882413  0.61232761  0.75196537  1
  O  O359  1  0.76228656  0.12388303  0.24481555  1
  O  O360  1  0.75936248  0.11647142  0.74991779  1
  O  O361  1  0.75699644  0.62721073  0.25594313  1
  O  O362  1  0.75572522  0.61917887  0.75299789  1
  O  O363  1  0.36887705  0.12261259  0.37597766  1
  O  O364  1  0.37144907  0.11923594  0.87184315  1
  O  O365  1  0.37704825  0.61842277  0.36710166  1
  O  O366  1  0.37251100  0.61493416  0.86967603  1
  O  O367  1  0.87215247  0.13229710  0.36266152  1
  O  O368  1  0.87188920  0.12022227  0.86726345  1
  O  O369  1  0.86882103  0.61617688  0.36676468  1
  O  O370  1  0.86783954  0.62369700  0.86269049  1
  O  O371  1  0.12859855  0.38028223  0.13297790  1
  O  O372  1  0.12241406  0.38374918  0.63667722  1
  O  O373  1  0.12374104  0.88466041  0.13646885  1
  O  O374  1  0.13092092  0.88214392  0.63021929  1
  O  O375  1  0.62234670  0.38567613  0.13243551  1
  O  O376  1  0.61634297  0.38699744  0.62570752  1
  O  O377  1  0.63451811  0.87785051  0.12763267  1
  O  O378  1  0.61441658  0.88207970  0.64173721  1
  O  O379  1  0.11533796  0.25635020  0.25576476  1
  O  O380  1  0.12504934  0.25549099  0.75365919  1
  O  O381  1  0.10988130  0.75828521  0.24499639  1
  O  O382  1  0.12012235  0.75690147  0.75073487  1
  O  O383  1  0.62252515  0.25990064  0.24678367  1
  O  O384  1  0.61939430  0.25207214  0.74208685  1
  O  O385  1  0.61344284  0.75569849  0.23817790  1
  O  O386  1  0.63017636  0.76127425  0.74308577  1
  O  O387  1  0.37161176  0.25035947  0.24062713  1
  O  O388  1  0.38117213  0.24352652  0.74245017  1
  O  O389  1  0.38049803  0.74657071  0.24402922  1
  O  O390  1  0.36782350  0.73977799  0.74248074  1
  O  O391  1  0.87739612  0.25006535  0.24100491  1
  O  O392  1  0.88868281  0.24298777  0.74392908  1
  O  O393  1  0.88962809  0.74384194  0.25369147  1
  O  O394  1  0.88093722  0.74340506  0.74807395  1
  O  O395  1  0.37791552  0.49837771  0.49530571  1
  O  O396  1  0.37452110  0.49384295  0.99249153  1
  O  O397  1  0.37136921  0.99746984  0.48598423  1
  O  O398  1  0.38345337  0.99662252  0.99727490  1
  O  O399  1  0.88352985  0.50514885  0.49302810  1
  O  O400  1  0.87983604  0.48885077  1.00183440  1
  O  O401  1  0.88519001  0.99472094  0.50380911  1
  O  O402  1  0.86793898  0.99472876  0.98705043  1
  O  O403  1  0.12806519  -0.00041826  0.01606108  1
  O  O404  1  0.11814388  0.00567855  0.50520923  1
  O  O405  1  0.11715465  0.50069816  0.00862944  1
  O  O406  1  0.12083083  0.50692221  0.50635026  1
  O  O407  1  0.61920620  0.00085963  0.00642436  1
  O  O408  1  0.63363737  -0.00958980  0.51931768  1
  O  O409  1  0.62351107  0.50578731  0.00929986  1
  O  O410  1  0.61586902  0.50287964  0.50376442  1
  O  O411  1  0.37085020  0.36974107  0.12326190  1
  O  O412  1  0.37807624  0.36430645  0.61662168  1
  O  O413  1  0.37676199  0.86932096  0.12094808  1
  O  O414  1  0.36981002  0.86992038  0.62467795  1
  O  O415  1  0.87637935  0.36286784  0.11646074  1
  O  O416  1  0.88616291  0.36271389  0.62870182  1
  O  O417  1  0.87023179  0.88291004  0.11251171  1
  O  O418  1  0.88074658  0.87342729  0.60898523  1
  O  O419  1  0.12891142  0.13192632  0.37934003  1
  O  O420  1  0.13245996  0.12971806  0.87822064  1
  O  O421  1  0.12446984  0.61998585  0.38705505  1
  O  O422  1  0.12955776  0.63012145  0.88207713  1
  O  O423  1  0.60700339  0.14681608  0.38068189  1
  O  O424  1  0.62505060  0.12276431  0.89008866  1
  O  O425  1  0.63208142  0.61760871  0.38541254  1
  O  O426  1  0.63190995  0.61741024  0.88659895  1
