# generated using pymatgen
data_V85Zn86O256
_symmetry_space_group_name_H-M   'P 1'
_cell_length_a   16.96833407
_cell_length_b   16.98478703
_cell_length_c   16.97868689
_cell_angle_alpha   89.99979049
_cell_angle_beta   89.99512895
_cell_angle_gamma   90.11071835
_symmetry_Int_Tables_number   1
_chemical_formula_structural   V85Zn86O256
_chemical_formula_sum   'V85 Zn86 O256'
_cell_volume   4893.30852226
_cell_formula_units_Z   1
loop_
 _symmetry_equiv_pos_site_id
 _symmetry_equiv_pos_as_xyz
  1  'x, y, z'
loop_
 _atom_site_type_symbol
 _atom_site_label
 _atom_site_symmetry_multiplicity
 _atom_site_fract_x
 _atom_site_fract_y
 _atom_site_fract_z
 _atom_site_occupancy
  V  V0  1  0.37251609  0.49877607  0.87359028  1
  V  V1  1  0.74953818  0.25686046  0.50055421  1
  V  V2  1  0.87628698  0.00286572  0.87348009  1
  V  V3  1  0.11100832  0.50715596  0.62048958  1
  V  V4  1  0.73829971  0.37038785  0.62570479  1
  V  V5  1  0.12668539  0.87785927  0.24149962  1
  V  V6  1  0.62546002  0.01246436  0.12388767  1
  V  V7  1  0.74597872  0.87520090  0.12856786  1
  V  V8  1  0.24557048  0.12333364  0.86452564  1
  V  V9  1  -0.01752849  0.24961562  0.75190725  1
  V  V10  1  0.62308314  0.87491446  0.25123028  1
  V  V11  1  0.11668003  0.24393961  0.37019683  1
  V  V12  1  0.37340160  0.62665683  0.74920786  1
  V  V13  1  0.50595711  0.37287670  0.85785617  1
  V  V14  1  0.74741905  0.62604474  0.37324717  1
  V  V15  1  -0.00280481  0.12444829  0.12966039  1
  V  V16  1  0.74917019  0.74880184  0.00206027  1
  V  V17  1  0.37206515  0.86277548  -0.00463784  1
  V  V18  1  0.00040904  0.00120510  0.00416277  1
  V  V19  1  0.62305343  0.12549927  0.50108236  1
  V  V20  1  0.00156242  0.87554708  0.87296611  1
  V  V21  1  0.37064572  0.37078761  0.00171793  1
  V  V22  1  -0.00238855  0.37471796  0.87825967  1
  V  V23  1  0.27122728  0.89127436  0.14012158  1
  V  V24  1  0.49341400  0.73962908  0.25189216  1
  V  V25  1  0.74960317  0.62374371  0.87476466  1
  V  V26  1  0.24531501  0.62759353  0.88224446  1
  V  V27  1  0.87508147  0.49922397  0.87688992  1
  V  V28  1  0.74647130  0.74862771  0.50393276  1
  V  V29  1  0.87422631  0.37304449  0.00012948  1
  V  V30  1  0.25285613  0.37620673  0.61521542  1
  V  V31  1  0.00563115  0.51338885  0.00855504  1
  V  V32  1  0.75533351  0.00933834  0.74866745  1
  V  V33  1  0.93603018  0.69067222  0.57623550  1
  V  V34  1  0.24586368  0.50139897  0.74838292  1
  V  V35  1  0.36919730  0.00033243  0.87117800  1
  V  V36  1  0.37524287  0.49997486  0.37675173  1
  V  V37  1  0.88020640  0.74885033  0.12556640  1
  V  V38  1  0.00098383  0.87836161  0.37230160  1
  V  V39  1  0.30948341  0.20467501  0.45420809  1
  V  V40  1  0.50491278  0.01467433  -0.00205788  1
  V  V41  1  -0.00341391  0.00262864  0.50238176  1
  V  V42  1  0.12784463  0.25116556  0.87274601  1
  V  V43  1  0.75559742  0.86890554  0.62822156  1
  V  V44  1  0.62623719  0.87501469  0.74971392  1
  V  V45  1  0.25265730  0.50095490  0.24877400  1
  V  V46  1  0.37597816  0.12868557  0.74823794  1
  V  V47  1  0.62145901  0.37464610  0.24834523  1
  V  V48  1  0.12638294  0.75208724  0.37793051  1
  V  V49  1  0.88280599  0.62249263  0.24445311  1
  V  V50  1  0.25290018  0.62292410  0.37832386  1
  V  V51  1  0.24625823  0.36658607  0.12325709  1
  V  V52  1  0.12733363  0.75030183  0.87918951  1
  V  V53  1  0.49988343  0.13181330  0.63061734  1
  V  V54  1  0.37547544  0.25700865  0.62684667  1
  V  V55  1  0.49514176  0.36667072  0.37638597  1
  V  V56  1  0.75091721  0.49782933  0.24896138  1
  V  V57  1  0.88001219  0.63238583  0.75220467  1
  V  V58  1  0.74321504  0.49809440  0.74926324  1
  V  V59  1  0.12236468  0.12843500  -0.00517935  1
  V  V60  1  0.50084942  0.62581874  0.62191526  1
  V  V61  1  0.87228455  0.12445924  0.25004321  1
  V  V62  1  0.87499800  0.87233736  0.50144591  1
  V  V63  1  0.25053334  0.88565323  0.63064034  1
  V  V64  1  0.87773914  0.25180117  0.12980559  1
  V  V65  1  0.92523574  0.31083425  0.56404524  1
  V  V66  1  0.14750065  0.11557809  0.49190711  1
  V  V67  1  0.49666353  0.49545393  0.49861798  1
  V  V68  1  0.49982160  0.87528925  0.87485638  1
  V  V69  1  0.50082983  0.75049760  0.74921152  1
  V  V70  1  0.62479260  0.75014177  0.87650739  1
  V  V71  1  0.17496825  0.05972712  0.17724069  1
  V  V72  1  0.74768874  0.12572833  0.37137906  1
  V  V73  1  0.74456583  0.12252615  0.88762024  1
  V  V74  1  0.62217636  0.00032338  0.62479709  1
  V  V75  1  0.49237862  0.24335714  0.23549755  1
  V  V76  1  0.12396570  0.37421015  0.74999296  1
  V  V77  1  0.25493898  0.75274463  0.50448437  1
  V  V78  1  0.62362625  0.62187081  0.00333451  1
  V  V79  1  0.86222414  -0.00362236  0.37067233  1
  V  V80  1  0.37138848  0.73744471  0.12235182  1
  V  V81  1  0.88106565  0.49321345  0.38519963  1
  V  V82  1  -0.01574230  0.12537592  0.62278122  1
  V  V83  1  0.11718214  0.37379741  0.25097474  1
  V  V84  1  0.49997298  0.49413738  0.00107607  1
  Zn  Zn85  1  0.38706818  0.88951808  0.49902196  1
  Zn  Zn86  1  0.61829875  0.24737237  0.87078538  1
  Zn  Zn87  1  0.74923505  0.37288437  0.12556888  1
  Zn  Zn88  1  0.62377898  0.49882140  0.12657785  1
  Zn  Zn89  1  0.74224355  0.24395629  0.00584995  1
  Zn  Zn90  1  0.00561063  0.74683743  0.24273950  1
  Zn  Zn91  1  0.12422397  0.52055690  0.12720643  1
  Zn  Zn92  1  0.87374959  0.87450135  0.00195374  1
  Zn  Zn93  1  0.37372152  0.75311792  0.62396433  1
  Zn  Zn94  1  0.19118861  0.69083346  0.04779707  1
  Zn  Zn95  1  -0.00215750  0.37488992  0.38112681  1
  Zn  Zn96  1  0.62293005  0.24977279  0.37320256  1
  Zn  Zn97  1  0.49498518  0.61843726  0.12823303  1
  Zn  Zn98  1  0.61940740  0.75509131  0.37631124  1
  Zn  Zn99  1  0.29254126  0.20614735  0.03753971  1
  Zn  Zn100  1  0.62307128  0.62379833  0.49894081  1
  Zn  Zn101  1  0.00200256  0.74870950  0.74857041  1
  Zn  Zn102  1  0.11750482  0.62445920  0.50328761  1
  Zn  Zn103  1  0.12264532  0.00704852  0.63729470  1
  Zn  Zn104  1  0.46810887  0.88808046  0.36075977  1
  Zn  Zn105  1  0.13251798  0.88236022  0.75601281  1
  Zn  Zn106  1  0.62012737  0.49572487  0.62668925  1
  Zn  Zn107  1  0.32510394  0.18320643  0.19809600  1
  Zn  Zn108  1  0.18364801  0.18642673  0.68249263  1
  Zn  Zn109  1  0.19593305  0.69257344  0.20396089  1
  Zn  Zn110  1  0.18339134  0.69117656  0.69160691  1
  Zn  Zn111  1  0.68807492  0.19217287  0.19016146  1
  Zn  Zn112  1  0.68858182  0.19004534  0.68920321  1
  Zn  Zn113  1  0.68646445  0.68830457  0.18848738  1
  Zn  Zn114  1  0.68711668  0.68458349  0.68839631  1
  Zn  Zn115  1  0.31058635  0.32293625  0.31356066  1
  Zn  Zn116  1  0.31269836  0.31316857  0.81044282  1
  Zn  Zn117  1  0.31441961  0.81309412  0.31563186  1
  Zn  Zn118  1  0.31072880  0.80933062  0.81171836  1
  Zn  Zn119  1  0.81360989  0.31164308  0.31261691  1
  Zn  Zn120  1  0.77962378  0.29347575  0.79507629  1
  Zn  Zn121  1  0.80926609  0.81130620  0.31031829  1
  Zn  Zn122  1  0.81479985  0.81436783  0.81437938  1
  Zn  Zn123  1  0.18176914  0.43763597  0.43862447  1
  Zn  Zn124  1  0.18516596  0.43941177  0.93920417  1
  Zn  Zn125  1  0.19190773  0.93841831  0.44040537  1
  Zn  Zn126  1  0.18878808  0.93897788  0.94476632  1
  Zn  Zn127  1  0.68337777  0.43791903  0.43627026  1
  Zn  Zn128  1  0.68718311  0.43298237  0.93822357  1
  Zn  Zn129  1  0.59094234  0.94178722  0.44110079  1
  Zn  Zn130  1  0.68742139  0.93732393  0.94042967  1
  Zn  Zn131  1  0.33824736  0.03889612  0.08433060  1
  Zn  Zn132  1  0.30403808  0.05616271  0.54987754  1
  Zn  Zn133  1  0.31259494  0.55135581  0.06481860  1
  Zn  Zn134  1  0.31230962  0.56212787  0.56078418  1
  Zn  Zn135  1  0.81332447  0.05630776  0.06465315  1
  Zn  Zn136  1  0.80636454  0.06057886  0.55712520  1
  Zn  Zn137  1  0.81422206  0.56096609  0.06395407  1
  Zn  Zn138  1  0.80620663  0.55648089  0.56169639  1
  Zn  Zn139  1  0.43369576  0.43401737  0.18683347  1
  Zn  Zn140  1  0.43340904  0.44280760  0.68446222  1
  Zn  Zn141  1  0.44688671  0.92909512  0.17709969  1
  Zn  Zn142  1  0.43291992  0.94312439  0.68034671  1
  Zn  Zn143  1  0.93919976  0.43925904  0.18660420  1
  Zn  Zn144  1  0.93372303  0.44179797  0.69633289  1
  Zn  Zn145  1  0.93547650  0.93842136  0.18807614  1
  Zn  Zn146  1  0.93814918  0.93647526  0.68983506  1
  Zn  Zn147  1  0.05399158  0.06348292  0.31586187  1
  Zn  Zn148  1  0.05564098  0.06469006  0.80637164  1
  Zn  Zn149  1  0.06435506  0.56114943  0.31461323  1
  Zn  Zn150  1  0.06146189  0.56349330  0.81463513  1
  Zn  Zn151  1  0.56507447  0.06757612  0.30190825  1
  Zn  Zn152  1  0.56283033  0.06202765  0.80951822  1
  Zn  Zn153  1  0.56372815  0.56072387  0.31416927  1
  Zn  Zn154  1  0.56091250  0.56018402  0.81443969  1
  Zn  Zn155  1  0.44378104  0.06027079  0.44375987  1
  Zn  Zn156  1  0.44058901  0.19125543  0.93072230  1
  Zn  Zn157  1  0.43511854  0.68792972  0.43602584  1
  Zn  Zn158  1  0.43839798  0.68322009  0.93639038  1
  Zn  Zn159  1  0.94322694  0.18215402  0.43083099  1
  Zn  Zn160  1  0.93177814  0.18834926  0.93754221  1
  Zn  Zn161  1  0.93693528  0.68612002  0.41346116  1
  Zn  Zn162  1  0.93696550  0.69043754  0.93675026  1
  Zn  Zn163  1  0.06115366  0.31216504  0.06556493  1
  Zn  Zn164  1  0.09274701  0.30414962  0.55913623  1
  Zn  Zn165  1  0.06244646  0.81786345  0.06175528  1
  Zn  Zn166  1  0.07179708  0.82240808  0.55908091  1
  Zn  Zn167  1  0.56591899  0.30967913  0.05761655  1
  Zn  Zn168  1  0.55915455  0.31021289  0.56008294  1
  Zn  Zn169  1  0.55810862  0.81090355  0.06435085  1
  Zn  Zn170  1  0.56194487  0.81130223  0.56058989  1
  O  O171  1  0.11535600  0.12506312  0.11681428  1
  O  O172  1  0.11769850  0.12466297  0.60824663  1
  O  O173  1  0.13781280  0.63371538  0.12821871  1
  O  O174  1  0.12634112  0.61127439  0.62606568  1
  O  O175  1  0.63255636  0.11070391  0.12828957  1
  O  O176  1  0.62383685  0.12163020  0.62278870  1
  O  O177  1  0.62451883  0.62303755  0.11215839  1
  O  O178  1  0.61044989  0.62300396  0.62561488  1
  O  O179  1  0.38202041  0.38994586  0.37501087  1
  O  O180  1  0.38070124  0.38356795  0.87640496  1
  O  O181  1  0.35829469  0.88710128  0.38510687  1
  O  O182  1  0.37754040  0.88147952  0.87691076  1
  O  O183  1  0.87806722  0.38874148  0.37005595  1
  O  O184  1  0.88044940  0.38201264  0.88483210  1
  O  O185  1  0.87715881  0.88064908  0.37796167  1
  O  O186  1  0.88150076  0.88281061  0.88084945  1
  O  O187  1  0.22332243  0.04705044  0.45132069  1
  O  O188  1  0.26266470  0.00676017  0.88046623  1
  O  O189  1  0.25493411  0.50388940  0.37452084  1
  O  O190  1  0.25150074  0.50697583  0.86701175  1
  O  O191  1  0.76219831  0.01127971  0.38177989  1
  O  O192  1  0.75574284  0.00410029  0.87087014  1
  O  O193  1  0.75630590  0.50483909  0.36585477  1
  O  O194  1  0.75560344  0.50361605  0.86886331  1
  O  O195  1  0.24436534  0.49315592  0.13551252  1
  O  O196  1  0.24623860  0.49232266  0.63110198  1
  O  O197  1  0.22064200  0.99970293  0.10769992  1
  O  O198  1  0.24568532  0.98779524  0.62432734  1
  O  O199  1  0.75004934  0.49825441  0.13889709  1
  O  O200  1  0.74386373  0.49305092  0.63086678  1
  O  O201  1  0.73427410  0.98903502  0.11625760  1
  O  O202  1  0.74503531  0.99384474  0.63313427  1
  O  O203  1  0.01436387  0.38154051  0.25177042  1
  O  O204  1  0.00391456  0.37022474  0.75777122  1
  O  O205  1  0.00912921  0.87668008  0.25519994  1
  O  O206  1  -0.00362768  0.87100895  0.76490523  1
  O  O207  1  0.50540322  0.37320265  0.25571413  1
  O  O208  1  0.49703448  0.38578024  0.76006462  1
  O  O209  1  0.50548407  0.86388228  0.24977591  1
  O  O210  1  0.50512668  0.87087809  0.75427129  1
  O  O211  1  0.49973633  0.14451121  0.24931903  1
  O  O212  1  0.49530561  0.12611168  0.73975722  1
  O  O213  1  0.50475840  0.63624502  0.24772460  1
  O  O214  1  0.49228563  0.62754183  0.74440858  1
  O  O215  1  0.99139900  0.12020464  0.23637553  1
  O  O216  1  1.00109970  0.13925431  0.73489624  1
  O  O217  1  0.98682929  0.62769987  0.25765550  1
  O  O218  1  0.98787376  0.62835237  0.75459817  1
  O  O219  1  0.37168098  0.26794048  -0.01847345  1
  O  O220  1  0.37149438  0.26024071  0.51565726  1
  O  O221  1  0.37788982  0.75317190  0.00305034  1
  O  O222  1  0.36250342  0.75086020  0.50106894  1
  O  O223  1  0.87369861  0.25866805  0.01003646  1
  O  O224  1  0.87179667  0.25279719  0.49708446  1
  O  O225  1  0.86721899  0.75065887  0.00805789  1
  O  O226  1  0.87571952  0.74610809  0.50644773  1
  O  O227  1  0.12840026  0.23202808  0.48252130  1
  O  O228  1  0.11298404  0.23831040  0.98826940  1
  O  O229  1  0.13380016  0.75025979  0.49090470  1
  O  O230  1  0.12508302  0.75840987  0.98639859  1
  O  O231  1  0.63350627  0.24299281  0.49683196  1
  O  O232  1  0.63279328  0.26105049  0.98486926  1
  O  O233  1  0.63445064  0.74472388  0.49518470  1
  O  O234  1  0.62695321  0.74109319  0.99598768  1
  O  O235  1  0.50000040  0.25835929  0.13745644  1
  O  O236  1  0.48986149  0.24466298  0.62461276  1
  O  O237  1  0.49284586  0.74254168  0.13420925  1
  O  O238  1  0.49798449  0.74296268  0.63126570  1
  O  O239  1  0.98685532  0.23938692  0.12161030  1
  O  O240  1  0.99169652  0.25146164  0.62477490  1
  O  O241  1  0.98436282  0.75938856  0.12487151  1
  O  O242  1  0.99860117  0.75510678  0.62572821  1
  O  O243  1  0.01168723  0.25386783  0.37315069  1
  O  O244  1  0.00443477  0.25268044  0.86750924  1
  O  O245  1  0.01017445  0.76055895  0.37126602  1
  O  O246  1  0.00622837  0.75984465  0.87705282  1
  O  O247  1  0.50109862  0.26563188  0.36761730  1
  O  O248  1  0.50010789  0.26776452  0.86823550  1
  O  O249  1  0.49786954  0.75003410  0.36042899  1
  O  O250  1  0.50589154  0.75374676  0.86837294  1
  O  O251  1  0.25167808  0.15898456  0.53048812  1
  O  O252  1  0.23361348  0.12730194  0.97994630  1
  O  O253  1  0.24647323  0.63173858  0.49322118  1
  O  O254  1  0.25662449  0.61771379  0.98573479  1
  O  O255  1  0.74456427  0.13636374  0.49254606  1
  O  O256  1  0.74870846  0.11567312  0.98994117  1
  O  O257  1  0.75050844  0.63342162  0.49364325  1
  O  O258  1  0.74265895  0.62686256  0.99455052  1
  O  O259  1  0.25598380  0.38290036  0.00956133  1
  O  O260  1  0.24502769  0.37793984  0.51660026  1
  O  O261  1  0.26851387  0.88589811  0.01292507  1
  O  O262  1  0.24750542  0.86645525  0.51456202  1
  O  O263  1  0.76476732  0.37932811  0.00390713  1
  O  O264  1  0.74513179  0.36486723  0.50453640  1
  O  O265  1  0.74841347  0.86608017  0.01018932  1
  O  O266  1  0.75938534  0.85713652  0.50740955  1
  O  O267  1  0.13543042  0.49293019  0.25341019  1
  O  O268  1  0.12824834  0.49549928  0.74200358  1
  O  O269  1  0.12379046  0.99873083  0.24602783  1
  O  O270  1  0.11852840  0.99523532  0.74929726  1
  O  O271  1  0.63294593  0.49401004  0.24917846  1
  O  O272  1  0.63938543  0.50762466  0.74945830  1
  O  O273  1  0.61650147  0.99116413  0.23006624  1
  O  O274  1  0.63578656  0.99295073  0.74552818  1
  O  O275  1  0.34169791  -0.02956928  0.17918175  1
  O  O276  1  0.38185055  0.01448279  0.76005517  1
  O  O277  1  0.36048505  0.49523961  0.25802364  1
  O  O278  1  0.36758320  0.51189786  0.75324072  1
  O  O279  1  0.87574725  0.01188131  0.25740622  1
  O  O280  1  0.86583624  -0.00820354  0.76072479  1
  O  O281  1  0.86899206  0.50605572  0.25419054  1
  O  O282  1  0.86678769  0.51278259  0.75656595  1
  O  O283  1  0.11922008  0.36671486  0.37389005  1
  O  O284  1  0.11840858  0.36789599  0.87209671  1
  O  O285  1  0.12537668  0.87313967  0.36861068  1
  O  O286  1  0.11925321  0.87122910  0.87711193  1
  O  O287  1  0.61619486  0.37634546  0.36314022  1
  O  O288  1  0.60648181  0.38551645  0.87303431  1
  O  O289  1  0.63465505  0.87460847  0.35554559  1
  O  O290  1  0.62081026  0.86965433  0.86997630  1
  O  O291  1  0.36273949  0.14336042  0.10099099  1
  O  O292  1  0.38387674  0.13470805  0.63266758  1
  O  O293  1  0.37410153  0.63267911  0.11818126  1
  O  O294  1  0.38410445  0.62586828  0.63228640  1
  O  O295  1  0.87775596  0.12783607  0.13145469  1
  O  O296  1  0.88478034  0.12446070  0.61440603  1
  O  O297  1  0.86822037  0.63481701  0.13462939  1
  O  O298  1  0.87582469  0.62522863  0.63026635  1
  O  O299  1  0.24815328  0.26469738  0.12877895  1
  O  O300  1  0.25399686  0.27078789  0.63805079  1
  O  O301  1  0.26064523  0.75946207  0.12797774  1
  O  O302  1  0.24977572  0.75373373  0.61776704  1
  O  O303  1  0.76235246  0.25074759  0.12364065  1
  O  O304  1  0.75398797  0.25877966  0.61425533  1
  O  O305  1  0.75655187  0.75492929  0.12018086  1
  O  O306  1  0.74463135  0.75713994  0.61891453  1
  O  O307  1  0.24920335  0.25426068  0.38499895  1
  O  O308  1  0.23420188  0.24463206  0.86722340  1
  O  O309  1  0.24428160  0.74159707  0.38100049  1
  O  O310  1  0.24273600  0.73990868  0.87289629  1
  O  O311  1  0.74892351  0.24385476  0.38265170  1
  O  O312  1  0.77231213  0.22390033  0.88730833  1
  O  O313  1  0.75273100  0.74066513  0.38377361  1
  O  O314  1  0.74387405  0.74490242  0.88203449  1
  O  O315  1  0.00070331  0.12018934  0.00855316  1
  O  O316  1  0.00447629  0.11644434  0.50356324  1
  O  O317  1  -0.00546532  0.61097817  -0.00412147  1
  O  O318  1  -0.00739611  0.63939669  0.50868587  1
  O  O319  1  0.50105535  0.11267816  -0.01147602  1
  O  O320  1  0.51790085  0.12665557  0.51422975  1
  O  O321  1  0.50708570  0.61155476  -0.00145785  1
  O  O322  1  0.49978121  0.62107206  0.50769945  1
  O  O323  1  0.50541812  0.38394928  0.48945146  1
  O  O324  1  0.49145840  0.38455464  0.99494630  1
  O  O325  1  0.50792814  0.87095893  0.48257521  1
  O  O326  1  0.49133643  0.87406211  0.98976396  1
  O  O327  1  0.99517524  0.35977667  0.50962928  1
  O  O328  1  0.98992770  0.38042605  0.99739773  1
  O  O329  1  0.99233722  0.88003902  0.49397236  1
  O  O330  1  0.99933965  0.88566079  0.99130360  1
  O  O331  1  0.49279738  0.49597301  0.37941367  1
  O  O332  1  0.49175729  0.49476543  0.88162021  1
  O  O333  1  0.51083595  0.99953057  0.37453735  1
  O  O334  1  0.49550126  0.99495603  0.88156328  1
  O  O335  1  0.98557956  0.49969596  0.37669247  1
  O  O336  1  0.99444121  0.49410558  0.88325997  1
  O  O337  1  0.98718968  0.99610054  0.38292590  1
  O  O338  1  0.99120489  0.99560012  0.87988118  1
  O  O339  1  -0.00561766  0.00803215  0.11456800  1
  O  O340  1  -0.00575132  0.00900639  0.61927503  1
  O  O341  1  0.00247536  0.50180939  0.11292777  1
  O  O342  1  0.01344987  0.49480498  0.63057399  1
  O  O343  1  0.51086013  -0.00153385  0.10776184  1
  O  O344  1  0.51859555  0.00825082  0.63612010  1
  O  O345  1  0.50019038  0.50075234  0.11581265  1
  O  O346  1  0.50001282  0.50684295  0.61667740  1
  O  O347  1  0.24075147  0.38322183  0.24342259  1
  O  O348  1  0.24241613  0.38611687  0.74874895  1
  O  O349  1  0.24231185  0.87151244  0.24274804  1
  O  O350  1  0.25296641  0.86979018  0.73442447  1
  O  O351  1  0.74170144  0.38187984  0.25133337  1
  O  O352  1  0.76472587  0.38993436  0.73504385  1
  O  O353  1  0.74150391  0.86789170  0.23560647  1
  O  O354  1  0.74551745  0.87904906  0.74392033  1
  O  O355  1  0.24009345  0.11124699  0.23118368  1
  O  O356  1  0.25526117  0.12769932  0.75767148  1
  O  O357  1  0.24870297  0.61578212  0.27008649  1
  O  O358  1  0.25697151  0.62090217  0.75555609  1
  O  O359  1  0.75423177  0.12881331  0.26419623  1
  O  O360  1  0.75341945  0.11093939  0.75779635  1
  O  O361  1  0.75578581  0.61866751  0.25623240  1
  O  O362  1  0.75654073  0.61945187  0.75578298  1
  O  O363  1  0.36586441  0.13867003  0.40568173  1
  O  O364  1  0.36637481  0.12138141  0.86872527  1
  O  O365  1  0.36622652  0.61197609  0.37992633  1
  O  O366  1  0.36908223  0.61902908  0.86641482  1
  O  O367  1  0.87011897  0.11911455  0.36772398  1
  O  O368  1  0.86922313  0.10775769  0.87986845  1
  O  O369  1  0.86386095  0.61423883  0.36521933  1
  O  O370  1  0.86773044  0.62031247  0.87004004  1
  O  O371  1  0.12966422  0.37573813  0.13393138  1
  O  O372  1  0.13493638  0.38308704  0.63045264  1
  O  O373  1  0.13317953  0.87029390  0.13843787  1
  O  O374  1  0.13835890  0.87755794  0.63090089  1
  O  O375  1  0.62724705  0.37754721  0.13700529  1
  O  O376  1  0.63463966  0.37517940  0.62328381  1
  O  O377  1  0.62865352  0.87662012  0.13149620  1
  O  O378  1  0.63503819  0.88238442  0.62837964  1
  O  O379  1  0.13476076  0.26106417  0.26992106  1
  O  O380  1  0.11432990  0.25686322  0.75478018  1
  O  O381  1  0.12397912  0.76139907  0.26361445  1
  O  O382  1  0.12090782  0.75691245  0.76365065  1
  O  O383  1  0.61503597  0.25843799  0.25218883  1
  O  O384  1  0.66984746  0.26200542  0.77018563  1
  O  O385  1  0.61230070  0.75608596  0.24902579  1
  O  O386  1  0.62061547  0.75490465  0.75644302  1
  O  O387  1  0.38651759  0.25824537  0.25444954  1
  O  O388  1  0.37125279  0.23908965  0.74133417  1
  O  O389  1  0.38645291  0.75184238  0.24123530  1
  O  O390  1  0.38103705  0.73826527  0.74985732  1
  O  O391  1  0.87222096  0.23605654  0.24471100  1
  O  O392  1  0.88374084  0.25763030  0.75379650  1
  O  O393  1  0.87583443  0.74078926  0.24333048  1
  O  O394  1  0.87450054  0.73732458  0.75365647  1
  O  O395  1  0.38746308  0.50320774  0.49395411  1
  O  O396  1  0.38213164  0.49222702  0.99225568  1
  O  O397  1  0.39518708  1.00122799  0.52561286  1
  O  O398  1  0.39161254  0.98917559  0.99117412  1
  O  O399  1  0.86908733  0.50289212  0.48282365  1
  O  O400  1  0.88360656  0.49415745  0.99785990  1
  O  O401  1  0.87886986  0.99235284  0.49256556  1
  O  O402  1  0.88466754  0.99622638  0.99430748  1
  O  O403  1  0.10902998  0.01559359  -0.01300059  1
  O  O404  1  0.10189718  -0.00386957  0.50756172  1
  O  O405  1  0.10882098  0.49805643  0.00163405  1
  O  O406  1  0.12385092  0.50364832  0.51548481  1
  O  O407  1  0.61210831  -0.00564117  0.00708479  1
  O  O408  1  0.63925097  0.01253070  0.51412833  1
  O  O409  1  0.61780023  0.50492917  0.00174003  1
  O  O410  1  0.61200383  0.50492676  0.50000832  1
  O  O411  1  0.36303330  0.38126926  0.11236972  1
  O  O412  1  0.36223986  0.37107617  0.63252900  1
  O  O413  1  0.38014315  0.85240741  0.11050883  1
  O  O414  1  0.36452682  0.87168820  0.62245303  1
  O  O415  1  0.87602426  0.36643054  0.12160147  1
  O  O416  1  0.87112617  0.37860680  0.61741222  1
  O  O417  1  0.86380585  0.86923494  0.12540539  1
  O  O418  1  0.86220084  0.87909658  0.62013213  1
  O  O419  1  0.11868526  0.13556265  0.37637948  1
  O  O420  1  0.12621632  0.13232823  0.87554237  1
  O  O421  1  0.12855096  0.63497258  0.38094304  1
  O  O422  1  0.13474778  0.63374366  0.87114156  1
  O  O423  1  0.63327566  0.12573264  0.38248105  1
  O  O424  1  0.64184908  0.12194447  0.87066017  1
  O  O425  1  0.63841118  0.62722003  0.37411452  1
  O  O426  1  0.62883976  0.62842366  0.88555288  1
