# generated using pymatgen
data_V85Zn86O256
_symmetry_space_group_name_H-M   'P 1'
_cell_length_a   16.93907860
_cell_length_b   16.93791513
_cell_length_c   16.95025563
_cell_angle_alpha   90.04494055
_cell_angle_beta   90.00541671
_cell_angle_gamma   89.99525598
_symmetry_Int_Tables_number   1
_chemical_formula_structural   V85Zn86O256
_chemical_formula_sum   'V85 Zn86 O256'
_cell_volume   4863.24166044
_cell_formula_units_Z   1
loop_
 _symmetry_equiv_pos_site_id
 _symmetry_equiv_pos_as_xyz
  1  'x, y, z'
loop_
 _atom_site_type_symbol
 _atom_site_label
 _atom_site_symmetry_multiplicity
 _atom_site_fract_x
 _atom_site_fract_y
 _atom_site_fract_z
 _atom_site_occupancy
  V  V0  1  0.00111049  0.87761539  0.37343265  1
  V  V1  1  0.00018949  0.00226610  0.49783304  1
  V  V2  1  0.87301492  0.74880657  0.12633537  1
  V  V3  1  0.37776813  0.00113031  0.37348554  1
  V  V4  1  0.36422675  0.86830850  0.50362990  1
  V  V5  1  0.74995183  0.87531060  0.12325014  1
  V  V6  1  0.00301296  0.50178339  0.50241123  1
  V  V7  1  0.50113153  0.12581689  0.62791900  1
  V  V8  1  0.25083319  0.38274238  0.12662730  1
  V  V9  1  0.25430603  0.12852646  0.37628596  1
  V  V10  1  0.49974567  0.25420555  0.75833374  1
  V  V11  1  0.37538313  0.36910163  -0.00483420  1
  V  V12  1  0.64251383  0.12924321  -0.00130888  1
  V  V13  1  0.86863197  0.37651587  0.50402517  1
  V  V14  1  0.50358135  0.87173921  0.37790685  1
  V  V15  1  0.25117237  0.25368624  0.50499339  1
  V  V16  1  0.62829847  0.00142009  0.12326200  1
  V  V17  1  -0.00023547  0.37822253  0.37501832  1
  V  V18  1  -0.00565483  0.37967144  0.86138080  1
  V  V19  1  -0.00014071  0.75101559  0.25241228  1
  V  V20  1  -0.00116706  0.25436047  0.24258901  1
  V  V21  1  0.74347226  0.49408965  0.25459825  1
  V  V22  1  0.74789009  0.87669752  0.63504160  1
  V  V23  1  0.49930688  0.74662548  0.24784819  1
  V  V24  1  0.36972583  0.49883948  0.37022578  1
  V  V25  1  0.49966690  0.49571742  -0.00257507  1
  V  V26  1  0.50390630  0.37272352  0.36435335  1
  V  V27  1  0.87383638  0.25358844  0.62947595  1
  V  V28  1  0.62173743  0.37941553  0.73661012  1
  V  V29  1  0.87588349  0.61935380  0.75465214  1
  V  V30  1  0.24843707  0.48959557  0.74600756  1
  V  V31  1  0.62526646  0.87445593  0.24907125  1
  V  V32  1  0.00232526  0.62701942  0.63063627  1
  V  V33  1  0.12525190  0.25431108  0.37538153  1
  V  V34  1  0.87694825  0.00204139  0.37210387  1
  V  V35  1  0.62736877  0.75159828  0.86402227  1
  V  V36  1  0.75500491  0.12022669  0.86399400  1
  V  V37  1  0.12992570  0.74927665  0.38655504  1
  V  V38  1  0.23513458  0.24789471  0.00219480  1
  V  V39  1  0.74522009  0.25510160  0.50330738  1
  V  V40  1  0.00119686  0.13000955  0.62849084  1
  V  V41  1  0.37124245  0.25421014  0.62857981  1
  V  V42  1  0.50759559  0.87814470  0.86687262  1
  V  V43  1  0.13205583  0.87585294  0.25375677  1
  V  V44  1  0.74828779  0.37418388  0.11746052  1
  V  V45  1  0.62218012  0.49609619  0.12939303  1
  V  V46  1  0.87316919  0.11202223  0.74306983  1
  V  V47  1  0.38380494  0.13692327  0.25267850  1
  V  V48  1  0.74979492  0.61065667  0.87670323  1
  V  V49  1  0.37193883  0.38008202  0.50522630  1
  V  V50  1  0.62636873  0.12438918  0.50155349  1
  V  V51  1  0.63088530  0.25892764  0.87837626  1
  V  V52  1  0.75049687  0.49215485  0.73494124  1
  V  V53  1  0.86570043  0.62748884  0.25466095  1
  V  V54  1  0.37421813  0.00389378  0.87474001  1
  V  V55  1  0.23492250  0.12012341  0.87972378  1
  V  V56  1  0.50436754  -0.00210648  0.50247258  1
  V  V57  1  0.37863953  0.49585008  0.87370527  1
  V  V58  1  0.62890471  -0.00388154  0.64046812  1
  V  V59  1  0.62237473  0.25220833  0.36435903  1
  V  V60  1  0.87834106  0.87487695  -0.00737342  1
  V  V61  1  0.05739914  0.80560796  0.81385304  1
  V  V62  1  0.74526379  0.74606121  -0.00239407  1
  V  V63  1  0.50295686  0.00146109  0.00033071  1
  V  V64  1  0.75280610  0.00119038  0.24702485  1
  V  V65  1  0.12950793  0.38629582  0.25058021  1
  V  V66  1  0.00133214  0.62318425  0.12482465  1
  V  V67  1  0.37519587  0.74755872  0.12132787  1
  V  V68  1  0.12174581  0.25921276  0.85328993  1
  V  V69  1  0.50679293  0.62633667  0.62736717  1
  V  V70  1  0.87341760  0.74862749  0.62394251  1
  V  V71  1  0.50412822  0.13450325  0.12687660  1
  V  V72  1  0.23605064  0.75182306  -0.00048915  1
  V  V73  1  0.24608954  -0.01121195  0.74590874  1
  V  V74  1  0.24985937  0.62635252  0.37212512  1
  V  V75  1  0.37661804  0.62925188  0.75079320  1
  V  V76  1  0.25183426  0.87839550  0.12523598  1
  V  V77  1  0.86841319  0.50611915  0.37768166  1
  V  V78  1  0.63157884  0.62220962  0.49464169  1
  V  V79  1  0.12473532  0.12630220  0.49820676  1
  V  V80  1  0.24457696  0.62816203  0.87514182  1
  V  V81  1  0.12887759  0.48755843  0.62948432  1
  V  V82  1  0.87276474  0.25422130  0.11223111  1
  V  V83  1  0.50111842  0.49885365  0.50668289  1
  V  V84  1  0.87572888  0.13111661  0.24684965  1
  Zn  Zn85  1  0.87227748  0.87477939  0.50097793  1
  Zn  Zn86  1  0.88444951  -0.02159968  0.85209813  1
  Zn  Zn87  1  0.13323318  0.62811028  0.50846289  1
  Zn  Zn88  1  0.37546427  0.87562393  -0.00124864  1
  Zn  Zn89  1  0.74741684  0.12564117  0.37635639  1
  Zn  Zn90  1  0.37671034  0.25137577  0.12618847  1
  Zn  Zn91  1  0.63186729  0.74090785  0.36999054  1
  Zn  Zn92  1  0.36969992  0.61842200  0.24494041  1
  Zn  Zn93  1  0.12495350  0.02692808  0.10442303  1
  Zn  Zn94  1  0.87455913  0.38250631  -0.01008234  1
  Zn  Zn95  1  0.12905820  0.50624707  0.12328819  1
  Zn  Zn96  1  0.11817697  0.62807458  -0.00413350  1
  Zn  Zn97  1  0.01335904  0.02173302  -0.00896923  1
  Zn  Zn98  1  0.49919873  0.62271911  0.12335424  1
  Zn  Zn99  1  0.37351318  0.12598099  0.75071252  1
  Zn  Zn100  1  0.62139930  0.62207410  -0.00070011  1
  Zn  Zn101  1  0.36402121  0.75949542  0.63072528  1
  Zn  Zn102  1  -0.00177392  0.49913315  -0.00698349  1
  Zn  Zn103  1  0.74917892  0.75221026  0.49385703  1
  Zn  Zn104  1  0.13515165  -0.01163403  0.62250000  1
  Zn  Zn105  1  0.50197764  0.75531607  0.74615158  1
  Zn  Zn106  1  0.25045939  0.00744098  0.24524614  1
  Zn  Zn107  1  0.19083353  0.19360156  0.18834571  1
  Zn  Zn108  1  0.19071929  0.17704988  0.68823977  1
  Zn  Zn109  1  0.18865582  0.68946080  0.19261716  1
  Zn  Zn110  1  0.18547913  0.69168376  0.69159153  1
  Zn  Zn111  1  0.69298143  0.18800969  0.18640823  1
  Zn  Zn112  1  0.68875330  0.19081470  0.68696932  1
  Zn  Zn113  1  0.68505829  0.68259898  0.18610837  1
  Zn  Zn114  1  0.69039489  0.68462195  0.68444047  1
  Zn  Zn115  1  0.31312319  0.31568023  0.31365156  1
  Zn  Zn116  1  0.30922119  0.31030396  0.81624746  1
  Zn  Zn117  1  0.31467471  0.80912185  0.31443604  1
  Zn  Zn118  1  0.31374237  0.81428821  0.81809206  1
  Zn  Zn119  1  0.80892558  0.31690509  0.31485499  1
  Zn  Zn120  1  0.80990122  0.30975666  0.81126994  1
  Zn  Zn121  1  0.80987599  0.81407956  0.31571206  1
  Zn  Zn122  1  0.81808566  0.80314547  0.80787763  1
  Zn  Zn123  1  0.19088979  0.44175996  0.44106973  1
  Zn  Zn124  1  0.18267571  0.44051402  0.93863824  1
  Zn  Zn125  1  0.18816108  0.94204394  0.43421429  1
  Zn  Zn126  1  0.17818230  0.93333932  0.93544934  1
  Zn  Zn127  1  0.68442085  0.43925706  0.44033359  1
  Zn  Zn128  1  0.68491253  0.43545065  0.93734924  1
  Zn  Zn129  1  0.69127468  0.93432477  0.44067722  1
  Zn  Zn130  1  0.69473121  0.93896983  0.93198284  1
  Zn  Zn131  1  0.31401001  0.06432726  0.06201496  1
  Zn  Zn132  1  0.31592301  0.06206972  0.56291125  1
  Zn  Zn133  1  0.31252869  0.56357795  0.05922928  1
  Zn  Zn134  1  0.29351534  0.60203466  0.58057845  1
  Zn  Zn135  1  0.84862680  0.08407719  0.03959621  1
  Zn  Zn136  1  0.81096662  0.06107456  0.56268754  1
  Zn  Zn137  1  0.81518649  0.55818930  0.06284190  1
  Zn  Zn138  1  0.81183577  0.56143188  0.56588437  1
  Zn  Zn139  1  0.43724361  0.43397616  0.18528127  1
  Zn  Zn140  1  0.43766915  0.43871866  0.68797581  1
  Zn  Zn141  1  0.43831543  0.93912016  0.18795281  1
  Zn  Zn142  1  0.43484993  0.93950688  0.68751149  1
  Zn  Zn143  1  0.93413826  0.43964530  0.18653582  1
  Zn  Zn144  1  0.93827452  0.43671500  0.68965355  1
  Zn  Zn145  1  0.94341334  0.94284662  0.17854385  1
  Zn  Zn146  1  0.96697414  0.91884383  0.67867838  1
  Zn  Zn147  1  0.07704660  0.07839869  0.28425006  1
  Zn  Zn148  1  0.06106655  0.05742697  0.81226166  1
  Zn  Zn149  1  0.05946574  0.56631408  0.31281945  1
  Zn  Zn150  1  0.06469225  0.56305754  0.81138152  1
  Zn  Zn151  1  0.56478402  0.06324642  0.31297962  1
  Zn  Zn152  1  0.56307766  0.06877595  0.81502730  1
  Zn  Zn153  1  0.55817623  0.55914954  0.31396182  1
  Zn  Zn154  1  0.56381547  0.56077266  0.81353408  1
  Zn  Zn155  1  0.44117705  0.19080047  0.44177214  1
  Zn  Zn156  1  0.43987765  0.18572256  0.93927024  1
  Zn  Zn157  1  0.43923564  0.68549429  0.43805074  1
  Zn  Zn158  1  0.43789572  0.68700176  0.93665969  1
  Zn  Zn159  1  0.93634252  0.18955231  0.43447086  1
  Zn  Zn160  1  0.94601169  0.18728364  0.92924407  1
  Zn  Zn161  1  0.93885746  0.68734787  0.44035234  1
  Zn  Zn162  1  0.93520160  0.68949983  0.93738286  1
  Zn  Zn163  1  0.05947338  0.31996128  0.05974969  1
  Zn  Zn164  1  0.06014906  0.31340222  0.56368660  1
  Zn  Zn165  1  0.05202880  0.84169734  0.07351853  1
  Zn  Zn166  1  0.06222092  0.81285751  0.56635135  1
  Zn  Zn167  1  0.56506146  0.31521162  0.06035645  1
  Zn  Zn168  1  0.55743645  0.31196814  0.56154384  1
  Zn  Zn169  1  0.56304095  0.81352445  0.05880397  1
  Zn  Zn170  1  0.56409203  0.80847427  0.56475024  1
  O  O171  1  0.12047217  0.10935518  0.17865635  1
  O  O172  1  0.11656009  0.12252595  0.61571211  1
  O  O173  1  0.11425359  0.62702319  0.13055457  1
  O  O174  1  0.11458153  0.61323809  0.62627084  1
  O  O175  1  0.62310336  0.12250963  0.11710034  1
  O  O176  1  0.62115988  0.11915930  0.62000013  1
  O  O177  1  0.62189018  0.61062698  0.12055819  1
  O  O178  1  0.61345134  0.62685632  0.61712221  1
  O  O179  1  0.38386954  0.38140811  0.38075036  1
  O  O180  1  0.36969257  0.38236729  0.88455895  1
  O  O181  1  0.38575307  0.88198224  0.37978669  1
  O  O182  1  0.38493770  0.88823544  0.87939115  1
  O  O183  1  0.87899917  0.38590958  0.38450975  1
  O  O184  1  0.89005544  0.36438976  0.87134969  1
  O  O185  1  0.88291300  0.88976358  0.36867725  1
  O  O186  1  0.85188119  0.87333021  0.88953593  1
  O  O187  1  0.26252907  0.01052584  0.37531041  1
  O  O188  1  0.25710987  0.00458962  0.86948351  1
  O  O189  1  0.26595760  0.49800311  0.37090343  1
  O  O190  1  0.25945288  0.50612063  0.86801014  1
  O  O191  1  0.75938109  -0.00159468  0.36567496  1
  O  O192  1  0.75985576  0.01539820  0.87558996  1
  O  O193  1  0.75755168  0.49599271  0.36921893  1
  O  O194  1  0.74345887  0.50838629  0.86827812  1
  O  O195  1  0.25138712  0.48709191  0.12154967  1
  O  O196  1  0.24494988  0.50746756  0.63840766  1
  O  O197  1  0.24979863  0.99209175  0.12706515  1
  O  O198  1  0.25200866  1.00531758  0.63976435  1
  O  O199  1  0.74169789  0.49487649  0.13395668  1
  O  O200  1  0.74513680  0.49784985  0.63667376  1
  O  O201  1  0.74372170  0.99385105  0.13174762  1
  O  O202  1  0.74299994  0.98693866  0.62189672  1
  O  O203  1  0.00457943  0.37281712  0.25690460  1
  O  O204  1  0.00106190  0.37328703  0.76069580  1
  O  O205  1  0.00944121  0.87038487  0.25541350  1
  O  O206  1  -0.02155616  0.86305052  0.77679698  1
  O  O207  1  0.49790788  0.37527799  0.26571535  1
  O  O208  1  0.51260970  0.37047808  0.74913621  1
  O  O209  1  0.50312585  0.86622220  0.25619254  1
  O  O210  1  0.49735247  0.87656037  0.76328289  1
  O  O211  1  0.49609458  0.11862765  0.23886945  1
  O  O212  1  0.49839872  0.13577334  0.74460784  1
  O  O213  1  0.49845384  0.63765525  0.24937606  1
  O  O214  1  0.49654447  0.62592209  0.74535318  1
  O  O215  1  0.98505759  0.14284186  0.26022112  1
  O  O216  1  0.99516304  0.12399283  0.73246308  1
  O  O217  1  0.98740777  0.63235509  0.24727341  1
  O  O218  1  0.98702458  0.61041256  0.74120106  1
  O  O219  1  0.37064145  0.25938955  -0.00218462  1
  O  O220  1  0.37283271  0.25839426  0.50935056  1
  O  O221  1  0.37475974  0.75323845  0.01179038  1
  O  O222  1  0.37951572  0.76697181  0.49453635  1
  O  O223  1  0.87544358  0.25849826  0.01137817  1
  O  O224  1  0.86540334  0.25883532  0.50100554  1
  O  O225  1  0.85925383  0.75186268  0.00465662  1
  O  O226  1  0.87149144  0.74635056  0.51139659  1
  O  O227  1  0.13153555  0.24805616  0.49525834  1
  O  O228  1  0.13373715  0.25005477  1.00050939  1
  O  O229  1  0.11769513  0.74705516  0.49074602  1
  O  O230  1  0.13584576  0.75100172  1.01041253  1
  O  O231  1  0.62947136  0.24515068  0.49670585  1
  O  O232  1  0.61973508  0.24103912  0.98966329  1
  O  O233  1  0.62214187  0.73335666  0.49765587  1
  O  O234  1  0.63409500  0.74612014  0.99460546  1
  O  O235  1  0.50027795  0.23758768  0.11916683  1
  O  O236  1  0.49145014  0.24665565  0.63544451  1
  O  O237  1  0.49415063  0.75015911  0.13009344  1
  O  O238  1  0.49306524  0.74101569  0.62764586  1
  O  O239  1  0.99047330  0.26113231  0.13750891  1
  O  O240  1  0.98718323  0.24016557  0.61139215  1
  O  O241  1  0.99195507  0.74634521  0.13398560  1
  O  O242  1  0.98999719  0.73213935  0.61657810  1
  O  O243  1  0.00389015  0.26100028  0.36950822  1
  O  O244  1  0.01676632  0.25612583  0.87151365  1
  O  O245  1  0.00553522  0.75606290  0.37100545  1
  O  O246  1  0.01262118  0.73204958  0.86880729  1
  O  O247  1  0.50652436  0.26438153  0.38167455  1
  O  O248  1  0.50894180  0.24275454  0.86297686  1
  O  O249  1  0.50217606  0.75731908  0.36614323  1
  O  O250  1  0.50930117  0.76061197  0.87734800  1
  O  O251  1  0.24607558  0.13117418  0.49547221  1
  O  O252  1  0.25861599  0.13652151  0.98963115  1
  O  O253  1  0.24475261  0.60694111  0.47771569  1
  O  O254  1  0.24964412  0.63391652  0.99269828  1
  O  O255  1  0.74219978  0.13265030  0.49726695  1
  O  O256  1  0.74553262  0.12329367  0.99362753  1
  O  O257  1  0.73340045  0.62067545  0.50605648  1
  O  O258  1  0.74845620  0.62894067  0.99241447  1
  O  O259  1  0.25551893  0.36738588  0.00611567  1
  O  O260  1  0.26431266  0.37044847  0.49642522  1
  O  O261  1  0.25288833  0.86861232  0.00832866  1
  O  O262  1  0.26589643  0.88127335  0.49449184  1
  O  O263  1  0.75156974  0.38053133  0.01335283  1
  O  O264  1  0.75742129  0.36953481  0.49715740  1
  O  O265  1  0.74943960  0.86421614  0.00814215  1
  O  O266  1  0.75543463  0.87314433  0.51145417  1
  O  O267  1  0.12047695  0.48897765  0.25091104  1
  O  O268  1  0.14129775  0.50205739  0.74531036  1
  O  O269  1  0.13347313  0.97897861  0.26940123  1
  O  O270  1  0.14310559  1.00610456  0.74916300  1
  O  O271  1  0.63199551  0.50511006  0.24389303  1
  O  O272  1  0.63137867  0.48606373  0.75377640  1
  O  O273  1  0.63108135  0.99421592  0.24460695  1
  O  O274  1  0.62152866  1.00443876  0.73917957  1
  O  O275  1  0.37804643  0.00674987  0.26318883  1
  O  O276  1  0.36814495  0.00354758  0.75825001  1
  O  O277  1  0.38560936  0.50019515  0.26609472  1
  O  O278  1  0.36900308  0.50457306  0.75692140  1
  O  O279  1  0.87585236  0.00967504  0.24961240  1
  O  O280  1  0.88058254  0.01058187  0.73783770  1
  O  O281  1  0.86772220  0.50732456  0.25994329  1
  O  O282  1  0.85843637  0.50232755  0.74560447  1
  O  O283  1  0.12201927  0.37332552  0.37069560  1
  O  O284  1  0.12250271  0.36277143  0.87379266  1
  O  O285  1  0.12178918  0.86600640  0.37514382  1
  O  O286  1  0.12315888  0.86076163  0.87016918  1
  O  O287  1  0.61120894  0.36902816  0.38041639  1
  O  O288  1  0.62794298  0.36253940  0.86770982  1
  O  O289  1  0.61367839  0.87794082  0.36888150  1
  O  O290  1  0.61974598  0.86653544  0.88026376  1
  O  O291  1  0.38571957  0.12617582  0.13462151  1
  O  O292  1  0.38470610  0.13371447  0.62590001  1
  O  O293  1  0.37729237  0.63257846  0.12703258  1
  O  O294  1  0.39096607  0.61609658  0.64226439  1
  O  O295  1  0.85985890  0.14110323  0.14199124  1
  O  O296  1  0.87856308  0.13422166  0.62583202  1
  O  O297  1  0.87878032  0.63163187  0.13572605  1
  O  O298  1  0.87980432  0.62592071  0.63263173  1
  O  O299  1  0.25354847  0.25780621  0.11729339  1
  O  O300  1  0.26418459  0.24273111  0.62252278  1
  O  O301  1  0.25958555  0.75415950  0.11951702  1
  O  O302  1  0.26331620  0.71002230  0.61478790  1
  O  O303  1  0.75824160  0.26386551  0.13214671  1
  O  O304  1  0.75623075  0.24808101  0.61025958  1
  O  O305  1  0.75240554  0.75243982  0.11794036  1
  O  O306  1  0.75373797  0.75842301  0.61988353  1
  O  O307  1  0.24778658  0.24680087  0.38354104  1
  O  O308  1  0.23822848  0.24450905  0.88140594  1
  O  O309  1  0.24191724  0.74177810  0.37513445  1
  O  O310  1  0.26063125  0.74074299  0.88834139  1
  O  O311  1  0.74042519  0.25213581  0.38548808  1
  O  O312  1  0.73910399  0.23871708  0.86952380  1
  O  O313  1  0.74409979  0.75404385  0.37961283  1
  O  O314  1  0.74296888  0.74010512  0.88068468  1
  O  O315  1  -0.04440508  0.11846472  0.01507408  1
  O  O316  1  0.00734291  0.12214185  0.49904243  1
  O  O317  1  -0.00106802  0.62823736  0.01304026  1
  O  O318  1  0.00031611  0.61163353  0.50705504  1
  O  O319  1  0.51017744  0.11583969  0.00558600  1
  O  O320  1  0.50682603  0.11983448  0.50818920  1
  O  O321  1  0.49807063  0.60977710  0.00069724  1
  O  O322  1  0.50392302  0.61713860  0.50759206  1
  O  O323  1  0.49112728  0.38099709  0.49493155  1
  O  O324  1  0.48944481  0.38528675  1.00415981  1
  O  O325  1  0.49850331  0.87920401  0.49202931  1
  O  O326  1  0.50244824  0.88950927  0.99322298  1
  O  O327  1  0.99271808  0.38593858  0.49470499  1
  O  O328  1  0.99925487  0.37563952  0.98316532  1
  O  O329  1  0.99305142  0.88519829  0.48869834  1
  O  O330  1  0.97609662  0.85223381  0.98808481  1
  O  O331  1  0.49434665  0.48912877  0.38370718  1
  O  O332  1  0.48706660  0.50140945  0.88066899  1
  O  O333  1  0.49577158  0.99290109  0.38033674  1
  O  O334  1  0.49698663  0.99798726  0.88135865  1
  O  O335  1  0.99250297  0.49723755  0.38320485  1
  O  O336  1  1.00694869  0.48346945  0.87079179  1
  O  O337  1  0.99430830  1.00059565  0.38137813  1
  O  O338  1  0.98799774  1.01136512  0.87930897  1
  O  O339  1  0.02226954  -0.03922035  0.10076935  1
  O  O340  1  -0.01488159  0.01653759  0.60359599  1
  O  O341  1  0.00054648  0.51638453  0.13299285  1
  O  O342  1  0.00565757  0.50404838  0.61917366  1
  O  O343  1  0.50765642  0.00654823  0.11754596  1
  O  O344  1  0.50789250  0.00412474  0.62112104  1
  O  O345  1  0.50566967  0.49891902  0.11876158  1
  O  O346  1  0.49706983  0.50437070  0.61283355  1
  O  O347  1  0.24162663  0.36846553  0.24048046  1
  O  O348  1  0.25751889  0.39122346  0.75127488  1
  O  O349  1  0.24885591  0.87590439  0.24524657  1
  O  O350  1  0.25725995  0.88965705  0.75206209  1
  O  O351  1  0.75319950  0.38949478  0.24294995  1
  O  O352  1  0.73953632  0.38548095  0.75309977  1
  O  O353  1  0.74625165  0.88167357  0.24150405  1
  O  O354  1  0.75498193  0.87025202  0.73409545  1
  O  O355  1  0.26713639  0.12669632  0.26020918  1
  O  O356  1  0.25598196  0.11818069  0.76457818  1
  O  O357  1  0.25300827  0.62453602  0.26377095  1
  O  O358  1  0.26048798  0.61821294  0.75961464  1
  O  O359  1  0.75526060  0.11694235  0.25610167  1
  O  O360  1  0.75833856  0.12570534  0.75155705  1
  O  O361  1  0.76064474  0.61577469  0.24661749  1
  O  O362  1  0.75149020  0.60976551  0.75395095  1
  O  O363  1  0.37838673  0.11998188  0.37167849  1
  O  O364  1  0.37214247  0.11348483  0.87626217  1
  O  O365  1  0.37178137  0.61327044  0.37408905  1
  O  O366  1  0.37120297  0.61724219  0.86718138  1
  O  O367  1  0.87104602  0.11702760  0.36624268  1
  O  O368  1  0.86751243  0.13835729  0.85386379  1
  O  O369  1  0.87933489  0.61402677  0.36993662  1
  O  O370  1  0.86346286  0.63019973  0.86281552  1
  O  O371  1  0.13242296  0.37737863  0.13362220  1
  O  O372  1  0.12283629  0.38786907  0.62204657  1
  O  O373  1  0.14430633  0.86287464  0.13963983  1
  O  O374  1  0.07489001  0.89497729  0.63644944  1
  O  O375  1  0.63124920  0.38600122  0.12376391  1
  O  O376  1  0.62386054  0.36945196  0.63805512  1
  O  O377  1  0.62969367  0.88025558  0.12985745  1
  O  O378  1  0.63718995  0.88138285  0.62273945  1
  O  O379  1  0.11549962  0.26353229  0.25737915  1
  O  O380  1  0.13292077  0.25297590  0.75524889  1
  O  O381  1  0.12178273  0.75938667  0.26315343  1
  O  O382  1  0.11122213  0.75631646  0.74148054  1
  O  O383  1  0.62898109  0.24310723  0.26543019  1
  O  O384  1  0.61947655  0.26036601  0.75448478  1
  O  O385  1  0.61705077  0.75562122  0.24831925  1
  O  O386  1  0.62466722  0.74547135  0.76109260  1
  O  O387  1  0.37846705  0.24010112  0.25156524  1
  O  O388  1  0.38234161  0.25221699  0.74634123  1
  O  O389  1  0.38277121  0.74952773  0.23875089  1
  O  O390  1  0.37915422  0.74251919  0.75167305  1
  O  O391  1  0.88052389  0.24835977  0.25117440  1
  O  O392  1  0.86807303  0.24731858  0.73101470  1
  O  O393  1  0.87682905  0.74323211  0.24736518  1
  O  O394  1  0.86616978  0.73155993  0.73434492  1
  O  O395  1  0.38319828  0.49228169  0.48793712  1
  O  O396  1  0.37834291  0.49095774  0.99248863  1
  O  O397  1  0.38348970  0.99413413  0.49024245  1
  O  O398  1  0.38627808  1.00057413  0.99421946  1
  O  O399  1  0.87856733  0.49560751  0.49579432  1
  O  O400  1  0.88359993  0.49561852  1.00432946  1
  O  O401  1  0.87968313  1.00318173  0.48595063  1
  O  O402  1  0.86917850  0.97516692  1.00692506  1
  O  O403  1  0.13016367  0.01502948  -0.00709919  1
  O  O404  1  0.11741667  0.00703506  0.49990234  1
  O  O405  1  0.11878347  0.50801333  0.00495001  1
  O  O406  1  0.11680584  0.50049051  0.50739885  1
  O  O407  1  0.62263399  0.00934201  0.00284725  1
  O  O408  1  0.62053740  0.00700421  0.50467751  1
  O  O409  1  0.61440906  0.49784229  0.00550499  1
  O  O410  1  0.61442812  0.50980204  0.49822367  1
  O  O411  1  0.36839170  0.37122342  0.11759857  1
  O  O412  1  0.38033330  0.36706270  0.61686232  1
  O  O413  1  0.36672394  0.86994227  0.12482925  1
  O  O414  1  0.37919198  0.87564580  0.60856334  1
  O  O415  1  0.86573116  0.36843939  0.12805727  1
  O  O416  1  0.88124802  0.36968580  0.61126134  1
  O  O417  1  0.86769882  0.86467203  0.11879246  1
  O  O418  1  0.87079770  0.86365133  0.62416263  1
  O  O419  1  0.13324049  0.13491462  0.37764320  1
  O  O420  1  0.13244007  0.13849947  0.86822126  1
  O  O421  1  0.13034570  0.63384124  0.37447917  1
  O  O422  1  0.14130613  0.62155826  0.87475487  1
  O  O423  1  0.62296146  0.13314011  0.38498795  1
  O  O424  1  0.63410628  0.13185982  0.88131010  1
  O  O425  1  0.61695534  0.62314017  0.39067345  1
  O  O426  1  0.63237227  0.63165281  0.87780656  1
