# generated using pymatgen
data_V85Zn86O256
_symmetry_space_group_name_H-M   'P 1'
_cell_length_a   16.90556979
_cell_length_b   16.91071735
_cell_length_c   16.91536875
_cell_angle_alpha   89.97143084
_cell_angle_beta   90.03780644
_cell_angle_gamma   89.91960088
_symmetry_Int_Tables_number   1
_chemical_formula_structural   V85Zn86O256
_chemical_formula_sum   'V85 Zn86 O256'
_cell_volume   4835.84905918
_cell_formula_units_Z   1
loop_
 _symmetry_equiv_pos_site_id
 _symmetry_equiv_pos_as_xyz
  1  'x, y, z'
loop_
 _atom_site_type_symbol
 _atom_site_label
 _atom_site_symmetry_multiplicity
 _atom_site_fract_x
 _atom_site_fract_y
 _atom_site_fract_z
 _atom_site_occupancy
  V  V0  1  0.26029257  0.74960555  0.00752669  1
  V  V1  1  0.74972906  0.50484833  0.24684346  1
  V  V2  1  0.24916136  0.24871984  0.49636244  1
  V  V3  1  0.87686604  -0.00010885  0.37391301  1
  V  V4  1  0.88219020  0.13302439  0.25196795  1
  V  V5  1  0.74708305  0.88018955  0.12367307  1
  V  V6  1  0.12339883  0.62847054  0.49231019  1
  V  V7  1  0.37170238  0.75904639  0.62448002  1
  V  V8  1  0.12334588  0.36406038  0.24742611  1
  V  V9  1  0.62200343  0.12483537  0.50549908  1
  V  V10  1  0.11896213  0.86624254  0.24081462  1
  V  V11  1  0.74503245  0.12785202  0.37323108  1
  V  V12  1  0.37407711  0.62795373  0.24169343  1
  V  V13  1  0.62093216  0.87836493  0.76153622  1
  V  V14  1  0.00139287  0.36807946  0.87036155  1
  V  V15  1  0.87429959  0.25392799  0.12761010  1
  V  V16  1  0.87166766  0.75055507  0.12337236  1
  V  V17  1  0.49775680  0.62694309  0.62499305  1
  V  V18  1  0.74531388  0.87916654  0.62154418  1
  V  V19  1  -0.00394621  0.62441363  0.63063157  1
  V  V20  1  0.50509143  0.37083298  0.87474347  1
  V  V21  1  0.87293420  0.63328063  0.25464408  1
  V  V22  1  0.26038283  0.37226448  0.12021266  1
  V  V23  1  0.87721722  0.00546306  0.87944484  1
  V  V24  1  0.12899678  0.75090553  0.87382254  1
  V  V25  1  0.26127043  -0.00083376  0.73776356  1
  V  V26  1  0.25308517  0.37468961  0.62723288  1
  V  V27  1  0.87403439  0.37528750  0.49861418  1
  V  V28  1  0.87435051  0.50428724  0.87128258  1
  V  V29  1  0.62391938  0.88439985  0.24669488  1
  V  V30  1  0.00792752  0.12324100  0.12750225  1
  V  V31  1  0.24894901  0.49802879  0.25010692  1
  V  V32  1  -0.00193962  0.50009456  0.49990178  1
  V  V33  1  0.49655999  0.49453336  0.00181756  1
  V  V34  1  0.24620676  0.75362678  0.49708194  1
  V  V35  1  0.63258991  0.37060138  0.25022632  1
  V  V36  1  0.00068491  0.49765046  0.00015943  1
  V  V37  1  0.49616140  0.75109731  0.24219062  1
  V  V38  1  0.50114455  0.24869270  0.24751847  1
  V  V39  1  0.74380866  0.25062708  0.49630841  1
  V  V40  1  0.00113040  0.63054665  0.13212358  1
  V  V41  1  0.62530118  0.62556762  0.49638009  1
  V  V42  1  0.74981520  0.00574876  0.74841641  1
  V  V43  1  0.12639997  0.62704014  0.00141535  1
  V  V44  1  0.49881742  0.75401295  0.76112546  1
  V  V45  1  0.37078239  0.87732977  0.49036155  1
  V  V46  1  0.74764231  0.75074784  0.49288474  1
  V  V47  1  0.25406224  0.88517257  0.12003202  1
  V  V48  1  0.12604057  0.24372046  0.87000240  1
  V  V49  1  0.88268370  0.13050188  0.75221455  1
  V  V50  1  0.86943523  0.87165835  -0.00069954  1
  V  V51  1  0.38184012  0.87584981  -0.01125665  1
  V  V52  1  0.63605541  0.62753889  -0.00715850  1
  V  V53  1  0.86735235  0.37585190  0.00396972  1
  V  V54  1  0.74694313  0.37570819  0.62653593  1
  V  V55  1  0.12759512  0.88379021  0.73742437  1
  V  V56  1  0.62543330  0.12902662  0.00328806  1
  V  V57  1  0.00770370  0.12197077  0.62639543  1
  V  V58  1  0.37542846  0.50189995  0.37538821  1
  V  V59  1  0.37737281  0.37619479  0.50154968  1
  V  V60  1  0.00804845  -0.00095671  0.50022088  1
  V  V61  1  0.86940302  0.74657306  0.62974125  1
  V  V62  1  0.50410729  0.11023638  0.12829781  1
  V  V63  1  0.12393964  0.49663299  0.12525768  1
  V  V64  1  0.00141546  0.87694828  0.87595035  1
  V  V65  1  -0.00058126  0.36769861  0.36996047  1
  V  V66  1  -0.00223107  0.74925616  0.75078766  1
  V  V67  1  0.37421562  0.49434136  0.87808159  1
  V  V68  1  0.86926199  0.50384136  0.37437211  1
  V  V69  1  0.50651601  0.36994038  0.37544657  1
  V  V70  1  0.26489026  0.11182633  0.87299571  1
  V  V71  1  0.49149511  0.00618662  0.49867307  1
  V  V72  1  0.25004435  0.50175894  0.75109091  1
  V  V73  1  0.88095965  0.25078165  0.62821310  1
  V  V74  1  0.12421733  0.49992403  0.62519542  1
  V  V75  1  0.25732649  0.24853129  -0.00357542  1
  V  V76  1  0.38010563  0.23637566  0.63044773  1
  V  V77  1  0.25031573  -0.00347049  0.26015528  1
  V  V78  1  0.50296110  -0.00468947  -0.01734866  1
  V  V79  1  0.62338337  0.74810639  0.37002249  1
  V  V80  1  0.00496622  0.86252155  0.37196585  1
  V  V81  1  0.74923177  0.50703966  0.75062297  1
  V  V82  1  0.74674125  0.13798205  0.87718185  1
  V  V83  1  0.50457690  0.23834467  0.75154266  1
  V  V84  1  0.62768284  0.49734302  0.12399873  1
  Zn  Zn85  1  0.24373896  0.62766923  0.37189185  1
  Zn  Zn86  1  0.61907041  0.00488530  0.62624254  1
  Zn  Zn87  1  0.87479510  0.87544249  0.49805063  1
  Zn  Zn88  1  0.25313303  0.62563879  0.87555597  1
  Zn  Zn89  1  0.00613235  -0.00430822  0.01067610  1
  Zn  Zn90  1  0.49549712  0.87986863  0.37051445  1
  Zn  Zn91  1  0.12047276  0.24159252  0.37408137  1
  Zn  Zn92  1  0.25347961  0.11754946  0.37851161  1
  Zn  Zn93  1  0.74265943  0.25794143  0.00457795  1
  Zn  Zn94  1  0.12768112  0.12172536  0.49922983  1
  Zn  Zn95  1  0.74686611  0.00536673  0.24632791  1
  Zn  Zn96  1  0.50166939  0.49981081  0.50122391  1
  Zn  Zn97  1  0.80818519  0.66624485  0.81863917  1
  Zn  Zn98  1  0.37987515  0.24638149  0.12070660  1
  Zn  Zn99  1  0.62167117  0.49992664  0.62636741  1
  Zn  Zn100  1  0.37531405  0.62691274  0.75088207  1
  Zn  Zn101  1  0.62608602  0.37219645  0.75507774  1
  Zn  Zn102  1  0.63835623  0.74925043  0.87884404  1
  Zn  Zn103  1  0.49921084  0.62709612  0.12042930  1
  Zn  Zn104  1  0.37874315  0.11316866  0.25376488  1
  Zn  Zn105  1  0.13050406  0.11416453  0.00112776  1
  Zn  Zn106  1  0.12034413  0.36981579  0.74820991  1
  Zn  Zn107  1  0.19196778  0.18549933  0.18754211  1
  Zn  Zn108  1  0.19310795  0.18473485  0.69129793  1
  Zn  Zn109  1  0.18883804  0.69068022  0.18772362  1
  Zn  Zn110  1  0.18659413  0.68811687  0.68377924  1
  Zn  Zn111  1  0.68802614  0.18858571  0.18459100  1
  Zn  Zn112  1  0.68903930  0.19020073  0.68757099  1
  Zn  Zn113  1  0.68812142  0.68815934  0.18308108  1
  Zn  Zn114  1  0.67965279  0.69227983  0.68449624  1
  Zn  Zn115  1  0.31694487  0.31124779  0.31114305  1
  Zn  Zn116  1  0.31609109  0.31155925  0.81330058  1
  Zn  Zn117  1  0.30779325  0.81031996  0.31181169  1
  Zn  Zn118  1  0.31008493  0.81661426  0.81140160  1
  Zn  Zn119  1  0.81126408  0.31226681  0.31173009  1
  Zn  Zn120  1  0.81532910  0.31675547  0.81236882  1
  Zn  Zn121  1  0.81153242  0.81448592  0.31091194  1
  Zn  Zn122  1  0.80901867  0.82647347  0.81157350  1
  Zn  Zn123  1  0.18667245  0.43609602  0.43700400  1
  Zn  Zn124  1  0.18724098  0.43360236  0.93824269  1
  Zn  Zn125  1  0.18376506  0.93082539  0.43746820  1
  Zn  Zn126  1  0.18857406  0.93734056  0.93627017  1
  Zn  Zn127  1  0.68721327  0.44042262  0.43569214  1
  Zn  Zn128  1  0.68711741  0.44189960  0.93449327  1
  Zn  Zn129  1  0.68326201  0.93994147  0.43419845  1
  Zn  Zn130  1  0.68903802  0.94596393  0.94019597  1
  Zn  Zn131  1  0.31957020  0.06089784  0.06275313  1
  Zn  Zn132  1  0.31175703  0.06090277  0.56321137  1
  Zn  Zn133  1  0.31215825  0.55928897  0.06128600  1
  Zn  Zn134  1  0.31247196  0.56598850  0.56188477  1
  Zn  Zn135  1  0.81465071  0.06424377  0.06421614  1
  Zn  Zn136  1  0.81641681  0.06347125  0.56034465  1
  Zn  Zn137  1  0.81288298  0.56025536  0.06503032  1
  Zn  Zn138  1  0.80847631  0.56505920  0.56303986  1
  Zn  Zn139  1  0.44053511  0.43783047  0.18922362  1
  Zn  Zn140  1  0.43878651  0.43652303  0.69103490  1
  Zn  Zn141  1  0.43218055  0.93137721  0.18084904  1
  Zn  Zn142  1  0.44061356  0.93770882  0.68116733  1
  Zn  Zn143  1  0.93757148  0.43846726  0.18800617  1
  Zn  Zn144  1  0.93470084  0.43730448  0.69033766  1
  Zn  Zn145  1  0.93655378  0.94055368  0.19098818  1
  Zn  Zn146  1  0.93642277  0.93829275  0.68743098  1
  Zn  Zn147  1  0.06922793  0.05812353  0.31025079  1
  Zn  Zn148  1  0.06546019  0.06280424  0.81596910  1
  Zn  Zn149  1  0.05854721  0.55644359  0.31118198  1
  Zn  Zn150  1  0.06293213  0.56135307  0.81329899  1
  Zn  Zn151  1  0.56119232  0.06444660  0.31994651  1
  Zn  Zn152  1  0.56592002  0.06620707  0.81351765  1
  Zn  Zn153  1  0.56058442  0.56348015  0.31268751  1
  Zn  Zn154  1  0.56234355  0.56153021  0.81214932  1
  Zn  Zn155  1  0.43347916  0.18641844  0.43327254  1
  Zn  Zn156  1  0.43956296  0.18562128  0.93724213  1
  Zn  Zn157  1  0.43730904  0.69014829  0.43342157  1
  Zn  Zn158  1  0.43850220  0.68019011  0.93829097  1
  Zn  Zn159  1  0.93536367  0.18626319  0.44143441  1
  Zn  Zn160  1  0.94035898  0.18961406  0.94457573  1
  Zn  Zn161  1  0.93349969  0.68687568  0.44179247  1
  Zn  Zn162  1  0.94177313  0.69000178  0.94448819  1
  Zn  Zn163  1  0.06293595  0.30441151  0.05840868  1
  Zn  Zn164  1  0.06346406  0.31167848  0.56162755  1
  Zn  Zn165  1  0.06089367  0.81222874  0.06218139  1
  Zn  Zn166  1  0.05937537  0.81113172  0.55964409  1
  Zn  Zn167  1  0.56270406  0.31253647  0.06468780  1
  Zn  Zn168  1  0.56175937  0.31003537  0.56440278  1
  Zn  Zn169  1  0.56408378  0.81197225  0.06149604  1
  Zn  Zn170  1  0.55785744  0.81679477  0.56312233  1
  O  O171  1  0.11089006  0.13205496  0.12520480  1
  O  O172  1  0.10991434  0.13319091  0.62732622  1
  O  O173  1  0.11783279  0.62085323  0.12391763  1
  O  O174  1  0.11574468  0.61901658  0.61616854  1
  O  O175  1  0.61837636  0.12442204  0.11730783  1
  O  O176  1  0.63350173  0.12508066  0.60994080  1
  O  O177  1  0.62380996  0.61324441  0.11799724  1
  O  O178  1  0.61206732  0.62717534  0.61587288  1
  O  O179  1  0.38186000  0.38482095  0.37987551  1
  O  O180  1  0.38480988  0.38656694  0.87039383  1
  O  O181  1  0.37555920  0.86947227  0.38661768  1
  O  O182  1  0.37241089  0.87279408  0.88877425  1
  O  O183  1  0.88018649  0.38193410  0.37844762  1
  O  O184  1  0.88292539  0.38334535  0.88268656  1
  O  O185  1  0.88506365  0.88347705  0.37127084  1
  O  O186  1  0.87921861  0.88561052  0.88203289  1
  O  O187  1  0.24901168  -0.00711291  0.36339330  1
  O  O188  1  0.25113474  0.00828920  0.86661186  1
  O  O189  1  0.25792425  0.50030844  0.36905505  1
  O  O190  1  0.25507726  0.49826680  0.86824379  1
  O  O191  1  0.75890388  0.00843135  0.37450372  1
  O  O192  1  0.76239301  0.01019618  0.87052184  1
  O  O193  1  0.76197140  0.49777712  0.36590081  1
  O  O194  1  0.76041764  0.49870792  0.86428973  1
  O  O195  1  0.24287082  0.49080238  0.12797719  1
  O  O196  1  0.24685699  0.49388139  0.63077803  1
  O  O197  1  0.24887309  0.98841751  0.12587831  1
  O  O198  1  0.24501378  1.00647146  0.63890528  1
  O  O199  1  0.74509296  0.49958165  0.13812509  1
  O  O200  1  0.75119368  0.49073751  0.63065587  1
  O  O201  1  0.75924528  0.98573875  0.12915507  1
  O  O202  1  0.75098905  0.99389407  0.62763159  1
  O  O203  1  0.00936726  0.38103274  0.25867564  1
  O  O204  1  -0.00023319  0.37805995  0.76505891  1
  O  O205  1  0.00951766  0.87697915  0.25726572  1
  O  O206  1  0.00714201  0.87076007  0.75582452  1
  O  O207  1  0.51051706  0.37039618  0.25556975  1
  O  O208  1  0.50291653  0.36750318  0.75804298  1
  O  O209  1  0.50545271  0.86894390  0.24869061  1
  O  O210  1  0.51042366  0.86786815  0.74298750  1
  O  O211  1  0.50520342  0.13181423  0.24510025  1
  O  O212  1  0.50149793  0.13878438  0.75193591  1
  O  O213  1  0.49163368  0.63157724  0.24789388  1
  O  O214  1  0.50004715  0.63410723  0.74135819  1
  O  O215  1  0.99384549  0.12348198  0.24255141  1
  O  O216  1  0.98900235  0.11902290  0.74406872  1
  O  O217  1  0.99087544  0.61733791  0.23907028  1
  O  O218  1  1.00545965  0.62996062  0.73716813  1
  O  O219  1  0.36310180  0.24634488  0.00038718  1
  O  O220  1  0.37143432  0.25715410  0.51260253  1
  O  O221  1  0.36822876  0.75333088  -0.00472645  1
  O  O222  1  0.36982716  0.75602645  0.50488584  1
  O  O223  1  0.87258998  0.26036872  0.00748735  1
  O  O224  1  0.86437552  0.25482717  0.50780164  1
  O  O225  1  0.87651302  0.75945473  0.00907784  1
  O  O226  1  0.86357625  0.75284613  0.50758839  1
  O  O227  1  0.13582608  0.24912059  0.49884349  1
  O  O228  1  0.13814661  0.24315639  0.98952093  1
  O  O229  1  0.13197457  0.74040546  0.50656205  1
  O  O230  1  0.13067706  0.74616889  0.99176621  1
  O  O231  1  0.63673204  0.24497302  0.50376909  1
  O  O232  1  0.62573223  0.23664001  1.00353569  1
  O  O233  1  0.62821210  0.74823791  0.49185192  1
  O  O234  1  0.61956242  0.73226997  0.99865089  1
  O  O235  1  0.50004485  0.24133020  0.13169422  1
  O  O236  1  0.48808426  0.25516730  0.63563348  1
  O  O237  1  0.50440471  0.74653769  0.13785170  1
  O  O238  1  0.49208459  0.74502397  0.63120791  1
  O  O239  1  0.98746645  0.23771050  0.12085128  1
  O  O240  1  0.98680325  0.24390736  0.61844001  1
  O  O241  1  0.98926330  0.74036165  0.12249015  1
  O  O242  1  0.98926945  0.74460616  0.62919681  1
  O  O243  1  -0.00096782  0.26391201  0.38331398  1
  O  O244  1  0.01060895  0.25637624  0.88125558  1
  O  O245  1  -0.00735781  0.76438409  0.37939973  1
  O  O246  1  0.00641762  0.75519171  0.86949286  1
  O  O247  1  0.49810424  0.26356194  0.36822635  1
  O  O248  1  0.49124096  0.25624073  0.86108985  1
  O  O249  1  0.50764180  0.75359020  0.36309198  1
  O  O250  1  0.50181772  0.74472193  0.86268315  1
  O  O251  1  0.24792259  0.13479326  0.50204170  1
  O  O252  1  0.25248316  0.12624027  0.98877969  1
  O  O253  1  0.23881300  0.62936494  0.49782204  1
  O  O254  1  0.24443647  0.63238862  1.00015510  1
  O  O255  1  0.74699959  0.13255289  0.49381426  1
  O  O256  1  0.74319435  0.12405507  0.99355456  1
  O  O257  1  0.73482057  0.63605548  0.50649221  1
  O  O258  1  0.73535067  0.61777353  1.00312594  1
  O  O259  1  0.24478554  0.36417917  0.00973373  1
  O  O260  1  0.25433989  0.37126161  0.51117236  1
  O  O261  1  0.25755711  0.86892904  0.00359424  1
  O  O262  1  0.25551998  0.86696095  0.50014493  1
  O  O263  1  0.76300706  0.37760483  -0.00478543  1
  O  O264  1  0.75451990  0.37008694  0.50464386  1
  O  O265  1  0.76132630  0.88109171  0.00597618  1
  O  O266  1  0.74975863  0.87013581  0.50534279  1
  O  O267  1  0.13096326  0.49145796  0.24403699  1
  O  O268  1  0.13244947  0.49652647  0.74414035  1
  O  O269  1  0.13792912  0.98191340  0.25124253  1
  O  O270  1  0.12741757  0.98641927  0.75340753  1
  O  O271  1  0.63216244  0.49804355  0.24488942  1
  O  O272  1  0.63383167  0.49579242  0.74724521  1
  O  O273  1  0.62535867  0.98745878  0.25716557  1
  O  O274  1  0.63002215  0.99634107  0.74612961  1
  O  O275  1  0.35594065  -0.00855096  0.24474504  1
  O  O276  1  0.36065356  -0.01113311  0.74408302  1
  O  O277  1  0.36930781  0.50415926  0.25677088  1
  O  O278  1  0.36590336  0.50234079  0.75573103  1
  O  O279  1  0.87389646  0.01133950  0.26166125  1
  O  O280  1  0.86899850  0.00886137  0.75700531  1
  O  O281  1  0.86821898  0.50783991  0.25471058  1
  O  O282  1  0.86649489  0.49786233  0.76003323  1
  O  O283  1  0.11565204  0.37591838  0.36633548  1
  O  O284  1  0.11723184  0.36606475  0.87495598  1
  O  O285  1  0.11003470  0.87417115  0.36622405  1
  O  O286  1  0.12100404  0.86365156  0.86787873  1
  O  O287  1  0.61722586  0.38165308  0.36529911  1
  O  O288  1  0.61052785  0.37775657  0.87592618  1
  O  O289  1  0.62432660  0.86393043  0.36556366  1
  O  O290  1  0.63261374  0.87646732  0.86426618  1
  O  O291  1  0.38788599  0.12533687  0.13238257  1
  O  O292  1  0.37546854  0.13835314  0.62433315  1
  O  O293  1  0.37609304  0.61816789  0.13798030  1
  O  O294  1  0.38561057  0.63400607  0.62369248  1
  O  O295  1  0.88118943  0.13159774  0.13495631  1
  O  O296  1  0.88027024  0.13293087  0.63294865  1
  O  O297  1  0.88062102  0.63150441  0.13050704  1
  O  O298  1  0.88100186  0.63720248  0.61921544  1
  O  O299  1  0.25321920  0.25503005  0.11703746  1
  O  O300  1  0.26010075  0.25640079  0.62172907  1
  O  O301  1  0.24350059  0.75875814  0.11102819  1
  O  O302  1  0.26159229  0.74107184  0.61366558  1
  O  O303  1  0.76701859  0.24619579  0.12229046  1
  O  O304  1  0.75982853  0.25767526  0.61965755  1
  O  O305  1  0.76359794  0.76063594  0.12875875  1
  O  O306  1  0.75276786  0.75718473  0.61717566  1
  O  O307  1  0.25065624  0.25965793  0.39048002  1
  O  O308  1  0.24775734  0.24141102  0.87835871  1
  O  O309  1  0.25328773  0.74413400  0.39086860  1
  O  O310  1  0.24309858  0.74801803  0.88244498  1
  O  O311  1  0.75655686  0.24177672  0.38540159  1
  O  O312  1  0.75715645  0.24105219  0.87903778  1
  O  O313  1  0.74417868  0.75461097  0.38649312  1
  O  O314  1  0.75208496  0.74852128  0.86671860  1
  O  O315  1  -0.00024241  0.12157436  0.01546056  1
  O  O316  1  0.00045520  0.11681324  0.50817469  1
  O  O317  1  0.00720924  0.61929598  0.01189511  1
  O  O318  1  0.00372739  0.62092735  0.50988780  1
  O  O319  1  0.50548837  0.11539030  0.00549711  1
  O  O320  1  0.50746829  0.11756494  0.49414889  1
  O  O321  1  0.50825497  0.61043688  0.00162358  1
  O  O322  1  0.50900017  0.62739104  0.50451265  1
  O  O323  1  0.49701935  0.37626670  0.49291796  1
  O  O324  1  0.50413575  0.38561074  0.99395831  1
  O  O325  1  0.49084420  0.88429604  0.49597088  1
  O  O326  1  0.49863582  0.88680607  1.00269435  1
  O  O327  1  0.99306825  0.38237201  0.49537690  1
  O  O328  1  0.99402497  0.37928089  0.99155765  1
  O  O329  1  0.99714867  0.87994129  0.48904643  1
  O  O330  1  0.98829359  0.87467701  0.99364705  1
  O  O331  1  0.49230455  0.49024105  0.37482930  1
  O  O332  1  0.49302275  0.49297171  0.88018281  1
  O  O333  1  0.50345064  0.99624623  0.39149831  1
  O  O334  1  0.50096152  1.00117393  0.88416377  1
  O  O335  1  0.98802755  0.49054512  0.37977679  1
  O  O336  1  0.99635552  0.49279170  0.88154373  1
  O  O337  1  0.99418578  0.99364543  0.38091145  1
  O  O338  1  0.98779757  0.99553145  0.87211486  1
  O  O339  1  -0.00708785  0.01753995  0.12760559  1
  O  O340  1  -0.01080245  0.00949348  0.61386059  1
  O  O341  1  0.00506150  0.50680592  0.11896172  1
  O  O342  1  0.00048090  0.50671355  0.62140659  1
  O  O343  1  0.50133671  0.00846131  0.12565135  1
  O  O344  1  0.50327399  -0.00194889  0.60618259  1
  O  O345  1  0.50754004  0.50038269  0.11820568  1
  O  O346  1  0.50003119  0.51054411  0.62350068  1
  O  O347  1  0.24327404  0.37868792  0.24258889  1
  O  O348  1  0.25027381  0.38405070  0.74115220  1
  O  O349  1  0.24355169  0.87809968  0.24089354  1
  O  O350  1  0.23677084  0.88539891  0.75217579  1
  O  O351  1  0.73905450  0.38335248  0.25562730  1
  O  O352  1  0.74869688  0.38248037  0.74233725  1
  O  O353  1  0.74187863  0.87762568  0.24275287  1
  O  O354  1  0.74221074  0.88715429  0.73988351  1
  O  O355  1  0.24751990  0.10486400  0.24637095  1
  O  O356  1  0.24801278  0.10995193  0.76050397  1
  O  O357  1  0.25544718  0.61910271  0.25186838  1
  O  O358  1  0.24913283  0.61279008  0.75001899  1
  O  O359  1  0.75650027  0.12555678  0.25796622  1
  O  O360  1  0.75829259  0.12421168  0.75743033  1
  O  O361  1  0.75928098  0.61767363  0.24716294  1
  O  O362  1  0.74782302  0.61250928  0.73669757  1
  O  O363  1  0.36558228  0.13243183  0.36485981  1
  O  O364  1  0.36290587  0.12444102  0.87361075  1
  O  O365  1  0.37615979  0.61259724  0.36745935  1
  O  O366  1  0.37291531  0.61057319  0.87095852  1
  O  O367  1  0.86913697  0.12091686  0.36997825  1
  O  O368  1  0.87365585  0.12276061  0.87021353  1
  O  O369  1  0.88157478  0.61672705  0.36665203  1
  O  O370  1  0.88673839  0.61025485  0.87980892  1
  O  O371  1  0.12795989  0.37646730  0.13085588  1
  O  O372  1  0.13387169  0.38018042  0.62669876  1
  O  O373  1  0.12872933  0.87085012  0.13504532  1
  O  O374  1  0.11793073  0.87093328  0.63953245  1
  O  O375  1  0.62224205  0.38826013  0.13422204  1
  O  O376  1  0.63807068  0.37643891  0.62313744  1
  O  O377  1  0.63615262  0.86857077  0.13281924  1
  O  O378  1  0.63603441  0.87545431  0.63027562  1
  O  O379  1  0.13114450  0.26102844  0.25350960  1
  O  O380  1  0.13303442  0.25250978  0.76426302  1
  O  O381  1  0.13150910  0.76660675  0.25321465  1
  O  O382  1  0.12144494  0.75702255  0.75555019  1
  O  O383  1  0.61718131  0.26073125  0.24470443  1
  O  O384  1  0.60961701  0.25263224  0.74341841  1
  O  O385  1  0.61994795  0.75428907  0.25515275  1
  O  O386  1  0.61643337  0.75991047  0.75257116  1
  O  O387  1  0.39206757  0.25489148  0.24479772  1
  O  O388  1  0.38288349  0.25413312  0.73662154  1
  O  O389  1  0.38206159  0.73975631  0.25609685  1
  O  O390  1  0.37917353  0.75106603  0.74247731  1
  O  O391  1  0.87454550  0.24140134  0.24576647  1
  O  O392  1  0.87169384  0.24262354  0.74148011  1
  O  O393  1  0.87214912  0.73911597  0.24522075  1
  O  O394  1  0.87814173  0.74930651  0.74408914  1
  O  O395  1  0.37632272  0.49555737  0.49207938  1
  O  O396  1  0.38324282  0.50163298  0.99179424  1
  O  O397  1  0.38235755  0.99361488  0.50290901  1
  O  O398  1  0.39381942  0.99238177  1.00336024  1
  O  O399  1  0.87613193  0.49748458  0.49239143  1
  O  O400  1  0.88118144  0.49397635  0.99600891  1
  O  O401  1  0.88259974  0.99873446  0.48767851  1
  O  O402  1  0.87924013  0.99430977  0.99294035  1
  O  O403  1  0.11756674  0.00061843  -0.00767225  1
  O  O404  1  0.11230421  -0.00114160  0.49903227  1
  O  O405  1  0.12140148  0.50647372  0.00518857  1
  O  O406  1  0.11783013  0.50436085  0.50659123  1
  O  O407  1  0.61177600  0.00904870  -0.00193872  1
  O  O408  1  0.61691327  0.00836876  0.50172205  1
  O  O409  1  0.62046396  0.50476602  0.00738288  1
  O  O410  1  0.62411908  0.51175150  0.50128267  1
  O  O411  1  0.36292239  0.37536011  0.12857498  1
  O  O412  1  0.36688426  0.37373865  0.62010761  1
  O  O413  1  0.36371283  0.87124922  0.11074821  1
  O  O414  1  0.37861711  0.86294099  0.61310270  1
  O  O415  1  0.88257963  0.36830466  0.11628448  1
  O  O416  1  0.86767681  0.36958493  0.61999151  1
  O  O417  1  0.87343394  0.86850910  0.12007785  1
  O  O418  1  0.86351235  0.86538736  0.62498496  1
  O  O419  1  0.13306044  0.12584538  0.37799541  1
  O  O420  1  0.13474160  0.13118146  0.87603765  1
  O  O421  1  0.11981127  0.61695617  0.38843516  1
  O  O422  1  0.12495951  0.63641409  0.87960334  1
  O  O423  1  0.63891121  0.12327605  0.38524965  1
  O  O424  1  0.63769463  0.12228265  0.88418422  1
  O  O425  1  0.62068426  0.63808171  0.38085456  1
  O  O426  1  0.62473704  0.62195115  0.88882719  1
