# generated using pymatgen
data_V85Zn86O256
_symmetry_space_group_name_H-M   'P 1'
_cell_length_a   16.94612235
_cell_length_b   16.95203649
_cell_length_c   16.94545661
_cell_angle_alpha   90.02742638
_cell_angle_beta   89.93350187
_cell_angle_gamma   90.00701788
_symmetry_Int_Tables_number   1
_chemical_formula_structural   V85Zn86O256
_chemical_formula_sum   'V85 Zn86 O256'
_cell_volume   4867.93921323
_cell_formula_units_Z   1
loop_
 _symmetry_equiv_pos_site_id
 _symmetry_equiv_pos_as_xyz
  1  'x, y, z'
loop_
 _atom_site_type_symbol
 _atom_site_label
 _atom_site_symmetry_multiplicity
 _atom_site_fract_x
 _atom_site_fract_y
 _atom_site_fract_z
 _atom_site_occupancy
  V  V0  1  0.13247490  0.75611561  0.87554558  1
  V  V1  1  0.12496304  0.87568868  0.25730135  1
  V  V2  1  0.62844022  -0.00269574  0.62305764  1
  V  V3  1  0.00072892  0.62610628  0.12197229  1
  V  V4  1  0.88472724  -0.00717781  0.37625779  1
  V  V5  1  0.12297736  0.24901950  0.38076433  1
  V  V6  1  0.38585535  0.25131508  0.12590610  1
  V  V7  1  0.25224950  0.00302755  0.24648246  1
  V  V8  1  0.87661690  0.62787058  0.74400477  1
  V  V9  1  0.13024797  -0.00001169  0.12333787  1
  V  V10  1  0.74932845  -0.00955008  0.23849850  1
  V  V11  1  0.37416230  0.50053433  0.86939341  1
  V  V12  1  0.62862828  0.62154212  0.49207625  1
  V  V13  1  0.38137598  0.13558187  0.25059941  1
  V  V14  1  -0.00139958  0.11517555  0.63758728  1
  V  V15  1  0.88835990  0.87446059  0.49581594  1
  V  V16  1  0.88074157  0.24556111  0.63893616  1
  V  V17  1  0.25113382  0.62519201  0.37434316  1
  V  V18  1  0.24859845  0.12814324  0.37263851  1
  V  V19  1  0.75478838  0.12602699  0.86356304  1
  V  V20  1  -0.00050584  0.75361649  0.25721243  1
  V  V21  1  0.75032987  0.75750121  0.00514478  1
  V  V22  1  0.49944976  0.36951796  0.37540050  1
  V  V23  1  0.25943811  0.86305589  0.11561868  1
  V  V24  1  -0.00255948  0.25175826  0.24775298  1
  V  V25  1  0.37688672  0.00013984  0.37245593  1
  V  V26  1  0.12562817  0.49963343  0.12783606  1
  V  V27  1  0.36923189  0.62217179  0.74490997  1
  V  V28  1  0.38705688  0.00158498  0.87175699  1
  V  V29  1  0.49240117  0.12344827  0.63038704  1
  V  V30  1  0.43109203  0.66797559  0.20918717  1
  V  V31  1  0.87165298  0.24744630  0.12613020  1
  V  V32  1  0.88415117  0.36811143  -0.00971752  1
  V  V33  1  0.38283136  0.37485825  0.00216650  1
  V  V34  1  0.87123913  0.62634995  0.25149153  1
  V  V35  1  0.75331959  0.24681271  0.49936575  1
  V  V36  1  0.62633926  0.25410021  0.86600689  1
  V  V37  1  0.25128259  0.62762837  0.87315290  1
  V  V38  1  0.37595404  0.75219920  0.62243668  1
  V  V39  1  0.87511728  0.37374979  0.50124093  1
  V  V40  1  0.25094549  0.74852350  0.49855214  1
  V  V41  1  0.75365176  0.86851007  0.62193535  1
  V  V42  1  0.37520414  0.49970139  0.37497526  1
  V  V43  1  0.62238503  0.24615600  0.37038494  1
  V  V44  1  0.12327535  0.37580870  0.24965503  1
  V  V45  1  0.11471229  0.11285941  0.50531058  1
  V  V46  1  0.50252970  0.62173267  0.62281156  1
  V  V47  1  0.74869928  0.37597672  0.12357456  1
  V  V48  1  0.73839497  0.37734895  0.62950412  1
  V  V49  1  0.75069844  0.63114209  0.87581343  1
  V  V50  1  0.62216514  0.87438865  0.23497455  1
  V  V51  1  0.03741698  0.46375495  -0.04096477  1
  V  V52  1  0.74924681  0.50341755  0.25336099  1
  V  V53  1  0.61580498  0.75600846  0.87916323  1
  V  V54  1  0.24561726  0.37691626  0.64868550  1
  V  V55  1  0.87356643  0.50182782  0.37397923  1
  V  V56  1  0.86929171  0.50229463  0.87944836  1
  V  V57  1  0.36580997  0.37107674  0.50155258  1
  V  V58  1  0.87211670  0.12170438  0.25064131  1
  V  V59  1  0.62014537  0.37101421  0.24771849  1
  V  V60  1  0.50579214  0.11824060  0.12459439  1
  V  V61  1  0.24481524  0.88441730  0.62392463  1
  V  V62  1  0.50292164  -0.00403309  0.49603554  1
  V  V63  1  0.88051928  0.00391102  0.86475135  1
  V  V64  1  0.00270168  0.75037917  0.74253643  1
  V  V65  1  0.87458387  0.87720112  0.00511754  1
  V  V66  1  0.00412572  0.87571511  0.87407055  1
  V  V67  1  0.13119815  0.63443688  0.00150861  1
  V  V68  1  0.62147329  0.87208938  0.74910302  1
  V  V69  1  0.62226049  0.11450007  -0.00068377  1
  V  V70  1  0.25237707  0.50335825  0.25061530  1
  V  V71  1  0.74562101  0.24909125  -0.00168913  1
  V  V72  1  0.25007269  0.13244927  0.86832133  1
  V  V73  1  0.50632576  0.37757762  0.86443130  1
  V  V74  1  0.75180168  0.74757820  0.49357041  1
  V  V75  1  0.50199258  0.50721411  0.00505958  1
  V  V76  1  0.62688362  0.12161099  0.49833820  1
  V  V77  1  0.11967002  0.62333577  0.50541057  1
  V  V78  1  0.50392462  0.49555895  0.50519297  1
  V  V79  1  -0.00333847  0.50099704  0.51207956  1
  V  V80  1  0.62331315  0.62976326  0.00590182  1
  V  V81  1  0.00452366  0.00208492  -0.00128161  1
  V  V82  1  0.62226684  0.75437393  0.37125318  1
  V  V83  1  0.12699388  0.49962201  0.63675884  1
  V  V84  1  -0.00304737  0.37801463  0.37489622  1
  Zn  Zn85  1  0.38550020  0.87274962  0.98481349  1
  Zn  Zn86  1  0.73394483  0.49213016  0.75143159  1
  Zn  Zn87  1  0.13036902  0.13074457  -0.00287189  1
  Zn  Zn88  1  0.75580415  -0.00055624  0.74397292  1
  Zn  Zn89  1  0.62309115  0.50448879  0.12782822  1
  Zn  Zn90  1  0.74991881  0.11810643  0.37489367  1
  Zn  Zn91  1  0.87443244  0.75447289  0.12637866  1
  Zn  Zn92  1  0.36382618  0.24175048  0.63307095  1
  Zn  Zn93  1  0.37586237  0.87419670  0.49577446  1
  Zn  Zn94  1  0.56515402  -0.06019993  0.05755695  1
  Zn  Zn95  1  0.25276956  0.01231840  0.74665769  1
  Zn  Zn96  1  0.49769943  0.86994899  0.36530131  1
  Zn  Zn97  1  0.25145758  0.24983718  0.00042733  1
  Zn  Zn98  1  0.12493072  0.88712216  0.74479954  1
  Zn  Zn99  1  0.00001711  0.12287290  0.12340430  1
  Zn  Zn100  1  0.04726669  0.31521139  0.83607548  1
  Zn  Zn101  1  0.24410585  0.25014891  0.50827309  1
  Zn  Zn102  1  0.50289395  0.25035379  0.74640973  1
  Zn  Zn103  1  0.49677482  0.75427746  0.75120797  1
  Zn  Zn104  1  0.25682505  0.37631843  0.12635036  1
  Zn  Zn105  1  0.12053173  0.75431523  0.37943104  1
  Zn  Zn106  1  0.88052424  0.74588638  0.61978989  1
  Zn  Zn107  1  0.17781096  0.20367105  0.16167085  1
  Zn  Zn108  1  0.17602823  0.19335311  0.70046685  1
  Zn  Zn109  1  0.18908699  0.68894067  0.19082620  1
  Zn  Zn110  1  0.18746783  0.68926165  0.68619851  1
  Zn  Zn111  1  0.68663958  0.18329792  0.18750646  1
  Zn  Zn112  1  0.68623150  0.18755997  0.68333405  1
  Zn  Zn113  1  0.68611799  0.69208692  0.18525064  1
  Zn  Zn114  1  0.66845433  0.65886798  0.70338604  1
  Zn  Zn115  1  0.30987429  0.31328236  0.31093828  1
  Zn  Zn116  1  0.32017695  0.30552879  0.81314927  1
  Zn  Zn117  1  0.31140182  0.81334264  0.30831449  1
  Zn  Zn118  1  0.31427606  0.81636920  0.80972602  1
  Zn  Zn119  1  0.80711144  0.31325762  0.31335804  1
  Zn  Zn120  1  0.81602304  0.31511759  0.80840562  1
  Zn  Zn121  1  0.80996830  0.81274018  0.31302778  1
  Zn  Zn122  1  0.81321248  0.81358697  0.81339925  1
  Zn  Zn123  1  0.18201776  0.43799588  0.43988270  1
  Zn  Zn124  1  0.20452527  0.43746976  0.93824372  1
  Zn  Zn125  1  0.18979222  0.93864985  0.43731824  1
  Zn  Zn126  1  0.19643949  0.94409382  0.93433472  1
  Zn  Zn127  1  0.68817711  0.43538763  0.43735908  1
  Zn  Zn128  1  0.68909103  0.43912176  0.93844689  1
  Zn  Zn129  1  0.69478652  0.93442616  0.43065424  1
  Zn  Zn130  1  0.69446990  0.93653031  0.92882398  1
  Zn  Zn131  1  0.31789886  0.06031062  0.05347970  1
  Zn  Zn132  1  0.31111128  0.06546824  0.55392924  1
  Zn  Zn133  1  0.31410194  0.56911853  0.06179119  1
  Zn  Zn134  1  0.31056890  0.55788769  0.56219281  1
  Zn  Zn135  1  0.81186931  0.06262650  0.05682397  1
  Zn  Zn136  1  0.81867216  0.05988522  0.56097049  1
  Zn  Zn137  1  0.81206227  0.56319131  0.06317556  1
  Zn  Zn138  1  0.80822518  0.56180763  0.56347500  1
  Zn  Zn139  1  0.44166582  0.44735895  0.19015421  1
  Zn  Zn140  1  0.43412562  0.43306704  0.68664229  1
  Zn  Zn141  1  0.43685117  0.94055711  0.18660257  1
  Zn  Zn142  1  0.43335579  0.94023856  0.69028285  1
  Zn  Zn143  1  0.93749473  0.43824503  0.17912123  1
  Zn  Zn144  1  0.92751430  0.43974016  0.69479376  1
  Zn  Zn145  1  0.94097163  0.93750137  0.18701035  1
  Zn  Zn146  1  0.94115276  0.93446487  0.68430931  1
  Zn  Zn147  1  0.06208580  0.06435307  0.30857686  1
  Zn  Zn148  1  0.07559721  0.06509144  0.80987149  1
  Zn  Zn149  1  0.06133439  0.56674781  0.31495946  1
  Zn  Zn150  1  0.06175982  0.57117687  0.81063869  1
  Zn  Zn151  1  0.56421235  0.05936902  0.30746684  1
  Zn  Zn152  1  0.56930678  0.06062836  0.81018762  1
  Zn  Zn153  1  0.56616692  0.55806616  0.31952150  1
  Zn  Zn154  1  0.56027929  0.56536994  0.81423739  1
  Zn  Zn155  1  0.43697780  0.18717069  0.44374678  1
  Zn  Zn156  1  0.43794258  0.18374425  0.93416568  1
  Zn  Zn157  1  0.43739425  0.68601235  0.43057014  1
  Zn  Zn158  1  0.43343427  0.68992243  0.93470701  1
  Zn  Zn159  1  0.93798877  0.18506238  0.43621781  1
  Zn  Zn160  1  0.93745326  0.18462717  0.93637942  1
  Zn  Zn161  1  0.93679761  0.68433173  0.43538546  1
  Zn  Zn162  1  0.94313371  0.68853908  0.93728726  1
  Zn  Zn163  1  0.04994929  0.29930722  0.03394722  1
  Zn  Zn164  1  0.05607414  0.31647715  0.67319673  1
  Zn  Zn165  1  0.06561771  0.81515068  0.06590045  1
  Zn  Zn166  1  0.06486130  0.81175252  0.56168327  1
  Zn  Zn167  1  0.56111762  0.30944770  0.06011372  1
  Zn  Zn168  1  0.56227193  0.30742990  0.55759638  1
  Zn  Zn169  1  0.47159810  0.77344712  0.07572616  1
  Zn  Zn170  1  0.56422192  0.81093762  0.56010356  1
  O  O171  1  0.12134782  0.10650637  0.13392534  1
  O  O172  1  0.11030611  0.13348203  0.61276429  1
  O  O173  1  0.12311253  0.62088772  0.11948244  1
  O  O174  1  0.13228447  0.61707552  0.61234707  1
  O  O175  1  0.61915958  0.12956418  0.11346028  1
  O  O176  1  0.62158020  0.11559373  0.61612861  1
  O  O177  1  0.63452541  0.62264096  0.10971084  1
  O  O178  1  0.60640521  0.63819385  0.60578589  1
  O  O179  1  0.38085752  0.37599192  0.38211672  1
  O  O180  1  0.38541964  0.38419290  0.88201823  1
  O  O181  1  0.37797581  0.88568395  0.37388538  1
  O  O182  1  0.37077824  0.89141891  0.87002569  1
  O  O183  1  0.87651519  0.38084089  0.37993680  1
  O  O184  1  0.86432985  0.38903872  0.87937928  1
  O  O185  1  0.87361947  0.88444925  0.37954692  1
  O  O186  1  0.88436813  0.88334438  0.88276753  1
  O  O187  1  0.25927211  0.00726564  0.36957186  1
  O  O188  1  0.25830790  0.01622959  0.87218335  1
  O  O189  1  0.25103243  0.50591197  0.37013516  1
  O  O190  1  0.26724127  0.50902210  0.87661720  1
  O  O191  1  0.76243278  0.00020915  0.36151230  1
  O  O192  1  0.76265847  0.00979422  0.87140068  1
  O  O193  1  0.75640132  0.49368881  0.36119500  1
  O  O194  1  0.75260647  0.51236309  0.87234825  1
  O  O195  1  0.24389596  0.50183660  0.13394590  1
  O  O196  1  0.24035117  0.48672049  0.62101020  1
  O  O197  1  0.24639150  0.99649366  0.12991820  1
  O  O198  1  0.25980589  0.98587893  0.61929462  1
  O  O199  1  0.74951613  0.49206705  0.13422283  1
  O  O200  1  0.75484068  0.47966119  0.62329132  1
  O  O201  1  0.75763442  1.00307169  0.13968343  1
  O  O202  1  0.74888392  0.98809637  0.62240432  1
  O  O203  1  0.00263838  0.37189995  0.25348978  1
  O  O204  1  -0.01068445  0.36820744  0.75037478  1
  O  O205  1  0.01107516  0.86504800  0.24154788  1
  O  O206  1  0.00422747  0.86834230  0.75594992  1
  O  O207  1  0.51424289  0.38146242  0.25592408  1
  O  O208  1  0.50738938  0.38419219  0.76199464  1
  O  O209  1  0.51803418  0.88432705  0.24846341  1
  O  O210  1  0.51728244  0.87161892  0.73486046  1
  O  O211  1  0.49386634  0.12155242  0.24051889  1
  O  O212  1  0.50838030  0.12253825  0.73153483  1
  O  O213  1  0.47749448  0.59102488  0.25966350  1
  O  O214  1  0.48770084  0.62971462  0.73705371  1
  O  O215  1  0.98637865  0.13151418  0.24644690  1
  O  O216  1  1.00271697  0.12194509  0.73680362  1
  O  O217  1  0.99427357  0.63399426  0.24420848  1
  O  O218  1  0.98718250  0.63722161  0.75572467  1
  O  O219  1  0.38285251  0.26053709  0.00879828  1
  O  O220  1  0.37047405  0.25793598  0.50816120  1
  O  O221  1  0.38259784  0.75664533  0.00530655  1
  O  O222  1  0.36715883  0.74977917  0.50296242  1
  O  O223  1  0.85901151  0.24678909  0.00977487  1
  O  O224  1  0.86390960  0.25275626  0.49755196  1
  O  O225  1  0.87128737  0.75991136  -0.00223775  1
  O  O226  1  0.86903754  0.75346670  0.49802924  1
  O  O227  1  0.12345017  0.24366589  0.48257339  1
  O  O228  1  0.14158387  0.23920448  1.04559582  1
  O  O229  1  0.13163727  0.74093794  0.49893201  1
  O  O230  1  0.12057786  0.74437712  0.99081036  1
  O  O231  1  0.63669087  0.24301630  0.49226190  1
  O  O232  1  0.63471912  0.24473833  0.99189897  1
  O  O233  1  0.63294179  0.74557240  0.49059485  1
  O  O234  1  0.63525017  0.74496422  0.99240329  1
  O  O235  1  0.49335079  0.24026323  0.12498546  1
  O  O236  1  0.50533095  0.23035800  0.61950176  1
  O  O237  1  0.50708661  0.72005880  0.16310654  1
  O  O238  1  0.48692318  0.74244573  0.61758902  1
  O  O239  1  0.98215908  0.24916726  0.12758658  1
  O  O240  1  0.98377468  0.24153279  0.61857534  1
  O  O241  1  1.00068435  0.73967457  0.13275920  1
  O  O242  1  1.00081067  0.75268408  0.63809649  1
  O  O243  1  0.00356124  0.25604848  0.36619402  1
  O  O244  1  -0.01211958  0.28423050  0.93232752  1
  O  O245  1  0.00195919  0.74547591  0.36154079  1
  O  O246  1  0.01184831  0.75646851  0.86771004  1
  O  O247  1  0.51397957  0.25428224  0.38505000  1
  O  O248  1  0.51006553  0.26039705  0.87534090  1
  O  O249  1  0.51602517  0.75228906  0.38026224  1
  O  O250  1  0.51346683  0.74567475  0.86992180  1
  O  O251  1  0.23736632  0.13076048  0.49313112  1
  O  O252  1  0.25118891  0.12904805  0.99145212  1
  O  O253  1  0.24309638  0.63051761  0.49591439  1
  O  O254  1  0.23845097  0.62270351  0.99207186  1
  O  O255  1  0.74562369  0.13056652  0.49834289  1
  O  O256  1  0.74287539  0.13179851  0.99129839  1
  O  O257  1  0.73967156  0.63302572  0.50548360  1
  O  O258  1  0.74800826  0.63266269  0.99118107  1
  O  O259  1  0.27071464  0.37400889  0.00514698  1
  O  O260  1  0.25923886  0.37188800  0.49388587  1
  O  O261  1  0.25102048  0.87889080  0.01450356  1
  O  O262  1  0.25201129  0.86604324  0.50566325  1
  O  O263  1  0.75623985  0.36577968  0.00394745  1
  O  O264  1  0.75511966  0.36596087  0.50561687  1
  O  O265  1  0.76192762  0.86921649  -0.00594764  1
  O  O266  1  0.75940370  0.86708582  0.50338126  1
  O  O267  1  0.13248558  0.49824551  0.24688082  1
  O  O268  1  0.11952241  0.50973526  0.73574125  1
  O  O269  1  0.13013086  0.99268624  0.24499852  1
  O  O270  1  0.13875053  0.99909705  0.74651531  1
  O  O271  1  0.63369509  0.49276583  0.24932643  1
  O  O272  1  0.63836838  0.54973193  0.73779067  1
  O  O273  1  0.64072768  0.98883951  0.25365050  1
  O  O274  1  0.63241496  0.99012481  0.74160287  1
  O  O275  1  0.37417731  0.01018811  0.25932766  1
  O  O276  1  0.36845641  -0.00034717  0.76030070  1
  O  O277  1  0.35763227  0.48637770  0.25882839  1
  O  O278  1  0.38229293  0.50921401  0.75814362  1
  O  O279  1  0.86919843  0.00279187  0.25385695  1
  O  O280  1  0.87551333  -0.00684382  0.76180906  1
  O  O281  1  0.86871484  0.50613638  0.25133834  1
  O  O282  1  0.86472187  0.51291063  0.76052737  1
  O  O283  1  0.11751913  0.36794745  0.36951628  1
  O  O284  1  0.10440334  0.39681253  0.90646224  1
  O  O285  1  0.13074228  0.87465836  0.36193842  1
  O  O286  1  0.12338299  0.87001814  0.87427671  1
  O  O287  1  0.62113778  0.36576613  0.36851472  1
  O  O288  1  0.61958478  0.36619389  0.88149383  1
  O  O289  1  0.62404188  0.86763861  0.36707105  1
  O  O290  1  0.63207719  0.86701321  0.86244668  1
  O  O291  1  0.38440588  0.13066865  0.13108884  1
  O  O292  1  0.38856129  0.12410253  0.61750936  1
  O  O293  1  0.37124030  0.62806811  0.13717247  1
  O  O294  1  0.37938660  0.62938923  0.62655833  1
  O  O295  1  0.87401207  0.13126312  0.13143536  1
  O  O296  1  0.88526867  0.13590834  0.61748003  1
  O  O297  1  0.88456175  0.62545138  0.13306568  1
  O  O298  1  0.86712105  0.62709672  0.63984082  1
  O  O299  1  0.27539469  0.25676500  0.13192571  1
  O  O300  1  0.24513214  0.26574266  0.62742126  1
  O  O301  1  0.24403802  0.76537155  0.12818804  1
  O  O302  1  0.25887929  0.75290976  0.61341397  1
  O  O303  1  0.75492252  0.25345614  0.11924027  1
  O  O304  1  0.75850213  0.25275656  0.61718752  1
  O  O305  1  0.75603158  0.74633879  0.10902021  1
  O  O306  1  0.75129872  0.76062797  0.61137994  1
  O  O307  1  0.23860510  0.24355602  0.37098594  1
  O  O308  1  0.26112992  0.23898144  0.88268588  1
  O  O309  1  0.24756021  0.74373183  0.38521771  1
  O  O310  1  0.23902222  0.74554193  0.86743355  1
  O  O311  1  0.74083587  0.24625526  0.38222803  1
  O  O312  1  0.74680509  0.24556294  0.88048616  1
  O  O313  1  0.74172671  0.75307163  0.38624684  1
  O  O314  1  0.74590111  0.74763866  0.88551834  1
  O  O315  1  0.00512273  0.11280206  0.00180897  1
  O  O316  1  0.01219579  0.12584828  0.49914913  1
  O  O317  1  0.01315593  0.62344264  0.00865730  1
  O  O318  1  0.00755258  0.61502907  0.49589045  1
  O  O319  1  0.51433187  0.13177847  0.00663419  1
  O  O320  1  0.50733803  0.11293346  0.50498847  1
  O  O321  1  0.51163036  0.61878272  -0.00780665  1
  O  O322  1  0.50331561  0.61376670  0.50169419  1
  O  O323  1  0.49060952  0.37846419  0.49912488  1
  O  O324  1  0.49606200  0.38362271  0.99142171  1
  O  O325  1  0.49933665  0.88773373  0.49893602  1
  O  O326  1  0.49838180  0.86399128  1.01675835  1
  O  O327  1  0.98842733  0.38649575  0.49028099  1
  O  O328  1  0.99070173  0.40280619  1.03203673  1
  O  O329  1  0.98798297  0.86716767  0.49971525  1
  O  O330  1  0.99832553  0.88495196  0.99392025  1
  O  O331  1  0.49659585  0.48761529  0.38846072  1
  O  O332  1  0.49482669  0.49730023  0.88268207  1
  O  O333  1  0.49446294  0.99936497  0.38041664  1
  O  O334  1  0.48761435  1.00903750  0.86835525  1
  O  O335  1  0.99297057  0.49607039  0.37944094  1
  O  O336  1  0.98769831  0.51141804  0.87898171  1
  O  O337  1  0.98338069  1.00010655  0.36307844  1
  O  O338  1  0.99825313  0.99789705  0.88045777  1
  O  O339  1  0.00903981  -0.00122638  0.11532833  1
  O  O340  1  -0.00930361  0.01629880  0.62162039  1
  O  O341  1  0.01220134  0.51791577  0.13866948  1
  O  O342  1  0.00241343  0.49451705  0.61562528  1
  O  O343  1  0.50078284  0.01307047  0.12337203  1
  O  O344  1  0.50457524  0.00724240  0.61618074  1
  O  O345  1  0.50438618  0.49838158  0.10927982  1
  O  O346  1  0.49342450  0.50608040  0.61295765  1
  O  O347  1  0.23906852  0.38319270  0.24942357  1
  O  O348  1  0.25264482  0.37918956  0.74647708  1
  O  O349  1  0.24330373  0.88256441  0.24348918  1
  O  O350  1  0.24890559  0.86861102  0.72865841  1
  O  O351  1  0.74033788  0.38081072  0.24409301  1
  O  O352  1  0.74820186  0.37477255  0.73537531  1
  O  O353  1  0.74610768  0.88494896  0.24810882  1
  O  O354  1  0.74368322  0.87256283  0.73806434  1
  O  O355  1  0.26152302  0.11934065  0.25586559  1
  O  O356  1  0.25180863  0.13306756  0.76193884  1
  O  O357  1  0.24194499  0.61603147  0.26254398  1
  O  O358  1  0.26239857  0.62913715  0.75296249  1
  O  O359  1  0.75928750  0.11558456  0.25069204  1
  O  O360  1  0.74564035  0.12308410  0.76066200  1
  O  O361  1  0.75867046  0.61605095  0.24215079  1
  O  O362  1  0.76452694  0.64359474  0.76803246  1
  O  O363  1  0.37217402  0.12208773  0.36942805  1
  O  O364  1  0.36665186  0.11616064  0.87758834  1
  O  O365  1  0.35884216  0.61359065  0.38651780  1
  O  O366  1  0.37313243  0.61998755  0.86397868  1
  O  O367  1  0.87317353  0.11450181  0.36683776  1
  O  O368  1  0.86773056  0.11717984  0.87870535  1
  O  O369  1  0.87753043  0.61812278  0.35921184  1
  O  O370  1  0.86871412  0.62180312  0.87353320  1
  O  O371  1  0.12692525  0.39300967  0.13068684  1
  O  O372  1  0.13838669  0.38477453  0.62429710  1
  O  O373  1  0.13412517  0.88444065  0.13304292  1
  O  O374  1  0.14160699  0.87198621  0.62070527  1
  O  O375  1  0.63000438  0.37419543  0.13141018  1
  O  O376  1  0.64000062  0.36636062  0.61807983  1
  O  O377  1  0.62890227  0.87557853  0.13690447  1
  O  O378  1  0.63492097  0.87829929  0.62564725  1
  O  O379  1  0.11597587  0.25626675  0.25080658  1
  O  O380  1  0.10993040  0.26089927  0.75743360  1
  O  O381  1  0.11748821  0.75758123  0.25333449  1
  O  O382  1  0.11814681  0.75084192  0.75673632  1
  O  O383  1  0.63248155  0.25748490  0.25983280  1
  O  O384  1  0.62278475  0.24585141  0.76187711  1
  O  O385  1  0.63913436  0.76630880  0.25758940  1
  O  O386  1  0.62432483  0.75416551  0.75891863  1
  O  O387  1  0.37916714  0.24048949  0.24953495  1
  O  O388  1  0.39197925  0.26566583  0.73933860  1
  O  O389  1  0.38063720  0.73362911  0.26971825  1
  O  O390  1  0.37695012  0.74388405  0.73846440  1
  O  O391  1  0.87324319  0.24202241  0.24475928  1
  O  O392  1  0.86986940  0.24338577  0.73724201  1
  O  O393  1  0.87939744  0.74432624  0.24780684  1
  O  O394  1  0.88572099  0.74647401  0.75034009  1
  O  O395  1  0.38088188  0.48975426  0.49424758  1
  O  O396  1  0.38381843  0.49793269  0.99363532  1
  O  O397  1  0.38326722  1.00172020  0.48582682  1
  O  O398  1  0.37555347  0.99315097  0.98157685  1
  O  O399  1  0.87936435  0.49786091  0.49567493  1
  O  O400  1  0.86936989  0.49486914  0.98719683  1
  O  O401  1  0.87235885  0.99075416  0.48374692  1
  O  O402  1  0.88401360  0.99539182  0.99168478  1
  O  O403  1  0.11991133  0.00038987  0.00751977  1
  O  O404  1  0.12699117  0.01485981  0.49609071  1
  O  O405  1  0.12708620  0.50959812  0.00976634  1
  O  O406  1  0.11463935  0.50526961  0.50699077  1
  O  O407  1  0.63309058  0.00939889  -0.00426341  1
  O  O408  1  0.62098139  0.00142782  0.50096966  1
  O  O409  1  0.61944682  0.51034238  -0.00107221  1
  O  O410  1  0.61709614  0.50762834  0.49383543  1
  O  O411  1  0.38488245  0.37044647  0.11891171  1
  O  O412  1  0.35757330  0.37977568  0.61751859  1
  O  O413  1  0.36114802  0.87599511  0.13234248  1
  O  O414  1  0.36851509  0.86605308  0.61922734  1
  O  O415  1  0.86634522  0.36563973  0.11958977  1
  O  O416  1  0.86689532  0.35998846  0.61833305  1
  O  O417  1  0.88285450  0.87433856  0.10921331  1
  O  O418  1  0.87033060  0.87163726  0.61459374  1
  O  O419  1  0.12739068  0.13051229  0.37794603  1
  O  O420  1  0.14268922  0.12758346  0.88022182  1
  O  O421  1  0.13452589  0.62447810  0.38764940  1
  O  O422  1  0.13026568  0.63265975  0.88279743  1
  O  O423  1  0.62685164  0.13013759  0.37860755  1
  O  O424  1  0.63339671  0.13200347  0.88131752  1
  O  O425  1  0.62319068  0.63306499  0.38493155  1
  O  O426  1  0.63435286  0.63634469  0.88485412  1
