# generated using pymatgen
data_V85Zn86O256
_symmetry_space_group_name_H-M   'P 1'
_cell_length_a   16.92868521
_cell_length_b   16.92280602
_cell_length_c   16.92122083
_cell_angle_alpha   90.06608417
_cell_angle_beta   89.94970315
_cell_angle_gamma   90.02594507
_symmetry_Int_Tables_number   1
_chemical_formula_structural   V85Zn86O256
_chemical_formula_sum   'V85 Zn86 O256'
_cell_volume   4847.60024135
_cell_formula_units_Z   1
loop_
 _symmetry_equiv_pos_site_id
 _symmetry_equiv_pos_as_xyz
  1  'x, y, z'
loop_
 _atom_site_type_symbol
 _atom_site_label
 _atom_site_symmetry_multiplicity
 _atom_site_fract_x
 _atom_site_fract_y
 _atom_site_fract_z
 _atom_site_occupancy
  V  V0  1  -0.01018320  0.62993245  0.62725959  1
  V  V1  1  0.49843513  0.86584595  0.36669403  1
  V  V2  1  0.75308659  0.12739519  0.88533639  1
  V  V3  1  0.12354965  0.62878762  -0.00643302  1
  V  V4  1  0.87968948  0.49600591  0.86928478  1
  V  V5  1  0.37917793  0.24934774  0.62691508  1
  V  V6  1  0.25141307  0.24921276  0.50070240  1
  V  V7  1  0.62756417  0.62517848  -0.00029036  1
  V  V8  1  0.75578890  0.62400105  0.86375877  1
  V  V9  1  0.50088526  0.74712844  0.74595895  1
  V  V10  1  0.37495665  0.74866785  0.62510476  1
  V  V11  1  0.62484010  0.75033481  0.87400411  1
  V  V12  1  0.00202962  0.00051696  -0.00987244  1
  V  V13  1  0.37213347  0.26317836  0.12525359  1
  V  V14  1  0.87336349  0.88045119  -0.00777292  1
  V  V15  1  0.87309944  -0.00673017  0.37691483  1
  V  V16  1  0.37498125  0.75211125  0.12959967  1
  V  V17  1  0.87306098  0.50159987  0.37287292  1
  V  V18  1  0.24553987  0.49792996  0.75056753  1
  V  V19  1  0.12496469  0.86508508  0.75510601  1
  V  V20  1  0.00329534  0.86405923  0.87494834  1
  V  V21  1  0.00486921  0.12415470  0.12560860  1
  V  V22  1  0.74450680  0.00227668  0.25482835  1
  V  V23  1  0.12918880  0.62381539  0.49388607  1
  V  V24  1  0.00098328  0.37420536  0.37422458  1
  V  V25  1  0.87320842  0.37047813  0.50011155  1
  V  V26  1  0.80850229  0.81654806  0.56047821  1
  V  V27  1  0.12111496  0.75327801  0.36432799  1
  V  V28  1  0.50056706  0.50374459  0.50127575  1
  V  V29  1  0.63042947  0.25426858  0.88504087  1
  V  V30  1  0.37526497  0.50082483  0.87499055  1
  V  V31  1  0.87006306  0.12793679  0.25594862  1
  V  V32  1  0.36436077  0.87511120  0.00250472  1
  V  V33  1  0.63086860  0.63056611  0.50501083  1
  V  V34  1  0.08201296  -0.05977698  0.18174387  1
  V  V35  1  0.49981862  0.50228054  0.00196462  1
  V  V36  1  0.25422116  -0.01035030  0.23768950  1
  V  V37  1  -0.00078401  0.49885023  0.50022684  1
  V  V38  1  -0.00067712  0.12244674  0.62715777  1
  V  V39  1  0.87298372  0.24926695  0.11658481  1
  V  V40  1  0.38147172  0.62686718  0.25334610  1
  V  V41  1  -0.00096394  0.49213252  -0.00307711  1
  V  V42  1  0.37756129  0.00317186  0.37826830  1
  V  V43  1  0.38285873  0.87989745  0.50200471  1
  V  V44  1  0.50538066  0.24480886  0.25186680  1
  V  V45  1  0.74645499  0.87298812  0.12567220  1
  V  V46  1  0.00146527  0.25041006  0.24890090  1
  V  V47  1  -0.00199157  -0.01212379  0.49931197  1
  V  V48  1  0.74586671  0.24221121  0.48283110  1
  V  V49  1  0.62631343  0.87756744  0.74341350  1
  V  V50  1  0.50498803  0.37719320  0.87006181  1
  V  V51  1  0.12672269  0.25039298  0.37616076  1
  V  V52  1  0.87690008  0.11014450  0.75681796  1
  V  V53  1  -0.00021453  0.26223027  0.75300845  1
  V  V54  1  0.74892291  0.36980621  0.11740376  1
  V  V55  1  0.74638404  0.00043773  0.75191484  1
  V  V56  1  0.25005473  0.50512926  0.25425227  1
  V  V57  1  0.75097451  0.49061778  0.74777140  1
  V  V58  1  0.75194236  0.74896899  -0.00060053  1
  V  V59  1  0.25273292  0.74631422  0.49159514  1
  V  V60  1  0.12487609  0.12352625  0.50139274  1
  V  V61  1  0.13221764  0.49793733  0.12200592  1
  V  V62  1  0.12302797  -0.00221911  0.62838070  1
  V  V63  1  0.37658101  0.12511757  0.23932660  1
  V  V64  1  0.24625369  0.63459120  0.87253210  1
  V  V65  1  0.87783654  0.63562810  0.25250639  1
  V  V66  1  0.12844113  0.12395711  -0.00238915  1
  V  V67  1  0.24791005  0.37227638  0.62976094  1
  V  V68  1  0.51146135  0.25339613  0.74833193  1
  V  V69  1  0.62775318  0.49963305  0.12729950  1
  V  V70  1  0.12392340  0.26889063  0.87116497  1
  V  V71  1  0.37768422  0.62483856  0.74535006  1
  V  V72  1  0.37174783  0.50262368  0.37778250  1
  V  V73  1  0.37290087  0.00610213  0.87580500  1
  V  V74  1  0.49922044  0.87760978  0.87962562  1
  V  V75  1  0.62699552  0.37318892  0.25978045  1
  V  V76  1  0.50480970  0.11763556  0.62272928  1
  V  V77  1  0.00124659  0.62823604  0.12901340  1
  V  V78  1  0.13316493  0.37324113  0.24506054  1
  V  V79  1  0.61735017  0.49539297  0.63141790  1
  V  V80  1  0.24964844  0.87469167  0.62409279  1
  V  V81  1  0.12345807  0.49594917  0.62558054  1
  V  V82  1  0.62379942  0.12041280  0.48528016  1
  V  V83  1  0.61899449  0.00671001  0.12256988  1
  V  V84  1  0.86888778  0.24466268  0.62812509  1
  Zn  Zn85  1  0.61817149  0.86437984  0.24491643  1
  Zn  Zn86  1  0.37827479  0.37403061  0.49832239  1
  Zn  Zn87  1  0.25094486  0.00321836  0.75067278  1
  Zn  Zn88  1  0.75560699  0.63617964  0.38126582  1
  Zn  Zn89  1  0.62377314  0.74242166  0.36422593  1
  Zn  Zn90  1  0.25157069  0.12325762  0.37274000  1
  Zn  Zn91  1  0.62758675  -0.00113036  0.61809064  1
  Zn  Zn92  1  0.87865578  0.75088541  0.12676524  1
  Zn  Zn93  1  0.87460217  0.37003277  -0.00689179  1
  Zn  Zn94  1  0.36880314  0.38104150  0.00371750  1
  Zn  Zn95  1  -0.00803217  0.73697246  0.75556282  1
  Zn  Zn96  1  0.49514329  0.00954294  0.00591733  1
  Zn  Zn97  1  0.74347969  0.36876816  0.62645023  1
  Zn  Zn98  1  0.24597233  0.25848731  0.00545134  1
  Zn  Zn99  1  0.75261858  0.50079485  0.25072741  1
  Zn  Zn100  1  0.37594879  0.12669797  0.75223748  1
  Zn  Zn101  1  0.50255770  0.37267394  0.37765028  1
  Zn  Zn102  1  0.00268621  0.87100019  0.36308168  1
  Zn  Zn103  1  0.24559169  0.75308229  0.00141709  1
  Zn  Zn104  1  0.25003907  0.13136548  0.87287276  1
  Zn  Zn105  1  0.62425936  0.13397089  0.00646665  1
  Zn  Zn106  1  0.50975850  0.63541901  0.13611509  1
  Zn  Zn107  1  0.19243787  0.18275558  0.18616259  1
  Zn  Zn108  1  0.18730500  0.18665750  0.69351861  1
  Zn  Zn109  1  0.19440172  0.68473705  0.18444446  1
  Zn  Zn110  1  0.18427195  0.68609881  0.68272239  1
  Zn  Zn111  1  0.68913208  0.18861073  0.19179279  1
  Zn  Zn112  1  0.68759187  0.18242032  0.69055188  1
  Zn  Zn113  1  0.69170830  0.68826092  0.19455561  1
  Zn  Zn114  1  0.69099496  0.68667983  0.68057494  1
  Zn  Zn115  1  0.31465291  0.31467438  0.31266331  1
  Zn  Zn116  1  0.31554119  0.31298906  0.81412823  1
  Zn  Zn117  1  0.31242877  0.81177072  0.31272576  1
  Zn  Zn118  1  0.31291377  0.81618493  0.81277888  1
  Zn  Zn119  1  0.81239730  0.31580011  0.30703805  1
  Zn  Zn120  1  0.81321916  0.31118080  0.81191442  1
  Zn  Zn121  1  0.80678043  0.81309030  0.31796740  1
  Zn  Zn122  1  0.81049081  0.81031414  0.80974072  1
  Zn  Zn123  1  0.19073021  0.43539701  0.43770545  1
  Zn  Zn124  1  0.19129558  0.43906768  0.93950427  1
  Zn  Zn125  1  0.19179613  0.93493054  0.43341601  1
  Zn  Zn126  1  0.18548563  0.94121927  0.93804069  1
  Zn  Zn127  1  0.69042051  0.43893752  0.44356505  1
  Zn  Zn128  1  0.68854293  0.43740060  0.93686866  1
  Zn  Zn129  1  0.68526323  0.93496002  0.43534926  1
  Zn  Zn130  1  0.68808290  0.94105586  0.93469802  1
  Zn  Zn131  1  0.31198608  0.06796985  0.06013460  1
  Zn  Zn132  1  0.31246178  0.06380527  0.56379095  1
  Zn  Zn133  1  0.31260400  0.56756173  0.06503665  1
  Zn  Zn134  1  0.31235944  0.56304287  0.56274161  1
  Zn  Zn135  1  0.81252588  0.06188438  0.06564313  1
  Zn  Zn136  1  0.81079235  0.05413624  0.56417145  1
  Zn  Zn137  1  0.81383010  0.56177729  0.06123063  1
  Zn  Zn138  1  0.81010241  0.56056465  0.56391892  1
  Zn  Zn139  1  0.44319359  0.43978341  0.19207716  1
  Zn  Zn140  1  0.43683772  0.43501102  0.68758575  1
  Zn  Zn141  1  0.43366505  0.93528610  0.18666843  1
  Zn  Zn142  1  0.43904644  0.93780030  0.69132701  1
  Zn  Zn143  1  0.94045471  0.43893338  0.18557649  1
  Zn  Zn144  1  0.93211454  0.43871533  0.68530868  1
  Zn  Zn145  1  0.91988806  0.93901559  0.18439165  1
  Zn  Zn146  1  0.91573242  0.89666618  0.70181990  1
  Zn  Zn147  1  0.06080447  0.06571013  0.31811877  1
  Zn  Zn148  1  0.06420114  0.06192230  0.81277289  1
  Zn  Zn149  1  0.06229171  0.56437903  0.31289848  1
  Zn  Zn150  1  0.06232130  0.55841188  0.81072728  1
  Zn  Zn151  1  0.55663391  0.05675313  0.31032245  1
  Zn  Zn152  1  0.56191430  0.06746519  0.81715689  1
  Zn  Zn153  1  0.56346212  0.56055187  0.31775351  1
  Zn  Zn154  1  0.56454318  0.56421847  0.81131926  1
  Zn  Zn155  1  0.44050116  0.18658716  0.43492190  1
  Zn  Zn156  1  0.44315893  0.18834438  0.94312188  1
  Zn  Zn157  1  0.43996742  0.68289943  0.44004344  1
  Zn  Zn158  1  0.43616530  0.68825847  0.93821294  1
  Zn  Zn159  1  0.93711241  0.18254378  0.43857339  1
  Zn  Zn160  1  0.94300555  0.18704855  0.93430589  1
  Zn  Zn161  1  0.93836020  0.69227219  0.44288838  1
  Zn  Zn162  1  0.93487528  0.68365992  0.94006312  1
  Zn  Zn163  1  0.06379055  0.31158053  0.06189566  1
  Zn  Zn164  1  0.06044190  0.31120478  0.56611150  1
  Zn  Zn165  1  0.06057910  0.80704698  0.05782067  1
  Zn  Zn166  1  0.06384453  0.80954741  0.56085238  1
  Zn  Zn167  1  0.55578335  0.31446510  0.06673854  1
  Zn  Zn168  1  0.56508198  0.31253150  0.55819726  1
  Zn  Zn169  1  0.55954376  0.81359142  0.06307329  1
  Zn  Zn170  1  0.56136758  0.81354308  0.56220713  1
  O  O171  1  0.11772520  0.13777063  0.11001552  1
  O  O172  1  0.12146287  0.11765467  0.62114861  1
  O  O173  1  0.11990942  0.61703310  0.11874883  1
  O  O174  1  0.12191645  0.61183480  0.61441749  1
  O  O175  1  0.63344147  0.10972636  0.12606268  1
  O  O176  1  0.61713266  0.12564350  0.61803500  1
  O  O177  1  0.62692420  0.61647709  0.11869723  1
  O  O178  1  0.62792273  0.61133421  0.61547892  1
  O  O179  1  0.37517804  0.38890246  0.37745249  1
  O  O180  1  0.38720416  0.38371784  0.87552964  1
  O  O181  1  0.38148416  0.87828475  0.38264089  1
  O  O182  1  0.38149214  0.88147604  0.88151872  1
  O  O183  1  0.88181896  0.38017532  0.37831610  1
  O  O184  1  0.86869572  0.38922169  0.87693576  1
  O  O185  1  0.88411004  0.88976906  0.36071813  1
  O  O186  1  0.88197733  0.87740667  0.88819436  1
  O  O187  1  0.26135701  0.00000427  0.36573818  1
  O  O188  1  0.26309691  0.00207148  0.87571499  1
  O  O189  1  0.25658011  0.49827972  0.36701133  1
  O  O190  1  0.25565317  0.50653045  0.86492519  1
  O  O191  1  0.75625405  -0.00583511  0.36320933  1
  O  O192  1  0.74442056  0.01399617  0.86534956  1
  O  O193  1  0.76525249  0.50023408  0.37674792  1
  O  O194  1  0.75352405  0.50584122  0.86685971  1
  O  O195  1  0.23786277  0.50446030  0.13174613  1
  O  O196  1  0.24446994  0.49235686  0.62984908  1
  O  O197  1  0.25380879  1.00381857  0.13821773  1
  O  O198  1  0.23848860  0.99331047  0.62237702  1
  O  O199  1  0.73973321  0.49406108  0.12477549  1
  O  O200  1  0.74101947  0.49617682  0.63235044  1
  O  O201  1  0.74321228  0.99295011  0.13398045  1
  O  O202  1  0.74341890  1.01095806  0.64503918  1
  O  O203  1  0.01098314  0.37065830  0.25475102  1
  O  O204  1  -0.00447994  0.36117346  0.74180797  1
  O  O205  1  0.01335288  0.88819876  0.23796331  1
  O  O206  1  0.01265231  0.88853264  0.76471781  1
  O  O207  1  0.51169677  0.36913176  0.25267555  1
  O  O208  1  0.49821263  0.36834908  0.75873676  1
  O  O209  1  0.49362233  0.87360596  0.26371018  1
  O  O210  1  0.50409480  0.86847084  0.76200278  1
  O  O211  1  0.49157508  0.13320460  0.25261743  1
  O  O212  1  0.49934030  0.13544687  0.74117109  1
  O  O213  1  0.48620209  0.61557471  0.25106152  1
  O  O214  1  0.49001644  0.63480926  0.75707646  1
  O  O215  1  0.99643603  0.13011242  0.24356314  1
  O  O216  1  0.99237206  0.12751438  0.74569209  1
  O  O217  1  0.99204267  0.61746179  0.23988697  1
  O  O218  1  1.00657738  0.62276865  0.73306101  1
  O  O219  1  0.37959242  0.25399836  0.01703930  1
  O  O220  1  0.36873990  0.25014515  0.50738152  1
  O  O221  1  0.37193813  0.75785350  0.00489878  1
  O  O222  1  0.36990327  0.75339262  0.50562298  1
  O  O223  1  0.88364437  0.25052269  0.01270493  1
  O  O224  1  0.86470921  0.24659737  0.50695014  1
  O  O225  1  0.86791914  0.75813109  0.00167259  1
  O  O226  1  0.86884211  0.75691806  0.50191863  1
  O  O227  1  0.13048914  0.24446269  0.49811591  1
  O  O228  1  0.12137390  0.24659176  0.98543094  1
  O  O229  1  0.13410724  0.74163363  0.49426051  1
  O  O230  1  0.12709586  0.73356188  1.00060979  1
  O  O231  1  0.63969447  0.24278994  0.50028610  1
  O  O232  1  0.62060685  0.25571599  0.98920484  1
  O  O233  1  0.61493246  0.73142708  0.50456564  1
  O  O234  1  0.63058605  0.74615144  0.99356643  1
  O  O235  1  0.48793393  0.25462225  0.13991119  1
  O  O236  1  0.49578040  0.24798028  0.63050707  1
  O  O237  1  0.48310292  0.74740085  0.11699260  1
  O  O238  1  0.49233425  0.75513423  0.63935387  1
  O  O239  1  0.99317064  0.24662802  0.13232248  1
  O  O240  1  0.99004027  0.24177088  0.62991909  1
  O  O241  1  0.99814277  0.73334303  0.11949911  1
  O  O242  1  1.00596113  0.73177644  0.62131210  1
  O  O243  1  0.00587859  0.25349729  0.36947790  1
  O  O244  1  0.01120583  0.25012235  0.86601374  1
  O  O245  1  0.01579690  0.75160776  0.37725222  1
  O  O246  1  -0.00177272  0.75970729  0.87694093  1
  O  O247  1  0.49188448  0.25623740  0.35834252  1
  O  O248  1  0.50594180  0.25948818  0.86778762  1
  O  O249  1  0.49927334  0.76278730  0.38080359  1
  O  O250  1  0.50288728  0.75696212  0.86688522  1
  O  O251  1  0.24235410  0.13346260  0.49999674  1
  O  O252  1  0.24174420  0.13525668  0.99709637  1
  O  O253  1  0.24182147  0.63377558  0.50548677  1
  O  O254  1  0.24177526  0.62173872  0.98885652  1
  O  O255  1  0.73931681  0.13499585  0.50220095  1
  O  O256  1  0.74914394  0.12175209  0.98959675  1
  O  O257  1  0.73540078  0.61830627  0.49962769  1
  O  O258  1  0.74496796  0.62838441  0.99099800  1
  O  O259  1  0.25582122  0.37196045  -0.00166879  1
  O  O260  1  0.25135024  0.36687586  0.51219740  1
  O  O261  1  0.26088865  0.87293142  -0.00674156  1
  O  O262  1  0.25974850  0.86670822  0.50502732  1
  O  O263  1  0.75275606  0.37881773  0.01320811  1
  O  O264  1  0.75505620  0.35922249  0.50167024  1
  O  O265  1  0.75633213  0.87264140  0.00286851  1
  O  O266  1  0.73931890  0.86819455  0.50613953  1
  O  O267  1  0.13153727  0.49536870  0.24466641  1
  O  O268  1  0.13776708  0.50207062  0.74095568  1
  O  O269  1  0.13626776  1.00208092  0.24857552  1
  O  O270  1  0.12853654  0.99425012  0.74086875  1
  O  O271  1  0.62641921  0.49347726  0.24240322  1
  O  O272  1  0.63008868  0.50446436  0.73719543  1
  O  O273  1  0.62956792  0.99437158  0.24109355  1
  O  O274  1  0.62790332  0.99355818  0.75229688  1
  O  O275  1  0.36862670  0.00687330  0.25279252  1
  O  O276  1  0.37350262  0.00175919  0.76091942  1
  O  O277  1  0.36830155  0.50358700  0.25638852  1
  O  O278  1  0.36619397  0.50727466  0.75120608  1
  O  O279  1  0.86522036  0.00970772  0.25409157  1
  O  O280  1  0.86864598  0.00630777  0.74893819  1
  O  O281  1  0.87693243  0.50460458  0.25910639  1
  O  O282  1  0.86537822  0.49991087  0.75591391  1
  O  O283  1  0.11988003  0.36978785  0.36873210  1
  O  O284  1  0.12291570  0.36751328  0.87419202  1
  O  O285  1  0.12526457  0.85864056  0.37578282  1
  O  O286  1  0.11824514  0.87689891  0.86769861  1
  O  O287  1  0.62942031  0.38134399  0.36273206  1
  O  O288  1  0.61397396  0.37168812  0.87750367  1
  O  O289  1  0.60441864  0.87965790  0.37358061  1
  O  O290  1  0.61594351  0.86983761  0.87084409  1
  O  O291  1  0.37476704  0.13369496  0.13546835  1
  O  O292  1  0.38337338  0.13655765  0.62294464  1
  O  O293  1  0.38139191  0.63264165  0.13339604  1
  O  O294  1  0.36980484  0.63062201  0.63831750  1
  O  O295  1  0.88160553  0.13083421  0.13450240  1
  O  O296  1  0.87942837  0.12817808  0.63323067  1
  O  O297  1  0.88320832  0.62292927  0.13343314  1
  O  O298  1  0.89131581  0.61695028  0.62094054  1
  O  O299  1  0.26781250  0.24970494  0.12844215  1
  O  O300  1  0.25606985  0.25563322  0.62334946  1
  O  O301  1  0.26750624  0.74205738  0.11768507  1
  O  O302  1  0.25463642  0.75596496  0.61679069  1
  O  O303  1  0.76043757  0.25698902  0.12957768  1
  O  O304  1  0.76046039  0.24756583  0.62504866  1
  O  O305  1  0.75179687  0.75763831  0.11729724  1
  O  O306  1  0.75758212  0.76059442  0.63072541  1
  O  O307  1  0.24493307  0.25063518  0.38328156  1
  O  O308  1  0.23480441  0.25240349  0.87111828  1
  O  O309  1  0.24398277  0.75221413  0.38659181  1
  O  O310  1  0.25369738  0.73730123  0.87496411  1
  O  O311  1  0.75759603  0.24753978  0.38469287  1
  O  O312  1  0.74070083  0.24392618  0.87076658  1
  O  O313  1  0.73853999  0.74859487  0.37363053  1
  O  O314  1  0.74657415  0.74166539  0.87797656  1
  O  O315  1  0.00379305  0.11605760  0.00603734  1
  O  O316  1  0.00884483  0.11883205  0.50669791  1
  O  O317  1  0.00645864  0.61483738  0.00480358  1
  O  O318  1  0.00780678  0.61733884  0.50829061  1
  O  O319  1  0.51174682  0.12048572  -0.00285667  1
  O  O320  1  0.51591216  0.13619972  0.50777337  1
  O  O321  1  0.50863553  0.61475671  -0.00337935  1
  O  O322  1  0.50839799  0.61071814  0.50086571  1
  O  O323  1  0.49943264  0.38547697  0.49781939  1
  O  O324  1  0.49659855  0.38940672  0.99423368  1
  O  O325  1  0.48730335  0.87363115  0.49405549  1
  O  O326  1  0.49242206  0.87757075  0.98860800  1
  O  O327  1  0.99380631  0.37776466  0.49494654  1
  O  O328  1  0.99775771  0.38880792  1.00570886  1
  O  O329  1  1.00654814  0.88633841  0.49671390  1
  O  O330  1  0.99533582  0.88007487  0.99460789  1
  O  O331  1  0.49194716  0.49549612  0.38445551  1
  O  O332  1  0.49721870  0.49598663  0.87962996  1
  O  O333  1  0.48368509  0.98845525  0.37100414  1
  O  O334  1  0.49005739  0.99281963  0.87525204  1
  O  O335  1  0.99291095  0.49441549  0.38093019  1
  O  O336  1  0.99073197  0.50437644  0.88187561  1
  O  O337  1  0.99483071  0.99581238  0.38179499  1
  O  O338  1  1.00186933  0.99312575  0.88714007  1
  O  O339  1  0.01198801  -0.00133509  0.12499737  1
  O  O340  1  0.01257618  0.00428733  0.61655326  1
  O  O341  1  0.01003796  0.50776979  0.11792817  1
  O  O342  1  0.00763392  0.50287820  0.61993198  1
  O  O343  1  0.51594197  -0.00808561  0.12689324  1
  O  O344  1  0.49924889  0.01492337  0.62816517  1
  O  O345  1  0.51204038  0.50174394  0.11790850  1
  O  O346  1  0.51021505  0.49723724  0.62192293  1
  O  O347  1  0.23879461  0.38449141  0.25368743  1
  O  O348  1  0.25600360  0.38269184  0.73793322  1
  O  O349  1  0.25591240  0.89015848  0.24959809  1
  O  O350  1  0.24231685  0.87636930  0.74312971  1
  O  O351  1  0.74324096  0.37834536  0.23909376  1
  O  O352  1  0.74996949  0.38642941  0.74819748  1
  O  O353  1  0.74938974  0.88368093  0.23922642  1
  O  O354  1  0.73489262  0.88652489  0.76342200  1
  O  O355  1  0.25943464  0.11633592  0.25312024  1
  O  O356  1  0.25671000  0.12187124  0.75354662  1
  O  O357  1  0.26200124  0.61139704  0.24714280  1
  O  O358  1  0.25361732  0.61930795  0.75395082  1
  O  O359  1  0.75886225  0.11664676  0.24829308  1
  O  O360  1  0.75898223  0.12141425  0.76080737  1
  O  O361  1  0.76427601  0.61866786  0.25328150  1
  O  O362  1  0.74380000  0.61593912  0.75963213  1
  O  O363  1  0.37444575  0.11746957  0.36738184  1
  O  O364  1  0.37483959  0.11874497  0.87633483  1
  O  O365  1  0.37745973  0.61326150  0.36996091  1
  O  O366  1  0.36775314  0.61993945  0.86489324  1
  O  O367  1  0.88323999  0.11552456  0.36068135  1
  O  O368  1  0.86761284  0.13118886  0.86708831  1
  O  O369  1  0.87971201  0.61813130  0.36992411  1
  O  O370  1  0.86493317  0.61366546  0.87844621  1
  O  O371  1  0.11976263  0.38386076  0.13440203  1
  O  O372  1  0.13209089  0.38670647  0.62011636  1
  O  O373  1  0.12930846  0.87571045  0.12271849  1
  O  O374  1  0.12834096  0.88108069  0.63040507  1
  O  O375  1  0.63104609  0.38074586  0.13137563  1
  O  O376  1  0.62672887  0.39042086  0.62072034  1
  O  O377  1  0.63457377  0.88184935  0.12282361  1
  O  O378  1  0.61318758  0.88100514  0.63931965  1
  O  O379  1  0.12408733  0.25687604  0.25340744  1
  O  O380  1  0.11457878  0.24716253  0.76182590  1
  O  O381  1  0.13472967  0.73852023  0.26658797  1
  O  O382  1  0.11810766  0.76215803  0.74338663  1
  O  O383  1  0.61604006  0.25784832  0.24575456  1
  O  O384  1  0.61562265  0.24878417  0.75785522  1
  O  O385  1  0.61712640  0.75028537  0.24781657  1
  O  O386  1  0.61821237  0.75545448  0.75375069  1
  O  O387  1  0.37918606  0.24483524  0.24305344  1
  O  O388  1  0.38629640  0.25020005  0.74189898  1
  O  O389  1  0.36966906  0.74166409  0.24087785  1
  O  O390  1  0.38086316  0.74434531  0.74702417  1
  O  O391  1  0.88075977  0.24390920  0.24370740  1
  O  O392  1  0.88104717  0.24081706  0.74381784  1
  O  O393  1  0.87546225  0.73897888  0.24929423  1
  O  O394  1  0.89286126  0.78844104  0.74172767  1
  O  O395  1  0.38127329  0.50053638  0.49545948  1
  O  O396  1  0.38403713  0.50486621  0.99521276  1
  O  O397  1  0.36780561  0.99134065  0.49197201  1
  O  O398  1  0.37591555  0.99292519  0.99627452  1
  O  O399  1  0.87982475  0.49223477  0.49389830  1
  O  O400  1  0.88381336  0.49868479  0.99224136  1
  O  O401  1  0.88505730  1.01304818  0.48660261  1
  O  O402  1  0.88864842  0.99151968  1.01234512  1
  O  O403  1  0.11685442  0.01054602  0.00027024  1
  O  O404  1  0.12054283  0.00469355  0.50330263  1
  O  O405  1  0.11952322  0.50673654  0.00589273  1
  O  O406  1  0.12130361  0.50470003  0.50403177  1
  O  O407  1  0.62670065  -0.00187046  0.01595568  1
  O  O408  1  0.63086984  0.01639815  0.50077997  1
  O  O409  1  0.61983939  0.50452564  0.00632430  1
  O  O410  1  0.61924018  0.50465446  0.51015600  1
  O  O411  1  0.37793030  0.36633053  0.12916621  1
  O  O412  1  0.36835752  0.36430238  0.62241750  1
  O  O413  1  0.37769041  0.86410701  0.11622391  1
  O  O414  1  0.37126274  0.87158885  0.61972131  1
  O  O415  1  0.86784708  0.36647666  0.12633875  1
  O  O416  1  0.87206831  0.36290651  0.61688067  1
  O  O417  1  0.86227578  0.87141798  0.11515341  1
  O  O418  1  0.86585399  0.89264333  0.60224382  1
  O  O419  1  0.12785342  0.13263899  0.38334644  1
  O  O420  1  0.12438431  0.12979488  0.88626820  1
  O  O421  1  0.12106848  0.63087333  0.38783597  1
  O  O422  1  0.13380395  0.61672921  0.88143453  1
  O  O423  1  0.61815263  0.12158716  0.38614138  1
  O  O424  1  0.63501380  0.13747390  0.87613528  1
  O  O425  1  0.62616069  0.62078142  0.39171003  1
  O  O426  1  0.63321441  0.63129787  0.87976451  1
