# generated using pymatgen
data_V85Zn86O256
_symmetry_space_group_name_H-M   'P 1'
_cell_length_a   16.94236173
_cell_length_b   16.93959726
_cell_length_c   16.92929268
_cell_angle_alpha   89.92633158
_cell_angle_beta   89.99776655
_cell_angle_gamma   89.98653753
_symmetry_Int_Tables_number   1
_chemical_formula_structural   V85Zn86O256
_chemical_formula_sum   'V85 Zn86 O256'
_cell_volume   4858.64840405
_cell_formula_units_Z   1
loop_
 _symmetry_equiv_pos_site_id
 _symmetry_equiv_pos_as_xyz
  1  'x, y, z'
loop_
 _atom_site_type_symbol
 _atom_site_label
 _atom_site_symmetry_multiplicity
 _atom_site_fract_x
 _atom_site_fract_y
 _atom_site_fract_z
 _atom_site_occupancy
  V  V0  1  0.24918536  0.13086298  0.37074546  1
  V  V1  1  0.75308910  0.50279647  0.76271872  1
  V  V2  1  0.11719699  0.51190766  0.11210204  1
  V  V3  1  0.49969506  0.62319627  0.62618755  1
  V  V4  1  0.25077637  0.49790512  0.74692129  1
  V  V5  1  0.49729072  0.37196769  0.87476807  1
  V  V6  1  0.12778814  0.12817039  0.49873340  1
  V  V7  1  0.23400373  0.62795852  0.37882706  1
  V  V8  1  0.37285439  0.74855853  0.62200066  1
  V  V9  1  -0.00670841  0.49054070  0.50304753  1
  V  V10  1  0.74985704  0.11837596  0.87667795  1
  V  V11  1  0.37202904  0.37411939  0.50730556  1
  V  V12  1  -0.01185983  0.24167601  0.24978413  1
  V  V13  1  0.75118336  -0.00231859  0.72675415  1
  V  V14  1  0.23506906  0.49808559  0.25234543  1
  V  V15  1  0.62668036  0.49933633  0.12650536  1
  V  V16  1  0.86797947  0.75381267  0.62269582  1
  V  V17  1  0.51100333  0.11433732  0.60909110  1
  V  V18  1  0.62556176  0.37347366  0.74984905  1
  V  V19  1  0.37179082  0.00060036  0.37760910  1
  V  V20  1  0.12726095  0.87391087  0.74900238  1
  V  V21  1  0.62890763  0.62427371  0.50184630  1
  V  V22  1  0.00160510  0.87833262  0.87512679  1
  V  V23  1  0.68669249  0.18499603  0.43884632  1
  V  V24  1  0.62447786  0.24465990  0.87695539  1
  V  V25  1  0.12767582  0.86832356  0.25751206  1
  V  V26  1  0.53350984  0.91050714  0.39210221  1
  V  V27  1  0.50182907  0.75194130  0.74795950  1
  V  V28  1  0.88150091  0.01020655  0.36522338  1
  V  V29  1  0.37704885  0.75199323  0.12316156  1
  V  V30  1  0.49871123  0.88052659  0.87164650  1
  V  V31  1  -0.00068429  0.62518867  0.61568933  1
  V  V32  1  0.00349912  0.00076641  0.49715999  1
  V  V33  1  0.62325266  0.74241423  0.37194719  1
  V  V34  1  0.12718912  0.25575515  0.35943495  1
  V  V35  1  0.12719840  0.37357605  0.74930376  1
  V  V36  1  0.50253859  0.37049663  0.37814221  1
  V  V37  1  0.49971072  0.75429602  0.25748239  1
  V  V38  1  0.13136967  0.00146664  0.62731281  1
  V  V39  1  0.37372291  0.87554830  0.49415232  1
  V  V40  1  0.23932700  0.37659358  0.12448760  1
  V  V41  1  0.75668000  0.37056053  0.61732450  1
  V  V42  1  0.49618361  0.00134252  -0.00270164  1
  V  V43  1  0.37501152  0.12695226  0.24668979  1
  V  V44  1  0.37600071  0.25891227  0.12168159  1
  V  V45  1  0.21190426  0.18034797  0.94862247  1
  V  V46  1  0.00071896  0.37565123  0.36924242  1
  V  V47  1  0.87300772  0.88211051  0.49896894  1
  V  V48  1  0.50016169  0.49763715  0.50204286  1
  V  V49  1  0.24624176  0.74385854  -0.00565601  1
  V  V50  1  0.75422060  0.00781865  0.25401715  1
  V  V51  1  0.75166408  0.74963897  0.00246855  1
  V  V52  1  0.25051504  0.87696019  0.12181501  1
  V  V53  1  0.12809288  0.50075480  0.62045236  1
  V  V54  1  0.87035267  0.62469184  0.75884593  1
  V  V55  1  0.50184909  0.62783739  0.12651988  1
  V  V56  1  0.63098666  0.75055738  0.87133490  1
  V  V57  1  -0.00521857  0.12112964  0.11463149  1
  V  V58  1  0.49930998  0.12421769  0.12451117  1
  V  V59  1  0.26329242  0.00685491  0.76457041  1
  V  V60  1  0.37289524  0.62451226  0.25323538  1
  V  V61  1  0.62710157  0.37375378  0.25329156  1
  V  V62  1  0.63098903  0.62513706  -0.00563837  1
  V  V63  1  0.74764047  0.76435471  0.49865419  1
  V  V64  1  0.62742103  -0.00282771  0.12727358  1
  V  V65  1  0.37081443  0.50033244  0.37632435  1
  V  V66  1  0.00579039  0.24953420  0.75650262  1
  V  V67  1  -0.00767896  0.37740236  0.87833001  1
  V  V68  1  0.63026321  0.87962818  0.73387059  1
  V  V69  1  0.49396539  0.23449264  0.75163895  1
  V  V70  1  0.37299703  0.24116625  0.62796873  1
  V  V71  1  0.24665619  0.25619526  0.50473076  1
  V  V72  1  0.50515695  0.24752933  0.25329254  1
  V  V73  1  0.50075183  0.50096721  -0.00141388  1
  V  V74  1  0.23514441  0.74646867  0.49901569  1
  V  V75  1  0.24930798  0.00387484  0.24289982  1
  V  V76  1  0.87615407  0.87773855  0.00151401  1
  V  V77  1  0.62762320  0.49788696  0.62651834  1
  V  V78  1  -0.00138221  0.74958529  0.74665518  1
  V  V79  1  -0.00562713  0.51412831  -0.00434001  1
  V  V80  1  0.37422096  0.50502697  0.87253874  1
  V  V81  1  0.87141667  0.49657505  0.37751879  1
  V  V82  1  0.87751064  0.62617009  0.24255342  1
  V  V83  1  0.00448322  0.12759774  0.62786385  1
  V  V84  1  0.87771539  0.12537995  0.74980894  1
  Zn  Zn85  1  0.00540491  0.00336454  -0.00514499  1
  Zn  Zn86  1  0.87451496  -0.00120618  0.87428941  1
  Zn  Zn87  1  0.63317663  0.86995437  0.24986159  1
  Zn  Zn88  1  0.75588844  0.87404241  0.12889864  1
  Zn  Zn89  1  0.75124473  0.49866925  0.25229668  1
  Zn  Zn90  1  0.01160721  0.73871167  0.25136921  1
  Zn  Zn91  1  0.12122934  0.74590883  0.87895687  1
  Zn  Zn92  1  0.62653104  0.12339796  0.00178780  1
  Zn  Zn93  1  0.87891130  0.25983550  0.61619957  1
  Zn  Zn94  1  0.89217409  0.74362789  0.12065364  1
  Zn  Zn95  1  0.75445316  0.62350048  0.37696290  1
  Zn  Zn96  1  0.37165806  0.62820977  0.75168787  1
  Zn  Zn97  1  0.37507099  0.87655517  -0.00916577  1
  Zn  Zn98  1  0.86800950  0.24984851  0.12557880  1
  Zn  Zn99  1  0.13109463  0.00970902  0.11384098  1
  Zn  Zn100  1  0.75455881  0.24991685  0.00163252  1
  Zn  Zn101  1  0.87412514  0.37594183  0.00434747  1
  Zn  Zn102  1  0.00513101  0.86526337  0.37615947  1
  Zn  Zn103  1  0.75110310  0.37019641  0.12240660  1
  Zn  Zn104  1  0.25269965  0.87580100  0.62462027  1
  Zn  Zn105  1  0.22888724  0.60711901  0.88550872  1
  Zn  Zn106  1  0.37061276  0.37901016  0.00023126  1
  Zn  Zn107  1  0.19015999  0.18274122  0.15653812  1
  Zn  Zn108  1  0.19216313  0.18603321  0.69342759  1
  Zn  Zn109  1  0.18979385  0.68655109  0.18453592  1
  Zn  Zn110  1  0.18621378  0.68197034  0.68998106  1
  Zn  Zn111  1  0.68775261  0.18506545  0.19059878  1
  Zn  Zn112  1  0.68639132  0.18670116  0.68754529  1
  Zn  Zn113  1  0.69450922  0.68290410  0.18759751  1
  Zn  Zn114  1  0.69015804  0.68826001  0.68567686  1
  Zn  Zn115  1  0.31422228  0.31683588  0.30963138  1
  Zn  Zn116  1  0.31226763  0.31351136  0.81020239  1
  Zn  Zn117  1  0.30821933  0.81095299  0.31379949  1
  Zn  Zn118  1  0.31215786  0.81678780  0.80990756  1
  Zn  Zn119  1  0.81031392  0.31163799  0.32095753  1
  Zn  Zn120  1  0.81292086  0.30990747  0.80961673  1
  Zn  Zn121  1  0.81420000  0.81447933  0.31413562  1
  Zn  Zn122  1  0.81171580  0.81570079  0.81252386  1
  Zn  Zn123  1  0.18248408  0.43781338  0.43998763  1
  Zn  Zn124  1  0.18224357  0.35019271  0.93886424  1
  Zn  Zn125  1  0.19236991  0.93870515  0.43827084  1
  Zn  Zn126  1  0.18704984  0.93518955  0.93796470  1
  Zn  Zn127  1  0.68760048  0.43228387  0.43931536  1
  Zn  Zn128  1  0.68762932  0.43387701  0.93830191  1
  Zn  Zn129  1  0.70729136  0.98156886  0.46240332  1
  Zn  Zn130  1  0.68476741  0.93657399  0.93677316  1
  Zn  Zn131  1  0.31437234  0.07255835  0.04140582  1
  Zn  Zn132  1  0.31444008  0.06497202  0.56341039  1
  Zn  Zn133  1  0.31131420  0.56048404  0.06363338  1
  Zn  Zn134  1  0.30929234  0.56437411  0.56244186  1
  Zn  Zn135  1  0.81674458  0.06448146  0.06402100  1
  Zn  Zn136  1  0.82509806  0.09862445  0.54316369  1
  Zn  Zn137  1  0.81141242  0.55872780  0.06075690  1
  Zn  Zn138  1  0.81214753  0.56361158  0.56518899  1
  Zn  Zn139  1  0.43751283  0.43991922  0.19063118  1
  Zn  Zn140  1  0.43729105  0.43191717  0.68893540  1
  Zn  Zn141  1  0.44191332  0.93505573  0.19519771  1
  Zn  Zn142  1  0.43934441  0.93803647  0.68286983  1
  Zn  Zn143  1  0.93809176  0.43557828  0.18805456  1
  Zn  Zn144  1  0.93515991  0.43915779  0.69191185  1
  Zn  Zn145  1  0.94108001  0.93335001  0.18506217  1
  Zn  Zn146  1  0.93798098  0.93993571  0.68473003  1
  Zn  Zn147  1  0.06537257  0.06265449  0.30727138  1
  Zn  Zn148  1  0.07850700  0.06642679  0.82221578  1
  Zn  Zn149  1  0.05776636  0.56041576  0.31243612  1
  Zn  Zn150  1  0.05845131  0.56160564  0.81131936  1
  Zn  Zn151  1  0.57458329  0.06265109  0.32344217  1
  Zn  Zn152  1  0.56642073  0.05811924  0.80758479  1
  Zn  Zn153  1  0.56020887  0.56109440  0.31380064  1
  Zn  Zn154  1  0.56372453  0.56376784  0.81161830  1
  Zn  Zn155  1  0.43853438  0.18651279  0.43807413  1
  Zn  Zn156  1  0.42107858  0.18273860  0.93844456  1
  Zn  Zn157  1  0.43403375  0.68471473  0.43965390  1
  Zn  Zn158  1  0.44058998  0.68945632  0.93653470  1
  Zn  Zn159  1  0.93786297  0.19247510  0.43876552  1
  Zn  Zn160  1  0.93659290  0.19211328  0.93673714  1
  Zn  Zn161  1  0.94115689  0.68751874  0.43083711  1
  Zn  Zn162  1  0.93825612  0.69198272  0.93441514  1
  Zn  Zn163  1  0.06249693  0.30728788  0.06093442  1
  Zn  Zn164  1  0.06203618  0.31545172  0.56390670  1
  Zn  Zn165  1  0.06466644  0.81330438  0.06789426  1
  Zn  Zn166  1  0.05807530  0.81614398  0.56424736  1
  Zn  Zn167  1  0.56356467  0.31239018  0.06215681  1
  Zn  Zn168  1  0.56475491  0.30439572  0.56494998  1
  Zn  Zn169  1  0.56372366  0.81503140  0.06121905  1
  Zn  Zn170  1  0.55936582  0.81307078  0.55850441  1
  O  O171  1  0.09779542  0.11885355  0.14670859  1
  O  O172  1  0.12269137  0.11957001  0.62096222  1
  O  O173  1  0.12933055  0.61024952  0.12612963  1
  O  O174  1  0.11151588  0.61299270  0.63153301  1
  O  O175  1  0.61692899  0.11270750  0.12570448  1
  O  O176  1  0.60922171  0.12829477  0.63026925  1
  O  O177  1  0.62002945  0.61879135  0.11892360  1
  O  O178  1  0.61980731  0.61928753  0.62037728  1
  O  O179  1  0.38035684  0.38113123  0.38603816  1
  O  O180  1  0.38491005  0.38462026  0.87568455  1
  O  O181  1  0.36851881  0.88287896  0.38426849  1
  O  O182  1  0.39457647  0.86755735  0.87199492  1
  O  O183  1  0.88261610  0.38748530  0.37262650  1
  O  O184  1  0.88902033  0.37247269  0.87029863  1
  O  O185  1  0.87967680  0.88137059  0.38703441  1
  O  O186  1  0.88246103  0.87585371  0.88329372  1
  O  O187  1  0.25695664  0.00924132  0.36607532  1
  O  O188  1  0.25533487  -0.01285501  0.86317037  1
  O  O189  1  0.25112114  0.50433180  0.37015055  1
  O  O190  1  0.26414519  0.49825848  0.86572119  1
  O  O191  1  0.76910153  -0.00637179  0.36187830  1
  O  O192  1  0.74853187  0.01100019  0.87125589  1
  O  O193  1  0.75847400  0.49930233  0.37777170  1
  O  O194  1  0.73869918  0.50250902  0.86126040  1
  O  O195  1  0.24153397  0.49580244  0.13294507  1
  O  O196  1  0.23865379  0.50403372  0.62983878  1
  O  O197  1  0.25533791  0.99191882  0.12866319  1
  O  O198  1  0.24007838  0.99994647  0.62587989  1
  O  O199  1  0.73487509  0.49798765  0.12685744  1
  O  O200  1  0.74372131  0.49069876  0.63161927  1
  O  O201  1  0.74506848  0.99890531  0.13352362  1
  O  O202  1  0.75724091  1.00538149  0.63030455  1
  O  O203  1  0.00024296  0.36453941  0.26292000  1
  O  O204  1  0.00443495  0.36843875  0.75311328  1
  O  O205  1  0.02236488  0.88203464  0.25003767  1
  O  O206  1  0.00617708  0.87099842  0.75305227  1
  O  O207  1  0.50654025  0.37104493  0.25878778  1
  O  O208  1  0.50554333  0.36560383  0.75916458  1
  O  O209  1  0.50776240  0.87086681  0.27146969  1
  O  O210  1  0.50982564  0.87204208  0.75232059  1
  O  O211  1  0.49508300  0.13295743  0.24588813  1
  O  O212  1  0.49787025  0.13254073  0.75060227  1
  O  O213  1  0.49337387  0.63061213  0.24437449  1
  O  O214  1  0.49911672  0.63396028  0.74252884  1
  O  O215  1  0.99574376  0.14001210  0.25597276  1
  O  O216  1  1.00062513  0.13060158  0.75208533  1
  O  O217  1  0.98234044  0.62017570  0.25231601  1
  O  O218  1  0.98846860  0.63018972  0.73867500  1
  O  O219  1  0.38632153  0.26172964  0.01888262  1
  O  O220  1  0.36691768  0.25632540  0.50463267  1
  O  O221  1  0.37267050  0.75292078  0.00888489  1
  O  O222  1  0.37080794  0.75568458  0.50767630  1
  O  O223  1  0.87338146  0.25570259  0.00303615  1
  O  O224  1  0.86381704  0.20587823  0.51892402  1
  O  O225  1  0.86638772  0.75463156  0.00054439  1
  O  O226  1  0.86582957  0.75891082  0.50307860  1
  O  O227  1  0.13231749  0.24781386  0.49527138  1
  O  O228  1  0.14254376  0.25643942  0.99621615  1
  O  O229  1  0.13656670  0.75435678  0.50870194  1
  O  O230  1  0.14379012  0.75634443  1.00000014  1
  O  O231  1  0.63727470  0.24716084  0.50212147  1
  O  O232  1  0.62143188  0.24627853  0.98562602  1
  O  O233  1  0.63068696  0.74534494  0.49429689  1
  O  O234  1  0.62955353  0.74479886  0.99235909  1
  O  O235  1  0.49609804  0.24659202  0.13379992  1
  O  O236  1  0.49291317  0.24288395  0.63433668  1
  O  O237  1  0.49474236  0.74969281  0.13357122  1
  O  O238  1  0.49257979  0.74544286  0.62795648  1
  O  O239  1  1.00179085  0.24327807  0.13883708  1
  O  O240  1  0.99948899  0.24360628  0.63452179  1
  O  O241  1  1.00403524  0.75265319  0.13802586  1
  O  O242  1  0.98981565  0.74364334  0.62669579  1
  O  O243  1  0.00526911  0.25504769  0.36854789  1
  O  O244  1  0.00097050  0.25645711  0.86234349  1
  O  O245  1  0.00109051  0.75250988  0.36471869  1
  O  O246  1  -0.00121334  0.76262949  0.86388256  1
  O  O247  1  0.48887963  0.26339846  0.36730126  1
  O  O248  1  0.49687225  0.25115157  0.87076772  1
  O  O249  1  0.50852976  0.73896008  0.36940151  1
  O  O250  1  0.51160164  0.75619077  0.86696877  1
  O  O251  1  0.24717108  0.13712590  0.49215614  1
  O  O252  1  0.22017498  0.13655714  1.04812328  1
  O  O253  1  0.25211261  0.63424491  0.49119741  1
  O  O254  1  0.25703637  0.63881141  0.99759603  1
  O  O255  1  0.72449845  0.09587083  0.48909698  1
  O  O256  1  0.74786190  0.12538930  0.98979323  1
  O  O257  1  0.74241061  0.63648092  0.50208113  1
  O  O258  1  0.73824882  0.63092370  1.00215763  1
  O  O259  1  0.25461676  0.38958608  0.02071371  1
  O  O260  1  0.25717489  0.36465165  0.49606326  1
  O  O261  1  0.25806387  0.86555982  0.00755298  1
  O  O262  1  0.25754869  0.86558607  0.50238874  1
  O  O263  1  0.75225000  0.37051658  0.00092044  1
  O  O264  1  0.74779222  0.37703996  0.51854595  1
  O  O265  1  0.75793759  0.86840141  0.00015659  1
  O  O266  1  0.75520193  0.87298763  0.49679713  1
  O  O267  1  0.13222037  0.50153911  0.24352019  1
  O  O268  1  0.13136111  0.49476582  0.74153962  1
  O  O269  1  0.14022613  0.99379879  0.24749699  1
  O  O270  1  0.13192927  0.99118136  0.74484897  1
  O  O271  1  0.62252133  0.49317183  0.24246749  1
  O  O272  1  0.63009840  0.49599288  0.74284656  1
  O  O273  1  0.63810196  0.99689912  0.24677498  1
  O  O274  1  0.64163889  0.99369742  0.74675602  1
  O  O275  1  0.36301693  0.00419077  0.25177095  1
  O  O276  1  0.36089967  -0.00696024  0.74378083  1
  O  O277  1  0.36770429  0.50755630  0.25675992  1
  O  O278  1  0.36907763  0.49884996  0.75361814  1
  O  O279  1  0.87103165  -0.00652953  0.25833223  1
  O  O280  1  0.86391678  0.00138683  0.75290131  1
  O  O281  1  0.87326973  0.50685680  0.25816571  1
  O  O282  1  0.86351530  0.51059753  0.74747897  1
  O  O283  1  0.11599238  0.36575563  0.37924189  1
  O  O284  1  0.11055057  0.38175678  0.85635563  1
  O  O285  1  0.13133631  0.88022069  0.36069198  1
  O  O286  1  0.11838994  0.86751951  0.86466512  1
  O  O287  1  0.61228918  0.38099743  0.36837997  1
  O  O288  1  0.61517098  0.36585089  0.86978761  1
  O  O289  1  0.62578663  0.85088506  0.37246202  1
  O  O290  1  0.61789417  0.86879103  0.86502022  1
  O  O291  1  0.38088180  0.13672441  0.12974691  1
  O  O292  1  0.38561119  0.13696469  0.61859650  1
  O  O293  1  0.37985011  0.63501203  0.13061833  1
  O  O294  1  0.38203918  0.63257319  0.62457258  1
  O  O295  1  0.88927140  0.12986742  0.12774120  1
  O  O296  1  0.88997304  0.11061709  0.64304767  1
  O  O297  1  0.86768193  0.62418806  0.13861494  1
  O  O298  1  0.87991828  0.63580531  0.62937986  1
  O  O299  1  0.26036794  0.27118777  0.14002272  1
  O  O300  1  0.25819675  0.24475391  0.61564522  1
  O  O301  1  0.25920987  0.75430341  0.11592666  1
  O  O302  1  0.25886614  0.74771203  0.61853606  1
  O  O303  1  0.74739111  0.25040972  0.12248854  1
  O  O304  1  0.75109491  0.26841364  0.64026803  1
  O  O305  1  0.74727386  0.75264776  0.11033363  1
  O  O306  1  0.76022977  0.75084544  0.61544653  1
  O  O307  1  0.24392766  0.24984086  0.37810406  1
  O  O308  1  0.24759748  0.26594275  0.88903071  1
  O  O309  1  0.25404864  0.73952994  0.38651520  1
  O  O310  1  0.25539833  0.75200989  0.88913177  1
  O  O311  1  0.75457470  0.23911014  0.38612084  1
  O  O312  1  0.73934030  0.23705447  0.86864072  1
  O  O313  1  0.74340395  0.74658935  0.38474138  1
  O  O314  1  0.73780643  0.75683856  0.88384701  1
  O  O315  1  0.00070628  0.12703876  0.01107887  1
  O  O316  1  0.01219657  0.11914357  0.50485883  1
  O  O317  1  -0.00400306  0.61365883  -0.00478417  1
  O  O318  1  -0.00607681  0.61795859  0.51157731  1
  O  O319  1  0.49952500  0.11776728  0.00521948  1
  O  O320  1  0.50286183  0.12766051  0.50898114  1
  O  O321  1  0.51093996  0.62284347  0.00650480  1
  O  O322  1  0.50685054  0.61756078  0.50639569  1
  O  O323  1  0.49468408  0.37601099  0.49501339  1
  O  O324  1  0.50173304  0.38262114  0.98901192  1
  O  O325  1  0.49245127  0.87120323  0.48337922  1
  O  O326  1  0.50170985  0.88143146  0.98915311  1
  O  O327  1  0.99854298  0.38058905  0.49042389  1
  O  O328  1  1.00286394  0.38023252  0.99019875  1
  O  O329  1  0.99445288  0.88550233  0.49764655  1
  O  O330  1  0.99304412  0.87004677  0.98948818  1
  O  O331  1  0.49239244  0.49181449  0.38281892  1
  O  O332  1  0.49702750  0.49082323  0.87651975  1
  O  O333  1  0.47559315  1.00188044  0.35396678  1
  O  O334  1  0.50774606  0.99287191  0.88351318  1
  O  O335  1  0.99614993  0.49162140  0.38366088  1
  O  O336  1  1.00177038  0.49403426  0.88864698  1
  O  O337  1  0.99480261  0.99540006  0.37669266  1
  O  O338  1  1.00189741  0.98854403  0.87022042  1
  O  O339  1  -0.00364427  0.01313900  0.12319905  1
  O  O340  1  0.01372830  0.00630718  0.62042754  1
  O  O341  1  0.01137073  0.49522086  0.11575668  1
  O  O342  1  0.00144575  0.50546807  0.61901062  1
  O  O343  1  0.50748368  0.00340578  0.12390589  1
  O  O344  1  0.49719539  0.01539826  0.62390466  1
  O  O345  1  0.50835415  0.50614670  0.12029255  1
  O  O346  1  0.50627505  0.50151268  0.62117073  1
  O  O347  1  0.25598843  0.39013585  0.24128583  1
  O  O348  1  0.24172102  0.38737494  0.75081115  1
  O  O349  1  0.24677029  0.88312271  0.24435714  1
  O  O350  1  0.24173400  0.88059825  0.74390760  1
  O  O351  1  0.73472220  0.37530360  0.25507963  1
  O  O352  1  0.74388243  0.38522190  0.74816184  1
  O  O353  1  0.75093141  0.88313158  0.24620562  1
  O  O354  1  0.74566615  0.88909390  0.74885328  1
  O  O355  1  0.25528765  0.12061643  0.24801605  1
  O  O356  1  0.24780109  0.10689201  0.75188353  1
  O  O357  1  0.25461637  0.61838515  0.25813682  1
  O  O358  1  0.25355249  0.61102221  0.75230082  1
  O  O359  1  0.74934377  0.10746030  0.25014855  1
  O  O360  1  0.75888925  0.11499684  0.75168396  1
  O  O361  1  0.75996078  0.61818965  0.25605740  1
  O  O362  1  0.75724921  0.61430620  0.74174608  1
  O  O363  1  0.36756937  0.12176746  0.36783826  1
  O  O364  1  0.31604712  0.13703795  0.93794434  1
  O  O365  1  0.36778763  0.61634955  0.37210166  1
  O  O366  1  0.38240714  0.61287266  0.87143353  1
  O  O367  1  0.88409099  0.10795263  0.37405899  1
  O  O368  1  0.86955580  0.12292579  0.86421968  1
  O  O369  1  0.87436325  0.61150772  0.36945980  1
  O  O370  1  0.87403263  0.63548766  0.85778863  1
  O  O371  1  0.13645598  0.38349515  0.12471410  1
  O  O372  1  0.11709934  0.38874329  0.63643118  1
  O  O373  1  0.14220470  0.87714251  0.13524017  1
  O  O374  1  0.12558505  0.88579399  0.63104403  1
  O  O375  1  0.62141268  0.38399877  0.13443043  1
  O  O376  1  0.63015272  0.37913435  0.63251804  1
  O  O377  1  0.62488484  0.88699500  0.12821266  1
  O  O378  1  0.62139403  0.87097025  0.63437992  1
  O  O379  1  0.11808548  0.24752236  0.25919207  1
  O  O380  1  0.11908432  0.26083385  0.74167168  1
  O  O381  1  0.13707975  0.76561750  0.24956133  1
  O  O382  1  0.11913145  0.76321502  0.74091049  1
  O  O383  1  0.61155741  0.25922963  0.24433560  1
  O  O384  1  0.61428941  0.25195248  0.76131975  1
  O  O385  1  0.62052534  0.74440680  0.25670977  1
  O  O386  1  0.62507786  0.75712972  0.75460953  1
  O  O387  1  0.38635997  0.24944412  0.24346704  1
  O  O388  1  0.38149129  0.25526246  0.73985044  1
  O  O389  1  0.37896609  0.74483595  0.24525215  1
  O  O390  1  0.37918791  0.75201480  0.73621909  1
  O  O391  1  0.88668713  0.25312566  0.25324865  1
  O  O392  1  0.88436047  0.23932789  0.74475613  1
  O  O393  1  0.86944641  0.73347058  0.24991798  1
  O  O394  1  0.87572262  0.74893713  0.73916597  1
  O  O395  1  0.37845910  0.49144020  0.49887779  1
  O  O396  1  0.38374463  0.50169870  0.99167968  1
  O  O397  1  0.36677606  0.99106800  0.48930728  1
  O  O398  1  0.39220982  0.99295059  1.01049857  1
  O  O399  1  0.88558765  0.50433158  0.49501366  1
  O  O400  1  0.89023896  0.49707798  1.00539521  1
  O  O401  1  0.88184695  0.99839532  0.48990412  1
  O  O402  1  0.88056139  0.99139104  0.99500272  1
  O  O403  1  0.11750997  -0.01264346  0.00447992  1
  O  O404  1  0.12445780  0.00585478  0.50648172  1
  O  O405  1  0.11430433  0.50231056  0.01097023  1
  O  O406  1  0.11168860  0.49537153  0.51139231  1
  O  O407  1  0.61607738  0.00002180  0.00997678  1
  O  O408  1  0.60000204  -0.01268965  0.42370605  1
  O  O409  1  0.62005278  0.50774055  0.00487634  1
  O  O410  1  0.62005254  0.50400558  0.50742446  1
  O  O411  1  0.36895367  0.37391459  0.12692617  1
  O  O412  1  0.38183153  0.36381695  0.61218949  1
  O  O413  1  0.36871382  0.86334554  0.13138537  1
  O  O414  1  0.37766504  0.86800188  0.61003428  1
  O  O415  1  0.86985987  0.37091772  0.12657227  1
  O  O416  1  0.86187850  0.37621963  0.62842373  1
  O  O417  1  0.87657640  0.87035127  0.11210304  1
  O  O418  1  0.88264015  0.86779737  0.61014463  1
  O  O419  1  0.13146375  0.13353097  0.37877477  1
  O  O420  1  0.14862197  0.12710631  0.89148896  1
  O  O421  1  0.13500772  0.61973249  0.37293133  1
  O  O422  1  0.12354333  0.63557907  0.86221040  1
  O  O423  1  0.61869633  0.15310902  0.37081138  1
  O  O424  1  0.63189714  0.12948278  0.87420229  1
  O  O425  1  0.62744283  0.62817599  0.38275316  1
  O  O426  1  0.61893420  0.63633993  0.88337837  1
