# generated using pymatgen
data_V85Zn86O256
_symmetry_space_group_name_H-M   'P 1'
_cell_length_a   16.92341058
_cell_length_b   16.95001446
_cell_length_c   16.94412701
_cell_angle_alpha   89.93079677
_cell_angle_beta   90.05817368
_cell_angle_gamma   89.91729202
_symmetry_Int_Tables_number   1
_chemical_formula_structural   V85Zn86O256
_chemical_formula_sum   'V85 Zn86 O256'
_cell_volume   4860.44651441
_cell_formula_units_Z   1
loop_
 _symmetry_equiv_pos_site_id
 _symmetry_equiv_pos_as_xyz
  1  'x, y, z'
loop_
 _atom_site_type_symbol
 _atom_site_label
 _atom_site_symmetry_multiplicity
 _atom_site_fract_x
 _atom_site_fract_y
 _atom_site_fract_z
 _atom_site_occupancy
  V  V0  1  0.50823076  0.37318769  0.87612202  1
  V  V1  1  0.74218297  0.38923978  0.61256833  1
  V  V2  1  0.12090102  0.12529181  0.00516730  1
  V  V3  1  0.12540788  0.00030366  0.62542250  1
  V  V4  1  0.25010440  0.24823327  0.00192859  1
  V  V5  1  -0.00639302  0.00225055  -0.01505454  1
  V  V6  1  0.62413266  0.62817305  -0.00486066  1
  V  V7  1  0.87024351  0.75143157  0.62753132  1
  V  V8  1  0.75433238  0.49006393  0.25426340  1
  V  V9  1  0.24985624  0.62623023  0.39267654  1
  V  V10  1  0.24766815  0.87749835  0.12805109  1
  V  V11  1  0.63683250  0.13502264  0.50007798  1
  V  V12  1  0.37782170  0.62884266  0.25109256  1
  V  V13  1  -0.00327583  0.50263593  0.49201244  1
  V  V14  1  0.37785612  0.49413372  0.36936049  1
  V  V15  1  0.24722608  0.87189107  0.62395945  1
  V  V16  1  0.38082243  0.87898296  0.00354930  1
  V  V17  1  0.37208830  -0.00281968  0.37461706  1
  V  V18  1  0.87272156  0.37378008  0.49069568  1
  V  V19  1  0.51839112  0.74708076  0.24998364  1
  V  V20  1  -0.00154886  0.87393210  0.37282153  1
  V  V21  1  0.49990881  0.00019845  0.50105219  1
  V  V22  1  0.37668152  0.37298617  0.00096719  1
  V  V23  1  0.12302993  0.12506696  0.49893506  1
  V  V24  1  0.75482173  0.50108896  0.75514132  1
  V  V25  1  0.37205722  0.86563164  0.49937372  1
  V  V26  1  0.87496791  0.12271470  0.75656866  1
  V  V27  1  0.86935223  0.87568431  0.50124377  1
  V  V28  1  0.87409077  0.62016891  0.25718259  1
  V  V29  1  0.62458310  0.13431865  0.00213778  1
  V  V30  1  0.37856852  0.12630189  0.25067931  1
  V  V31  1  0.25193987  0.12486608  0.86925024  1
  V  V32  1  0.00062456  0.25278231  0.75115532  1
  V  V33  1  0.38422824  0.24813211  0.12924200  1
  V  V34  1  0.74819670  0.75223118  0.00605150  1
  V  V35  1  0.11943920  0.50050679  0.12287150  1
  V  V36  1  0.86280574  0.00531386  0.37044378  1
  V  V37  1  0.00113883  0.23915536  0.24420752  1
  V  V38  1  0.62590494  -0.00211398  0.62709034  1
  V  V39  1  0.37106461  0.24409200  0.63446939  1
  V  V40  1  0.38432569  0.00654631  0.87332317  1
  V  V41  1  0.12504100  0.74444148  0.38828719  1
  V  V42  1  0.00350965  0.63050593  0.61428232  1
  V  V43  1  0.50917899  0.86893700  0.37688312  1
  V  V44  1  0.37542220  0.49809346  0.87774507  1
  V  V45  1  0.12753131  0.50353308  0.61492131  1
  V  V46  1  0.24718297  0.49510098  0.74955468  1
  V  V47  1  -0.00056436  0.75658753  0.75553440  1
  V  V48  1  0.63280378  0.24481086  0.35827928  1
  V  V49  1  0.37323913  0.75051096  0.62914508  1
  V  V50  1  -0.00322178  0.12723805  0.62395581  1
  V  V51  1  0.75383740  -0.00144812  0.75660361  1
  V  V52  1  0.86259899  0.12089459  0.24571940  1
  V  V53  1  0.74469874  0.13228092  0.87381051  1
  V  V54  1  0.49564313  0.12437066  0.62905592  1
  V  V55  1  0.24709561  0.24760871  0.50075298  1
  V  V56  1  0.25092976  0.62634089  0.87776373  1
  V  V57  1  0.63016109  0.89563990  0.24558040  1
  V  V58  1  0.12154856  0.37468083  0.24862417  1
  V  V59  1  0.24573743  0.50432052  0.24916988  1
  V  V60  1  0.24326910  0.37368653  0.62736674  1
  V  V61  1  0.50983239  -0.00298010  0.01097898  1
  V  V62  1  0.86140663  0.25041702  0.61982867  1
  V  V63  1  0.62638372  0.49426656  0.12787530  1
  V  V64  1  -0.00177975  0.00171656  0.49756972  1
  V  V65  1  0.12348267  0.62821948  0.00231095  1
  V  V66  1  0.11515088  0.00109016  0.12645913  1
  V  V67  1  0.62581619  0.37826190  0.74634811  1
  V  V68  1  0.12344481  0.25163073  0.87222975  1
  V  V69  1  0.12215590  0.25049249  0.37426448  1
  V  V70  1  0.87814016  0.25000169  0.11868726  1
  V  V71  1  -0.01091401  0.62684582  0.12061021  1
  V  V72  1  0.37669129  0.62570049  0.75073018  1
  V  V73  1  0.75776381  0.88873686  0.12798697  1
  V  V74  1  0.50419077  0.24645367  0.75561154  1
  V  V75  1  0.06499836  0.42080625  0.80591292  1
  V  V76  1  0.87929936  0.38142150  -0.01582779  1
  V  V77  1  0.12711452  0.87735752  0.75802960  1
  V  V78  1  0.88025355  0.87092353  -0.01096254  1
  V  V79  1  0.50063803  0.35987851  0.35575028  1
  V  V80  1  0.75693109  0.62746972  0.87691307  1
  V  V81  1  -0.00377642  0.75003665  0.24437900  1
  V  V82  1  0.25112428  0.75121585  0.00278367  1
  V  V83  1  0.37867809  0.36740150  0.49897515  1
  V  V84  1  0.62021495  0.87360688  0.77018082  1
  Zn  Zn85  1  0.50148299  0.50140335  0.00155453  1
  Zn  Zn86  1  0.24794702  -0.00014513  0.24874088  1
  Zn  Zn87  1  0.37795012  0.75161193  0.12962704  1
  Zn  Zn88  1  0.50251253  0.62571651  0.12489309  1
  Zn  Zn89  1  0.51334144  0.12502546  0.13722487  1
  Zn  Zn90  1  -0.00526345  0.37947551  0.36991843  1
  Zn  Zn91  1  0.24895089  0.12223206  0.37364426  1
  Zn  Zn92  1  0.75085069  0.37246858  0.12123748  1
  Zn  Zn93  1  0.50766303  0.61322283  0.62498294  1
  Zn  Zn94  1  -0.00194677  0.49941398  -0.01963961  1
  Zn  Zn95  1  0.87907334  0.62038733  0.75360758  1
  Zn  Zn96  1  0.25724144  0.00183200  0.74885492  1
  Zn  Zn97  1  0.72610142  0.75009335  0.48669027  1
  Zn  Zn98  1  0.65439811  0.58953693  0.52418813  1
  Zn  Zn99  1  0.51294937  0.74514105  0.76258702  1
  Zn  Zn100  1  0.73189545  0.62959204  0.37275610  1
  Zn  Zn101  1  0.12164403  0.75902660  0.87937363  1
  Zn  Zn102  1  0.51214723  0.49716347  0.50101378  1
  Zn  Zn103  1  0.12460155  0.87312503  0.25143312  1
  Zn  Zn104  1  0.74975848  0.25531335  -0.00639279  1
  Zn  Zn105  1  0.74616057  0.87333793  0.62690350  1
  Zn  Zn106  1  0.25012696  0.37309135  0.12626138  1
  Zn  Zn107  1  0.19330721  0.18457697  0.18731114  1
  Zn  Zn108  1  0.18352883  0.18685787  0.68974731  1
  Zn  Zn109  1  0.18250689  0.68931280  0.19103119  1
  Zn  Zn110  1  0.19046339  0.68896315  0.68520548  1
  Zn  Zn111  1  0.69334638  0.18530020  0.18059640  1
  Zn  Zn112  1  0.68400719  0.18958698  0.68832086  1
  Zn  Zn113  1  0.69392556  0.68394238  0.18046029  1
  Zn  Zn114  1  0.68615888  0.68765202  0.68889672  1
  Zn  Zn115  1  0.30760592  0.31025463  0.30904217  1
  Zn  Zn116  1  0.31327606  0.31236305  0.81449341  1
  Zn  Zn117  1  0.31244212  0.80724637  0.31544798  1
  Zn  Zn118  1  0.34993376  0.80074965  0.83541889  1
  Zn  Zn119  1  0.81120864  0.30746203  0.30928710  1
  Zn  Zn120  1  0.81125159  0.31216224  0.80753968  1
  Zn  Zn121  1  0.81188677  0.81204841  0.30618795  1
  Zn  Zn122  1  0.80666833  0.81040907  0.81548317  1
  Zn  Zn123  1  0.18809391  0.43621443  0.43707274  1
  Zn  Zn124  1  0.19121945  0.43980280  0.94473117  1
  Zn  Zn125  1  0.18630207  0.93398688  0.43831779  1
  Zn  Zn126  1  0.19175134  0.94142288  0.93987256  1
  Zn  Zn127  1  0.68343107  0.42936780  0.42864304  1
  Zn  Zn128  1  0.69000553  0.43978190  0.93850640  1
  Zn  Zn129  1  0.68577714  0.93732790  0.43883020  1
  Zn  Zn130  1  0.69544315  0.94431994  0.94075426  1
  Zn  Zn131  1  0.31215012  0.06340587  0.06357722  1
  Zn  Zn132  1  0.31196844  0.06004554  0.56070722  1
  Zn  Zn133  1  0.31323487  0.56213116  0.06632744  1
  Zn  Zn134  1  0.36813019  0.57436651  0.54290143  1
  Zn  Zn135  1  0.81585565  0.06592200  0.06093397  1
  Zn  Zn136  1  0.81173972  0.06011801  0.56612838  1
  Zn  Zn137  1  0.81136597  0.55737312  0.06014870  1
  Zn  Zn138  1  0.82045101  0.56566842  0.56016700  1
  Zn  Zn139  1  0.43890440  0.43792507  0.18384865  1
  Zn  Zn140  1  0.43375451  0.43392574  0.68818598  1
  Zn  Zn141  1  0.43986860  0.93772966  0.18995897  1
  Zn  Zn142  1  0.43912825  0.93577217  0.69071646  1
  Zn  Zn143  1  0.93641209  0.43290378  0.18227642  1
  Zn  Zn144  1  0.92971313  0.44176976  0.67393481  1
  Zn  Zn145  1  0.93607480  0.93942674  0.18324177  1
  Zn  Zn146  1  0.93864199  0.93783318  0.68889906  1
  Zn  Zn147  1  0.06024325  0.06118625  0.31201050  1
  Zn  Zn148  1  0.06487768  0.06464365  0.81232760  1
  Zn  Zn149  1  0.06339327  0.56924450  0.31357140  1
  Zn  Zn150  1  0.06844793  0.58585678  0.80576328  1
  Zn  Zn151  1  0.56060681  0.06478832  0.31850010  1
  Zn  Zn152  1  0.56460639  0.06118621  0.81606602  1
  Zn  Zn153  1  0.56548419  0.55581396  0.31512855  1
  Zn  Zn154  1  0.56617764  0.55956543  0.81327709  1
  Zn  Zn155  1  0.43954195  0.18443341  0.43927752  1
  Zn  Zn156  1  0.44063486  0.18560426  0.94049414  1
  Zn  Zn157  1  0.53705512  0.68564863  0.44343462  1
  Zn  Zn158  1  0.44312922  0.69034301  0.93915619  1
  Zn  Zn159  1  0.93345651  0.18936876  0.43298174  1
  Zn  Zn160  1  0.93828356  0.18873001  0.93507400  1
  Zn  Zn161  1  0.90031879  0.70236212  0.42135549  1
  Zn  Zn162  1  0.93414933  0.69015093  0.93708758  1
  Zn  Zn163  1  0.05697732  0.31509232  0.05994236  1
  Zn  Zn164  1  0.05824216  0.31575574  0.56401268  1
  Zn  Zn165  1  0.05998335  0.81523224  0.06257733  1
  Zn  Zn166  1  0.05797581  0.81501678  0.56381569  1
  Zn  Zn167  1  0.56268163  0.31212167  0.06436683  1
  Zn  Zn168  1  0.56169827  0.31356220  0.56265750  1
  Zn  Zn169  1  0.56791400  0.81265743  0.06773217  1
  Zn  Zn170  1  0.55804465  0.80964817  0.57335097  1
  O  O171  1  0.13034242  0.11845807  0.11196567  1
  O  O172  1  0.11749872  0.12041080  0.61931666  1
  O  O173  1  0.11760806  0.61854878  0.11985990  1
  O  O174  1  0.11782648  0.61563367  0.63007508  1
  O  O175  1  0.62823035  0.12367565  0.10834574  1
  O  O176  1  0.61937639  0.11763711  0.61789830  1
  O  O177  1  0.62638876  0.61462860  0.11362133  1
  O  O178  1  0.61787710  0.63127513  0.62335544  1
  O  O179  1  0.38273164  0.37043971  0.37633447  1
  O  O180  1  0.38346623  0.37893825  0.88108673  1
  O  O181  1  0.38000693  0.87866168  0.38203339  1
  O  O182  1  0.36358771  0.89632511  0.89716211  1
  O  O183  1  0.87603063  0.36544703  0.38640993  1
  O  O184  1  0.87368008  0.36914896  0.88531632  1
  O  O185  1  0.88360905  0.88255472  0.37982274  1
  O  O186  1  0.86760334  0.87812574  0.89093198  1
  O  O187  1  0.26118818  -0.00279746  0.37466868  1
  O  O188  1  0.26020669  0.01088548  0.87705065  1
  O  O189  1  0.25142207  0.50448736  0.36478996  1
  O  O190  1  0.25410103  0.50428115  0.87020718  1
  O  O191  1  0.76393290  -0.00333807  0.37746017  1
  O  O192  1  0.75031349  0.01253504  0.86318430  1
  O  O193  1  0.74369001  0.49878028  0.35585091  1
  O  O194  1  0.74576348  0.50985284  0.86562101  1
  O  O195  1  0.23710544  0.49951560  0.13112721  1
  O  O196  1  0.24014171  0.49455677  0.63514798  1
  O  O197  1  0.23836273  0.99228406  0.12240276  1
  O  O198  1  0.24298419  0.99612145  0.62794645  1
  O  O199  1  0.74057905  0.49821661  0.13125343  1
  O  O200  1  0.75332967  0.49211999  0.63047165  1
  O  O201  1  0.75157508  0.98715828  0.11824990  1
  O  O202  1  0.74138976  1.00012993  0.63694012  1
  O  O203  1  0.00445058  0.36496757  0.25080662  1
  O  O204  1  -0.00344703  0.37040667  0.74205124  1
  O  O205  1  -0.00253610  0.86787719  0.25544761  1
  O  O206  1  0.01245896  0.86774187  0.74241979  1
  O  O207  1  0.49465589  0.36724376  0.25765847  1
  O  O208  1  0.50482365  0.36904470  0.75460090  1
  O  O209  1  0.51422816  0.87059518  0.25373902  1
  O  O210  1  0.51875359  0.88262294  0.75347223  1
  O  O211  1  0.48512524  0.11790266  0.25034668  1
  O  O212  1  0.50924057  0.13206969  0.73951388  1
  O  O213  1  0.49463453  0.63172676  0.25288756  1
  O  O214  1  0.48834419  0.62397070  0.75121053  1
  O  O215  1  0.99767612  0.13676927  0.25019777  1
  O  O216  1  0.99284381  0.13142672  0.74497308  1
  O  O217  1  0.99619723  0.62963632  0.23949556  1
  O  O218  1  0.99737231  0.63847494  0.73654468  1
  O  O219  1  0.37098500  0.25355289  0.00643598  1
  O  O220  1  0.36754334  0.25112128  0.50762263  1
  O  O221  1  0.36908315  0.76156713  0.00832910  1
  O  O222  1  0.37744022  0.76544283  0.51278816  1
  O  O223  1  0.87665399  0.25617587  0.00426409  1
  O  O224  1  0.88293449  0.25745416  0.51117778  1
  O  O225  1  0.87160731  0.76534219  0.00012105  1
  O  O226  1  0.88678752  0.76815563  0.51301273  1
  O  O227  1  0.12572018  0.24659900  0.49275016  1
  O  O228  1  0.12640379  0.24303280  0.99490751  1
  O  O229  1  0.11722251  0.75355410  0.48746668  1
  O  O230  1  0.13284189  0.74846138  0.99914448  1
  O  O231  1  0.62162145  0.23671300  0.49996037  1
  O  O232  1  0.62648202  0.23828396  0.99949196  1
  O  O233  1  0.61352613  0.75376580  0.49667697  1
  O  O234  1  0.63333683  0.74166633  1.00390418  1
  O  O235  1  0.48860902  0.24457122  0.12132605  1
  O  O236  1  0.49127385  0.24399788  0.63416196  1
  O  O237  1  0.49868177  0.74820973  0.13661643  1
  O  O238  1  0.48064424  0.75643708  0.64304841  1
  O  O239  1  0.99002694  0.25211730  0.13143750  1
  O  O240  1  0.99383742  0.24560886  0.63445525  1
  O  O241  1  1.00716831  0.73931515  0.13185224  1
  O  O242  1  0.99354302  0.74665685  0.63205208  1
  O  O243  1  0.01068142  0.25187702  0.36725440  1
  O  O244  1  0.00372321  0.24802971  0.85923281  1
  O  O245  1  0.00017656  0.75833215  0.36870861  1
  O  O246  1  0.00190084  0.74557051  0.86022934  1
  O  O247  1  0.50408534  0.25605192  0.37604677  1
  O  O248  1  0.49106429  0.25590215  0.86195758  1
  O  O249  1  0.49596585  0.76465872  0.36455394  1
  O  O250  1  0.45914615  0.76414879  0.85964482  1
  O  O251  1  0.24159388  0.13096592  0.49836224  1
  O  O252  1  0.24180584  0.12978578  0.99227268  1
  O  O253  1  0.26605787  0.61638005  0.48936479  1
  O  O254  1  0.24631120  0.63336457  0.99958097  1
  O  O255  1  0.73533957  0.12263333  0.50543409  1
  O  O256  1  0.74179172  0.12466591  0.99136853  1
  O  O257  1  0.75715293  0.63120687  0.49377281  1
  O  O258  1  0.74701795  0.63223964  0.99652708  1
  O  O259  1  0.25938020  0.36671186  0.00190362  1
  O  O260  1  0.25583179  0.36476881  0.50458526  1
  O  O261  1  0.25467212  0.87059340  0.01172951  1
  O  O262  1  0.25900862  0.88312403  0.51173310  1
  O  O263  1  0.76247687  0.37339108  -0.00097942  1
  O  O264  1  0.75814478  0.37714078  0.50445650  1
  O  O265  1  0.75793939  0.87255584  0.00803995  1
  O  O266  1  0.75681272  0.87101030  0.50318314  1
  O  O267  1  0.12918951  0.49809448  0.24337029  1
  O  O268  1  0.12720486  0.49361366  0.74679678  1
  O  O269  1  0.12598804  0.99757926  0.24100212  1
  O  O270  1  0.12455250  0.99480550  0.74174144  1
  O  O271  1  0.63681205  0.50509267  0.23545360  1
  O  O272  1  0.63242855  0.48590129  0.75127932  1
  O  O273  1  0.62250449  0.99404324  0.24950768  1
  O  O274  1  0.63272840  0.99524950  0.74562349  1
  O  O275  1  0.37234662  0.00241804  0.25921468  1
  O  O276  1  0.37734800  -0.00488226  0.76992690  1
  O  O277  1  0.36667279  0.50036884  0.25393652  1
  O  O278  1  0.36473737  0.50778938  0.75689333  1
  O  O279  1  0.88280291  0.01400237  0.25456422  1
  O  O280  1  0.86721027  0.01093559  0.74225132  1
  O  O281  1  0.86132075  0.50419976  0.23860644  1
  O  O282  1  0.86013043  0.50041955  0.74487285  1
  O  O283  1  0.12326217  0.36627208  0.36732922  1
  O  O284  1  0.12814084  0.36943133  0.87428221  1
  O  O285  1  0.11335413  0.86999103  0.37333903  1
  O  O286  1  0.13389053  0.87754595  0.86207048  1
  O  O287  1  0.61009092  0.35620821  0.37271731  1
  O  O288  1  0.61304959  0.37717253  0.87012250  1
  O  O289  1  0.62017630  0.88102121  0.36095688  1
  O  O290  1  0.62959754  0.88217531  0.86837040  1
  O  O291  1  0.37477601  0.13168296  0.13330252  1
  O  O292  1  0.38297423  0.13147914  0.62195730  1
  O  O293  1  0.37781754  0.62403991  0.13902733  1
  O  O294  1  0.36472777  0.63804316  0.63786657  1
  O  O295  1  0.87503144  0.13103045  0.13611388  1
  O  O296  1  0.87758016  0.13311428  0.63120924  1
  O  O297  1  0.88636376  0.61908616  0.12806760  1
  O  O298  1  0.88393428  0.63629407  0.63035110  1
  O  O299  1  0.25827550  0.25125085  0.11692245  1
  O  O300  1  0.25411215  0.25197370  0.62315680  1
  O  O301  1  0.24937154  0.75688174  0.11824422  1
  O  O302  1  0.25574790  0.76289562  0.62416312  1
  O  O303  1  0.76394547  0.25187835  0.11931102  1
  O  O304  1  0.75854391  0.25790588  0.63036215  1
  O  O305  1  0.75017827  0.76033395  0.11220381  1
  O  O306  1  0.76359726  0.75275410  0.62713197  1
  O  O307  1  0.23676600  0.24818150  0.37970117  1
  O  O308  1  0.24634512  0.24373185  0.88113933  1
  O  O309  1  0.23969367  0.73832323  0.37269572  1
  O  O310  1  0.25524608  0.74766422  0.89163484  1
  O  O311  1  0.73181659  0.25223766  0.37177727  1
  O  O312  1  0.75202504  0.23679744  0.87237345  1
  O  O313  1  0.78414921  0.73706066  0.38430787  1
  O  O314  1  0.75255657  0.74120467  0.88998588  1
  O  O315  1  0.00626052  0.11281220  -0.00526117  1
  O  O316  1  0.00271008  0.12102296  0.50350121  1
  O  O317  1  0.00390679  0.62233221  0.00376370  1
  O  O318  1  -0.00922273  0.61873494  0.51176421  1
  O  O319  1  0.51230416  0.11767334  0.00243933  1
  O  O320  1  0.50590336  0.11950082  0.51285848  1
  O  O321  1  0.50832484  0.62377570  0.00213728  1
  O  O322  1  0.47439597  0.61343509  0.50416591  1
  O  O323  1  0.48514787  0.36921095  0.49529296  1
  O  O324  1  0.49418261  0.37392954  0.99146105  1
  O  O325  1  0.49353700  0.88187536  0.49308956  1
  O  O326  1  0.49559445  0.88748086  1.00887183  1
  O  O327  1  0.99167323  0.38420652  0.49855353  1
  O  O328  1  0.98685143  0.37995528  0.99685720  1
  O  O329  1  0.99288925  0.88405716  0.49255123  1
  O  O330  1  0.98811752  0.88330046  1.00081262  1
  O  O331  1  0.49108146  0.47946702  0.37181109  1
  O  O332  1  0.49320974  0.49001866  0.87641184  1
  O  O333  1  0.49049268  0.98877436  0.37869517  1
  O  O334  1  0.48868652  1.00682664  0.88798608  1
  O  O335  1  1.01171589  0.49878637  0.38909197  1
  O  O336  1  1.01585572  0.49566135  0.86124715  1
  O  O337  1  0.99428208  0.99218963  0.37969753  1
  O  O338  1  1.00386016  0.99950160  0.88643739  1
  O  O339  1  0.01187112  -0.00437362  0.11321766  1
  O  O340  1  0.00452926  0.00788499  0.61787793  1
  O  O341  1  0.01036230  0.50746423  0.12605882  1
  O  O342  1  0.00829151  0.50823581  0.61742686  1
  O  O343  1  0.49743281  0.00551594  0.11354754  1
  O  O344  1  0.50492084  0.00778520  0.62414105  1
  O  O345  1  0.51282140  0.50268220  0.12494913  1
  O  O346  1  0.46170711  0.50537600  0.60916289  1
  O  O347  1  0.24202738  0.38737034  0.24791018  1
  O  O348  1  0.25606739  0.38702510  0.74546195  1
  O  O349  1  0.24978931  0.87363530  0.23826777  1
  O  O350  1  0.24070566  0.88086182  0.73710687  1
  O  O351  1  0.75575898  0.38658339  0.24376373  1
  O  O352  1  0.74265719  0.38175192  0.74348518  1
  O  O353  1  0.74394185  0.87429969  0.23859356  1
  O  O354  1  0.74175698  0.88387827  0.75032165  1
  O  O355  1  0.26122417  0.11926703  0.25413602  1
  O  O356  1  0.24538855  0.12327257  0.76466171  1
  O  O357  1  0.25458107  0.61535251  0.25065117  1
  O  O358  1  0.25043871  0.61263115  0.75750007  1
  O  O359  1  0.76397278  0.12416453  0.24974954  1
  O  O360  1  0.75440581  0.12046636  0.75387603  1
  O  O361  1  0.75874072  0.61714843  0.25131798  1
  O  O362  1  0.74994146  0.61913353  0.76030225  1
  O  O363  1  0.37422567  0.11495539  0.37135084  1
  O  O364  1  0.36825363  0.11405372  0.88265951  1
  O  O365  1  0.36630253  0.60860910  0.35987571  1
  O  O366  1  0.36809699  0.61639710  0.87131193  1
  O  O367  1  0.88065808  0.11836320  0.36002546  1
  O  O368  1  0.86944353  0.12865201  0.86101899  1
  O  O369  1  0.88877359  0.60982319  0.35632201  1
  O  O370  1  0.86325655  0.62520247  0.87344993  1
  O  O371  1  0.12457809  0.38353101  0.12930722  1
  O  O372  1  0.13388791  0.38321538  0.62149954  1
  O  O373  1  0.13094044  0.88278021  0.12689559  1
  O  O374  1  0.13022003  0.88189136  0.62814407  1
  O  O375  1  0.62822124  0.38947389  0.11785198  1
  O  O376  1  0.63429964  0.36762366  0.63282747  1
  O  O377  1  0.63701131  0.87587226  0.13856920  1
  O  O378  1  0.62419813  0.89018828  0.62856538  1
  O  O379  1  0.12035695  0.25196811  0.25375617  1
  O  O380  1  0.11443262  0.25012826  0.75682121  1
  O  O381  1  0.11155651  0.75059052  0.26041955  1
  O  O382  1  0.11976172  0.75999673  0.75099688  1
  O  O383  1  0.62359372  0.23415880  0.25939090  1
  O  O384  1  0.61482916  0.26180589  0.74839416  1
  O  O385  1  0.62014572  0.74981254  0.24754706  1
  O  O386  1  0.62808136  0.76916947  0.75179388  1
  O  O387  1  0.36748935  0.24032742  0.24042364  1
  O  O388  1  0.38035130  0.25296235  0.73896235  1
  O  O389  1  0.38375177  0.74147487  0.25040039  1
  O  O390  1  0.35349955  0.73338748  0.74334951  1
  O  O391  1  0.88161616  0.24016341  0.24344330  1
  O  O392  1  0.88079347  0.24399888  0.74010672  1
  O  O393  1  0.88847305  0.73857098  0.24981357  1
  O  O394  1  0.88253848  0.75613474  0.74331172  1
  O  O395  1  0.36178840  0.47939932  0.47610067  1
  O  O396  1  0.37596079  0.49148459  0.99713799  1
  O  O397  1  0.38137166  0.99355172  0.49287442  1
  O  O398  1  0.38703350  0.99878169  0.99813695  1
  O  O399  1  0.88665141  0.48800755  0.50612081  1
  O  O400  1  0.87910597  0.48704220  0.99828340  1
  O  O401  1  0.87809422  0.99351214  0.49479997  1
  O  O402  1  0.88881383  0.99463204  1.00217886  1
  O  O403  1  0.11558175  0.00613559  0.00331762  1
  O  O404  1  0.11870250  0.00533016  0.50503139  1
  O  O405  1  0.12097824  0.50676373  0.00743273  1
  O  O406  1  0.11989205  0.49710315  0.51053143  1
  O  O407  1  0.61251420  0.00563971  -0.00413996  1
  O  O408  1  0.61940979  0.00814642  0.50733485  1
  O  O409  1  0.62546445  0.50740226  0.01022902  1
  O  O410  1  0.62383568  0.48246859  0.50609089  1
  O  O411  1  0.37437701  0.36723175  0.11825348  1
  O  O412  1  0.36449905  0.36241928  0.61592056  1
  O  O413  1  0.36716619  0.87850281  0.11819553  1
  O  O414  1  0.36672695  0.87401368  0.62243103  1
  O  O415  1  0.87421924  0.36500503  0.11335179  1
  O  O416  1  0.86274441  0.36786398  0.61460576  1
  O  O417  1  0.86313720  0.87845865  0.11703293  1
  O  O418  1  0.87266929  0.87264006  0.61718608  1
  O  O419  1  0.12509860  0.13179107  0.38070917  1
  O  O420  1  0.13196277  0.13083910  0.88449135  1
  O  O421  1  0.13678775  0.63190172  0.37604774  1
  O  O422  1  0.13522289  0.63416418  0.88424544  1
  O  O423  1  0.61735168  0.13506569  0.38973092  1
  O  O424  1  0.63235972  0.12116415  0.88782805  1
  O  O425  1  0.61794859  0.61719054  0.39256738  1
  O  O426  1  0.63319443  0.62007000  0.88852841  1
