# generated using pymatgen
data_V85Zn86O256
_symmetry_space_group_name_H-M   'P 1'
_cell_length_a   16.92866520
_cell_length_b   16.93777516
_cell_length_c   16.93630400
_cell_angle_alpha   90.00736712
_cell_angle_beta   90.06969752
_cell_angle_gamma   89.99768052
_symmetry_Int_Tables_number   1
_chemical_formula_structural   V85Zn86O256
_chemical_formula_sum   'V85 Zn86 O256'
_cell_volume   4856.20928398
_cell_formula_units_Z   1
loop_
 _symmetry_equiv_pos_site_id
 _symmetry_equiv_pos_as_xyz
  1  'x, y, z'
loop_
 _atom_site_type_symbol
 _atom_site_label
 _atom_site_symmetry_multiplicity
 _atom_site_fract_x
 _atom_site_fract_y
 _atom_site_fract_z
 _atom_site_occupancy
  V  V0  1  0.50576233  0.24183095  0.25486270  1
  V  V1  1  0.75784055  0.75272018  0.51221969  1
  V  V2  1  0.86893236  -0.00086994  0.86810863  1
  V  V3  1  0.62927272  0.75019670  0.37983511  1
  V  V4  1  0.50248406  0.87441125  0.38006940  1
  V  V5  1  0.61760892  0.25008573  0.86629297  1
  V  V6  1  0.74916975  0.37329492  0.62246950  1
  V  V7  1  0.87164758  0.62880964  0.74746865  1
  V  V8  1  0.12349054  0.11541866  0.00152806  1
  V  V9  1  0.75817873  0.62180892  0.37922643  1
  V  V10  1  0.25038391  0.37456401  0.62510007  1
  V  V11  1  0.63001602  0.13050660  0.48307529  1
  V  V12  1  0.87614674  0.24328762  0.62103840  1
  V  V13  1  0.87702189  0.63125606  0.25190414  1
  V  V14  1  0.50328566  0.13628354  0.63027955  1
  V  V15  1  -0.00403769  0.50111338  0.49845720  1
  V  V16  1  0.12376381  0.62568979  0.50159533  1
  V  V17  1  0.62286830  0.62517161  0.50499649  1
  V  V18  1  0.13025142  0.37341744  0.24646440  1
  V  V19  1  0.61848815  0.49973266  0.62405554  1
  V  V20  1  -0.00318835  0.24242133  0.74594442  1
  V  V21  1  0.12496258  0.12219702  0.51051696  1
  V  V22  1  0.75554013  0.49968695  0.25462266  1
  V  V23  1  -0.00104527  0.49921780  0.00065343  1
  V  V24  1  0.25086945  -0.02060091  0.24246841  1
  V  V25  1  0.87468804  0.37165816  0.00425676  1
  V  V26  1  0.48996610  0.37756285  0.87109129  1
  V  V27  1  0.25836416  0.49547798  0.25462655  1
  V  V28  1  0.49169812  0.74793828  0.25340598  1
  V  V29  1  0.13188495  0.49511753  0.12440164  1
  V  V30  1  0.12532836  0.62303252  -0.00789274  1
  V  V31  1  0.62845139  0.88437859  0.74778754  1
  V  V32  1  0.87324238  0.37891152  0.49439507  1
  V  V33  1  0.12251849  0.37591023  0.75012651  1
  V  V34  1  0.37440932  0.87727153  0.50261134  1
  V  V35  1  0.74782636  0.00269062  0.25420219  1
  V  V36  1  0.74462050  0.87136741  0.12436182  1
  V  V37  1  0.48965284  0.00097428  -0.00174514  1
  V  V38  1  0.00084811  0.88305287  0.87743164  1
  V  V39  1  0.74815808  0.24848967  0.48374087  1
  V  V40  1  0.12251021  0.75081118  0.37623922  1
  V  V41  1  0.00445958  0.87725684  0.37540317  1
  V  V42  1  0.24852876  0.25626594  0.00231512  1
  V  V43  1  0.86801712  0.12960204  0.24545165  1
  V  V44  1  0.24870283  0.88970394  0.63365756  1
  V  V45  1  0.50154228  0.73743930  0.74702650  1
  V  V46  1  0.50270935  0.00559969  0.50149763  1
  V  V47  1  -0.00471124  0.63363005  0.62415913  1
  V  V48  1  -0.00393086  0.24968516  0.24170721  1
  V  V49  1  0.87948155  0.87556437  0.51131306  1
  V  V50  1  0.62566951  0.87419243  0.25386254  1
  V  V51  1  0.25405508  0.24720302  0.49919615  1
  V  V52  1  0.74712401  0.12178540  0.86397109  1
  V  V53  1  0.49845969  0.38212426  0.36989895  1
  V  V54  1  0.00203294  0.62535550  0.13040716  1
  V  V55  1  0.37438455  0.73868307  0.63058155  1
  V  V56  1  0.75255584  0.24721447  0.00013196  1
  V  V57  1  0.49070280  0.62270480  0.12954063  1
  V  V58  1  0.37733533  0.24834869  0.63613130  1
  V  V59  1  0.25768410  0.75085563  0.01036846  1
  V  V60  1  0.25608912  0.62156171  0.37939129  1
  V  V61  1  0.12308833  0.50145941  0.62731259  1
  V  V62  1  0.87429882  0.00596166  0.37338907  1
  V  V63  1  -0.00248110  0.11759609  0.12226362  1
  V  V64  1  0.06138290  0.80948440  0.20619132  1
  V  V65  1  0.74863642  0.62352821  0.87838551  1
  V  V66  1  -0.00270565  0.37271457  0.87361093  1
  V  V67  1  0.12454041  0.24792393  0.37399641  1
  V  V68  1  0.62242755  0.12580606  -0.00228538  1
  V  V69  1  -0.00065388  0.75265034  0.75318772  1
  V  V70  1  0.74823351  0.49844218  0.74865740  1
  V  V71  1  0.87276625  0.87975697  -0.00007374  1
  V  V72  1  0.62230663  0.00119628  0.12414548  1
  V  V73  1  0.62487976  0.49813816  0.12515971  1
  V  V74  1  0.62311035  0.62965419  0.00330730  1
  V  V75  1  0.26950910  0.62223333  0.87122164  1
  V  V76  1  0.49150539  0.50322056  0.49777549  1
  V  V77  1  0.36756050  0.25070411  0.13443478  1
  V  V78  1  0.00324232  0.00882313  0.50498171  1
  V  V79  1  0.25647467  0.12106650  0.86786627  1
  V  V80  1  0.75138217  0.37073034  0.12463304  1
  V  V81  1  0.49653497  0.87520428  0.87472292  1
  V  V82  1  0.26283244  0.50214307  0.75262353  1
  V  V83  1  0.25473413  0.12304147  0.36204609  1
  V  V84  1  -0.00213828  0.38097970  0.37236723  1
  Zn  Zn85  1  0.24860431  0.75287450  0.50528445  1
  Zn  Zn86  1  0.49191344  0.49993001  -0.00438784  1
  Zn  Zn87  1  0.12339359  0.24733694  0.87671027  1
  Zn  Zn88  1  0.13754874  0.88698112  0.75532272  1
  Zn  Zn89  1  0.36595486  0.87542460  0.01046150  1
  Zn  Zn90  1  0.12597846  -0.01275234  0.12901537  1
  Zn  Zn91  1  0.87201106  0.49886577  0.87549151  1
  Zn  Zn92  1  0.62868929  0.37053232  0.25589373  1
  Zn  Zn93  1  0.37812087  0.00521291  0.36894454  1
  Zn  Zn94  1  0.49360916  0.12565504  0.12694128  1
  Zn  Zn95  1  0.63515040  0.00755105  0.62597733  1
  Zn  Zn96  1  0.37059747  0.37901046  0.00210936  1
  Zn  Zn97  1  0.37307488  0.37819448  0.49585147  1
  Zn  Zn98  1  0.37798545  0.61883261  0.25793375  1
  Zn  Zn99  1  0.62350586  0.75000033  0.87502235  1
  Zn  Zn100  1  0.35686851  -0.01086653  0.84677806  1
  Zn  Zn101  1  0.76501730  0.88335402  0.63840212  1
  Zn  Zn102  1  0.61992200  0.37075321  0.74686140  1
  Zn  Zn103  1  0.12924262  0.75165384  0.87148742  1
  Zn  Zn104  1  0.87235050  0.11709328  0.74010425  1
  Zn  Zn105  1  0.74864947  0.74955392  0.00177279  1
  Zn  Zn106  1  0.87838169  0.75401146  0.12715244  1
  Zn  Zn107  1  0.18556859  0.18668008  0.18410038  1
  Zn  Zn108  1  0.18673055  0.18927955  0.68936398  1
  Zn  Zn109  1  0.19418576  0.67682958  0.18632781  1
  Zn  Zn110  1  0.18727139  0.69165315  0.69093933  1
  Zn  Zn111  1  0.68510416  0.18832282  0.18610237  1
  Zn  Zn112  1  0.68668795  0.18769672  0.68072324  1
  Zn  Zn113  1  0.68298572  0.68763382  0.19037172  1
  Zn  Zn114  1  0.68530949  0.68948775  0.68751699  1
  Zn  Zn115  1  0.31705426  0.31259187  0.31424260  1
  Zn  Zn116  1  0.30800472  0.30835520  0.81454167  1
  Zn  Zn117  1  0.31221283  0.80997832  0.31898714  1
  Zn  Zn118  1  0.31572604  0.80792435  0.81443455  1
  Zn  Zn119  1  0.81627784  0.31418247  0.30990491  1
  Zn  Zn120  1  0.81004712  0.31021184  0.81223391  1
  Zn  Zn121  1  0.81538330  0.81384019  0.31741186  1
  Zn  Zn122  1  0.81081088  0.80881535  0.81461716  1
  Zn  Zn123  1  0.18495113  0.43668079  0.43743253  1
  Zn  Zn124  1  0.18812149  0.43861321  0.93288041  1
  Zn  Zn125  1  0.18904610  0.94026989  0.43738409  1
  Zn  Zn126  1  0.18786628  0.93700930  0.94040908  1
  Zn  Zn127  1  0.68321726  0.43691849  0.43484956  1
  Zn  Zn128  1  0.68046062  0.43741654  0.93812743  1
  Zn  Zn129  1  0.69228233  0.94031834  0.44364823  1
  Zn  Zn130  1  0.68221294  0.93855033  0.93505976  1
  Zn  Zn131  1  0.30870391  0.06774664  0.06747027  1
  Zn  Zn132  1  0.31684892  0.06557936  0.56208716  1
  Zn  Zn133  1  0.31268171  0.56024184  0.06172336  1
  Zn  Zn134  1  0.30977699  0.56233712  0.56561412  1
  Zn  Zn135  1  0.81115640  0.06011756  0.06166227  1
  Zn  Zn136  1  0.81043134  0.06050926  0.55947832  1
  Zn  Zn137  1  0.81371996  0.56093659  0.06497728  1
  Zn  Zn138  1  0.81236077  0.56109576  0.56445540  1
  Zn  Zn139  1  0.43722069  0.43158883  0.18251847  1
  Zn  Zn140  1  0.43969679  0.43082740  0.68658877  1
  Zn  Zn141  1  0.43086592  0.93668037  0.18695471  1
  Zn  Zn142  1  0.44082765  0.93216716  0.68186383  1
  Zn  Zn143  1  0.93639472  0.44064773  0.18648004  1
  Zn  Zn144  1  0.93408702  0.43838705  0.68484346  1
  Zn  Zn145  1  0.93152215  0.94385784  0.18365632  1
  Zn  Zn146  1  0.97495106  0.95861865  0.70289469  1
  Zn  Zn147  1  0.06776278  0.06112423  0.31071416  1
  Zn  Zn148  1  0.06553370  0.06099385  0.81689616  1
  Zn  Zn149  1  0.06614195  0.56222785  0.31224092  1
  Zn  Zn150  1  0.05984781  0.55925670  0.81055551  1
  Zn  Zn151  1  0.56075959  0.06159655  0.31339809  1
  Zn  Zn152  1  0.51740783  0.04577572  0.78884662  1
  Zn  Zn153  1  0.56869510  0.56060131  0.31555442  1
  Zn  Zn154  1  0.56264970  0.55811279  0.81417416  1
  Zn  Zn155  1  0.43717960  0.19046188  0.43541747  1
  Zn  Zn156  1  0.43389016  0.19079057  0.93858309  1
  Zn  Zn157  1  0.43786382  0.68948045  0.44310321  1
  Zn  Zn158  1  0.44074528  0.68701643  0.93884610  1
  Zn  Zn159  1  0.93741733  0.18932308  0.43184995  1
  Zn  Zn160  1  0.93572703  0.18462405  0.93745951  1
  Zn  Zn161  1  0.93833985  0.69209807  0.43556015  1
  Zn  Zn162  1  0.93345198  0.69176913  0.93847418  1
  Zn  Zn163  1  0.06355263  0.30791465  0.06255598  1
  Zn  Zn164  1  0.06306664  0.30975215  0.56203663  1
  Zn  Zn165  1  0.06339280  0.80834936  0.04259941  1
  Zn  Zn166  1  0.06495069  0.81591514  0.56424184  1
  Zn  Zn167  1  0.55834961  0.31185699  0.06176383  1
  Zn  Zn168  1  0.56390916  0.31413476  0.55372711  1
  Zn  Zn169  1  0.52925390  0.82385766  0.07937080  1
  Zn  Zn170  1  0.56276751  0.81175822  0.56788100  1
  O  O171  1  0.11767725  0.12422468  0.11550788  1
  O  O172  1  0.12734686  0.13261031  0.60956247  1
  O  O173  1  0.11869785  0.61665787  0.11611763  1
  O  O174  1  0.11753202  0.62213864  0.62148125  1
  O  O175  1  0.62416820  0.12044034  0.11270673  1
  O  O176  1  0.61603737  0.12863546  0.61079242  1
  O  O177  1  0.62409533  0.61311586  0.12171775  1
  O  O178  1  0.63263405  0.61652569  0.61252793  1
  O  O179  1  0.39058204  0.37379016  0.37844358  1
  O  O180  1  0.38721059  0.36568133  0.87613803  1
  O  O181  1  0.38247206  0.87171125  0.39035567  1
  O  O182  1  0.38206360  0.87731151  0.88172267  1
  O  O183  1  0.88318850  0.37331929  0.38506089  1
  O  O184  1  0.87848412  0.37623026  0.88573293  1
  O  O185  1  0.88806777  0.88256315  0.38025936  1
  O  O186  1  0.87387682  0.88050659  0.88162645  1
  O  O187  1  0.25157884  0.00932955  0.36476274  1
  O  O188  1  0.24898779  0.01305916  0.87987186  1
  O  O189  1  0.24110842  0.50878299  0.36732019  1
  O  O190  1  0.24595989  0.51344960  0.86736977  1
  O  O191  1  0.76254473  -0.00656438  0.36638103  1
  O  O192  1  0.75466915  0.01061466  0.87869153  1
  O  O193  1  0.74759399  0.50868070  0.36749592  1
  O  O194  1  0.74735229  0.50858888  0.86924642  1
  O  O195  1  0.23670882  0.50694553  0.13514575  1
  O  O196  1  0.24194681  0.49513926  0.63156618  1
  O  O197  1  0.24969799  0.99658384  0.13761466  1
  O  O198  1  0.25815639  0.98844549  0.62403033  1
  O  O199  1  0.74494574  0.49025431  0.13033929  1
  O  O200  1  0.74025242  0.49286324  0.62695259  1
  O  O201  1  0.74240693  0.98968123  0.13178511  1
  O  O202  1  0.74719016  0.99429583  0.62068861  1
  O  O203  1  0.00347462  0.37081543  0.25423912  1
  O  O204  1  0.00020991  0.37177847  0.75741870  1
  O  O205  1  -0.00602988  0.87435196  0.25656529  1
  O  O206  1  -0.01721580  0.85771911  0.76111844  1
  O  O207  1  0.50231050  0.36940939  0.25789722  1
  O  O208  1  0.50276863  0.37366927  0.76389969  1
  O  O209  1  0.50729341  0.86665140  0.26135859  1
  O  O210  1  0.50908392  0.86537589  0.75871885  1
  O  O211  1  0.50075620  0.13802165  0.25111806  1
  O  O212  1  0.51550507  0.14224537  0.72859524  1
  O  O213  1  0.49963442  0.62834377  0.25032549  1
  O  O214  1  0.50573736  0.63844290  0.75400940  1
  O  O215  1  0.99411695  0.13212298  0.24394299  1
  O  O216  1  0.99388328  0.14084754  0.75921977  1
  O  O217  1  0.99320802  0.61716845  0.23950324  1
  O  O218  1  0.99260600  0.63188311  0.74508042  1
  O  O219  1  0.36387705  0.25321666  0.00861651  1
  O  O220  1  0.36214731  0.25057220  0.50334270  1
  O  O221  1  0.36047288  0.74579037  -0.00324187  1
  O  O222  1  0.37645332  0.75819438  0.51416946  1
  O  O223  1  0.86096555  0.25578333  -0.00326093  1
  O  O224  1  0.87062954  0.25662102  0.50265747  1
  O  O225  1  0.86862716  0.76211164  0.00529880  1
  O  O226  1  0.86924966  0.76185346  0.49549377  1
  O  O227  1  0.13449026  0.24535179  0.49345048  1
  O  O228  1  0.13198765  0.24037359  1.00044139  1
  O  O229  1  0.12549297  0.74376202  0.49344654  1
  O  O230  1  0.13729857  0.73738596  0.99367620  1
  O  O231  1  0.63371184  0.23999610  0.49741692  1
  O  O232  1  0.63382768  0.24419216  0.99555435  1
  O  O233  1  0.63199033  0.74364725  0.49945782  1
  O  O234  1  0.62514337  0.73512049  1.00199221  1
  O  O235  1  0.49345252  0.24891720  0.13775803  1
  O  O236  1  0.49233710  0.24371340  0.61232675  1
  O  O237  1  0.52011381  0.73101787  0.14562331  1
  O  O238  1  0.49004023  0.75252422  0.63755914  1
  O  O239  1  1.00245935  0.24164264  0.13684861  1
  O  O240  1  0.98906465  0.25815020  0.63345973  1
  O  O241  1  1.00524833  0.74533294  0.13256608  1
  O  O242  1  1.00401521  0.73973249  0.63206277  1
  O  O243  1  0.00406667  0.26036304  0.36329115  1
  O  O244  1  -0.00314994  0.26072718  0.86886702  1
  O  O245  1  0.01277353  0.75751895  0.37431304  1
  O  O246  1  0.00185615  0.75584162  0.86928622  1
  O  O247  1  0.49475003  0.25854878  0.36040326  1
  O  O248  1  0.50985161  0.25753920  0.88023500  1
  O  O249  1  0.50951998  0.75288387  0.37315082  1
  O  O250  1  0.50004214  0.75536408  0.86500100  1
  O  O251  1  0.24314274  0.12990774  0.49246425  1
  O  O252  1  0.23787527  0.13235993  0.99667818  1
  O  O253  1  0.24070757  0.62544099  0.49597752  1
  O  O254  1  0.24406555  0.62704519  0.98835501  1
  O  O255  1  0.73835749  0.13359256  0.49850791  1
  O  O256  1  0.74374113  0.13244257  0.99655308  1
  O  O257  1  0.74907717  0.63169287  0.49540982  1
  O  O258  1  0.74443010  0.62332988  0.99452541  1
  O  O259  1  0.24503340  0.36016993  -0.00692201  1
  O  O260  1  0.24896049  0.36641405  0.50474045  1
  O  O261  1  0.24886113  0.85657141  -0.00216567  1
  O  O262  1  0.25959265  0.87501362  0.50714171  1
  O  O263  1  0.75502920  0.37014136  0.00501814  1
  O  O264  1  0.75643156  0.37092472  0.50096121  1
  O  O265  1  0.75051262  0.87369191  0.00882449  1
  O  O266  1  0.76221062  0.86711876  0.50014286  1
  O  O267  1  0.13120859  0.49173388  0.24326915  1
  O  O268  1  0.12827324  0.49343581  0.74428692  1
  O  O269  1  0.14412711  1.00278881  0.24759600  1
  O  O270  1  0.08216569  0.98385486  0.74088740  1
  O  O271  1  0.63952860  0.49909464  0.24337614  1
  O  O272  1  0.63053633  0.49884487  0.73938470  1
  O  O273  1  0.62862465  0.99557485  0.24546572  1
  O  O274  1  0.61527227  0.98685507  0.74918186  1
  O  O275  1  0.36029149  -0.00472158  0.25316167  1
  O  O276  1  0.41197650  0.01066021  0.75289598  1
  O  O277  1  0.36115806  0.49480951  0.24623900  1
  O  O278  1  0.36156671  0.49632436  0.74077081  1
  O  O279  1  0.86819247  0.00895546  0.25513935  1
  O  O280  1  0.88127773  0.00147519  0.76330500  1
  O  O281  1  0.86304149  0.51167551  0.24327759  1
  O  O282  1  0.86755070  0.50988614  0.75126501  1
  O  O283  1  0.11667749  0.36819609  0.36735531  1
  O  O284  1  0.11364081  0.37271017  0.86894433  1
  O  O285  1  0.11387614  0.86876176  0.37861822  1
  O  O286  1  0.11491032  0.87383896  0.87571909  1
  O  O287  1  0.60771853  0.37675005  0.37298730  1
  O  O288  1  0.61893500  0.36414034  0.87374965  1
  O  O289  1  0.62179423  0.87073877  0.37553171  1
  O  O290  1  0.62008382  0.87054467  0.86340817  1
  O  O291  1  0.37767335  0.14406666  0.11920425  1
  O  O292  1  0.39339544  0.13419543  0.61451632  1
  O  O293  1  0.38812289  0.62158147  0.13221983  1
  O  O294  1  0.37277609  0.64009759  0.62255066  1
  O  O295  1  0.88272460  0.11959909  0.13258767  1
  O  O296  1  0.87071787  0.13933173  0.62180243  1
  O  O297  1  0.88431210  0.62936246  0.13084300  1
  O  O298  1  0.88330432  0.62153262  0.63403672  1
  O  O299  1  0.25856710  0.24854953  0.12026030  1
  O  O300  1  0.25538415  0.25322743  0.61718917  1
  O  O301  1  0.24981081  0.73846212  0.10896197  1
  O  O302  1  0.26356266  0.75583592  0.62740227  1
  O  O303  1  0.74433907  0.26400022  0.11825320  1
  O  O304  1  0.75687987  0.25765605  0.61441319  1
  O  O305  1  0.74731289  0.76285861  0.12769088  1
  O  O306  1  0.74979155  0.75519254  0.61478689  1
  O  O307  1  0.24702539  0.24154715  0.38008862  1
  O  O308  1  0.24531735  0.23902757  0.88427917  1
  O  O309  1  0.23825263  0.74285397  0.37991879  1
  O  O310  1  0.24926430  0.73404044  0.87757415  1
  O  O311  1  0.75411206  0.25466903  0.38447225  1
  O  O312  1  0.74362320  0.24345934  0.88361788  1
  O  O313  1  0.74680062  0.74308560  0.38530790  1
  O  O314  1  0.74536247  0.73464914  0.87766863  1
  O  O315  1  0.01174913  0.13237993  0.00823896  1
  O  O316  1  0.01360515  0.12147830  0.48616211  1
  O  O317  1  0.00528413  0.62299646  0.01003284  1
  O  O318  1  0.00134256  0.62228350  0.50705464  1
  O  O319  1  0.50700963  0.11819956  -0.00128038  1
  O  O320  1  0.51103906  0.12274332  0.49773390  1
  O  O321  1  0.50618548  0.62314151  0.01137318  1
  O  O322  1  0.51240971  0.61730681  0.49330051  1
  O  O323  1  0.49908124  0.38451526  0.48827419  1
  O  O324  1  0.50094835  0.37586562  0.98620091  1
  O  O325  1  0.49696315  0.88430729  0.50060094  1
  O  O326  1  0.51314152  0.88469566  0.98305463  1
  O  O327  1  0.99397473  0.37829644  0.49161961  1
  O  O328  1  0.99230049  0.37484679  0.99463578  1
  O  O329  1  0.99793340  0.88368643  0.49334887  1
  O  O330  1  0.98658341  0.86984668  0.98871980  1
  O  O331  1  0.50127486  0.49261102  0.38145386  1
  O  O332  1  0.50506323  0.48259088  0.87639877  1
  O  O333  1  0.49790746  0.99453328  0.38441254  1
  O  O334  1  0.50249128  0.99106215  0.88696536  1
  O  O335  1  1.00563786  0.48783941  0.37887638  1
  O  O336  1  0.99727867  0.48805909  0.88144187  1
  O  O337  1  0.99517095  0.99352092  0.37644165  1
  O  O338  1  0.98761381  0.98798363  0.88029228  1
  O  O339  1  0.00534033  0.01363596  0.13100652  1
  O  O340  1  -0.01112542  0.01053478  0.60280978  1
  O  O341  1  0.00855807  0.50687693  0.11978251  1
  O  O342  1  0.00398588  0.51081681  0.62100084  1
  O  O343  1  0.50840410  0.00609789  0.11933041  1
  O  O344  1  0.50665087  0.01453568  0.61160916  1
  O  O345  1  0.51088150  0.50623003  0.13082094  1
  O  O346  1  0.51218773  0.49300362  0.61661000  1
  O  O347  1  0.23761805  0.37925526  0.25881174  1
  O  O348  1  0.24222248  0.38145774  0.74734246  1
  O  O349  1  0.24957380  0.88029220  0.25324014  1
  O  O350  1  0.25474322  0.87648986  0.74018449  1
  O  O351  1  0.75164145  0.38142432  0.24270888  1
  O  O352  1  0.74969403  0.38226710  0.74216576  1
  O  O353  1  0.74535201  0.88004864  0.24530964  1
  O  O354  1  0.73341754  0.86662425  0.75154301  1
  O  O355  1  0.24949510  0.12750801  0.26122269  1
  O  O356  1  0.23985050  0.12838992  0.76915818  1
  O  O357  1  0.25350091  0.61396740  0.26079463  1
  O  O358  1  0.24460960  0.61812984  0.76403669  1
  O  O359  1  0.75974951  0.12067196  0.24244400  1
  O  O360  1  0.75188613  0.13087263  0.76090957  1
  O  O361  1  0.75598944  0.61952576  0.25811029  1
  O  O362  1  0.75446616  0.62072365  0.75544791  1
  O  O363  1  0.35838161  0.12396833  0.38153543  1
  O  O364  1  0.35870103  0.12377093  0.88044400  1
  O  O365  1  0.35987093  0.62992751  0.38013751  1
  O  O366  1  0.36767494  0.62182656  0.87420818  1
  O  O367  1  0.88074549  0.11391306  0.36302281  1
  O  O368  1  0.86408030  0.11607201  0.87711687  1
  O  O369  1  0.86635007  0.62752271  0.36955911  1
  O  O370  1  0.86631553  0.62087815  0.87047933  1
  O  O371  1  0.11748469  0.38284508  0.13503831  1
  O  O372  1  0.13013644  0.37963081  0.62995968  1
  O  O373  1  0.10890839  0.86779874  0.13229597  1
  O  O374  1  0.14694408  0.87074999  0.62403028  1
  O  O375  1  0.63188533  0.38447529  0.12580871  1
  O  O376  1  0.63120879  0.38092527  0.62346578  1
  O  O377  1  0.62738594  0.88094413  0.13251778  1
  O  O378  1  0.62319976  0.87720992  0.64005971  1
  O  O379  1  0.11837331  0.25723601  0.25285613  1
  O  O380  1  0.11419772  0.25854862  0.75097948  1
  O  O381  1  0.12770656  0.74424613  0.25667731  1
  O  O382  1  0.11396567  0.75704184  0.75302105  1
  O  O383  1  0.61021532  0.25274437  0.24573399  1
  O  O384  1  0.63483248  0.25125430  0.76377814  1
  O  O385  1  0.62268611  0.75509715  0.26367662  1
  O  O386  1  0.61294940  0.75548062  0.74916255  1
  O  O387  1  0.38355241  0.25277360  0.24073265  1
  O  O388  1  0.36769408  0.25039746  0.73516167  1
  O  O389  1  0.38867289  0.74614674  0.25911681  1
  O  O390  1  0.38719935  0.75280048  0.73952900  1
  O  O391  1  0.88255262  0.24055326  0.25232131  1
  O  O392  1  0.87950699  0.25173478  0.73821321  1
  O  O393  1  0.87058566  0.73601486  0.24887196  1
  O  O394  1  0.87910083  0.73511467  0.75493418  1
  O  O395  1  0.38835794  0.50157058  0.50736133  1
  O  O396  1  0.37861584  0.49211531  1.00722429  1
  O  O397  1  0.38505863  0.99356706  0.49767529  1
  O  O398  1  0.38547138  0.99920618  1.00684524  1
  O  O399  1  0.88218506  0.49019208  0.50439738  1
  O  O400  1  0.88219776  0.49149358  0.99953063  1
  O  O401  1  0.88104030  0.99691184  0.48728642  1
  O  O402  1  0.86786001  0.98668885  0.99186830  1
  O  O403  1  0.12904097  0.01175059  0.00864374  1
  O  O404  1  0.11785880  0.01174258  0.49323853  1
  O  O405  1  0.12061749  0.50308434  0.00689879  1
  O  O406  1  0.11613937  0.50553361  0.50658647  1
  O  O407  1  0.61900651  0.00886719  0.00548069  1
  O  O408  1  0.62024775  0.01332996  0.49803805  1
  O  O409  1  0.62219082  0.50954398  0.01000469  1
  O  O410  1  0.61874118  0.50736883  0.50539893  1
  O  O411  1  0.37793009  0.35620702  0.12102646  1
  O  O412  1  0.36806293  0.36630242  0.61884798  1
  O  O413  1  0.42070063  0.85983492  0.10908549  1
  O  O414  1  0.36929353  0.86824110  0.61760978  1
  O  O415  1  0.86830851  0.37857838  0.11296285  1
  O  O416  1  0.86990259  0.36891096  0.61189649  1
  O  O417  1  0.86438282  0.87562479  0.11903326  1
  O  O418  1  0.88342874  0.88070094  0.61196452  1
  O  O419  1  0.13721211  0.13175182  0.37835040  1
  O  O420  1  0.12710729  0.12538852  0.88858269  1
  O  O421  1  0.12940975  0.63224791  0.38121253  1
  O  O422  1  0.12051070  0.62175838  0.88696383  1
  O  O423  1  0.62564930  0.12535576  0.38413072  1
  O  O424  1  0.63166804  0.13319956  0.88641993  1
  O  O425  1  0.63878989  0.62847750  0.38618238  1
  O  O426  1  0.63076006  0.62359723  0.88500197  1
