# generated using pymatgen
data_V85Zn86O256
_symmetry_space_group_name_H-M   'P 1'
_cell_length_a   16.94732916
_cell_length_b   16.93260844
_cell_length_c   16.94748671
_cell_angle_alpha   90.02358588
_cell_angle_beta   90.08030042
_cell_angle_gamma   90.00002743
_symmetry_Int_Tables_number   1
_chemical_formula_structural   V85Zn86O256
_chemical_formula_sum   'V85 Zn86 O256'
_cell_volume   4863.28777527
_cell_formula_units_Z   1
loop_
 _symmetry_equiv_pos_site_id
 _symmetry_equiv_pos_as_xyz
  1  'x, y, z'
loop_
 _atom_site_type_symbol
 _atom_site_label
 _atom_site_symmetry_multiplicity
 _atom_site_fract_x
 _atom_site_fract_y
 _atom_site_fract_z
 _atom_site_occupancy
  V  V0  1  0.00542612  0.62649079  0.62020759  1
  V  V1  1  0.12799323  0.12699524  0.00392609  1
  V  V2  1  0.86476437  0.00941048  0.37292313  1
  V  V3  1  0.00500696  0.74170805  0.25353422  1
  V  V4  1  0.00180896  0.36901279  0.37584727  1
  V  V5  1  0.87441739  0.50066653  0.37314722  1
  V  V6  1  0.37421541  0.12359794  0.74973529  1
  V  V7  1  0.26227540  0.75369033  0.49973865  1
  V  V8  1  0.26503673  0.87195188  0.62458682  1
  V  V9  1  0.24686097  0.37721380  0.12260967  1
  V  V10  1  0.12130599  -0.00984173  0.62458596  1
  V  V11  1  0.50191397  0.37466758  0.87451212  1
  V  V12  1  0.49743456  0.63264989  0.62219301  1
  V  V13  1  0.63153978  0.87760914  0.23562392  1
  V  V14  1  0.75108466  0.24476611  0.49919084  1
  V  V15  1  0.12883737  0.76313782  0.87778902  1
  V  V16  1  0.68419567  0.06955457  0.05634082  1
  V  V17  1  0.24188849  -0.00489847  0.75246962  1
  V  V18  1  0.62884185  0.24336093  0.37223781  1
  V  V19  1  0.87521042  0.37308134  0.50164305  1
  V  V20  1  0.36862328  0.24532400  0.11930613  1
  V  V21  1  0.36742424  0.36701377  0.49698952  1
  V  V22  1  -0.00616003  -0.00004794  0.00234834  1
  V  V23  1  -0.01391396  0.88164582  0.87415957  1
  V  V24  1  0.13001266  0.13377258  0.50528829  1
  V  V25  1  0.24568132  0.36715571  0.62442800  1
  V  V26  1  0.00734522  0.75524013  0.74862913  1
  V  V27  1  0.62330687  0.37479737  0.24956199  1
  V  V28  1  0.88032505  0.24949640  0.12244948  1
  V  V29  1  0.00235695  0.12194668  0.12709558  1
  V  V30  1  0.50300943  0.49608393  0.50702299  1
  V  V31  1  0.50076626  0.12336697  0.62417880  1
  V  V32  1  0.21867868  0.87883463  0.12722464  1
  V  V33  1  0.75029295  0.49927456  0.24952682  1
  V  V34  1  0.37348763  0.63391804  0.74243506  1
  V  V35  1  0.50366142  0.24941560  0.74916426  1
  V  V36  1  0.49499067  0.49998797  0.00240765  1
  V  V37  1  0.23396906  0.00025000  0.24780241  1
  V  V38  1  0.37397796  -0.00338231  0.37673424  1
  V  V39  1  0.37244938  0.50452558  0.37661449  1
  V  V40  1  0.25171426  0.50535756  0.25121495  1
  V  V41  1  0.82929306  0.67970128  0.20557497  1
  V  V42  1  0.62686226  0.61987324  0.50605479  1
  V  V43  1  0.37380552  -0.00043699  0.87495874  1
  V  V44  1  0.12493280  0.37382965  0.24552157  1
  V  V45  1  0.24901609  0.49570735  0.74612856  1
  V  V46  1  0.50135974  0.86976218  0.36759761  1
  V  V47  1  0.88056194  0.39265353  -0.00663581  1
  V  V48  1  0.37405184  0.24845335  0.62236041  1
  V  V49  1  0.74563281  0.38293600  0.62542302  1
  V  V50  1  0.37253517  0.87711018  0.00933312  1
  V  V51  1  0.49847203  0.86892015  0.87447392  1
  V  V52  1  0.61815374  0.62860398  -0.00312972  1
  V  V53  1  0.49984775  0.37224459  0.37535689  1
  V  V54  1  0.00639568  0.25018866  0.75553348  1
  V  V55  1  0.62493979  0.38399557  0.74813319  1
  V  V56  1  0.62200990  0.49954962  0.12475716  1
  V  V57  1  0.37398932  0.50087697  0.87222116  1
  V  V58  1  0.50459713  0.00468318  -0.00046502  1
  V  V59  1  0.13089321  0.62700073  0.48791751  1
  V  V60  1  0.00347548  0.88084035  0.36784321  1
  V  V61  1  0.86857501  0.12715982  0.76394656  1
  V  V62  1  0.12633768  0.49871938  0.62386198  1
  V  V63  1  0.48885125  0.63140894  0.13546298  1
  V  V64  1  0.63538402  0.74562247  0.87251533  1
  V  V65  1  0.24768694  0.62786519  0.87318179  1
  V  V66  1  0.75198844  0.37933626  0.12092030  1
  V  V67  1  0.49667835  -0.00695689  0.50018566  1
  V  V68  1  0.00480904  0.38839675  0.87288642  1
  V  V69  1  0.62700441  0.12444269  0.49756822  1
  V  V70  1  0.12967686  0.75786365  0.37661391  1
  V  V71  1  0.87516563  0.61710776  0.74823798  1
  V  V72  1  0.75300238  0.00023062  0.76846260  1
  V  V73  1  0.75140666  0.62474689  0.37990443  1
  V  V74  1  0.74854342  0.25321926  -0.00557427  1
  V  V75  1  0.24956181  0.13372954  0.87959205  1
  V  V76  1  0.63230587  -0.00058294  0.62497184  1
  V  V77  1  0.12583373  0.61531824  0.00662981  1
  V  V78  1  0.37420060  0.12176628  0.24901143  1
  V  V79  1  0.50370827  0.12140409  0.12260949  1
  V  V80  1  0.74979965  0.75177138  0.50024486  1
  V  V81  1  0.36911765  0.36870939  -0.00231731  1
  V  V82  1  0.87873873  0.75164562  0.62304484  1
  V  V83  1  0.87810418  0.87860301  0.50022861  1
  V  V84  1  0.62822211  0.24047162  0.87713454  1
  Zn  Zn85  1  0.00473417  0.61499048  0.11913187  1
  Zn  Zn86  1  -0.00272354  0.12327689  0.62927440  1
  Zn  Zn87  1  0.62126142  0.74938431  0.37296606  1
  Zn  Zn88  1  0.00326306  0.50090233  0.49626728  1
  Zn  Zn89  1  0.12813080  0.25466174  0.87827302  1
  Zn  Zn90  1  0.50028616  0.24802611  0.24782443  1
  Zn  Zn91  1  0.37294820  0.76012282  0.13632850  1
  Zn  Zn92  1  0.74333415  0.00783405  0.23933639  1
  Zn  Zn93  1  0.00215772  0.24800376  0.25018854  1
  Zn  Zn94  1  0.13906170  0.25302904  0.38127631  1
  Zn  Zn95  1  0.49841174  0.75392343  0.74297269  1
  Zn  Zn96  1  0.77959101  0.62700708  0.90266501  1
  Zn  Zn97  1  0.36948052  0.63709147  0.26202294  1
  Zn  Zn98  1  0.87371822  0.24710069  0.62920884  1
  Zn  Zn99  1  0.24902309  0.75029675  0.00551646  1
  Zn  Zn100  1  0.75003839  0.50457424  0.75756181  1
  Zn  Zn101  1  0.75162911  0.87650819  0.62819862  1
  Zn  Zn102  1  0.87098000  0.12809453  0.25047016  1
  Zn  Zn103  1  0.62563283  0.87229105  0.74800338  1
  Zn  Zn104  1  0.81403493  0.77843222  0.03997275  1
  Zn  Zn105  1  -0.00011421  0.00458654  0.50063733  1
  Zn  Zn106  1  0.25299667  0.13007172  0.38188476  1
  Zn  Zn107  1  0.18686777  0.18921913  0.18858354  1
  Zn  Zn108  1  0.18543932  0.18307690  0.68903764  1
  Zn  Zn109  1  0.18869099  0.69295454  0.19025949  1
  Zn  Zn110  1  0.18726900  0.68983931  0.68460785  1
  Zn  Zn111  1  0.69672640  0.19252170  0.19072986  1
  Zn  Zn112  1  0.69102482  0.18938291  0.68785671  1
  Zn  Zn113  1  0.66116899  0.69341523  0.18610699  1
  Zn  Zn114  1  0.68676271  0.68849223  0.68475512  1
  Zn  Zn115  1  0.31097974  0.30872232  0.30929028  1
  Zn  Zn116  1  0.31419184  0.31252293  0.80808087  1
  Zn  Zn117  1  0.30972618  0.81823699  0.31033473  1
  Zn  Zn118  1  0.31271915  0.81485729  0.81150308  1
  Zn  Zn119  1  0.81162484  0.31134952  0.31131557  1
  Zn  Zn120  1  0.81463855  0.31609670  0.81442027  1
  Zn  Zn121  1  0.80566854  0.82559826  0.31820983  1
  Zn  Zn122  1  0.81456363  0.80945300  0.81036896  1
  Zn  Zn123  1  0.18816920  0.43695864  0.43596839  1
  Zn  Zn124  1  0.18747161  0.43686562  0.93426048  1
  Zn  Zn125  1  0.18878412  0.94055163  0.44133307  1
  Zn  Zn126  1  0.18226825  0.94379625  0.94228864  1
  Zn  Zn127  1  0.68689639  0.43471854  0.43815922  1
  Zn  Zn128  1  0.69033019  0.44535366  0.93108178  1
  Zn  Zn129  1  0.68589773  0.93617033  0.43728564  1
  Zn  Zn130  1  0.68878227  0.92083526  0.93923378  1
  Zn  Zn131  1  0.30926578  0.05726283  0.06376111  1
  Zn  Zn132  1  0.31124693  0.05837124  0.56343944  1
  Zn  Zn133  1  0.30796022  0.56070282  0.06226020  1
  Zn  Zn134  1  0.31234797  0.56315556  0.55916863  1
  Zn  Zn135  1  0.82740930  -0.05916059  0.05399885  1
  Zn  Zn136  1  0.81639130  0.06566532  0.56675736  1
  Zn  Zn137  1  0.81966456  0.57941906  0.05492297  1
  Zn  Zn138  1  0.81601584  0.56084100  0.56472421  1
  Zn  Zn139  1  0.43367661  0.43670698  0.18832936  1
  Zn  Zn140  1  0.43603681  0.43959338  0.68496226  1
  Zn  Zn141  1  0.44180682  0.94188501  0.19057472  1
  Zn  Zn142  1  0.43819671  0.93930173  0.68903075  1
  Zn  Zn143  1  0.93867036  0.43949327  0.18323432  1
  Zn  Zn144  1  0.94266438  0.43414201  0.68511617  1
  Zn  Zn145  1  0.93420954  0.93414865  0.19090414  1
  Zn  Zn146  1  0.93505948  0.93998137  0.69190366  1
  Zn  Zn147  1  0.05745189  0.06967963  0.31988265  1
  Zn  Zn148  1  0.06303758  0.06457503  0.81452794  1
  Zn  Zn149  1  0.04534247  0.54306033  0.28116284  1
  Zn  Zn150  1  0.06614431  0.56750383  0.80706517  1
  Zn  Zn151  1  0.56401745  0.05922285  0.30971159  1
  Zn  Zn152  1  0.56477983  0.05877219  0.81227538  1
  Zn  Zn153  1  0.56161614  0.56130987  0.31775594  1
  Zn  Zn154  1  0.56028689  0.56282700  0.80988780  1
  Zn  Zn155  1  0.43867855  0.18482771  0.43575400  1
  Zn  Zn156  1  0.43955379  0.18692779  0.93635348  1
  Zn  Zn157  1  0.43779457  0.68763645  0.43955667  1
  Zn  Zn158  1  0.43175323  0.69050056  0.94054729  1
  Zn  Zn159  1  0.94257692  0.18643435  0.44283781  1
  Zn  Zn160  1  0.93725952  0.18904335  0.94073529  1
  Zn  Zn161  1  0.94121694  0.68682752  0.43198452  1
  Zn  Zn162  1  0.94919133  0.68411155  0.93502050  1
  Zn  Zn163  1  0.06342463  0.31264614  0.05730682  1
  Zn  Zn164  1  0.05903064  0.31192265  0.56815165  1
  Zn  Zn165  1  0.00782699  0.82761882  0.08160214  1
  Zn  Zn166  1  0.06551185  0.81608196  0.55890861  1
  Zn  Zn167  1  0.56043164  0.31034728  0.06164718  1
  Zn  Zn168  1  0.56363410  0.31203844  0.56298316  1
  Zn  Zn169  1  0.56057651  0.81083948  0.05883323  1
  Zn  Zn170  1  0.56391863  0.81368946  0.55939112  1
  O  O171  1  0.11308821  0.13182748  0.11951701  1
  O  O172  1  0.12491350  0.11417224  0.61887844  1
  O  O173  1  0.13701919  0.63019204  0.10769422  1
  O  O174  1  0.12218464  0.61965265  0.61604946  1
  O  O175  1  0.62207075  0.12620761  0.12059551  1
  O  O176  1  0.62052432  0.11850976  0.62077880  1
  O  O177  1  0.60642064  0.61846113  0.11994661  1
  O  O178  1  0.61739602  0.62539092  0.61304760  1
  O  O179  1  0.38207199  0.37819600  0.38209649  1
  O  O180  1  0.37981760  0.37827339  0.88057358  1
  O  O181  1  0.38666924  0.88896505  0.36853518  1
  O  O182  1  0.37901909  0.88024091  0.88552374  1
  O  O183  1  0.87811874  0.37734223  0.38573114  1
  O  O184  1  0.88415637  0.37676474  0.88676069  1
  O  O185  1  0.88173093  0.88575260  0.38325216  1
  O  O186  1  0.88783876  0.86778700  0.87969095  1
  O  O187  1  0.25773910  0.00102639  0.36527627  1
  O  O188  1  0.25375875  0.00460225  0.86748918  1
  O  O189  1  0.26351963  0.49130552  0.36741439  1
  O  O190  1  0.25397066  0.50540952  0.86349893  1
  O  O191  1  0.76364579  -0.00214643  0.37854808  1
  O  O192  1  0.74144746  -0.00171306  0.86569958  1
  O  O193  1  0.75367377  0.50422125  0.37047777  1
  O  O194  1  0.74508021  0.52073625  0.87077198  1
  O  O195  1  0.25951032  0.48453702  0.13430990  1
  O  O196  1  0.24722472  0.49150885  0.62860102  1
  O  O197  1  0.24628975  0.99136031  0.13728324  1
  O  O198  1  0.24604499  0.98893104  0.63185268  1
  O  O199  1  0.74324378  0.49768754  0.13096503  1
  O  O200  1  0.75245626  0.48624959  0.62579072  1
  O  O201  1  0.74821857  1.01123969  0.11052662  1
  O  O202  1  0.73972481  0.99996205  0.62652667  1
  O  O203  1  0.00945254  0.37129176  0.25814374  1
  O  O204  1  -0.00924481  0.36320172  0.76316779  1
  O  O205  1  -0.00377363  0.86317158  0.26315959  1
  O  O206  1  -0.00383775  0.86907613  0.76311747  1
  O  O207  1  0.50523533  0.37244979  0.25571946  1
  O  O208  1  0.50569574  0.37075619  0.75215028  1
  O  O209  1  0.50876626  0.88181716  0.26279470  1
  O  O210  1  0.50051469  0.87455317  0.75984311  1
  O  O211  1  0.49311685  0.12343352  0.23976123  1
  O  O212  1  0.49416421  0.12658591  0.74382702  1
  O  O213  1  0.49681873  0.61777729  0.23792885  1
  O  O214  1  0.49103010  0.62376964  0.73821007  1
  O  O215  1  0.99489338  0.12821144  0.24248182  1
  O  O216  1  0.98985398  0.13424097  0.75330473  1
  O  O217  1  0.99241540  0.64503592  0.28120149  1
  O  O218  1  0.99538951  0.63333142  0.73889453  1
  O  O219  1  0.37888073  0.25722959  0.00618508  1
  O  O220  1  0.38334651  0.25873955  0.50703989  1
  O  O221  1  0.36775704  0.76310059  0.00549428  1
  O  O222  1  0.36091486  0.74853066  0.49895153  1
  O  O223  1  0.86835591  0.25870139  0.00726907  1
  O  O224  1  0.86720160  0.25564842  0.50098685  1
  O  O225  1  0.85181416  0.68283121  -0.00720135  1
  O  O226  1  0.87091112  0.75745623  0.50327204  1
  O  O227  1  0.12367142  0.23704555  0.50721047  1
  O  O228  1  0.12114332  0.23457999  0.99493415  1
  O  O229  1  0.13268248  0.74613724  0.49320451  1
  O  O230  1  0.13281735  0.73809854  0.98349457  1
  O  O231  1  0.63102020  0.24541789  0.49265308  1
  O  O232  1  0.63491371  0.26090703  0.98987590  1
  O  O233  1  0.63456871  0.74259107  0.49751874  1
  O  O234  1  0.61768890  0.74039221  0.98886601  1
  O  O235  1  0.49160426  0.23710544  0.12226740  1
  O  O236  1  0.49644445  0.24251871  0.63018792  1
  O  O237  1  0.49603112  0.73390446  0.12116845  1
  O  O238  1  0.50162723  0.73765142  0.62109428  1
  O  O239  1  0.99420365  0.24717117  0.12443978  1
  O  O240  1  0.99518291  0.25200713  0.64278838  1
  O  O241  1  1.00910451  0.73397381  0.14652940  1
  O  O242  1  1.00098214  0.74918966  0.63127107  1
  O  O243  1  -0.00071305  0.26090965  0.37411042  1
  O  O244  1  -0.00109346  0.25784617  0.86659072  1
  O  O245  1  0.00980187  0.76328526  0.37790295  1
  O  O246  1  0.00857692  0.76156066  0.87038431  1
  O  O247  1  0.50780941  0.25627762  0.37334880  1
  O  O248  1  0.50563562  0.25698848  0.86925199  1
  O  O249  1  0.49860994  0.76747548  0.38405907  1
  O  O250  1  0.49870634  0.76145344  0.87522462  1
  O  O251  1  0.23466977  0.11766792  0.50222376  1
  O  O252  1  0.24351346  0.11757662  0.99104094  1
  O  O253  1  0.24418756  0.64285633  0.50805481  1
  O  O254  1  0.24880511  0.62736908  0.98855716  1
  O  O255  1  0.74499133  0.13791950  0.50549879  1
  O  O256  1  0.73912506  0.13577468  1.00460837  1
  O  O257  1  0.74363064  0.62958211  0.50095256  1
  O  O258  1  0.71823908  0.60963283  1.00820349  1
  O  O259  1  0.26151595  0.37961142  0.00443279  1
  O  O260  1  0.26092698  0.37858550  0.50912420  1
  O  O261  1  0.25326859  0.88379024  0.01642427  1
  O  O262  1  0.24908461  0.86689279  0.51312171  1
  O  O263  1  0.76122906  0.37374342  0.00134266  1
  O  O264  1  0.75506932  0.36716344  0.50578188  1
  O  O265  1  0.75751795  0.86637363  0.00503610  1
  O  O266  1  0.76048303  0.86781631  0.49974932  1
  O  O267  1  0.14164562  0.48051873  0.26528244  1
  O  O268  1  0.13596703  0.50744434  0.73382825  1
  O  O269  1  0.13660611  1.00896357  0.25798207  1
  O  O270  1  0.13674574  1.00659645  0.74271111  1
  O  O271  1  0.62969909  0.49545144  0.24634777  1
  O  O272  1  0.62338906  0.48785777  0.75036653  1
  O  O273  1  0.62664810  0.98541102  0.25174653  1
  O  O274  1  0.63734072  1.00020775  0.74294481  1
  O  O275  1  0.36924237  0.00913787  0.25469798  1
  O  O276  1  0.36621461  0.00468266  0.75586824  1
  O  O277  1  0.36854281  0.49867139  0.26088405  1
  O  O278  1  0.36862049  0.50875112  0.75380200  1
  O  O279  1  0.87154427  -0.00213095  0.26407695  1
  O  O280  1  0.86062114  0.00981649  0.75090027  1
  O  O281  1  0.86394790  0.48656713  0.26619921  1
  O  O282  1  0.87767635  0.51451732  0.73744626  1
  O  O283  1  0.11607756  0.37097835  0.37408728  1
  O  O284  1  0.11031744  0.37188256  0.88025933  1
  O  O285  1  0.11497052  0.87098103  0.38366488  1
  O  O286  1  0.12637988  0.86584785  0.87528269  1
  O  O287  1  0.61863295  0.36558512  0.37110685  1
  O  O288  1  0.61852543  0.37028080  0.86704380  1
  O  O289  1  0.61270800  0.87509181  0.37270689  1
  O  O290  1  0.61561387  0.86245707  0.87193082  1
  O  O291  1  0.38057160  0.12813637  0.12797079  1
  O  O292  1  0.37904998  0.12887751  0.62912276  1
  O  O293  1  0.38349309  0.62409171  0.12576308  1
  O  O294  1  0.38303280  0.61976072  0.63151331  1
  O  O295  1  0.89195535  0.13838583  0.12298343  1
  O  O296  1  0.87800470  0.12779149  0.63939061  1
  O  O297  1  0.88247449  0.61465972  0.14744320  1
  O  O298  1  0.88756118  0.63238397  0.62459377  1
  O  O299  1  0.26301006  0.25755851  0.12797357  1
  O  O300  1  0.25376042  0.26149938  0.63507819  1
  O  O301  1  0.24700994  0.77153887  0.12628754  1
  O  O302  1  0.24587188  0.76463471  0.61792718  1
  O  O303  1  0.75592171  0.26106079  0.11245806  1
  O  O304  1  0.75130750  0.26094826  0.61660339  1
  O  O305  1  0.76553906  0.72859361  0.14131830  1
  O  O306  1  0.75601244  0.75327784  0.61361863  1
  O  O307  1  0.25354880  0.24436820  0.37757622  1
  O  O308  1  0.25131759  0.23737275  0.86746203  1
  O  O309  1  0.24353512  0.76425447  0.39077192  1
  O  O310  1  0.24482667  0.74346997  0.87160961  1
  O  O311  1  0.73961284  0.25710991  0.38515426  1
  O  O312  1  0.74421734  0.25667596  0.88646408  1
  O  O313  1  0.75189668  0.74501062  0.38751747  1
  O  O314  1  0.73862733  0.73924341  0.86633729  1
  O  O315  1  0.00602145  0.11791825  0.00423711  1
  O  O316  1  0.01215021  0.12368167  0.50882620  1
  O  O317  1  0.02039123  0.62338514  0.00148164  1
  O  O318  1  0.01055370  0.62351889  0.50373926  1
  O  O319  1  0.49819177  0.11251013  0.00309875  1
  O  O320  1  0.50686402  0.11497880  0.50500451  1
  O  O321  1  0.49795032  0.61680085  0.00834123  1
  O  O322  1  0.50633330  0.61745316  0.50419355  1
  O  O323  1  0.49346605  0.38012499  0.49721244  1
  O  O324  1  0.48820266  0.38110887  0.99699861  1
  O  O325  1  0.50461092  0.88782589  0.49111105  1
  O  O326  1  0.49395155  0.88544019  0.99482765  1
  O  O327  1  0.99171649  0.37580896  0.49480981  1
  O  O328  1  0.98970496  0.37556776  0.98771921  1
  O  O329  1  0.98873648  0.87711353  0.49300230  1
  O  O330  1  1.01137579  0.89047636  0.98634880  1
  O  O331  1  0.49447782  0.49087796  0.38516268  1
  O  O332  1  0.49220196  0.49489125  0.88167526  1
  O  O333  1  0.49440680  0.99407868  0.38193249  1
  O  O334  1  0.49753637  0.99010252  0.88060179  1
  O  O335  1  0.99074476  0.48677323  0.37430795  1
  O  O336  1  1.00533630  0.48703451  0.86264284  1
  O  O337  1  0.99101923  0.99364207  0.37802774  1
  O  O338  1  1.00402387  0.98675497  0.87666019  1
  O  O339  1  -0.00345762  0.00660333  0.11204300  1
  O  O340  1  0.00881491  -0.00013551  0.62718801  1
  O  O341  1  0.01628860  0.51637999  0.17154090  1
  O  O342  1  0.01147520  0.50363041  0.62029554  1
  O  O343  1  0.49853760  0.01303174  0.11622548  1
  O  O344  1  0.50905367  0.00313838  0.61906178  1
  O  O345  1  0.49934291  0.50569996  0.11819194  1
  O  O346  1  0.49554553  0.50752824  0.61163901  1
  O  O347  1  0.24804142  0.37916814  0.23953064  1
  O  O348  1  0.25616376  0.38774706  0.74133473  1
  O  O349  1  0.24485835  0.88990682  0.23861378  1
  O  O350  1  0.25398734  0.88224925  0.73812950  1
  O  O351  1  0.74177147  0.37847087  0.24143610  1
  O  O352  1  0.74339513  0.37789813  0.74387062  1
  O  O353  1  0.73746817  0.88386537  0.24715567  1
  O  O354  1  0.75110584  0.88782691  0.74978002  1
  O  O355  1  0.25749884  0.11439136  0.24764509  1
  O  O356  1  0.25626218  0.11632282  0.75655496  1
  O  O357  1  0.25056146  0.60896175  0.24323661  1
  O  O358  1  0.25590908  0.61790261  0.75117642  1
  O  O359  1  0.75753125  0.12052705  0.24703846  1
  O  O360  1  0.75872761  0.11572534  0.75010908  1
  O  O361  1  0.75227512  0.62417292  0.25697930  1
  O  O362  1  0.77005604  0.62555904  0.73439596  1
  O  O363  1  0.37713668  0.11489806  0.36543174  1
  O  O364  1  0.36966416  0.11888547  0.87057122  1
  O  O365  1  0.38241171  0.60934040  0.37727375  1
  O  O366  1  0.36462581  0.62156950  0.86834764  1
  O  O367  1  0.88179355  0.11172287  0.37665515  1
  O  O368  1  0.87545936  0.12843671  0.86302058  1
  O  O369  1  0.86534432  0.61202698  0.38520274  1
  O  O370  1  0.88731895  0.62745899  0.84963472  1
  O  O371  1  0.13593587  0.36907158  0.13039977  1
  O  O372  1  0.13473930  0.38463004  0.61740872  1
  O  O373  1  0.12173254  0.87375424  0.11944268  1
  O  O374  1  0.13407485  0.88660064  0.62212493  1
  O  O375  1  0.62748574  0.38176641  0.12859254  1
  O  O376  1  0.63301490  0.36930067  0.63477636  1
  O  O377  1  0.61686476  0.87145142  0.13708127  1
  O  O378  1  0.62719366  0.88489479  0.62696730  1
  O  O379  1  0.12613066  0.26209315  0.25518710  1
  O  O380  1  0.10970963  0.24402488  0.75450880  1
  O  O381  1  0.12060181  0.74594156  0.26812979  1
  O  O382  1  0.11312074  0.74258108  0.75837306  1
  O  O383  1  0.62340681  0.25600226  0.25667727  1
  O  O384  1  0.62164956  0.25839943  0.75640931  1
  O  O385  1  0.62523879  0.76889784  0.25840707  1
  O  O386  1  0.61916768  0.74957037  0.75642851  1
  O  O387  1  0.37842571  0.23660513  0.24026798  1
  O  O388  1  0.38406207  0.24420150  0.74277242  1
  O  O389  1  0.36902752  0.74834239  0.24887556  1
  O  O390  1  0.37695593  0.73738984  0.75251932  1
  O  O391  1  0.87540704  0.25591587  0.23386462  1
  O  O392  1  0.87769495  0.24043734  0.75194147  1
  O  O393  1  0.87994561  0.75150979  0.26014243  1
  O  O394  1  0.88643585  0.74452925  0.74082035  1
  O  O395  1  0.38065038  0.48993900  0.49385442  1
  O  O396  1  0.38072528  0.49327539  0.99378523  1
  O  O397  1  0.38454003  1.00641231  0.49010927  1
  O  O398  1  0.38355560  0.99562065  0.99386475  1
  O  O399  1  0.87536788  0.48999147  0.49067477  1
  O  O400  1  0.87514642  0.49096085  1.00371376  1
  O  O401  1  0.87566631  0.99464084  0.49313537  1
  O  O402  1  0.89526031  1.00904388  0.99017108  1
  O  O403  1  0.11239424  0.01733600  -0.00554368  1
  O  O404  1  0.12198411  0.00695681  0.50977376  1
  O  O405  1  0.13524779  0.51621855  -0.00394117  1
  O  O406  1  0.12952601  0.50956514  0.50686058  1
  O  O407  1  0.62359610  0.00508636  -0.00275612  1
  O  O408  1  0.62073181  0.00587667  0.50629116  1
  O  O409  1  0.60654086  0.49915407  0.00390551  1
  O  O410  1  0.61531918  0.50663585  0.49470063  1
  O  O411  1  0.37127508  0.36483804  0.11672614  1
  O  O412  1  0.36844955  0.36909075  0.61716528  1
  O  O413  1  0.38049086  0.88064491  0.11479487  1
  O  O414  1  0.36406104  0.87908428  0.62421083  1
  O  O415  1  0.87467116  0.37325964  0.11208483  1
  O  O416  1  0.86983373  0.37341441  0.61369502  1
  O  O417  1  0.89642497  0.86362432  0.10809354  1
  O  O418  1  0.87457228  0.87126366  0.61691078  1
  O  O419  1  0.12497527  0.12871185  0.39284905  1
  O  O420  1  0.13511663  0.12775891  0.88071707  1
  O  O421  1  0.12570786  0.63351240  0.38734718  1
  O  O422  1  0.13734901  0.62966023  0.87547394  1
  O  O423  1  0.61806920  0.13694516  0.37902966  1
  O  O424  1  0.61837705  0.14128787  0.87069630  1
  O  O425  1  0.63043826  0.62743062  0.38614504  1
  O  O426  1  0.60780032  0.63590906  0.88329543  1
