# generated using pymatgen
data_V85Zn86O256
_symmetry_space_group_name_H-M   'P 1'
_cell_length_a   16.94835228
_cell_length_b   16.94618705
_cell_length_c   16.93649624
_cell_angle_alpha   89.84885997
_cell_angle_beta   89.99411628
_cell_angle_gamma   90.02101678
_symmetry_Int_Tables_number   1
_chemical_formula_structural   V85Zn86O256
_chemical_formula_sum   'V85 Zn86 O256'
_cell_volume   4864.31292563
_cell_formula_units_Z   1
loop_
 _symmetry_equiv_pos_site_id
 _symmetry_equiv_pos_as_xyz
  1  'x, y, z'
loop_
 _atom_site_type_symbol
 _atom_site_label
 _atom_site_symmetry_multiplicity
 _atom_site_fract_x
 _atom_site_fract_y
 _atom_site_fract_z
 _atom_site_occupancy
  V  V0  1  0.00849017  0.12686772  0.12988626  1
  V  V1  1  0.26149626  0.49830118  0.76051460  1
  V  V2  1  0.62452919  0.75104088  0.37539900  1
  V  V3  1  0.24786648  0.37357526  0.12553564  1
  V  V4  1  0.74901337  0.62218642  0.37865719  1
  V  V5  1  0.62750461  0.25456490  0.86374427  1
  V  V6  1  0.12659104  0.49678805  0.63331979  1
  V  V7  1  0.25743388  0.87167868  0.62829627  1
  V  V8  1  0.00309237  0.87883988  0.87766704  1
  V  V9  1  0.12269458  0.61963285  -0.01404662  1
  V  V10  1  0.26079590  0.12845645  0.87142488  1
  V  V11  1  0.48592643  0.50174285  -0.00374330  1
  V  V12  1  0.38251696  0.00098153  0.86863991  1
  V  V13  1  0.74889965  0.75896189  0.01153690  1
  V  V14  1  0.00101928  0.62588245  0.63046298  1
  V  V15  1  0.62708891  0.25006882  0.37460707  1
  V  V16  1  0.50078007  0.37900290  0.37525329  1
  V  V17  1  0.23716637  0.75235428  -0.01530602  1
  V  V18  1  0.87556353  0.87453369  0.50220101  1
  V  V19  1  0.75041459  0.87823379  0.63410969  1
  V  V20  1  0.49467257  0.88026967  0.37337888  1
  V  V21  1  0.86189932  0.24732909  0.12357636  1
  V  V22  1  0.86233696  0.11953596  0.74293667  1
  V  V23  1  0.37515797  0.87427605  0.49908338  1
  V  V24  1  0.87848871  0.26901405  0.62426318  1
  V  V25  1  0.49028135  0.24702102  0.75136683  1
  V  V26  1  0.00028870  0.37999407  0.38077546  1
  V  V27  1  0.25403373  0.74750297  0.50693476  1
  V  V28  1  0.12698195  0.87379374  0.75457672  1
  V  V29  1  0.23348339  0.87749351  0.12859543  1
  V  V30  1  0.36494651  0.75443744  0.12442171  1
  V  V31  1  -0.01172588  0.49710444  0.50987766  1
  V  V32  1  0.62231860  0.62334272  0.50956392  1
  V  V33  1  0.49999922  0.24954359  0.24855568  1
  V  V34  1  0.86721357  -0.00078885  0.87181781  1
  V  V35  1  0.12941235  0.35518716  0.76197903  1
  V  V36  1  0.00782458  0.75423793  0.24793743  1
  V  V37  1  0.62946614  0.87490621  0.24934791  1
  V  V38  1  0.13149043  0.13424401  0.49447671  1
  V  V39  1  0.37512910  0.50123452  0.37318324  1
  V  V40  1  0.12439848  0.62408586  0.50341128  1
  V  V41  1  0.25649728  0.24458004  -0.00584637  1
  V  V42  1  0.25218301  0.37197060  0.61616872  1
  V  V43  1  0.75210579  -0.00514396  0.24817820  1
  V  V44  1  0.87708283  0.75112959  0.62974597  1
  V  V45  1  0.62823490  0.37914677  0.24813517  1
  V  V46  1  0.62000367  0.63514154  -0.00776579  1
  V  V47  1  0.24892177  -0.00040093  0.26307612  1
  V  V48  1  0.49736019  0.62916028  0.12690854  1
  V  V49  1  0.23956445  0.49594221  0.24990092  1
  V  V50  1  0.62978523  -0.00597279  0.12405998  1
  V  V51  1  0.25707278  0.00504962  0.74961052  1
  V  V52  1  0.62291427  0.85716375  0.75410091  1
  V  V53  1  0.87388695  0.87380245  0.01210283  1
  V  V54  1  0.75351797  0.49963862  0.25428906  1
  V  V55  1  0.87837484  0.12718975  0.25259126  1
  V  V56  1  0.24931500  0.62530705  0.37655242  1
  V  V57  1  0.37075456  0.63731589  0.75830020  1
  V  V58  1  0.49611895  0.49960099  0.51277537  1
  V  V59  1  0.00276414  0.62119436  0.12288406  1
  V  V60  1  0.75139789  0.74895559  0.50268194  1
  V  V61  1  0.87651865  -0.00078903  0.37604817  1
  V  V62  1  0.87443695  0.61691251  0.75681993  1
  V  V63  1  0.79706260  0.42650517  0.06693949  1
  V  V64  1  0.75327363  0.63210104  0.87544141  1
  V  V65  1  0.75040004  0.12577548  0.37789711  1
  V  V66  1  0.37989909  0.25094742  0.12185458  1
  V  V67  1  0.37226392  0.23910418  0.61469283  1
  V  V68  1  0.37212892  0.62655147  0.25054607  1
  V  V69  1  0.00772451  0.26304721  0.24976019  1
  V  V70  1  0.49664880  0.75281263  0.25050010  1
  V  V71  1  0.09527644  0.14092065  -0.03952732  1
  V  V72  1  0.50139583  0.00161532  0.49994329  1
  V  V73  1  0.00346790  -0.00173936  0.49896046  1
  V  V74  1  0.00511296  0.74922223  0.75918592  1
  V  V75  1  0.50251448  0.86050072  0.87258914  1
  V  V76  1  -0.00244578  0.12790000  0.62615269  1
  V  V77  1  0.62744403  0.00213929  0.63607390  1
  V  V78  1  0.62882365  0.12480749  -0.00098378  1
  V  V79  1  0.75544965  0.26775255  0.49833945  1
  V  V80  1  0.87516091  0.63346421  0.24890724  1
  V  V81  1  0.12739208  0.00104719  0.62625852  1
  V  V82  1  0.50030685  -0.00335609  -0.00072835  1
  V  V83  1  0.48891952  0.64528840  0.62875126  1
  V  V84  1  0.62049166  0.49976943  0.12058412  1
  Zn  Zn85  1  0.36885353  0.37026008  0.49413551  1
  Zn  Zn86  1  0.37966636  0.11532902  0.25607415  1
  Zn  Zn87  1  0.12686564  0.00725690  0.12284578  1
  Zn  Zn88  1  0.62840188  0.12302391  0.50162773  1
  Zn  Zn89  1  0.26625102  0.13483479  0.38113219  1
  Zn  Zn90  1  -0.00296481  0.00198900  0.00387983  1
  Zn  Zn91  1  0.50003401  0.12083858  0.62712611  1
  Zn  Zn92  1  0.00373888  0.87435908  0.36984564  1
  Zn  Zn93  1  -0.00795573  0.24850672  0.78770501  1
  Zn  Zn94  1  0.37635259  0.37672160  -0.02123673  1
  Zn  Zn95  1  0.12577595  0.75449987  0.37527418  1
  Zn  Zn96  1  0.13491627  0.26323011  0.37362547  1
  Zn  Zn97  1  0.50006914  0.12265423  0.12530499  1
  Zn  Zn98  1  0.86999067  0.49701425  0.38517233  1
  Zn  Zn99  1  0.72570191  0.38583338  0.64958677  1
  Zn  Zn100  1  0.12430443  0.49557335  0.11764227  1
  Zn  Zn101  1  0.72393873  0.49460102  0.75858898  1
  Zn  Zn102  1  -0.02584242  0.39470541  -0.08251197  1
  Zn  Zn103  1  0.51077835  0.40750095  0.83980882  1
  Zn  Zn104  1  0.36720718  0.87655482  -0.00212614  1
  Zn  Zn105  1  0.74275891  0.25736258  0.00290192  1
  Zn  Zn106  1  0.74664428  0.12202087  0.87023934  1
  Zn  Zn107  1  0.19395845  0.18837489  0.19386559  1
  Zn  Zn108  1  0.19406415  0.18317602  0.68270550  1
  Zn  Zn109  1  0.18353321  0.68383367  0.18440181  1
  Zn  Zn110  1  0.18961012  0.68634767  0.69423096  1
  Zn  Zn111  1  0.68442620  0.18119067  0.18924348  1
  Zn  Zn112  1  0.68957855  0.19378814  0.68161292  1
  Zn  Zn113  1  0.68546268  0.68770937  0.18655638  1
  Zn  Zn114  1  0.68764084  0.68102674  0.68484873  1
  Zn  Zn115  1  0.31320539  0.31110250  0.31119084  1
  Zn  Zn116  1  0.32375415  0.31833231  0.81013071  1
  Zn  Zn117  1  0.30674146  0.81691554  0.31399657  1
  Zn  Zn118  1  0.31646315  0.81660923  0.81314698  1
  Zn  Zn119  1  0.81696143  0.31698385  0.31272668  1
  Zn  Zn120  1  0.81852884  0.31278808  0.81533358  1
  Zn  Zn121  1  0.81575848  0.81214881  0.31416427  1
  Zn  Zn122  1  0.81260329  0.80912029  0.81911658  1
  Zn  Zn123  1  0.18091859  0.43922146  0.43735799  1
  Zn  Zn124  1  0.18854147  0.43287700  0.93692017  1
  Zn  Zn125  1  0.18459424  0.93579605  0.43801455  1
  Zn  Zn126  1  0.18346664  0.94939567  0.94117610  1
  Zn  Zn127  1  0.66967492  0.42488577  0.47183408  1
  Zn  Zn128  1  0.66624996  0.45288970  0.91100533  1
  Zn  Zn129  1  0.68658683  0.93706037  0.43986419  1
  Zn  Zn130  1  0.68744817  0.93391918  0.93396784  1
  Zn  Zn131  1  0.31623245  0.06278417  0.06476120  1
  Zn  Zn132  1  0.31413556  0.05770966  0.55735179  1
  Zn  Zn133  1  0.30300155  0.56914442  0.06184407  1
  Zn  Zn134  1  0.31428241  0.55939674  0.56719141  1
  Zn  Zn135  1  0.81342543  0.06031667  0.06260770  1
  Zn  Zn136  1  0.81124866  0.06125207  0.56149269  1
  Zn  Zn137  1  0.81372413  0.58893244  0.06450004  1
  Zn  Zn138  1  0.80736878  0.55594613  0.58164719  1
  Zn  Zn139  1  0.43295961  0.43649771  0.18451741  1
  Zn  Zn140  1  0.43513873  0.43075039  0.68559407  1
  Zn  Zn141  1  0.43284406  0.93673595  0.18492042  1
  Zn  Zn142  1  0.44157162  0.93205507  0.68707980  1
  Zn  Zn143  1  0.96546001  0.41331877  0.12947531  1
  Zn  Zn144  1  0.95125875  0.43934265  0.72992717  1
  Zn  Zn145  1  0.94123360  0.93955855  0.18746908  1
  Zn  Zn146  1  0.93951940  0.93901263  0.68936739  1
  Zn  Zn147  1  0.06814411  0.05992908  0.31138387  1
  Zn  Zn148  1  0.05796969  0.06582340  0.81049878  1
  Zn  Zn149  1  0.05919527  0.56301697  0.31656043  1
  Zn  Zn150  1  0.05845065  0.54957916  0.81917586  1
  Zn  Zn151  1  0.56178502  0.06286555  0.31228459  1
  Zn  Zn152  1  0.56238921  0.06548580  0.81010000  1
  Zn  Zn153  1  0.56381577  0.56357276  0.31392931  1
  Zn  Zn154  1  0.55703244  0.57950798  0.81256901  1
  Zn  Zn155  1  0.43855249  0.18526297  0.43468716  1
  Zn  Zn156  1  0.44107854  0.18502467  0.93585997  1
  Zn  Zn157  1  0.43567346  0.69071204  0.43954270  1
  Zn  Zn158  1  0.42719859  0.68613699  0.94136974  1
  Zn  Zn159  1  0.94058990  0.19221584  0.44041928  1
  Zn  Zn160  1  0.92420770  0.19861143  0.93268847  1
  Zn  Zn161  1  0.93796149  0.68548292  0.43672220  1
  Zn  Zn162  1  0.93720154  0.69131979  0.94045613  1
  Zn  Zn163  1  0.07069751  0.30200444  0.05914973  1
  Zn  Zn164  1  0.06170195  0.31570995  0.56700868  1
  Zn  Zn165  1  0.05849729  0.80703915  0.06259345  1
  Zn  Zn166  1  0.06681150  0.81318952  0.56487626  1
  Zn  Zn167  1  0.56467039  0.31753051  0.05802336  1
  Zn  Zn168  1  0.55954156  0.30763628  0.56418939  1
  Zn  Zn169  1  0.56068698  0.81499058  0.06296191  1
  Zn  Zn170  1  0.56473396  0.81468018  0.56328038  1
  O  O171  1  0.11200216  0.13213922  0.13049232  1
  O  O172  1  0.11864215  0.12167060  0.61608007  1
  O  O173  1  0.11877810  0.62233378  0.11354843  1
  O  O174  1  0.12094613  0.61653113  0.62444821  1
  O  O175  1  0.62153891  0.11151111  0.11862302  1
  O  O176  1  0.62880437  0.11524691  0.62103158  1
  O  O177  1  0.61893876  0.61801439  0.11839874  1
  O  O178  1  0.60679904  0.63207139  0.61858989  1
  O  O179  1  0.38673227  0.38118457  0.37310390  1
  O  O180  1  0.39936904  0.37640674  0.86727184  1
  O  O181  1  0.38485326  0.87100446  0.38332299  1
  O  O182  1  0.38504546  0.88369403  0.87729171  1
  O  O183  1  0.89423324  0.38414981  0.36368655  1
  O  O184  1  0.91910184  0.30209823  0.86981155  1
  O  O185  1  0.88047742  0.88044831  0.38500271  1
  O  O186  1  0.88411875  0.88195869  0.87963612  1
  O  O187  1  0.24860651  -0.00122430  0.36505871  1
  O  O188  1  0.26448657  0.00041276  0.86821516  1
  O  O189  1  0.25519313  0.50432519  0.36950938  1
  O  O190  1  0.25158743  0.49333738  0.85882207  1
  O  O191  1  0.75587162  0.00631513  0.37150129  1
  O  O192  1  0.76260479  -0.00105319  0.87561368  1
  O  O193  1  0.74471755  0.51357364  0.37104367  1
  O  O194  1  0.74937351  0.52649234  0.87991620  1
  O  O195  1  0.25025670  0.49253992  0.13251208  1
  O  O196  1  0.24425010  0.49056135  0.63096853  1
  O  O197  1  0.24612251  0.99046547  0.12066529  1
  O  O198  1  0.24833004  0.99301134  0.63161647  1
  O  O199  1  0.74304777  0.49983642  0.12731407  1
  O  O200  1  0.73173736  0.50598286  0.64273717  1
  O  O201  1  0.74197425  1.00410551  0.13587519  1
  O  O202  1  0.74282586  0.98515315  0.61841387  1
  O  O203  1  -0.00155145  0.36387557  0.24393756  1
  O  O204  1  0.02598196  0.35079652  0.73693549  1
  O  O205  1  -0.00724870  0.85771455  0.24940616  1
  O  O206  1  0.00645985  0.86951728  0.75668938  1
  O  O207  1  0.50681139  0.37235751  0.25570934  1
  O  O208  1  0.50577708  0.35371661  0.73553748  1
  O  O209  1  0.50454362  0.87278632  0.25690462  1
  O  O210  1  0.51292739  0.87271049  0.75668257  1
  O  O211  1  0.50194261  0.13549816  0.24612476  1
  O  O212  1  0.50584050  0.14003656  0.74221742  1
  O  O213  1  0.49302787  0.63298803  0.24660290  1
  O  O214  1  0.48515856  0.62675086  0.73792089  1
  O  O215  1  0.99300141  0.13190365  0.24903269  1
  O  O216  1  0.99505702  0.12967808  0.73407643  1
  O  O217  1  0.99243197  0.63191620  0.24813254  1
  O  O218  1  0.99522821  0.63300018  0.74943255  1
  O  O219  1  0.37494604  0.25203747  0.00526136  1
  O  O220  1  0.38279823  0.25277626  0.51138460  1
  O  O221  1  0.35600099  0.75070528  0.00795305  1
  O  O222  1  0.36659707  0.76171322  0.49978082  1
  O  O223  1  0.86288331  0.24191437  0.01956115  1
  O  O224  1  0.86790791  0.24538416  0.51372455  1
  O  O225  1  0.86251904  0.76052823  -0.00041869  1
  O  O226  1  0.87261383  0.75401480  0.50881527  1
  O  O227  1  0.11808074  0.23624334  0.49986181  1
  O  O228  1  0.13776373  0.23168117  0.99808060  1
  O  O229  1  0.13084504  0.73525088  0.50589881  1
  O  O230  1  0.13235902  0.74264550  0.99924725  1
  O  O231  1  0.63735922  0.24318500  0.48894091  1
  O  O232  1  0.62197979  0.23865995  0.99605142  1
  O  O233  1  0.62931476  0.74246906  0.49589514  1
  O  O234  1  0.63475685  0.74716596  1.00863060  1
  O  O235  1  0.49711585  0.25239263  0.13116367  1
  O  O236  1  0.49016513  0.24371727  0.62780098  1
  O  O237  1  0.48859629  0.74869806  0.13012851  1
  O  O238  1  0.49364802  0.74348956  0.62068918  1
  O  O239  1  0.99069551  0.24454526  0.13716918  1
  O  O240  1  0.98650652  0.24059679  0.61322011  1
  O  O241  1  1.00417929  0.73883677  0.13999079  1
  O  O242  1  0.99746297  0.74703918  0.63640505  1
  O  O243  1  0.00006217  0.25904023  0.36417919  1
  O  O244  1  0.02824507  0.17730259  0.88116455  1
  O  O245  1  0.00092869  0.74613002  0.36197687  1
  O  O246  1  -0.00421227  0.76124413  0.86495595  1
  O  O247  1  0.50645170  0.25917798  0.36814569  1
  O  O248  1  0.50743673  0.23978924  0.85887880  1
  O  O249  1  0.50394455  0.75971247  0.37060740  1
  O  O250  1  0.49398829  0.76203594  0.88549551  1
  O  O251  1  0.23461550  0.11841365  0.49941784  1
  O  O252  1  0.26076460  0.13550769  0.98997562  1
  O  O253  1  0.24557295  0.63053670  0.50041306  1
  O  O254  1  0.23560188  0.64096835  1.00065201  1
  O  O255  1  0.75304113  0.12913913  0.48677876  1
  O  O256  1  0.73637994  0.12216727  0.99936886  1
  O  O257  1  0.73988059  0.62823594  0.49833616  1
  O  O258  1  0.73991351  0.63877906  0.99656568  1
  O  O259  1  0.25594604  0.36165316  0.00135445  1
  O  O260  1  0.24846946  0.38076547  0.51161537  1
  O  O261  1  0.24430283  0.86677618  0.00556537  1
  O  O262  1  0.25745367  0.86969349  0.50745495  1
  O  O263  1  0.73865409  0.38029218  -0.00208350  1
  O  O264  1  0.76773214  0.36388761  0.47322320  1
  O  O265  1  0.75518046  0.86554934  -0.00166660  1
  O  O266  1  0.75568815  0.86763391  0.50761415  1
  O  O267  1  0.13800996  0.50733666  0.25025781  1
  O  O268  1  0.13609948  0.49456426  0.74224896  1
  O  O269  1  0.14168261  1.00333328  0.24440734  1
  O  O270  1  0.13293033  0.99460595  0.74378056  1
  O  O271  1  0.63417480  0.50322901  0.24083270  1
  O  O272  1  0.61348598  0.48387409  0.80366614  1
  O  O273  1  0.63037850  0.99527670  0.24308161  1
  O  O274  1  0.62149421  0.99155612  0.73872059  1
  O  O275  1  0.35607275  -0.00089653  0.23981763  1
  O  O276  1  0.36997068  -0.00804159  0.75675645  1
  O  O277  1  0.36930995  0.50809143  0.25543912  1
  O  O278  1  0.36445068  0.50434270  0.74300387  1
  O  O279  1  0.87278193  0.00697430  0.25685823  1
  O  O280  1  0.87975143  0.00878065  0.75682457  1
  O  O281  1  0.85678562  0.51436585  0.25206980  1
  O  O282  1  0.86806917  0.51854417  0.73821234  1
  O  O283  1  0.10871298  0.37877062  0.37267747  1
  O  O284  1  0.12448721  0.37306245  0.86185447  1
  O  O285  1  0.11423643  0.86631191  0.39065195  1
  O  O286  1  0.11071636  0.88721516  0.87238351  1
  O  O287  1  0.61376235  0.37285869  0.37243600  1
  O  O288  1  0.60886877  0.35188263  0.89014117  1
  O  O289  1  0.61818393  0.86864362  0.37087174  1
  O  O290  1  0.61931864  0.87678095  0.86069022  1
  O  O291  1  0.37996534  0.13897123  0.12768325  1
  O  O292  1  0.37493300  0.13568948  0.61767613  1
  O  O293  1  0.37393567  0.63878635  0.13024108  1
  O  O294  1  0.38532083  0.62527107  0.62929236  1
  O  O295  1  0.87905833  0.12892118  0.13862790  1
  O  O296  1  0.88222653  0.12098507  0.62848441  1
  O  O297  1  0.88713760  0.62738595  0.13729900  1
  O  O298  1  0.88234209  0.63517431  0.63247026  1
  O  O299  1  0.25940964  0.25374270  0.11851162  1
  O  O300  1  0.26485491  0.25505854  0.62675614  1
  O  O301  1  0.25087090  0.75942536  0.12398870  1
  O  O302  1  0.24412298  0.75709272  0.61479783  1
  O  O303  1  0.75369310  0.24703256  0.12780014  1
  O  O304  1  0.76222190  0.26010196  0.61581750  1
  O  O305  1  0.75135704  0.74456126  0.11157450  1
  O  O306  1  0.75516279  0.75824046  0.62063166  1
  O  O307  1  0.24575986  0.24718176  0.36966541  1
  O  O308  1  0.26536162  0.24028843  0.87991030  1
  O  O309  1  0.24860127  0.74387522  0.38833221  1
  O  O310  1  0.24712311  0.75924216  0.88687013  1
  O  O311  1  0.74848229  0.24201213  0.37520204  1
  O  O312  1  0.73587694  0.24585104  0.87938570  1
  O  O313  1  0.74636072  0.74054431  0.38281086  1
  O  O314  1  0.75085253  0.74298599  0.89087151  1
  O  O315  1  -0.00545807  0.12952600  0.01668486  1
  O  O316  1  0.00560684  0.11507303  0.50662630  1
  O  O317  1  0.01190787  0.63339329  0.00803822  1
  O  O318  1  0.00773491  0.62014312  0.50976410  1
  O  O319  1  0.51100342  0.11211083  -0.00070252  1
  O  O320  1  0.50500834  0.11034508  0.50045752  1
  O  O321  1  0.50252932  0.62499149  0.00900089  1
  O  O322  1  0.50100620  0.62359842  0.51087286  1
  O  O323  1  0.49609494  0.38515914  0.49076836  1
  O  O324  1  0.49629398  0.39802144  1.00908127  1
  O  O325  1  0.49478534  0.87917825  0.49385607  1
  O  O326  1  0.50083012  0.88490657  0.99194766  1
  O  O327  1  1.00325872  0.38671803  0.49586439  1
  O  O328  1  1.00194647  0.38139820  1.02398799  1
  O  O329  1  0.99387302  0.88808380  0.50981667  1
  O  O330  1  0.99258936  0.87471414  0.99386006  1
  O  O331  1  0.49384318  0.49547954  0.37844813  1
  O  O332  1  0.49200991  0.51572862  0.89552258  1
  O  O333  1  0.50945198  0.98688338  0.38302661  1
  O  O334  1  0.49765964  0.99406907  0.87925604  1
  O  O335  1  0.99790268  0.49815912  0.39136159  1
  O  O336  1  0.98062951  0.47435283  0.84005176  1
  O  O337  1  0.99489777  0.99996677  0.38313806  1
  O  O338  1  0.98811074  0.99453481  0.87656779  1
  O  O339  1  0.00459556  0.01187385  0.12581707  1
  O  O340  1  0.00636306  0.00750285  0.61893855  1
  O  O341  1  0.00836693  0.51704208  0.13755360  1
  O  O342  1  0.00945042  0.50354945  0.62751631  1
  O  O343  1  0.50601674  -0.00167378  0.11545358  1
  O  O344  1  0.50895071  -0.00127910  0.61806618  1
  O  O345  1  0.50392412  0.51127290  0.12296490  1
  O  O346  1  0.49440750  0.50450042  0.61439955  1
  O  O347  1  0.25910202  0.38609534  0.23929329  1
  O  O348  1  0.24487862  0.38165916  0.74166515  1
  O  O349  1  0.25010604  0.88579555  0.24103261  1
  O  O350  1  0.24684239  0.88263415  0.74514408  1
  O  O351  1  0.74068009  0.38816109  0.26039885  1
  O  O352  1  0.75505015  0.38099033  0.75814930  1
  O  O353  1  0.74189708  0.88160787  0.25896805  1
  O  O354  1  0.73918237  0.86823018  0.74390326  1
  O  O355  1  0.25476387  0.11143726  0.25169840  1
  O  O356  1  0.25506146  0.11089451  0.75119552  1
  O  O357  1  0.25487468  0.62019557  0.25574491  1
  O  O358  1  0.26099655  0.61005387  0.74268522  1
  O  O359  1  0.75784778  0.11826716  0.26088216  1
  O  O360  1  0.75945555  0.12509029  0.74440063  1
  O  O361  1  0.75350579  0.62517939  0.25938524  1
  O  O362  1  0.75852190  0.63495500  0.76105849  1
  O  O363  1  0.37858997  0.12000983  0.37071267  1
  O  O364  1  0.37328036  0.11102305  0.87431930  1
  O  O365  1  0.36880509  0.62175811  0.37132381  1
  O  O366  1  0.37535942  0.62866583  0.85780528  1
  O  O367  1  0.87185388  0.12288536  0.36735541  1
  O  O368  1  0.86808365  0.11770268  0.86234463  1
  O  O369  1  0.86461123  0.62033221  0.37228889  1
  O  O370  1  0.86829412  0.63359552  0.86802158  1
  O  O371  1  0.14348605  0.37325181  0.12007766  1
  O  O372  1  0.13482355  0.37924228  0.63205576  1
  O  O373  1  0.13112032  0.87860086  0.11945099  1
  O  O374  1  0.13789624  0.88164405  0.63012022  1
  O  O375  1  0.62027318  0.39233617  0.13041105  1
  O  O376  1  0.64303797  0.37766744  0.57540316  1
  O  O377  1  0.62125028  0.88658045  0.13262244  1
  O  O378  1  0.63117225  0.87763145  0.63596765  1
  O  O379  1  0.10974395  0.24698245  0.25132009  1
  O  O380  1  0.14036604  0.25499639  0.75490048  1
  O  O381  1  0.11139242  0.74278500  0.25448570  1
  O  O382  1  0.11718152  0.75907150  0.74721422  1
  O  O383  1  0.61697005  0.25625417  0.25355236  1
  O  O384  1  0.62138979  0.24838129  0.75955650  1
  O  O385  1  0.61761787  0.75536759  0.25413812  1
  O  O386  1  0.62402903  0.75894241  0.74638330  1
  O  O387  1  0.39065444  0.25364505  0.24179754  1
  O  O388  1  0.38546125  0.24776851  0.73661131  1
  O  O389  1  0.37645111  0.74794975  0.24428045  1
  O  O390  1  0.36078937  0.73625921  0.74564856  1
  O  O391  1  0.88157405  0.24320540  0.24465180  1
  O  O392  1  0.87717639  0.23651283  0.73081040  1
  O  O393  1  0.88224046  0.73896719  0.25641158  1
  O  O394  1  0.88440007  0.74810854  0.74510243  1
  O  O395  1  0.38111615  0.49940144  0.49047893  1
  O  O396  1  0.38335115  0.50489582  1.01003531  1
  O  O397  1  0.38645340  0.98464491  0.50553170  1
  O  O398  1  0.38519567  0.99758773  0.99287806  1
  O  O399  1  0.88573753  0.50901915  0.50826878  1
  O  O400  1  0.85804764  0.48871900  1.01826007  1
  O  O401  1  0.88321992  0.99600264  0.49518741  1
  O  O402  1  0.87620369  0.99305439  0.99195291  1
  O  O403  1  0.11582606  0.02970110  -0.00396802  1
  O  O404  1  0.11818995  0.00788113  0.50702253  1
  O  O405  1  0.13538945  0.51529514  -0.00120891  1
  O  O406  1  0.12030403  0.50967089  0.51401457  1
  O  O407  1  0.62120865  0.00119621  0.00582767  1
  O  O408  1  0.61677555  -0.00457177  0.51148598  1
  O  O409  1  0.61226850  0.51404358  0.00564386  1
  O  O410  1  0.60835407  0.52022580  0.48706802  1
  O  O411  1  0.36781565  0.36369063  0.12048590  1
  O  O412  1  0.36685585  0.36383468  0.61990819  1
  O  O413  1  0.36661047  0.86395383  0.12036157  1
  O  O414  1  0.36352526  0.87549742  0.62029181  1
  O  O415  1  0.85852659  0.36687226  0.12880291  1
  O  O416  1  0.88723846  0.36581092  0.63658169  1
  O  O417  1  0.87757918  0.88239734  0.11131518  1
  O  O418  1  0.86764700  0.87166661  0.62404448  1
  O  O419  1  0.12186200  0.12616328  0.39073864  1
  O  O420  1  0.15489827  0.10883003  0.86897167  1
  O  O421  1  0.13196001  0.62448887  0.38850075  1
  O  O422  1  0.11515686  0.62278209  0.88643416  1
  O  O423  1  0.63538041  0.12987439  0.37432118  1
  O  O424  1  0.62695811  0.13265467  0.88100795  1
  O  O425  1  0.62963695  0.63406316  0.38149318  1
  O  O426  1  0.62756083  0.63663019  0.88862102  1
