# generated using pymatgen
data_V85Zn86O256
_symmetry_space_group_name_H-M   'P 1'
_cell_length_a   16.94747939
_cell_length_b   16.94558658
_cell_length_c   16.95220983
_cell_angle_alpha   89.98333936
_cell_angle_beta   90.09839869
_cell_angle_gamma   89.93642825
_symmetry_Int_Tables_number   1
_chemical_formula_structural   V85Zn86O256
_chemical_formula_sum   'V85 Zn86 O256'
_cell_volume   4868.40964549
_cell_formula_units_Z   1
loop_
 _symmetry_equiv_pos_site_id
 _symmetry_equiv_pos_as_xyz
  1  'x, y, z'
loop_
 _atom_site_type_symbol
 _atom_site_label
 _atom_site_symmetry_multiplicity
 _atom_site_fract_x
 _atom_site_fract_y
 _atom_site_fract_z
 _atom_site_occupancy
  V  V0  1  0.50636106  0.61173432  0.12991933  1
  V  V1  1  0.00082458  0.37390085  0.37188790  1
  V  V2  1  0.12335926  0.75125810  0.87600774  1
  V  V3  1  0.12554395  0.50161557  0.62581598  1
  V  V4  1  0.00135495  0.24855599  0.74842820  1
  V  V5  1  0.36526500  0.11877247  0.26725176  1
  V  V6  1  0.51300727  0.50106708  0.49479873  1
  V  V7  1  0.49378855  0.25108726  0.25241816  1
  V  V8  1  0.12777151  0.25224514  0.87908725  1
  V  V9  1  0.25393300  0.13539387  0.87581919  1
  V  V10  1  0.61868837  0.25080943  0.37556362  1
  V  V11  1  -0.00756860  0.50022396  -0.00406836  1
  V  V12  1  0.74311081  0.50118240  0.24698219  1
  V  V13  1  0.38045109  -0.00089057  0.87712548  1
  V  V14  1  0.13038528  0.12929304  0.00367239  1
  V  V15  1  0.61961515  0.37815992  0.25042738  1
  V  V16  1  0.87495129  -0.00095044  0.37637683  1
  V  V17  1  0.37457331  0.74891188  0.13064804  1
  V  V18  1  0.24873491  0.62160741  0.85931692  1
  V  V19  1  0.25182528  0.00489190  0.74851839  1
  V  V20  1  0.00201870  0.12799402  0.11882485  1
  V  V21  1  0.38955130  0.24830974  0.62754391  1
  V  V22  1  0.49765744  0.88591552  0.37447928  1
  V  V23  1  0.61575339  0.36992383  0.75159835  1
  V  V24  1  0.73810818  0.62474373  0.87330033  1
  V  V25  1  0.43249308  0.68022329  0.79439289  1
  V  V26  1  0.37413304  0.88047133  0.49522710  1
  V  V27  1  0.12925055  0.61816621  -0.00142090  1
  V  V28  1  0.36883338  0.50353021  0.37344119  1
  V  V29  1  0.74382197  0.25064827  -0.00308601  1
  V  V30  1  0.74421321  0.62705519  0.37697390  1
  V  V31  1  0.73983066  0.75121898  -0.00631756  1
  V  V32  1  0.00040837  0.88277099  0.87203652  1
  V  V33  1  -0.00436554  0.62065708  0.12404833  1
  V  V34  1  0.37347690  0.73837919  0.62061218  1
  V  V35  1  0.61158927  0.87254228  0.76384630  1
  V  V36  1  0.74390619  0.00073402  0.24848810  1
  V  V37  1  0.87240284  0.50124747  0.37476757  1
  V  V38  1  0.37212450  0.87677394  0.00619164  1
  V  V39  1  0.12117422  0.62905821  0.49418187  1
  V  V40  1  0.25058163  0.87596902  0.62381874  1
  V  V41  1  0.30416140  0.44270805  0.80474433  1
  V  V42  1  0.00982087  0.87118850  0.37580188  1
  V  V43  1  0.74159117  0.38067806  0.12283290  1
  V  V44  1  0.61957229  0.74880503  0.37819847  1
  V  V45  1  -0.00063231  0.75108445  0.75091204  1
  V  V46  1  0.49627733  0.48194703  -0.02171138  1
  V  V47  1  0.74332142  0.74493831  0.50241943  1
  V  V48  1  0.87062035  0.75030091  0.12399029  1
  V  V49  1  0.74664951  0.38199341  0.62397591  1
  V  V50  1  0.12901755  0.24463036  0.37168673  1
  V  V51  1  0.62313060  0.12141555  0.51400905  1
  V  V52  1  0.73839070  0.88209450  0.62836170  1
  V  V53  1  0.25331858  0.24540731  0.49685541  1
  V  V54  1  0.87035702  0.62595323  0.24971521  1
  V  V55  1  0.39084185  0.12948508  0.74715222  1
  V  V56  1  0.12923956  0.49844865  0.13570332  1
  V  V57  1  0.36913330  0.24528893  0.11243952  1
  V  V58  1  0.87263713  0.87511272  0.50014868  1
  V  V59  1  0.12654534  0.12477925  0.50126326  1
  V  V60  1  0.74777489  0.12433525  0.37504442  1
  V  V61  1  0.50103539  0.00326684  0.51644422  1
  V  V62  1  0.12498620  0.37855651  0.74973748  1
  V  V63  1  0.51677470  0.62769158  0.61457322  1
  V  V64  1  0.05266852  -0.04606747  0.05194938  1
  V  V65  1  0.25330790  0.37871513  0.62291986  1
  V  V66  1  0.25057741  0.75007610  0.00381337  1
  V  V67  1  0.87474734  0.62194640  0.76019446  1
  V  V68  1  0.50173580  0.11665213  0.12829377  1
  V  V69  1  0.74983851  0.24954330  0.49905986  1
  V  V70  1  0.87438541  0.12613329  0.24783401  1
  V  V71  1  0.75022188  0.49668892  0.75367631  1
  V  V72  1  0.25890551  0.37865227  0.11992191  1
  V  V73  1  0.87388442  0.25398985  0.12205409  1
  V  V74  1  0.74338994  0.88070246  0.12224239  1
  V  V75  1  0.87439943  0.75064217  0.62702597  1
  V  V76  1  0.87505932  0.37489569  0.49984422  1
  V  V77  1  0.62417308  0.11642850  0.00209070  1
  V  V78  1  0.24490468  0.75136002  0.48806817  1
  V  V79  1  0.38083614  0.37603076  0.49140289  1
  V  V80  1  -0.00851327  0.37890847  0.87433120  1
  V  V81  1  0.23795494  -0.00583586  0.25080452  1
  V  V82  1  0.62029017  0.88016643  0.24677797  1
  V  V83  1  0.87380707  0.00258675  0.88131596  1
  V  V84  1  0.87401148  0.12290147  0.74918843  1
  Zn  Zn85  1  0.87349681  0.87790748  0.00086137  1
  Zn  Zn86  1  0.00315229  0.25064545  0.24683260  1
  Zn  Zn87  1  0.12551009  0.00255540  0.62487155  1
  Zn  Zn88  1  0.50765906  -0.00918111  0.00517685  1
  Zn  Zn89  1  0.12450482  0.87613398  0.24119166  1
  Zn  Zn90  1  -0.00082967  0.50212106  0.50018823  1
  Zn  Zn91  1  0.86793962  0.38079295  -0.00432426  1
  Zn  Zn92  1  0.87697304  0.24864219  0.62356641  1
  Zn  Zn93  1  0.61114699  0.24828387  0.87251728  1
  Zn  Zn94  1  0.00402445  0.74604826  0.25707043  1
  Zn  Zn95  1  0.74663427  0.12537134  0.87350611  1
  Zn  Zn96  1  -0.00177559  0.62420068  0.62465173  1
  Zn  Zn97  1  0.24099063  0.62256418  0.36727314  1
  Zn  Zn98  1  0.36736034  0.61539592  0.24499146  1
  Zn  Zn99  1  0.49597474  0.74941671  0.25140283  1
  Zn  Zn100  1  0.12520916  0.87714892  0.74725505  1
  Zn  Zn101  1  0.49710339  0.85304272  0.87865939  1
  Zn  Zn102  1  0.00190425  0.00175831  0.50192336  1
  Zn  Zn103  1  0.62395996  0.61782329  0.00406794  1
  Zn  Zn104  1  0.74209153  0.00469045  0.74688428  1
  Zn  Zn105  1  0.13440178  0.37518974  0.25274681  1
  Zn  Zn106  1  0.00165046  0.12077785  0.62555032  1
  Zn  Zn107  1  0.19135076  0.18715483  0.18855636  1
  Zn  Zn108  1  0.19324276  0.19115784  0.68684810  1
  Zn  Zn109  1  0.19080502  0.68576164  0.19328044  1
  Zn  Zn110  1  0.18393419  0.69145684  0.68136231  1
  Zn  Zn111  1  0.68455435  0.19042923  0.18528023  1
  Zn  Zn112  1  0.69240232  0.19445977  0.68690690  1
  Zn  Zn113  1  0.68357338  0.69379244  0.18940874  1
  Zn  Zn114  1  0.68790124  0.69280828  0.69290367  1
  Zn  Zn115  1  0.31122744  0.31478872  0.30823760  1
  Zn  Zn116  1  0.44111780  0.31733383  0.81219862  1
  Zn  Zn117  1  0.30889805  0.82082155  0.31159175  1
  Zn  Zn118  1  0.30738351  0.81669687  0.81654712  1
  Zn  Zn119  1  0.80993296  0.31184472  0.31055654  1
  Zn  Zn120  1  0.81167952  0.30984402  0.81201834  1
  Zn  Zn121  1  0.81048184  0.81318232  0.31171537  1
  Zn  Zn122  1  0.81051076  0.81365721  0.81327371  1
  Zn  Zn123  1  0.18694753  0.43532525  0.44090961  1
  Zn  Zn124  1  0.18557637  0.43290868  0.94525720  1
  Zn  Zn125  1  0.19467526  0.94689604  0.42939914  1
  Zn  Zn126  1  0.19460278  0.93727229  0.93224177  1
  Zn  Zn127  1  0.68791431  0.43477875  0.43220566  1
  Zn  Zn128  1  0.67961901  0.44158539  0.93459807  1
  Zn  Zn129  1  0.68350749  0.93711671  0.44008624  1
  Zn  Zn130  1  0.68790555  0.93835915  0.93244868  1
  Zn  Zn131  1  0.31125991  0.06288103  0.06709553  1
  Zn  Zn132  1  0.31641282  0.06491475  0.56094480  1
  Zn  Zn133  1  0.31666406  0.55870459  0.05967929  1
  Zn  Zn134  1  0.31018777  0.56223963  0.55598216  1
  Zn  Zn135  1  0.81166221  0.06325626  0.06166403  1
  Zn  Zn136  1  0.81343943  0.06418394  0.56303345  1
  Zn  Zn137  1  0.80720395  0.56207156  0.05999314  1
  Zn  Zn138  1  0.81145817  0.56394135  0.56454058  1
  Zn  Zn139  1  0.43461600  0.43152879  0.18787747  1
  Zn  Zn140  1  0.44134812  0.44508246  0.67371718  1
  Zn  Zn141  1  0.42994258  0.93946693  0.18829124  1
  Zn  Zn142  1  0.43441921  0.93276737  0.68961307  1
  Zn  Zn143  1  0.93511606  0.43758949  0.18717706  1
  Zn  Zn144  1  0.93681189  0.44000563  0.68585599  1
  Zn  Zn145  1  0.93109533  0.93377179  0.19397473  1
  Zn  Zn146  1  0.93646863  0.93988445  0.68667125  1
  Zn  Zn147  1  0.06147003  0.06342413  0.31203122  1
  Zn  Zn148  1  0.06511806  0.06342287  0.81301525  1
  Zn  Zn149  1  0.05793902  0.56221100  0.31299970  1
  Zn  Zn150  1  0.06267958  0.56166724  0.81029175  1
  Zn  Zn151  1  0.55900903  0.06480401  0.31606858  1
  Zn  Zn152  1  0.56683081  0.05805275  0.81422682  1
  Zn  Zn153  1  0.55569713  0.56394810  0.31291933  1
  Zn  Zn154  1  0.56746777  0.55046570  0.80931268  1
  Zn  Zn155  1  0.44135624  0.18664340  0.44157274  1
  Zn  Zn156  1  0.44156392  0.18194054  0.93975941  1
  Zn  Zn157  1  0.43648237  0.68785926  0.43767163  1
  Zn  Zn158  1  0.42811885  0.67026397  0.95835458  1
  Zn  Zn159  1  0.94086852  0.18793384  0.43674343  1
  Zn  Zn160  1  0.93835461  0.18838539  0.93824235  1
  Zn  Zn161  1  0.93556624  0.68931143  0.43882401  1
  Zn  Zn162  1  0.93407300  0.69165699  0.93981174  1
  Zn  Zn163  1  0.06582468  0.31571132  0.06178110  1
  Zn  Zn164  1  0.06374539  0.31208302  0.56096371  1
  Zn  Zn165  1  0.08439913  0.78209202  0.09518326  1
  Zn  Zn166  1  0.06229787  0.81465460  0.56146757  1
  Zn  Zn167  1  0.55807033  0.30926540  0.06206005  1
  Zn  Zn168  1  0.56674476  0.31844317  0.56169899  1
  Zn  Zn169  1  0.55863948  0.80861251  0.06445261  1
  Zn  Zn170  1  0.56000757  0.81214022  0.56408359  1
  O  O171  1  0.11770549  0.13276140  0.11508268  1
  O  O172  1  0.12608467  0.12668255  0.61624655  1
  O  O173  1  0.11985227  0.61565009  0.11559121  1
  O  O174  1  0.12432843  0.61701713  0.61544010  1
  O  O175  1  0.61266193  0.13116151  0.11872173  1
  O  O176  1  0.63263155  0.13025754  0.61270699  1
  O  O177  1  0.61012694  0.62713274  0.13222994  1
  O  O178  1  0.61461245  0.63303308  0.62564035  1
  O  O179  1  0.37279108  0.38043841  0.38676433  1
  O  O180  1  0.35728659  0.38002376  0.85973043  1
  O  O181  1  0.38287957  0.87021290  0.38775163  1
  O  O182  1  0.37643253  0.88117398  0.88439714  1
  O  O183  1  0.87799606  0.37780503  0.38262573  1
  O  O184  1  0.88793140  0.37038804  0.87668300  1
  O  O185  1  0.87746936  0.88328510  0.37900776  1
  O  O186  1  0.88317897  0.88235243  0.87695069  1
  O  O187  1  0.25643132  0.00154079  0.35384729  1
  O  O188  1  0.26037838  0.00788173  0.86691699  1
  O  O189  1  0.26497422  0.49948642  0.38539002  1
  O  O190  1  0.24677895  0.50288059  0.87186999  1
  O  O191  1  0.75475705  0.00445655  0.37107768  1
  O  O192  1  0.76045632  0.00220313  0.86888013  1
  O  O193  1  0.75324852  0.50700561  0.36852148  1
  O  O194  1  0.75086833  0.50941321  0.86650377  1
  O  O195  1  0.24442054  0.48921612  0.11876756  1
  O  O196  1  0.24415303  0.48652407  0.61513672  1
  O  O197  1  0.26015618  1.00766077  0.15041105  1
  O  O198  1  0.25306972  0.99384193  0.63162890  1
  O  O199  1  0.74985132  0.48854399  0.12969162  1
  O  O200  1  0.75489480  0.48830779  0.62978739  1
  O  O201  1  0.75557043  0.98722526  0.13024509  1
  O  O202  1  0.75641976  0.98473747  0.62525828  1
  O  O203  1  -0.00186325  0.37388607  0.26247272  1
  O  O204  1  0.00418411  0.37035791  0.75629282  1
  O  O205  1  0.00075753  0.87497550  0.26390545  1
  O  O206  1  0.00141882  0.86971102  0.75723069  1
  O  O207  1  0.50614904  0.36025813  0.24538374  1
  O  O208  1  0.51222763  0.38056209  0.74025337  1
  O  O209  1  0.50339250  0.87587195  0.25740117  1
  O  O210  1  0.50644822  0.87398485  0.75754727  1
  O  O211  1  0.49460469  0.13347709  0.24613873  1
  O  O212  1  0.48904708  0.11623751  0.75026100  1
  O  O213  1  0.49010736  0.62904568  0.24274501  1
  O  O214  1  0.49758427  0.62060460  0.73882078  1
  O  O215  1  0.99304186  0.12531901  0.23625560  1
  O  O216  1  0.99588002  0.13361485  0.74998107  1
  O  O217  1  0.99037968  0.62653632  0.24252489  1
  O  O218  1  0.99148444  0.63126651  0.74868474  1
  O  O219  1  0.37337928  0.23930387  0.01451938  1
  O  O220  1  0.37110932  0.25552110  0.50578038  1
  O  O221  1  0.36763272  0.75474137  0.00833571  1
  O  O222  1  0.36661064  0.75757209  0.50554835  1
  O  O223  1  0.86775300  0.25208546  0.00987039  1
  O  O224  1  0.86888813  0.25791930  0.49801994  1
  O  O225  1  0.86081554  0.75263616  0.00742505  1
  O  O226  1  0.86608283  0.75584383  0.50817981  1
  O  O227  1  0.13325216  0.24338036  0.49498636  1
  O  O228  1  0.11949102  0.24286869  0.98722689  1
  O  O229  1  0.13272435  0.74134211  0.50669480  1
  O  O230  1  0.13133707  0.73628128  0.99880823  1
  O  O231  1  0.62862968  0.24502265  0.49281493  1
  O  O232  1  0.63080166  0.24110610  0.99936949  1
  O  O233  1  0.63272469  0.75747637  0.49140727  1
  O  O234  1  0.63707835  0.74438991  1.00682776  1
  O  O235  1  0.48772900  0.24219546  0.13264673  1
  O  O236  1  0.48747505  0.25247274  0.61471251  1
  O  O237  1  0.48947202  0.74065312  0.12829175  1
  O  O238  1  0.49076789  0.73694031  0.61746587  1
  O  O239  1  0.99158658  0.24581591  0.12452618  1
  O  O240  1  1.00028685  0.25290315  0.63920913  1
  O  O241  1  0.97944679  0.73859457  0.11631118  1
  O  O242  1  0.99030581  0.75176329  0.63123860  1
  O  O243  1  0.00739890  0.25786887  0.37154951  1
  O  O244  1  0.00684613  0.25614639  0.86582319  1
  O  O245  1  -0.00711950  0.76606207  0.37364736  1
  O  O246  1  0.00345798  0.76180756  0.87372630  1
  O  O247  1  0.50833803  0.24635777  0.36790790  1
  O  O248  1  0.49840081  0.24691515  0.87282799  1
  O  O249  1  0.50496378  0.76012342  0.37567790  1
  O  O250  1  0.48449909  0.73216536  0.86488115  1
  O  O251  1  0.24631903  0.13862153  0.50391080  1
  O  O252  1  0.23839082  0.11802151  0.99173885  1
  O  O253  1  0.24077451  0.63559155  0.49620399  1
  O  O254  1  0.24482520  0.62621841  0.98866970  1
  O  O255  1  0.74350277  0.12882746  0.49439330  1
  O  O256  1  0.74133910  0.13406913  1.00327403  1
  O  O257  1  0.75272012  0.63798317  0.49583278  1
  O  O258  1  0.74520617  0.62982135  0.99087909  1
  O  O259  1  0.24071635  0.36765635  0.02007649  1
  O  O260  1  0.25873784  0.36559483  0.50586209  1
  O  O261  1  0.25748013  0.86199977  -0.00680486  1
  O  O262  1  0.25625878  0.87368631  0.50344727  1
  O  O263  1  0.74668503  0.37141108  0.00633081  1
  O  O264  1  0.75614992  0.37169923  0.50383840  1
  O  O265  1  0.74820964  0.86920161  0.00639009  1
  O  O266  1  0.75306179  0.86827140  0.50963777  1
  O  O267  1  0.11968546  0.49902784  0.23816602  1
  O  O268  1  0.12091145  0.49460973  0.73512933  1
  O  O269  1  0.13166093  0.99825655  0.25028038  1
  O  O270  1  0.14051315  1.00026611  0.75000493  1
  O  O271  1  0.62513339  0.48493011  0.26052420  1
  O  O272  1  0.64081513  0.48641250  0.74706528  1
  O  O273  1  0.62824858  0.98887314  0.25760819  1
  O  O274  1  0.62749404  0.98115158  0.75304154  1
  O  O275  1  0.37826671  0.01702795  0.25417812  1
  O  O276  1  0.36781209  0.00517601  0.75556105  1
  O  O277  1  0.38243564  0.49357206  0.27116617  1
  O  O278  1  0.36524918  0.49445854  0.74502448  1
  O  O279  1  0.86617612  0.00499391  0.26034974  1
  O  O280  1  0.87620607  0.01193649  0.75818756  1
  O  O281  1  0.86537125  0.50544714  0.25500983  1
  O  O282  1  0.86471073  0.51040692  0.74362727  1
  O  O283  1  0.11681557  0.36832459  0.37474002  1
  O  O284  1  0.11848548  0.36773304  0.87124705  1
  O  O285  1  0.11077468  0.87902421  0.37874876  1
  O  O286  1  0.11797631  0.86978007  0.87364480  1
  O  O287  1  0.63186615  0.35885731  0.36570345  1
  O  O288  1  0.63151676  0.37163388  0.85512562  1
  O  O289  1  0.61747455  0.86806160  0.37012315  1
  O  O290  1  0.61729988  0.87155586  0.86912931  1
  O  O291  1  0.38069947  0.13476520  0.13333145  1
  O  O292  1  0.37021198  0.14072333  0.63208871  1
  O  O293  1  0.38298880  0.63246429  0.12466000  1
  O  O294  1  0.37545894  0.63566194  0.61939818  1
  O  O295  1  0.88098962  0.13323308  0.12654974  1
  O  O296  1  0.87902413  0.12796654  0.63367518  1
  O  O297  1  0.87274581  0.63033075  0.13003805  1
  O  O298  1  0.87244991  0.63832522  0.63321346  1
  O  O299  1  0.26409753  0.25405863  0.12721293  1
  O  O300  1  0.25752255  0.26273431  0.61811270  1
  O  O301  1  0.25625202  0.74189240  0.10966723  1
  O  O302  1  0.25608697  0.75799636  0.61679112  1
  O  O303  1  0.75505928  0.25884697  0.11656675  1
  O  O304  1  0.75637909  0.26329611  0.61622759  1
  O  O305  1  0.75563487  0.75878934  0.12062896  1
  O  O306  1  0.75493946  0.75839505  0.61914417  1
  O  O307  1  0.24057045  0.25831236  0.38453377  1
  O  O308  1  0.24047682  0.23658414  0.87091706  1
  O  O309  1  0.25063389  0.75242308  0.38577492  1
  O  O310  1  0.24361627  0.74098599  0.88222566  1
  O  O311  1  0.74425544  0.24272627  0.37954939  1
  O  O312  1  0.75146005  0.24934273  0.88973927  1
  O  O313  1  0.74193842  0.74879816  0.38366915  1
  O  O314  1  0.75455185  0.74119784  0.88353808  1
  O  O315  1  0.00888317  0.12704817  0.01024133  1
  O  O316  1  0.01109406  0.12553095  0.50355043  1
  O  O317  1  0.00658995  0.61872066  0.00184055  1
  O  O318  1  0.00532306  0.62556988  0.50394385  1
  O  O319  1  0.50757565  0.11902253  0.01139824  1
  O  O320  1  0.50624016  0.11064166  0.49944170  1
  O  O321  1  0.50694745  0.61993659  0.01816132  1
  O  O322  1  0.50214534  0.61834554  0.50681046  1
  O  O323  1  0.49402446  0.39105948  0.50711547  1
  O  O324  1  0.49899516  0.38304087  1.00010174  1
  O  O325  1  0.49420756  0.88446840  0.49657938  1
  O  O326  1  0.49088166  0.87321279  0.99589020  1
  O  O327  1  0.99208758  0.37368151  0.48914859  1
  O  O328  1  0.99910553  0.38308032  0.99182625  1
  O  O329  1  0.99202526  0.87707751  0.49048469  1
  O  O330  1  0.99974244  0.88421161  0.99536726  1
  O  O331  1  0.48954723  0.50594610  0.38986100  1
  O  O332  1  0.49748839  0.49339366  0.87717840  1
  O  O333  1  0.50351015  0.98857704  0.38442474  1
  O  O334  1  0.48541094  1.00244373  0.88080540  1
  O  O335  1  0.99063262  0.49147127  0.37748218  1
  O  O336  1  1.00718173  0.49048746  0.88316797  1
  O  O337  1  0.99069155  0.99156014  0.37712717  1
  O  O338  1  0.99504780  0.98903184  0.86870774  1
  O  O339  1  -0.00831520  0.00576753  0.11918236  1
  O  O340  1  0.00653666  0.00014938  0.62060977  1
  O  O341  1  0.00677844  0.50283933  0.11815920  1
  O  O342  1  0.00917445  0.50153184  0.62063229  1
  O  O343  1  0.49443550  0.01271330  0.12513528  1
  O  O344  1  0.49878330  -0.00598917  0.61475307  1
  O  O345  1  0.49642081  0.51125405  0.13307961  1
  O  O346  1  0.49871157  0.51820132  0.60927719  1
  O  O347  1  0.24867134  0.37127379  0.23049771  1
  O  O348  1  0.24238418  0.38079738  0.74139475  1
  O  O349  1  0.24182740  0.88601054  0.24822247  1
  O  O350  1  0.25129233  0.88425004  0.74112898  1
  O  O351  1  0.74121010  0.37945363  0.24261021  1
  O  O352  1  0.75284797  0.38077666  0.74156660  1
  O  O353  1  0.74080715  0.88012513  0.24287069  1
  O  O354  1  0.74876498  0.87706971  0.73722259  1
  O  O355  1  0.26135569  0.12308740  0.25371908  1
  O  O356  1  0.25838976  0.12047602  0.75642180  1
  O  O357  1  0.25462451  0.62394393  0.25559933  1
  O  O358  1  0.24093696  0.62820554  0.76026582  1
  O  O359  1  0.75349277  0.12046578  0.25284087  1
  O  O360  1  0.75923866  0.12499286  0.75140880  1
  O  O361  1  0.75034745  0.62085200  0.25481455  1
  O  O362  1  0.75453117  0.61905949  0.75456941  1
  O  O363  1  0.37735724  0.13083708  0.36477051  1
  O  O364  1  0.36823639  0.11915242  0.86874961  1
  O  O365  1  0.37197386  0.61182794  0.37787011  1
  O  O366  1  0.36985512  0.62935579  0.86098390  1
  O  O367  1  0.87095327  0.11806827  0.36949876  1
  O  O368  1  0.87520913  0.11906764  0.86930945  1
  O  O369  1  0.86602312  0.62249099  0.36950729  1
  O  O370  1  0.86882281  0.63034787  0.86325745  1
  O  O371  1  0.13099302  0.38314828  0.12849476  1
  O  O372  1  0.13329554  0.38022987  0.62721635  1
  O  O373  1  0.11085790  0.89485504  0.10906681  1
  O  O374  1  0.13946436  0.87757711  0.62422927  1
  O  O375  1  0.63290864  0.36462348  0.13669825  1
  O  O376  1  0.63649530  0.37190996  0.63552611  1
  O  O377  1  0.63103330  0.87071815  0.13424435  1
  O  O378  1  0.63668303  0.87425094  0.62609110  1
  O  O379  1  0.12334318  0.25133649  0.25867156  1
  O  O380  1  0.12005235  0.25600289  0.75858654  1
  O  O381  1  0.11047011  0.76321492  0.21105726  1
  O  O382  1  0.11689964  0.75300087  0.75596267  1
  O  O383  1  0.61679429  0.25455718  0.25720243  1
  O  O384  1  0.63069722  0.26547578  0.75132239  1
  O  O385  1  0.62222734  0.76496779  0.25928806  1
  O  O386  1  0.63012200  0.77410004  0.74570841  1
  O  O387  1  0.38061566  0.24128627  0.24718886  1
  O  O388  1  0.37981286  0.24580991  0.73474775  1
  O  O389  1  0.37123285  0.75601239  0.23678010  1
  O  O390  1  0.37396145  0.74912504  0.74235445  1
  O  O391  1  0.87353286  0.24493101  0.23725391  1
  O  O392  1  0.88362752  0.23945377  0.75092188  1
  O  O393  1  0.87342944  0.74473697  0.24092851  1
  O  O394  1  0.87856966  0.74482318  0.74412041  1
  O  O395  1  0.38250779  0.49280265  0.49366078  1
  O  O396  1  0.39821192  0.50986437  0.99902693  1
  O  O397  1  0.38698928  0.99310921  0.50395660  1
  O  O398  1  0.37120386  0.99150197  0.99448461  1
  O  O399  1  0.87401942  0.49254680  0.49301644  1
  O  O400  1  0.88832918  0.50007347  1.00462873  1
  O  O401  1  0.87383090  0.99597847  0.48864128  1
  O  O402  1  0.87243699  0.99987769  0.98645873  1
  O  O403  1  0.11988112  0.00751202  -0.00646392  1
  O  O404  1  0.13009549  0.01582518  0.49773861  1
  O  O405  1  0.11653148  0.50715311  0.00626158  1
  O  O406  1  0.12280529  0.50557063  0.50963000  1
  O  O407  1  0.62682870  0.01155452  -0.00148118  1
  O  O408  1  0.61229972  0.00716511  0.49899599  1
  O  O409  1  0.60585604  0.50214014  -0.00422349  1
  O  O410  1  0.61227283  0.49655083  0.49154410  1
  O  O411  1  0.36734405  0.36231570  0.12508155  1
  O  O412  1  0.37091364  0.36741057  0.61575865  1
  O  O413  1  0.37852555  0.86738768  0.11326922  1
  O  O414  1  0.36699153  0.86607166  0.61673511  1
  O  O415  1  0.86493993  0.36828123  0.12289436  1
  O  O416  1  0.87250429  0.37441711  0.61108711  1
  O  O417  1  0.86582727  0.86699408  0.12358160  1
  O  O418  1  0.86694236  0.86563831  0.62215670  1
  O  O419  1  0.11815647  0.13822251  0.38243631  1
  O  O420  1  0.13015977  0.13213630  0.88161007  1
  O  O421  1  0.12224152  0.61864208  0.38904777  1
  O  O422  1  0.13048255  0.62827145  0.88127123  1
  O  O423  1  0.62967289  0.13416817  0.38114651  1
  O  O424  1  0.62774052  0.12742384  0.88477562  1
  O  O425  1  0.62767262  0.64094876  0.36748275  1
  O  O426  1  0.63553285  0.62448061  0.87016269  1
