# generated using pymatgen
data_V85Zn86O256
_symmetry_space_group_name_H-M   'P 1'
_cell_length_a   16.95668111
_cell_length_b   16.94540673
_cell_length_c   16.96471446
_cell_angle_alpha   89.91277246
_cell_angle_beta   89.90315434
_cell_angle_gamma   89.93321966
_symmetry_Int_Tables_number   1
_chemical_formula_structural   V85Zn86O256
_chemical_formula_sum   'V85 Zn86 O256'
_cell_volume   4874.58880805
_cell_formula_units_Z   1
loop_
 _symmetry_equiv_pos_site_id
 _symmetry_equiv_pos_as_xyz
  1  'x, y, z'
loop_
 _atom_site_type_symbol
 _atom_site_label
 _atom_site_symmetry_multiplicity
 _atom_site_fract_x
 _atom_site_fract_y
 _atom_site_fract_z
 _atom_site_occupancy
  V  V0  1  0.50234162  0.00064877  0.00268510  1
  V  V1  1  0.86860708  0.12477242  0.25169037  1
  V  V2  1  0.62339116  0.27158557  0.87523592  1
  V  V3  1  -0.00186405  0.37869626  0.37486766  1
  V  V4  1  0.88042574  0.50374373  0.38199463  1
  V  V5  1  0.62319503  0.61108449  0.00798224  1
  V  V6  1  0.25040695  0.49694313  0.74894400  1
  V  V7  1  0.86243320  -0.00085906  0.87384073  1
  V  V8  1  0.88500543  0.62738722  0.75117916  1
  V  V9  1  0.25054082  0.12473261  0.37285984  1
  V  V10  1  0.25532495  0.62270967  0.87678817  1
  V  V11  1  0.86546780  0.25368377  0.12417109  1
  V  V12  1  0.62266006  0.75199350  0.36236815  1
  V  V13  1  0.62580688  0.74987127  0.87633823  1
  V  V14  1  -0.00225690  0.87542100  0.87377126  1
  V  V15  1  0.61685788  0.62651092  0.50980722  1
  V  V16  1  0.12573075  0.37715084  0.75159562  1
  V  V17  1  0.12515985  0.62101837  -0.00040203  1
  V  V18  1  0.26509195  0.35957669  0.11145018  1
  V  V19  1  0.12168575  0.87022101  0.74924637  1
  V  V20  1  0.73858008  0.87140045  0.63746154  1
  V  V21  1  0.38536334  0.12701224  0.24027167  1
  V  V22  1  0.48834426  0.48240712  0.00283237  1
  V  V23  1  0.12085044  0.74950751  0.87404224  1
  V  V24  1  0.74414134  -0.00641267  0.25268853  1
  V  V25  1  0.00188970  0.00029023  0.50088238  1
  V  V26  1  0.49872447  0.26758595  0.75654753  1
  V  V27  1  0.38234614  0.62456056  0.75282522  1
  V  V28  1  0.74991606  0.74777395  0.00351531  1
  V  V29  1  0.87577227  0.62398270  0.25006800  1
  V  V30  1  0.12606823  0.37323187  0.24320701  1
  V  V31  1  0.62378523  0.00486554  0.12819863  1
  V  V32  1  0.37610815  0.87275311  0.00229093  1
  V  V33  1  0.74265039  0.24399601  0.50104549  1
  V  V34  1  0.50556707  0.25592104  0.24711868  1
  V  V35  1  0.11990307  0.25080310  0.88205929  1
  V  V36  1  0.87452811  -0.00193177  0.37544296  1
  V  V37  1  0.24384740  0.12810055  0.87112222  1
  V  V38  1  0.12561837  0.49501506  0.11950998  1
  V  V39  1  0.25186364  0.87352739  0.12720156  1
  V  V40  1  -0.00249431  0.12124943  0.12274703  1
  V  V41  1  0.00419858  0.74962516  0.24902881  1
  V  V42  1  0.24980308  0.87241445  0.62402037  1
  V  V43  1  0.37668883  0.87486925  0.49899070  1
  V  V44  1  0.26535120  0.49287658  0.24861437  1
  V  V45  1  0.25344768  0.74940717  0.00522770  1
  V  V46  1  0.37779743  0.12572748  0.74519191  1
  V  V47  1  0.63562255  0.12205536  -0.01289544  1
  V  V48  1  0.74130754  0.38150419  0.62647896  1
  V  V49  1  0.38214213  0.74815615  0.62516041  1
  V  V50  1  0.87362897  0.12117943  0.75607788  1
  V  V51  1  0.87390224  0.87288242  0.50472863  1
  V  V52  1  0.00004274  0.12858779  0.62649880  1
  V  V53  1  0.87161836  0.38002017  0.50196618  1
  V  V54  1  0.37405909  -0.00084014  0.87159710  1
  V  V55  1  0.88617913  0.37919442  -0.00315890  1
  V  V56  1  0.88533681  0.75108607  0.63137648  1
  V  V57  1  -0.00335276  0.24940084  0.25032832  1
  V  V58  1  0.37652798  0.00035658  0.37799101  1
  V  V59  1  0.24946771  -0.00211636  0.74697177  1
  V  V60  1  0.87638412  0.25321793  0.62745047  1
  V  V61  1  0.74640825  0.62389951  0.37915298  1
  V  V62  1  0.89181936  0.49746639  0.87645748  1
  V  V63  1  0.12300128  0.12674813  0.49997966  1
  V  V64  1  0.24747179  0.74112734  0.50055512  1
  V  V65  1  0.37605583  0.25849124  0.62329318  1
  V  V66  1  0.74495374  0.87064126  0.12997571  1
  V  V67  1  0.12411031  0.24784750  0.37320626  1
  V  V68  1  0.49116167  0.49951765  0.50117846  1
  V  V69  1  0.49404583  0.63897704  0.12391199  1
  V  V70  1  0.00225612  0.87186274  0.37660922  1
  V  V71  1  0.12712841  0.73762966  0.37826022  1
  V  V72  1  0.01147983  0.61273600  0.61499683  1
  V  V73  1  0.51720544  0.00424274  0.50450637  1
  V  V74  1  0.37730419  0.64033317  0.25104712  1
  V  V75  1  0.74505098  0.49804168  0.75398637  1
  V  V76  1  0.75274592  0.62347766  0.87603398  1
  V  V77  1  0.50297258  0.87442510  0.86894926  1
  V  V78  1  0.68976419  0.04843371  0.69371043  1
  V  V79  1  0.25185781  0.25277885  0.50361614  1
  V  V80  1  0.24949495  0.00100698  0.24479032  1
  V  V81  1  0.50850370  0.74884658  0.74638215  1
  V  V82  1  -0.00250083  0.25912232  0.75498422  1
  V  V83  1  0.00317465  0.62101923  0.12073839  1
  V  V84  1  0.50388220  0.87307839  0.36268250  1
  Zn  Zn85  1  0.87407998  0.87503342  0.00086448  1
  Zn  Zn86  1  0.12354635  -0.00074127  0.62404052  1
  Zn  Zn87  1  0.74667076  0.75176320  0.50285897  1
  Zn  Zn88  1  0.12427011  0.12192310  0.00219288  1
  Zn  Zn89  1  0.12683774  0.87417290  0.25099952  1
  Zn  Zn90  1  -0.00235672  -0.00243545  -0.00029800  1
  Zn  Zn91  1  0.46108952  0.17454753  0.07504141  1
  Zn  Zn92  1  0.38314941  0.47556568  0.87317879  1
  Zn  Zn93  1  0.51139250  0.12459736  0.62432705  1
  Zn  Zn94  1  0.19664949  0.43257573  0.58879962  1
  Zn  Zn95  1  0.37204772  0.37977053  0.49063194  1
  Zn  Zn96  1  0.12129204  -0.00209096  0.12383096  1
  Zn  Zn97  1  0.63112532  0.38409512  0.25212091  1
  Zn  Zn98  1  0.74399332  0.50137599  0.24674800  1
  Zn  Zn99  1  0.74333676  0.11942508  0.38474252  1
  Zn  Zn100  1  0.49747628  0.38074277  0.37300990  1
  Zn  Zn101  1  0.74400382  0.39788293  0.12168074  1
  Zn  Zn102  1  0.25595043  0.61456084  0.37828874  1
  Zn  Zn103  1  0.87701877  0.75085705  0.12456905  1
  Zn  Zn104  1  0.75213695  0.25152840  -0.00733486  1
  Zn  Zn105  1  0.61848045  0.24505629  0.38193015  1
  Zn  Zn106  1  0.61739311  0.50513408  0.63414489  1
  Zn  Zn107  1  0.18749535  0.18524691  0.18570833  1
  Zn  Zn108  1  0.18375418  0.19252533  0.68702749  1
  Zn  Zn109  1  0.19128865  0.68422847  0.18867239  1
  Zn  Zn110  1  0.18944532  0.68551298  0.68870954  1
  Zn  Zn111  1  0.68245116  0.18499901  0.18694489  1
  Zn  Zn112  1  0.68805533  0.21076909  0.69570359  1
  Zn  Zn113  1  0.68713044  0.67424173  0.18610145  1
  Zn  Zn114  1  0.69508654  0.68907815  0.68992317  1
  Zn  Zn115  1  0.31938214  0.31193932  0.31128992  1
  Zn  Zn116  1  0.30625494  0.30977677  0.80873102  1
  Zn  Zn117  1  0.31286479  0.81247338  0.31517600  1
  Zn  Zn118  1  0.31299738  0.81019257  0.81436219  1
  Zn  Zn119  1  0.80706434  0.31554504  0.31467844  1
  Zn  Zn120  1  0.80930133  0.31520673  0.81669137  1
  Zn  Zn121  1  0.81198227  0.80914833  0.31423073  1
  Zn  Zn122  1  0.81300789  0.81144767  0.81259159  1
  Zn  Zn123  1  0.18594938  0.43492507  0.42508025  1
  Zn  Zn124  1  0.19088880  0.43368896  0.93489263  1
  Zn  Zn125  1  0.18728152  0.93331966  0.43572163  1
  Zn  Zn126  1  0.18481569  0.94143742  0.93980964  1
  Zn  Zn127  1  0.67856986  0.44074799  0.42665060  1
  Zn  Zn128  1  0.69759538  0.43892454  0.94472632  1
  Zn  Zn129  1  0.68945760  0.93100013  0.43826934  1
  Zn  Zn130  1  0.68777377  0.93209256  0.93760698  1
  Zn  Zn131  1  0.33484004  0.10578998  0.03056657  1
  Zn  Zn132  1  0.31248699  0.06579153  0.56258711  1
  Zn  Zn133  1  0.31573283  0.55741542  0.06699536  1
  Zn  Zn134  1  0.32010002  0.57052723  0.56675300  1
  Zn  Zn135  1  0.81249240  0.05959353  0.06206061  1
  Zn  Zn136  1  0.81850949  0.06144883  0.56524101  1
  Zn  Zn137  1  0.81995441  0.56207071  0.06021768  1
  Zn  Zn138  1  0.81305634  0.56535017  0.56441013  1
  Zn  Zn139  1  0.44304624  0.43661345  0.17739638  1
  Zn  Zn140  1  0.43568290  0.44364289  0.67996017  1
  Zn  Zn141  1  0.43437429  0.93917556  0.18542041  1
  Zn  Zn142  1  0.44167119  0.93520218  0.68494237  1
  Zn  Zn143  1  0.93395520  0.43926323  0.18669001  1
  Zn  Zn144  1  0.93431514  0.44022618  0.68895319  1
  Zn  Zn145  1  0.93179681  0.93450393  0.18729843  1
  Zn  Zn146  1  0.93810003  0.93851211  0.69018990  1
  Zn  Zn147  1  0.06096642  0.06117602  0.30987664  1
  Zn  Zn148  1  0.05818224  0.05955403  0.81197965  1
  Zn  Zn149  1  0.06564993  0.55929571  0.30873579  1
  Zn  Zn150  1  0.06625828  0.56512481  0.80485153  1
  Zn  Zn151  1  0.56597831  0.06663361  0.32017260  1
  Zn  Zn152  1  0.55486584  0.06916153  0.81632885  1
  Zn  Zn153  1  0.55564920  0.56591058  0.31350370  1
  Zn  Zn154  1  0.56188953  0.56040948  0.82189456  1
  Zn  Zn155  1  0.43937784  0.18529361  0.43554297  1
  Zn  Zn156  1  0.42242186  0.29113527  0.94411269  1
  Zn  Zn157  1  0.44014796  0.68646185  0.43344741  1
  Zn  Zn158  1  0.43915265  0.68712203  0.93997969  1
  Zn  Zn159  1  0.93152033  0.19083922  0.43855885  1
  Zn  Zn160  1  0.93475059  0.18753680  0.93734998  1
  Zn  Zn161  1  0.93936140  0.68704544  0.44197419  1
  Zn  Zn162  1  0.93920653  0.68718578  0.93815451  1
  Zn  Zn163  1  0.06078134  0.30788631  0.06379332  1
  Zn  Zn164  1  0.06999044  0.33924156  0.54998919  1
  Zn  Zn165  1  0.06576486  0.81241404  0.06093794  1
  Zn  Zn166  1  0.06328405  0.80720039  0.56288946  1
  Zn  Zn167  1  0.57420239  0.31582514  0.06683373  1
  Zn  Zn168  1  0.55937778  0.31663956  0.56758732  1
  Zn  Zn169  1  0.56615979  0.81378630  0.06334475  1
  Zn  Zn170  1  0.56194563  0.81370695  0.55600904  1
  O  O171  1  0.11198552  0.12273534  0.12600814  1
  O  O172  1  0.11625310  0.12469298  0.61848720  1
  O  O173  1  0.12174655  0.61654490  0.12149006  1
  O  O174  1  0.11008282  0.62920193  0.63260323  1
  O  O175  1  0.63000190  0.10971736  0.11404384  1
  O  O176  1  0.63274109  0.11667175  0.64168370  1
  O  O177  1  0.60940544  0.62749993  0.11821284  1
  O  O178  1  0.63383361  0.62829095  0.61149267  1
  O  O179  1  0.38222788  0.37202367  0.37841630  1
  O  O180  1  0.37253226  0.36399647  0.87702835  1
  O  O181  1  0.38198543  0.88081704  0.37965149  1
  O  O182  1  0.38156256  0.88019635  0.88107959  1
  O  O183  1  0.87633842  0.38625238  0.38158722  1
  O  O184  1  0.87442727  0.38231327  0.88733267  1
  O  O185  1  0.88115830  0.87674699  0.38494116  1
  O  O186  1  0.88304144  0.87861276  0.87430303  1
  O  O187  1  0.25683949  0.00181509  0.36591760  1
  O  O188  1  0.25246500  -0.00155645  0.85981594  1
  O  O189  1  0.24423841  0.49970109  0.35393174  1
  O  O190  1  0.25512221  0.50901523  0.86731811  1
  O  O191  1  0.75643711  -0.00367115  0.36896367  1
  O  O192  1  0.76329905  -0.01078728  0.87467102  1
  O  O193  1  0.76300091  0.51096918  0.37736152  1
  O  O194  1  0.75923231  0.50645847  0.87081635  1
  O  O195  1  0.24447839  0.49051821  0.13316015  1
  O  O196  1  0.25874866  0.50822604  0.64127487  1
  O  O197  1  0.24897408  0.99194098  0.13902160  1
  O  O198  1  0.24837920  0.99377759  0.63349087  1
  O  O199  1  0.75502934  0.51324151  0.13322835  1
  O  O200  1  0.75080859  0.49639509  0.63541960  1
  O  O201  1  0.74541215  0.99116239  0.13328909  1
  O  O202  1  0.74804455  0.98970975  0.62696645  1
  O  O203  1  0.00293142  0.36947284  0.25454239  1
  O  O204  1  0.00160989  0.36436607  0.74823898  1
  O  O205  1  -0.00130837  0.86205732  0.25474943  1
  O  O206  1  0.00953311  0.87616743  0.76116324  1
  O  O207  1  0.49697954  0.36213746  0.24837950  1
  O  O208  1  0.49287193  0.36634928  0.74441180  1
  O  O209  1  0.49546714  0.88220562  0.26391134  1
  O  O210  1  0.49642422  0.86615072  0.76204197  1
  O  O211  1  0.48842371  0.12346018  0.25196804  1
  O  O212  1  0.48976915  0.13222264  0.74738588  1
  O  O213  1  0.48618966  0.62203153  0.23794567  1
  O  O214  1  0.48949128  0.63297825  0.75997933  1
  O  O215  1  0.98660336  0.12672478  0.24409505  1
  O  O216  1  0.99123928  0.13154871  0.74428211  1
  O  O217  1  0.99750243  0.63406056  0.24418352  1
  O  O218  1  0.98884582  0.62508441  0.74335837  1
  O  O219  1  0.38160686  0.20861435  0.00528850  1
  O  O220  1  0.36807452  0.24308790  0.50820129  1
  O  O221  1  0.36783050  0.76440126  -0.00697331  1
  O  O222  1  0.37332097  0.75350697  0.50766233  1
  O  O223  1  0.87353886  0.25851437  0.00623060  1
  O  O224  1  0.86500999  0.25724019  0.50982536  1
  O  O225  1  0.86070830  0.74654881  0.00103105  1
  O  O226  1  0.87430753  0.76111007  0.50740174  1
  O  O227  1  0.13189217  0.24616949  0.49326863  1
  O  O228  1  0.11639626  0.24368036  0.98608415  1
  O  O229  1  0.13647180  0.75336705  0.49180541  1
  O  O230  1  0.13419665  0.74289082  0.99263271  1
  O  O231  1  0.64039802  0.25384326  0.50879416  1
  O  O232  1  0.62304193  0.23779950  0.98962714  1
  O  O233  1  0.62525292  0.73931354  0.49380798  1
  O  O234  1  0.63431550  0.74192702  0.99575361  1
  O  O235  1  0.51046286  0.24681106  0.14115857  1
  O  O236  1  0.49426983  0.24496400  0.63232828  1
  O  O237  1  0.49927138  0.73869586  0.11978867  1
  O  O238  1  0.49448992  0.75927811  0.63525001  1
  O  O239  1  0.98801195  0.24138499  0.13240116  1
  O  O240  1  0.99271356  0.24409408  0.63379644  1
  O  O241  1  1.00276264  0.74361140  0.13388556  1
  O  O242  1  0.98893873  0.74471155  0.62443204  1
  O  O243  1  0.00200234  0.25425639  0.36813846  1
  O  O244  1  0.00543860  0.24332164  0.86462097  1
  O  O245  1  0.00790366  0.75102870  0.36962224  1
  O  O246  1  0.01477557  0.75303910  0.87738037  1
  O  O247  1  0.49833663  0.24587847  0.35964296  1
  O  O248  1  0.51262305  0.25183006  0.86850412  1
  O  O249  1  0.51296332  0.75804360  0.37732140  1
  O  O250  1  0.50681731  0.75524326  0.86963498  1
  O  O251  1  0.24329058  0.13110355  0.49250223  1
  O  O252  1  0.23905688  0.10798004  0.97490059  1
  O  O253  1  0.25692954  0.63637100  0.49652202  1
  O  O254  1  0.24862563  0.63074086  0.99548240  1
  O  O255  1  0.75824177  0.14085970  0.50720499  1
  O  O256  1  0.73874697  0.12684113  1.00148766  1
  O  O257  1  0.74313648  0.62862526  0.49156289  1
  O  O258  1  0.74260129  0.62902637  0.99564072  1
  O  O259  1  0.24812682  0.37512946  0.01324487  1
  O  O260  1  0.25410942  0.36094321  0.49952942  1
  O  O261  1  0.25692442  0.87028609  0.00463997  1
  O  O262  1  0.25720891  0.86569976  0.50487737  1
  O  O263  1  0.76486095  0.37100631  0.00606914  1
  O  O264  1  0.75698961  0.37054213  0.50649554  1
  O  O265  1  0.75099136  0.86305054  0.00831822  1
  O  O266  1  0.76038173  0.87436528  0.51123797  1
  O  O267  1  0.13340977  0.49346314  0.23713033  1
  O  O268  1  0.13587288  0.49020766  0.75483066  1
  O  O269  1  0.13524856  0.99587556  0.25030304  1
  O  O270  1  0.13159914  0.98721123  0.74853725  1
  O  O271  1  0.63234977  0.50008692  0.27170971  1
  O  O272  1  0.63987004  0.51175226  0.75242885  1
  O  O273  1  0.63652429  1.00490630  0.24407065  1
  O  O274  1  0.62881610  1.00073902  0.75592874  1
  O  O275  1  0.37017947  0.00613751  0.26055502  1
  O  O276  1  0.36877999  0.00298499  0.75025558  1
  O  O277  1  0.36641249  0.50265629  0.24167569  1
  O  O278  1  0.37269828  0.50913270  0.75538788  1
  O  O279  1  0.86549093  0.00520305  0.25547324  1
  O  O280  1  0.87895909  0.01006938  0.75816482  1
  O  O281  1  0.87886047  0.51538005  0.25884072  1
  O  O282  1  0.86761460  0.50753299  0.75919213  1
  O  O283  1  0.11825191  0.36474731  0.35973183  1
  O  O284  1  0.12913704  0.36325968  0.86528470  1
  O  O285  1  0.11760993  0.86345095  0.37289368  1
  O  O286  1  0.11984458  0.86831124  0.86943933  1
  O  O287  1  0.61671973  0.36362889  0.37210893  1
  O  O288  1  0.62464309  0.36956944  0.88503488  1
  O  O289  1  0.61966292  0.86071340  0.37849790  1
  O  O290  1  0.61678652  0.85937080  0.88186174  1
  O  O291  1  0.37965465  0.10891710  0.13895490  1
  O  O292  1  0.37502704  0.12886978  0.63574227  1
  O  O293  1  0.38579221  0.62508929  0.13120808  1
  O  O294  1  0.37605569  0.64092744  0.63797608  1
  O  O295  1  0.87885140  0.12923685  0.13290487  1
  O  O296  1  0.88062622  0.13004760  0.63665071  1
  O  O297  1  0.88727043  0.62916656  0.13351968  1
  O  O298  1  0.87955581  0.63347944  0.63281496  1
  O  O299  1  0.24641523  0.26103368  0.12681540  1
  O  O300  1  0.25965067  0.24042624  0.61390599  1
  O  O301  1  0.24625163  0.75532869  0.11206830  1
  O  O302  1  0.25764655  0.75316452  0.61870054  1
  O  O303  1  0.76296512  0.24187160  0.12393145  1
  O  O304  1  0.75668876  0.26207326  0.62003690  1
  O  O305  1  0.74829062  0.75299200  0.12032738  1
  O  O306  1  0.76177701  0.75964872  0.62396388  1
  O  O307  1  0.24511898  0.24188110  0.37959356  1
  O  O308  1  0.23453753  0.23569346  0.86214545  1
  O  O309  1  0.24318358  0.74899876  0.38351054  1
  O  O310  1  0.24226119  0.74589345  0.88544949  1
  O  O311  1  0.75475770  0.24948265  0.39492424  1
  O  O312  1  0.73060696  0.25351844  0.87383460  1
  O  O313  1  0.73973366  0.74534932  0.37976925  1
  O  O314  1  0.74340811  0.74516894  0.88182203  1
  O  O315  1  -0.00496255  0.12440087  0.01486884  1
  O  O316  1  0.00176950  0.12179852  0.50553362  1
  O  O317  1  0.00875219  0.63146441  0.01293069  1
  O  O318  1  -0.00044365  0.62627775  0.51541192  1
  O  O319  1  0.51848719  0.10600813  0.00122388  1
  O  O320  1  0.49625358  0.10801031  0.50313058  1
  O  O321  1  0.50603294  0.62547083  0.00999358  1
  O  O322  1  0.51094383  0.62125211  0.49997918  1
  O  O323  1  0.49930272  0.38959265  0.50233311  1
  O  O324  1  0.49634698  0.37947818  1.00584524  1
  O  O325  1  0.49374310  0.88619679  0.49266214  1
  O  O326  1  0.49432824  0.87897619  0.99146191  1
  O  O327  1  0.97781604  0.36250674  0.48723580  1
  O  O328  1  0.98535461  0.37124009  1.00402642  1
  O  O329  1  0.99412916  0.87936876  0.49737044  1
  O  O330  1  0.99710255  0.87014543  0.98666886  1
  O  O331  1  0.50340190  0.50442505  0.39681346  1
  O  O332  1  0.49676816  0.50578520  0.89684430  1
  O  O333  1  0.49374172  0.99451340  0.38479828  1
  O  O334  1  0.49603877  0.99059541  0.88051197  1
  O  O335  1  0.98907852  0.49609110  0.37033096  1
  O  O336  1  0.99065147  0.50577168  0.86961685  1
  O  O337  1  0.99384601  0.99303074  0.37995546  1
  O  O338  1  0.99076418  0.98945200  0.87563961  1
  O  O339  1  -0.00225949  0.00702024  0.12709173  1
  O  O340  1  0.00078211  0.00860384  0.61851405  1
  O  O341  1  0.01050739  0.51121590  0.13205874  1
  O  O342  1  -0.00326977  0.51392383  0.62930563  1
  O  O343  1  0.51188713  -0.01321029  0.11472706  1
  O  O344  1  0.49813171  -0.00056392  0.60908122  1
  O  O345  1  0.49733347  0.50973872  0.10683731  1
  O  O346  1  0.50431245  0.50444474  0.61167557  1
  O  O347  1  0.24669384  0.38061014  0.24119747  1
  O  O348  1  0.24199226  0.38632718  0.75104932  1
  O  O349  1  0.25248299  0.88036863  0.24278287  1
  O  O350  1  0.24599767  0.87971494  0.74455972  1
  O  O351  1  0.75509871  0.38131191  0.24383805  1
  O  O352  1  0.75872732  0.38704054  0.74017478  1
  O  O353  1  0.75504794  0.88241246  0.24389335  1
  O  O354  1  0.75118172  0.87209728  0.73646809  1
  O  O355  1  0.25905308  0.11778062  0.25327948  1
  O  O356  1  0.25043738  0.11429685  0.75099709  1
  O  O357  1  0.26437917  0.61318919  0.24503754  1
  O  O358  1  0.26058835  0.62262768  0.75913971  1
  O  O359  1  0.75964614  0.11618214  0.24917631  1
  O  O360  1  0.75414145  0.11748627  0.74040746  1
  O  O361  1  0.76125074  0.63016431  0.26410538  1
  O  O362  1  0.76204361  0.62028933  0.75755364  1
  O  O363  1  0.36957718  0.11585614  0.36619514  1
  O  O364  1  0.36049248  0.11405263  0.85623627  1
  O  O365  1  0.37473478  0.62943948  0.35690850  1
  O  O366  1  0.36393872  0.63231298  0.87011912  1
  O  O367  1  0.86967231  0.11729426  0.36839085  1
  O  O368  1  0.87589762  0.11707624  0.86411484  1
  O  O369  1  0.86972630  0.62252107  0.37260444  1
  O  O370  1  0.87351249  0.61952741  0.86997407  1
  O  O371  1  0.12605793  0.37950004  0.12785706  1
  O  O372  1  0.12819817  0.35631592  0.64813635  1
  O  O373  1  0.13885101  0.87501670  0.12689282  1
  O  O374  1  0.13023699  0.87355875  0.63314099  1
  O  O375  1  0.63461612  0.37179701  0.13693995  1
  O  O376  1  0.63850668  0.38154944  0.62440609  1
  O  O377  1  0.63801038  0.88506084  0.11985772  1
  O  O378  1  0.64021910  0.86677302  0.62290702  1
  O  O379  1  0.11676349  0.25236452  0.25351910  1
  O  O380  1  0.11345039  0.25198422  0.75938481  1
  O  O381  1  0.12008787  0.75017113  0.25697326  1
  O  O382  1  0.13544521  0.76252874  0.75970421  1
  O  O383  1  0.61225260  0.24408971  0.25479006  1
  O  O384  1  0.61374669  0.25482815  0.76594089  1
  O  O385  1  0.62847264  0.74255029  0.26435181  1
  O  O386  1  0.61539865  0.74055905  0.75872861  1
  O  O387  1  0.38364123  0.23257588  0.24886631  1
  O  O388  1  0.37887380  0.24206690  0.74173987  1
  O  O389  1  0.36756867  0.73864418  0.24500557  1
  O  O390  1  0.38485483  0.74611069  0.74548772  1
  O  O391  1  0.87660404  0.24165230  0.24583734  1
  O  O392  1  0.87896152  0.24442034  0.74907115  1
  O  O393  1  0.88510623  0.73920396  0.25202001  1
  O  O394  1  0.87230999  0.74047552  0.74332824  1
  O  O395  1  0.38628846  0.50223594  0.50500180  1
  O  O396  1  0.38563666  0.50002806  0.99582427  1
  O  O397  1  0.37090030  0.99535480  0.48798477  1
  O  O398  1  0.38524350  0.99678439  0.99204811  1
  O  O399  1  0.87143987  0.49337726  0.49348360  1
  O  O400  1  0.87815573  0.48973222  0.99111795  1
  O  O401  1  0.88071833  0.99017844  0.49690513  1
  O  O402  1  0.87718783  0.99671301  0.99012405  1
  O  O403  1  0.11531976  0.00187711  0.00454095  1
  O  O404  1  0.11968223  0.00665597  0.49970196  1
  O  O405  1  0.13237381  0.50526803  0.01137044  1
  O  O406  1  0.11688710  0.44232132  0.51123355  1
  O  O407  1  0.62416635  0.00479521  0.00308382  1
  O  O408  1  0.61539720  -0.00345908  0.49832761  1
  O  O409  1  0.61775517  0.50935295  -0.00424960  1
  O  O410  1  0.62203284  0.51565104  0.50174934  1
  O  O411  1  0.36401939  0.37188706  0.12458710  1
  O  O412  1  0.37537686  0.36113164  0.61954862  1
  O  O413  1  0.36290800  0.88055827  0.11490747  1
  O  O414  1  0.36960723  0.86544454  0.62113500  1
  O  O415  1  0.87550063  0.36815467  0.11640738  1
  O  O416  1  0.86838040  0.37361668  0.61797350  1
  O  O417  1  0.86180314  0.86974501  0.12234795  1
  O  O418  1  0.87233455  0.87009572  0.62151013  1
  O  O419  1  0.12859115  0.12944188  0.37870436  1
  O  O420  1  0.12757591  0.13028922  0.87070698  1
  O  O421  1  0.13061141  0.63413406  0.36964913  1
  O  O422  1  0.13602877  0.63131489  0.87629831  1
  O  O423  1  0.63220087  0.13050711  0.38045194  1
  O  O424  1  0.62713509  0.12413187  0.88652449  1
  O  O425  1  0.63049256  0.63583830  0.38418580  1
  O  O426  1  0.62942229  0.63495656  0.88628807  1
