# generated using pymatgen
data_V85Zn86O256
_symmetry_space_group_name_H-M   'P 1'
_cell_length_a   16.95648736
_cell_length_b   16.94939915
_cell_length_c   16.95326489
_cell_angle_alpha   90.00056917
_cell_angle_beta   89.99385715
_cell_angle_gamma   89.96778977
_symmetry_Int_Tables_number   1
_chemical_formula_structural   V85Zn86O256
_chemical_formula_sum   'V85 Zn86 O256'
_cell_volume   4872.40605648
_cell_formula_units_Z   1
loop_
 _symmetry_equiv_pos_site_id
 _symmetry_equiv_pos_as_xyz
  1  'x, y, z'
loop_
 _atom_site_type_symbol
 _atom_site_label
 _atom_site_symmetry_multiplicity
 _atom_site_fract_x
 _atom_site_fract_y
 _atom_site_fract_z
 _atom_site_occupancy
  V  V0  1  0.13164826  -0.01971748  0.12846533  1
  V  V1  1  0.24656485  0.24746642  0.48647143  1
  V  V2  1  0.36128417  0.37137183  0.00947879  1
  V  V3  1  0.00119619  0.12018110  0.12923382  1
  V  V4  1  -0.00036083  0.62548190  0.12188709  1
  V  V5  1  0.73844389  0.00370626  0.74656388  1
  V  V6  1  0.87105524  0.62282073  0.75596344  1
  V  V7  1  0.70840579  0.56730053  0.32021696  1
  V  V8  1  0.00108284  0.62270287  0.62830293  1
  V  V9  1  -0.01489741  0.87610166  0.38136031  1
  V  V10  1  0.50508792  0.37446722  0.36892957  1
  V  V11  1  0.00589086  0.25038344  0.25902399  1
  V  V12  1  0.37646369  0.62221760  0.75063451  1
  V  V13  1  0.87985649  0.25674208  0.11325504  1
  V  V14  1  0.73011863  0.25204711  -0.00496071  1
  V  V15  1  0.87676480  0.12256582  0.25627885  1
  V  V16  1  0.50032857  0.87900326  0.37451084  1
  V  V17  1  0.37663339  0.75118745  0.62593011  1
  V  V18  1  0.75400907  0.11980556  0.37802501  1
  V  V19  1  0.36338865  0.12982933  0.24933257  1
  V  V20  1  0.12252525  0.62454341  -0.00102263  1
  V  V21  1  0.37332561  0.62727323  0.24541584  1
  V  V22  1  0.12677191  0.49770238  0.12774014  1
  V  V23  1  0.87539986  0.74987781  0.12569416  1
  V  V24  1  0.36404521  -0.00539443  0.86414908  1
  V  V25  1  0.74444314  0.37775702  0.13540962  1
  V  V26  1  0.63029843  0.75127527  0.37488901  1
  V  V27  1  0.37629240  0.25257466  0.62941017  1
  V  V28  1  0.25024010  0.62521651  0.87345555  1
  V  V29  1  0.50242940  0.74873165  0.74990772  1
  V  V30  1  0.23949750  0.50196987  0.74447776  1
  V  V31  1  0.88013260  0.61974127  0.25539982  1
  V  V32  1  0.01553402  0.37286753  0.37332422  1
  V  V33  1  0.00508995  0.75716982  0.25032553  1
  V  V34  1  0.24919197  0.62834381  0.37653558  1
  V  V35  1  0.62819298  0.25164272  0.36852533  1
  V  V36  1  0.12966700  0.00411270  0.63501801  1
  V  V37  1  -0.00845111  -0.00301693  0.50037529  1
  V  V38  1  0.62532619  0.87941524  0.24903644  1
  V  V39  1  0.76054244  0.75201716  0.49711551  1
  V  V40  1  0.37434931  0.50273086  0.37480174  1
  V  V41  1  0.74885003  0.87842321  0.12324766  1
  V  V42  1  0.75212258  0.00176699  0.25144330  1
  V  V43  1  0.75186883  0.37278428  0.62332974  1
  V  V44  1  0.63293217  0.62397352  0.50378833  1
  V  V45  1  0.37289486  0.75345043  0.12366704  1
  V  V46  1  0.11761005  0.36766140  0.74995832  1
  V  V47  1  0.87780327  0.25373370  0.61898604  1
  V  V48  1  0.62729729  0.87427679  0.74169973  1
  V  V49  1  -0.00085683  0.49299881  0.50511133  1
  V  V50  1  0.24263911  0.37912685  0.62074475  1
  V  V51  1  0.37640904  0.37453621  0.49755864  1
  V  V52  1  0.12415964  0.75439532  0.87442492  1
  V  V53  1  0.62479820  0.01209143  0.12026179  1
  V  V54  1  -0.00381689  0.00231881  0.00554641  1
  V  V55  1  0.12938861  0.12546027  0.48873672  1
  V  V56  1  0.62552440  0.12512640  0.50353878  1
  V  V57  1  0.49852791  0.24963029  0.24182832  1
  V  V58  1  0.25145790  0.88051486  0.63256546  1
  V  V59  1  -0.00348785  0.87991747  0.86971420  1
  V  V60  1  0.50463222  0.00092405  0.50197692  1
  V  V61  1  0.12428825  0.75925147  0.37510151  1
  V  V62  1  0.24851260  0.49731425  0.24549473  1
  V  V63  1  0.25015588  0.75080607  0.00436984  1
  V  V64  1  0.00501589  0.13002900  0.63098682  1
  V  V65  1  0.36931444  0.87487986  0.00243846  1
  V  V66  1  0.86905303  0.00536654  0.87283152  1
  V  V67  1  0.37623876  0.87698334  0.50081525  1
  V  V68  1  0.74630649  0.74089621  0.00027879  1
  V  V69  1  0.50071386  0.75345586  0.24695662  1
  V  V70  1  -0.00084196  0.47746155  -0.00533213  1
  V  V71  1  0.50747024  0.49566893  -0.00859849  1
  V  V72  1  0.24980212  0.75127581  0.50202923  1
  V  V73  1  0.76081569  0.87878525  0.62066748  1
  V  V74  1  0.87010548  0.87610882  -0.00111034  1
  V  V75  1  0.49712373  0.12866472  0.62579828  1
  V  V76  1  0.12517200  0.62014096  0.50594570  1
  V  V77  1  0.87964053  0.49162603  0.37619443  1
  V  V78  1  0.49889993  0.00644909  0.00159648  1
  V  V79  1  0.62707653  0.74119858  0.87727780  1
  V  V80  1  0.61005522  0.36497748  0.75561464  1
  V  V81  1  0.87225343  0.13182764  0.74895984  1
  V  V82  1  0.50432588  0.87642032  0.87638909  1
  V  V83  1  0.62521574  0.49724774  0.62868057  1
  V  V84  1  0.24656444  -0.01678540  0.25820137  1
  Zn  Zn85  1  0.87827405  0.75146611  0.62435924  1
  Zn  Zn86  1  0.36812140  0.00876425  0.37826917  1
  Zn  Zn87  1  0.12707942  0.87799168  0.74968587  1
  Zn  Zn88  1  0.63149784  0.50324938  0.12066630  1
  Zn  Zn89  1  0.50270622  0.50231362  0.49840285  1
  Zn  Zn90  1  0.75470867  0.25271314  0.49697762  1
  Zn  Zn91  1  0.13187887  0.12453699  0.00067249  1
  Zn  Zn92  1  0.87325806  0.47740135  0.88210234  1
  Zn  Zn93  1  -0.00185130  0.75099928  0.74877708  1
  Zn  Zn94  1  0.38969930  0.15853517  0.77801489  1
  Zn  Zn95  1  0.49701024  0.13095099  0.12469899  1
  Zn  Zn96  1  0.12265148  0.26391488  0.88052991  1
  Zn  Zn97  1  0.74204128  0.12482167  0.88593989  1
  Zn  Zn98  1  0.74908111  0.49372785  0.75788631  1
  Zn  Zn99  1  0.74821104  0.61200218  0.88357561  1
  Zn  Zn100  1  0.24409562  0.13315759  0.86749653  1
  Zn  Zn101  1  0.24474192  0.24983791  0.01509488  1
  Zn  Zn102  1  0.17098383  0.33183892  0.21678086  1
  Zn  Zn103  1  0.51109104  0.62519449  0.11417962  1
  Zn  Zn104  1  0.37963364  0.48622426  0.87200961  1
  Zn  Zn105  1  0.58888990  0.24280242  0.87155967  1
  Zn  Zn106  1  0.50247897  0.62573784  0.62225343  1
  Zn  Zn107  1  0.18743895  0.16987546  0.18539826  1
  Zn  Zn108  1  0.20149317  0.18710743  0.69063516  1
  Zn  Zn109  1  0.18685495  0.68821840  0.18700542  1
  Zn  Zn110  1  0.18599891  0.69099234  0.68775548  1
  Zn  Zn111  1  0.69136969  0.19254504  0.18747757  1
  Zn  Zn112  1  0.68527536  0.18913346  0.68858355  1
  Zn  Zn113  1  0.68568997  0.69144573  0.18134254  1
  Zn  Zn114  1  0.69312847  0.68857440  0.68611543  1
  Zn  Zn115  1  0.32089946  0.31114632  0.31247622  1
  Zn  Zn116  1  0.30583906  0.31637541  0.82047926  1
  Zn  Zn117  1  0.31427222  0.81396042  0.31451740  1
  Zn  Zn118  1  0.31423703  0.81376780  0.81551619  1
  Zn  Zn119  1  0.82030777  0.30840811  0.31204384  1
  Zn  Zn120  1  0.80608639  0.31396001  0.80839845  1
  Zn  Zn121  1  0.81317249  0.81066982  0.31093541  1
  Zn  Zn122  1  0.81189687  0.81042706  0.81053382  1
  Zn  Zn123  1  0.18771158  0.43954742  0.43511916  1
  Zn  Zn124  1  0.19069850  0.43808585  0.93340884  1
  Zn  Zn125  1  0.18291582  0.93847038  0.44405668  1
  Zn  Zn126  1  0.16015039  0.97375666  0.91035775  1
  Zn  Zn127  1  0.68562762  0.43067831  0.44397168  1
  Zn  Zn128  1  0.68810428  0.42481995  0.93607353  1
  Zn  Zn129  1  0.68946754  0.93932317  0.44007106  1
  Zn  Zn130  1  0.68356982  0.93660291  0.93553583  1
  Zn  Zn131  1  0.31080364  0.06143763  0.06478723  1
  Zn  Zn132  1  0.31276586  0.06451287  0.56337745  1
  Zn  Zn133  1  0.31783723  0.55917263  0.06003211  1
  Zn  Zn134  1  0.31439057  0.56237858  0.56344965  1
  Zn  Zn135  1  0.81240076  0.07014751  0.06315265  1
  Zn  Zn136  1  0.81151976  0.06442055  0.56661120  1
  Zn  Zn137  1  0.81806502  0.55682104  0.06366151  1
  Zn  Zn138  1  0.81413393  0.56126980  0.56407747  1
  Zn  Zn139  1  0.44183907  0.43903070  0.18055347  1
  Zn  Zn140  1  0.43620242  0.44090849  0.68354807  1
  Zn  Zn141  1  0.43269503  0.94217395  0.18677762  1
  Zn  Zn142  1  0.44433303  0.93921053  0.68539709  1
  Zn  Zn143  1  0.94094645  0.43529763  0.18747298  1
  Zn  Zn144  1  0.93413145  0.44020875  0.68939250  1
  Zn  Zn145  1  0.93522242  0.93528924  0.19301592  1
  Zn  Zn146  1  0.93679370  0.94523836  0.68790137  1
  Zn  Zn147  1  0.06406309  0.05476925  0.31334924  1
  Zn  Zn148  1  0.03741209  0.11429716  0.84010390  1
  Zn  Zn149  1  0.06356706  0.56573200  0.31551035  1
  Zn  Zn150  1  0.06112166  0.56012517  0.81371821  1
  Zn  Zn151  1  0.56149604  0.06676987  0.31227292  1
  Zn  Zn152  1  0.54098247  0.08877582  0.83041003  1
  Zn  Zn153  1  0.54794495  0.56210630  0.30628853  1
  Zn  Zn154  1  0.56314294  0.55872565  0.81249462  1
  Zn  Zn155  1  0.43627224  0.18836458  0.43329905  1
  Zn  Zn156  1  0.42190982  0.18993417  0.94928578  1
  Zn  Zn157  1  0.44151849  0.68926695  0.43711443  1
  Zn  Zn158  1  0.44129587  0.68181322  0.93650436  1
  Zn  Zn159  1  0.94110383  0.18506688  0.44122396  1
  Zn  Zn160  1  0.94984190  0.29376108  0.91915074  1
  Zn  Zn161  1  0.93903158  0.68183616  0.43659326  1
  Zn  Zn162  1  0.93645830  0.68853362  0.93598766  1
  Zn  Zn163  1  0.08274180  0.30188037  0.07619237  1
  Zn  Zn164  1  0.06416429  0.30969970  0.56397605  1
  Zn  Zn165  1  0.05976042  0.81445548  0.05767894  1
  Zn  Zn166  1  0.06293139  0.81243728  0.56363100  1
  Zn  Zn167  1  0.56097442  0.32539224  0.06257001  1
  Zn  Zn168  1  0.56355936  0.31131208  0.55916744  1
  Zn  Zn169  1  0.56198188  0.81565852  0.06205398  1
  Zn  Zn170  1  0.56716541  0.81081072  0.56197711  1
  O  O171  1  0.10897521  0.10633904  0.12692563  1
  O  O172  1  0.12063434  0.12143713  0.62342059  1
  O  O173  1  0.11822158  0.61980227  0.11877952  1
  O  O174  1  0.11685536  0.63026936  0.61681328  1
  O  O175  1  0.62354268  0.11423417  0.13038496  1
  O  O176  1  0.61618155  0.13364700  0.60982157  1
  O  O177  1  0.62321634  0.61637738  0.13498655  1
  O  O178  1  0.62670401  0.61799928  0.61904282  1
  O  O179  1  0.38126642  0.38122010  0.38380167  1
  O  O180  1  0.37031140  0.37480052  0.89333573  1
  O  O181  1  0.38887709  0.87278442  0.38189241  1
  O  O182  1  0.38700903  0.87478723  0.88359030  1
  O  O183  1  0.88159692  0.38791847  0.37149560  1
  O  O184  1  0.88668035  0.36676230  0.86334197  1
  O  O185  1  0.88571404  0.87117050  0.37677905  1
  O  O186  1  0.87803434  0.88429576  0.87710524  1
  O  O187  1  0.24738806  -0.00921649  0.36334333  1
  O  O188  1  0.26713646  -0.02885852  0.87295874  1
  O  O189  1  0.25529255  0.51083228  0.36909705  1
  O  O190  1  0.25167408  0.51139180  0.86356336  1
  O  O191  1  0.74570993  0.01230287  0.36901120  1
  O  O192  1  0.75435731  -0.00044933  0.86791949  1
  O  O193  1  0.75921432  0.50090623  0.38178018  1
  O  O194  1  0.75562396  0.49638387  0.87711998  1
  O  O195  1  0.24018405  0.51202424  0.13482467  1
  O  O196  1  0.25645089  0.49111430  0.63150761  1
  O  O197  1  0.23588587  0.99509811  0.13317080  1
  O  O198  1  0.24334921  0.99115297  0.61808501  1
  O  O199  1  0.75444349  0.48215238  0.12127956  1
  O  O200  1  0.74106887  0.49290483  0.62665479  1
  O  O201  1  0.74325239  0.99785585  0.12815587  1
  O  O202  1  0.75134012  0.99118321  0.63244635  1
  O  O203  1  -0.00422234  0.36268839  0.26021678  1
  O  O204  1  0.02108777  0.38297747  0.73454275  1
  O  O205  1  -0.00468407  0.86345848  0.26131254  1
  O  O206  1  -0.00237335  0.87658301  0.76120443  1
  O  O207  1  0.48902086  0.36775454  0.26204728  1
  O  O208  1  0.51236848  0.38105867  0.74367047  1
  O  O209  1  0.50288967  0.87318183  0.25710379  1
  O  O210  1  0.50990836  0.86906798  0.75364890  1
  O  O211  1  0.49217628  0.13368216  0.24794550  1
  O  O212  1  0.49104114  0.10739116  0.72556278  1
  O  O213  1  0.48520864  0.63629666  0.25125482  1
  O  O214  1  0.49248156  0.63031646  0.74841441  1
  O  O215  1  0.99352581  0.12397702  0.24896140  1
  O  O216  1  0.98608487  0.11033097  0.73659062  1
  O  O217  1  0.99511467  0.63450850  0.24468048  1
  O  O218  1  0.99238478  0.62454024  0.74417016  1
  O  O219  1  0.36721480  0.26402557  0.01223288  1
  O  O220  1  0.36862443  0.25939071  0.50005393  1
  O  O221  1  0.37278860  0.75157777  0.00673710  1
  O  O222  1  0.37194807  0.75562595  0.50617563  1
  O  O223  1  0.88596303  0.24959206  0.01489451  1
  O  O224  1  0.87365083  0.24384864  0.51482782  1
  O  O225  1  0.86804752  0.75716566  0.00517684  1
  O  O226  1  0.86348147  0.74242399  0.49967725  1
  O  O227  1  0.13156832  0.23489976  0.50394495  1
  O  O228  1  0.12373303  0.24047080  0.99438251  1
  O  O229  1  0.12960105  0.74141470  0.49456736  1
  O  O230  1  0.12987948  0.74889017  0.99068589  1
  O  O231  1  0.62644770  0.24213869  0.48598706  1
  O  O232  1  0.62695170  0.25383134  0.99545220  1
  O  O233  1  0.63322755  0.74244745  0.49347307  1
  O  O234  1  0.63483565  0.75677638  0.99092205  1
  O  O235  1  0.50979657  0.25296157  0.13925331  1
  O  O236  1  0.48956924  0.24135544  0.61338357  1
  O  O237  1  0.49402724  0.74772343  0.13052697  1
  O  O238  1  0.49504775  0.74909574  0.63111381  1
  O  O239  1  0.99458255  0.23942977  0.13499130  1
  O  O240  1  0.99407509  0.23952932  0.62280005  1
  O  O241  1  0.99579765  0.74778482  0.13284351  1
  O  O242  1  0.99818847  0.73884288  0.62576573  1
  O  O243  1  -0.00903937  0.26163152  0.37156159  1
  O  O244  1  0.01671725  0.22246867  0.86750111  1
  O  O245  1  0.00524371  0.75509888  0.37129192  1
  O  O246  1  0.00681614  0.76253568  0.87609941  1
  O  O247  1  0.50721981  0.25670703  0.36645900  1
  O  O248  1  0.48115703  0.19856711  0.85521747  1
  O  O249  1  0.50827301  0.75869712  0.36843865  1
  O  O250  1  0.50858656  0.75467203  0.87061027  1
  O  O251  1  0.23802236  0.13147967  0.50121745  1
  O  O252  1  0.24888424  0.12881715  1.00303231  1
  O  O253  1  0.24399801  0.63092433  0.49772390  1
  O  O254  1  0.24388071  0.63082913  0.99271511  1
  O  O255  1  0.74293604  0.12500502  0.49397206  1
  O  O256  1  0.75260423  0.14654675  1.00461690  1
  O  O257  1  0.74063180  0.63411197  0.50443589  1
  O  O258  1  0.75932953  0.63743709  1.00172922  1
  O  O259  1  0.25570111  0.37841304  0.00404313  1
  O  O260  1  0.25586826  0.37312982  0.50272903  1
  O  O261  1  0.26682122  0.86304593  -0.00253806  1
  O  O262  1  0.25573860  0.86894347  0.50748458  1
  O  O263  1  0.74884379  0.35766198  0.01335199  1
  O  O264  1  0.74753623  0.37034897  0.51640062  1
  O  O265  1  0.75379870  0.86840848  0.00471628  1
  O  O266  1  0.74398107  0.86714907  0.50998971  1
  O  O267  1  0.13716869  0.51480720  0.24279886  1
  O  O268  1  0.13653052  0.50030729  0.74773405  1
  O  O269  1  0.13652163  0.99881248  0.24257027  1
  O  O270  1  0.12308045  0.99667013  0.73446798  1
  O  O271  1  0.64480243  0.51082477  0.26699252  1
  O  O272  1  0.62753974  0.49167584  0.74271589  1
  O  O273  1  0.63074321  0.99671154  0.24329161  1
  O  O274  1  0.63618899  0.98884301  0.75476194  1
  O  O275  1  0.36050275  0.00183857  0.25468183  1
  O  O276  1  0.38036134  -0.01190681  0.76558094  1
  O  O277  1  0.37049365  0.51106213  0.25339224  1
  O  O278  1  0.36771061  0.50834953  0.75056050  1
  O  O279  1  0.86754420  0.01319144  0.24549307  1
  O  O280  1  0.86299089  0.00475841  0.75635614  1
  O  O281  1  0.88316172  0.50996780  0.25739046  1
  O  O282  1  0.87279057  0.51228178  0.75469698  1
  O  O283  1  0.11589489  0.37969455  0.36838449  1
  O  O284  1  0.12679424  0.38141346  0.85472269  1
  O  O285  1  0.11579295  0.86185372  0.38468291  1
  O  O286  1  0.11352197  0.87340634  0.87318613  1
  O  O287  1  0.61615335  0.36678187  0.37777682  1
  O  O288  1  0.62112798  0.36198453  0.86035817  1
  O  O289  1  0.61587634  0.87370100  0.37002355  1
  O  O290  1  0.62161040  0.86532988  0.86401092  1
  O  O291  1  0.37947262  0.11268085  0.14542540  1
  O  O292  1  0.38286902  0.14011305  0.61261801  1
  O  O293  1  0.37630992  0.63565254  0.13253281  1
  O  O294  1  0.37736143  0.63118024  0.63462716  1
  O  O295  1  0.88511710  0.13182140  0.13279535  1
  O  O296  1  0.88382792  0.13050473  0.63038500  1
  O  O297  1  0.88038192  0.63005878  0.13458968  1
  O  O298  1  0.88167955  0.62633685  0.63705523  1
  O  O299  1  0.20503800  0.26395064  0.13025202  1
  O  O300  1  0.25932308  0.26182527  0.61071926  1
  O  O301  1  0.25852972  0.74500088  0.11644601  1
  O  O302  1  0.25636965  0.75658018  0.61911619  1
  O  O303  1  0.76184428  0.25400228  0.11712015  1
  O  O304  1  0.75809516  0.25542223  0.62228133  1
  O  O305  1  0.75580465  0.75812027  0.11844895  1
  O  O306  1  0.75301502  0.75920983  0.61528477  1
  O  O307  1  0.25164754  0.25764532  0.38723757  1
  O  O308  1  0.23889965  0.24923839  0.88134850  1
  O  O309  1  0.24348237  0.74790143  0.38088359  1
  O  O310  1  0.24206534  0.74639445  0.88063931  1
  O  O311  1  0.74500691  0.24169161  0.37517759  1
  O  O312  1  0.75382437  0.25173555  0.89389638  1
  O  O313  1  0.74278642  0.75779603  0.38407299  1
  O  O314  1  0.74343833  0.75014459  0.88467367  1
  O  O315  1  -0.00198435  0.10661861  0.01269545  1
  O  O316  1  0.01091910  0.11752234  0.50898161  1
  O  O317  1  0.00753125  0.63193917  0.00839466  1
  O  O318  1  0.00777851  0.61803164  0.50710383  1
  O  O319  1  0.48933095  0.10967570  0.00848988  1
  O  O320  1  0.50620517  0.11844501  0.50031601  1
  O  O321  1  0.49282013  0.60572286  0.00085404  1
  O  O322  1  0.51766724  0.62636089  0.49785397  1
  O  O323  1  0.49259755  0.37602720  0.48805403  1
  O  O324  1  0.48759917  0.38867843  1.00337971  1
  O  O325  1  0.50007638  0.88121947  0.49369113  1
  O  O326  1  0.49286010  0.88137417  0.99450372  1
  O  O327  1  1.00974931  0.38733886  0.49491382  1
  O  O328  1  1.00688224  0.37692600  1.00127196  1
  O  O329  1  1.00265585  0.88843166  0.49802540  1
  O  O330  1  0.99006599  0.88253711  0.99052993  1
  O  O331  1  0.49271937  0.49196784  0.37587796  1
  O  O332  1  0.49691508  0.50313598  0.88551676  1
  O  O333  1  0.49867247  0.99287433  0.38183534  1
  O  O334  1  0.49141899  0.99473698  0.88481337  1
  O  O335  1  0.99706137  0.49354270  0.38120018  1
  O  O336  1  1.00325905  0.50159187  0.89393548  1
  O  O337  1  1.00554169  0.98995092  0.38958906  1
  O  O338  1  0.98832995  0.99681950  0.88573492  1
  O  O339  1  0.00252504  0.00033781  0.12473398  1
  O  O340  1  0.00855269  0.00514811  0.61563635  1
  O  O341  1  0.00489773  0.50711932  0.11545587  1
  O  O342  1  -0.00513086  0.51241119  0.61661912  1
  O  O343  1  0.50990525  -0.00341245  0.11927060  1
  O  O344  1  0.49563426  0.00543451  0.60726683  1
  O  O345  1  0.50868694  0.50381192  0.11627534  1
  O  O346  1  0.51253079  0.50394202  0.61979445  1
  O  O347  1  0.25614789  0.39283574  0.26018776  1
  O  O348  1  0.24482235  0.38564728  0.73878583  1
  O  O349  1  0.25272064  0.88434166  0.24881322  1
  O  O350  1  0.25030173  0.86678361  0.73524892  1
  O  O351  1  0.75611350  0.36417779  0.23411852  1
  O  O352  1  0.73549504  0.37413335  0.73781400  1
  O  O353  1  0.74699808  0.88240357  0.24448970  1
  O  O354  1  0.74477398  0.87914962  0.74183528  1
  O  O355  1  0.25903724  0.11184446  0.25124604  1
  O  O356  1  0.27583396  0.13572670  0.75401168  1
  O  O357  1  0.26010170  0.62327655  0.25581007  1
  O  O358  1  0.25601136  0.62114854  0.75108330  1
  O  O359  1  0.75759878  0.12258549  0.25747054  1
  O  O360  1  0.75630503  0.11511158  0.74179816  1
  O  O361  1  0.76086933  0.62999860  0.25584128  1
  O  O362  1  0.76219066  0.62255012  0.75227507  1
  O  O363  1  0.38026326  0.12258098  0.35680340  1
  O  O364  1  0.36267352  0.09945277  0.88387756  1
  O  O365  1  0.36971043  0.62454354  0.36873358  1
  O  O366  1  0.36787842  0.63003541  0.86029237  1
  O  O367  1  0.86623602  0.12951882  0.36924517  1
  O  O368  1  0.86601122  0.11183507  0.86489857  1
  O  O369  1  0.88077161  0.61352152  0.36405120  1
  O  O370  1  0.87430180  0.62540033  0.86311274  1
  O  O371  1  0.11077475  0.39580164  0.13766156  1
  O  O372  1  0.13862656  0.37557024  0.62578113  1
  O  O373  1  0.11657977  0.88219734  0.13157577  1
  O  O374  1  0.13469726  0.88239538  0.62393656  1
  O  O375  1  0.63986573  0.37893952  0.13047241  1
  O  O376  1  0.62881042  0.38169116  0.62717394  1
  O  O377  1  0.63150945  0.88210037  0.13186627  1
  O  O378  1  0.63322166  0.86968950  0.63710869  1
  O  O379  1  0.10840902  0.23850008  0.25650234  1
  O  O380  1  0.13114989  0.26634530  0.74200534  1
  O  O381  1  0.11557086  0.74331295  0.26068188  1
  O  O382  1  0.12146952  0.75421962  0.76289941  1
  O  O383  1  0.61763252  0.24300661  0.26230686  1
  O  O384  1  0.61670006  0.26303528  0.74122673  1
  O  O385  1  0.62203317  0.75996754  0.25598614  1
  O  O386  1  0.62292906  0.75520428  0.75565472  1
  O  O387  1  0.37999297  0.23818404  0.24860078  1
  O  O388  1  0.37373053  0.26907421  0.73063781  1
  O  O389  1  0.37751153  0.74657368  0.24258756  1
  O  O390  1  0.38139754  0.74461473  0.74459261  1
  O  O391  1  0.88379156  0.23632472  0.24323537  1
  O  O392  1  0.86602325  0.23499797  0.74026443  1
  O  O393  1  0.88329272  0.74163541  0.24584689  1
  O  O394  1  0.87769909  0.73796716  0.74884554  1
  O  O395  1  0.37761337  0.49458600  0.49220432  1
  O  O396  1  0.38017797  0.49327221  0.99382428  1
  O  O397  1  0.38125227  0.99354026  0.49509238  1
  O  O398  1  0.38074409  0.98750655  1.00034703  1
  O  O399  1  0.88853453  0.50867555  0.49000787  1
  O  O400  1  0.89587379  0.49922915  1.00091132  1
  O  O401  1  0.89330997  1.00858939  0.50471340  1
  O  O402  1  0.87523002  0.99586921  0.99441014  1
  O  O403  1  0.11240501  -0.00970374  0.01764433  1
  O  O404  1  0.11982399  0.01180197  0.50920159  1
  O  O405  1  0.11637092  0.50398303  0.00743465  1
  O  O406  1  0.11862198  0.51395884  0.49411154  1
  O  O407  1  0.61417504  -0.00657543  0.00912726  1
  O  O408  1  0.61622013  0.01159955  0.49362930  1
  O  O409  1  0.61167974  0.48915793  -0.00318884  1
  O  O410  1  0.62631161  0.50816433  0.50748378  1
  O  O411  1  0.37038262  0.38832389  0.10998246  1
  O  O412  1  0.37137466  0.37420819  0.60999702  1
  O  O413  1  0.38142720  0.86138295  0.11845241  1
  O  O414  1  0.37042085  0.87217994  0.61934108  1
  O  O415  1  0.87274822  0.35949935  0.13005041  1
  O  O416  1  0.86636192  0.36498011  0.63482871  1
  O  O417  1  0.86873857  0.86905727  0.12115768  1
  O  O418  1  0.86471003  0.87284268  0.62972099  1
  O  O419  1  0.12035652  0.12054339  0.39075468  1
  O  O420  1  0.13660587  0.08491231  0.88604137  1
  O  O421  1  0.12974037  0.63619230  0.38438827  1
  O  O422  1  0.12814456  0.63553345  0.87929956  1
  O  O423  1  0.63264210  0.13151357  0.38209877  1
  O  O424  1  0.63468848  0.13654345  0.86005834  1
  O  O425  1  0.63570444  0.62451881  0.37607266  1
  O  O426  1  0.62999916  0.63772856  0.86809556  1
