# generated using pymatgen
data_V85Zn86O256
_symmetry_space_group_name_H-M   'P 1'
_cell_length_a   16.96303481
_cell_length_b   16.96347992
_cell_length_c   16.96449899
_cell_angle_alpha   90.06896294
_cell_angle_beta   89.98787358
_cell_angle_gamma   89.95120743
_symmetry_Int_Tables_number   1
_chemical_formula_structural   V85Zn86O256
_chemical_formula_sum   'V85 Zn86 O256'
_cell_volume   4881.56479678
_cell_formula_units_Z   1
loop_
 _symmetry_equiv_pos_site_id
 _symmetry_equiv_pos_as_xyz
  1  'x, y, z'
loop_
 _atom_site_type_symbol
 _atom_site_label
 _atom_site_symmetry_multiplicity
 _atom_site_fract_x
 _atom_site_fract_y
 _atom_site_fract_z
 _atom_site_occupancy
  V  V0  1  0.87607402  0.37568238  0.49354254  1
  V  V1  1  0.12713140  0.25112651  0.87501124  1
  V  V2  1  0.37942822  0.62879842  0.24698697  1
  V  V3  1  0.37603294  0.25088246  0.12503007  1
  V  V4  1  0.87658110  0.12451699  0.26088338  1
  V  V5  1  0.62834487  0.25288058  0.86992883  1
  V  V6  1  0.61677292  0.49839117  0.63308932  1
  V  V7  1  0.37439742  0.87809913  -0.00205483  1
  V  V8  1  0.87814296  0.37646361  0.00389320  1
  V  V9  1  0.50068185  0.87421233  0.37228169  1
  V  V10  1  0.74989596  0.24930414  0.50168972  1
  V  V11  1  0.38018193  0.37769269  0.00026920  1
  V  V12  1  0.50600223  0.37748289  0.87124447  1
  V  V13  1  0.88247651  -0.00651465  0.87715374  1
  V  V14  1  0.87292922  0.60912289  0.25475667  1
  V  V15  1  0.75351768  0.62301658  0.88334456  1
  V  V16  1  0.12519145  0.25347136  0.38660959  1
  V  V17  1  0.49209387  0.24202406  0.75300787  1
  V  V18  1  0.37270592  0.00293835  0.86118350  1
  V  V19  1  0.00058994  0.50080614  0.49013967  1
  V  V20  1  -0.01548489  0.75121157  0.75218318  1
  V  V21  1  0.75324317  -0.00150765  0.75260893  1
  V  V22  1  0.81174430  0.70456670  0.55978963  1
  V  V23  1  0.62730889  0.00131514  0.62612021  1
  V  V24  1  0.50229501  0.87442500  0.87670123  1
  V  V25  1  -0.00963359  0.12781296  0.12093794  1
  V  V26  1  0.87932750  0.12406927  0.74978568  1
  V  V27  1  0.00189109  0.38713565  0.87977750  1
  V  V28  1  0.50015083  0.25719661  0.25557329  1
  V  V29  1  0.36303464  0.74419344  0.61282129  1
  V  V30  1  0.13385535  0.86803707  0.75652586  1
  V  V31  1  0.61408506  0.62837988  0.50643375  1
  V  V32  1  0.12318512  0.00147492  0.12295904  1
  V  V33  1  0.50053004  0.12675759  0.12733034  1
  V  V34  1  0.13116242  0.75239729  0.37398464  1
  V  V35  1  0.12673718  0.12450058  -0.00160253  1
  V  V36  1  0.62191603  0.25365733  0.37818940  1
  V  V37  1  0.37862193  0.74690909  0.12169246  1
  V  V38  1  0.31474176  0.92252625  0.55513112  1
  V  V39  1  0.37958445  0.62443600  0.74199932  1
  V  V40  1  -0.00006463  0.25141545  0.24575608  1
  V  V41  1  0.50817606  0.75381240  0.24474420  1
  V  V42  1  0.25227950  0.62656544  0.37622707  1
  V  V43  1  0.62561258  -0.00665852  0.13236242  1
  V  V44  1  0.12292935  0.87533751  0.24739729  1
  V  V45  1  0.37661949  0.50159387  0.87346483  1
  V  V46  1  0.75899306  0.50630316  0.75069810  1
  V  V47  1  0.01254634  0.12228605  0.62341774  1
  V  V48  1  0.24996018  0.87543068  0.12360893  1
  V  V49  1  -0.00509878  0.74814753  0.24697491  1
  V  V50  1  0.25295495  0.12123803  0.86230517  1
  V  V51  1  0.12362031  0.50334411  0.62158847  1
  V  V52  1  0.00108697  0.25166757  0.75069485  1
  V  V53  1  0.24956892  0.37838791  0.12358858  1
  V  V54  1  0.74850909  0.87352399  0.13082198  1
  V  V55  1  0.50082432  -0.00149548  0.00152468  1
  V  V56  1  0.50223207  -0.00455673  0.50165131  1
  V  V57  1  0.24951532  0.50145858  0.74647298  1
  V  V58  1  0.12513892  0.37914114  0.75029285  1
  V  V59  1  0.87909298  0.87031857  0.00190375  1
  V  V60  1  0.62450081  0.50871708  0.11675532  1
  V  V61  1  0.50236791  0.74686287  0.73882697  1
  V  V62  1  0.75189765  0.00054845  0.25770472  1
  V  V63  1  0.75282812  0.12510995  0.87672086  1
  V  V64  1  0.11474406  0.62812353  -0.00517518  1
  V  V65  1  0.24744017  0.63337892  0.87434454  1
  V  V66  1  0.24431206  0.13006226  0.38571353  1
  V  V67  1  0.87134560  0.88592885  0.49697614  1
  V  V68  1  0.75215253  0.37146653  0.13101115  1
  V  V69  1  0.36869628  0.24770421  0.62122132  1
  V  V70  1  0.62881039  0.87240373  0.75296027  1
  V  V71  1  0.11745485  0.50145879  0.12073012  1
  V  V72  1  -0.00620801  0.88160231  0.37390247  1
  V  V73  1  0.75705462  0.87526105  0.62269669  1
  V  V74  1  0.12630195  0.63356946  0.50125697  1
  V  V75  1  0.75364681  0.61527081  0.37679877  1
  V  V76  1  0.62724539  0.12688216  0.00273365  1
  V  V77  1  0.62179364  0.74145536  0.88592407  1
  V  V78  1  0.00736351  0.00346487  0.50064238  1
  V  V79  1  0.37376112  -0.00269821  0.37518768  1
  V  V80  1  0.38271279  0.49457516  0.37323089  1
  V  V81  1  0.62665617  0.38612336  0.25380733  1
  V  V82  1  0.63243510  0.75293500  0.37826411  1
  V  V83  1  0.74805512  0.37278837  0.63578805  1
  V  V84  1  0.25023068  0.00579562  0.24844690  1
  Zn  Zn85  1  -0.00234214  0.37789590  0.37046128  1
  Zn  Zn86  1  0.37488629  0.12770034  0.25143721  1
  Zn  Zn87  1  0.12456286  0.37686967  0.24899617  1
  Zn  Zn88  1  0.74595491  0.74518130  0.00725618  1
  Zn  Zn89  1  0.87677676  0.25050588  0.62593637  1
  Zn  Zn90  1  0.25014092  0.50317748  0.24644486  1
  Zn  Zn91  1  0.86978614  0.74383072  0.12662112  1
  Zn  Zn92  1  0.49995781  0.49435390  0.49935335  1
  Zn  Zn93  1  0.25273033  0.24944527  -0.00192313  1
  Zn  Zn94  1  0.49998300  0.51682697  0.00230062  1
  Zn  Zn95  1  0.24900479  0.37139477  0.61254749  1
  Zn  Zn96  1  0.75831648  0.24793584  0.00579525  1
  Zn  Zn97  1  0.75156731  0.12252182  0.37992102  1
  Zn  Zn98  1  0.88087591  0.50460161  0.87664991  1
  Zn  Zn99  1  0.49816351  0.12153127  0.63074865  1
  Zn  Zn100  1  -0.00727016  0.61964407  0.12085394  1
  Zn  Zn101  1  0.37741342  0.36692715  0.49293310  1
  Zn  Zn102  1  0.24429470  0.75353099  -0.00437237  1
  Zn  Zn103  1  0.13886155  -0.01033940  0.63017128  1
  Zn  Zn104  1  0.00343808  -0.00712916  -0.00373241  1
  Zn  Zn105  1  0.62311126  0.12700336  0.50143219  1
  Zn  Zn106  1  -0.01314240  0.63054935  0.62536271  1
  Zn  Zn107  1  0.18441569  0.19059512  0.18693923  1
  Zn  Zn108  1  0.18649830  0.18701182  0.68878146  1
  Zn  Zn109  1  0.18883437  0.68707629  0.18434103  1
  Zn  Zn110  1  0.18207996  0.69478926  0.68773354  1
  Zn  Zn111  1  0.68773816  0.18928495  0.19165170  1
  Zn  Zn112  1  0.68634601  0.18712018  0.69056788  1
  Zn  Zn113  1  0.69364178  0.68510490  0.19703472  1
  Zn  Zn114  1  0.68431155  0.68016924  0.69598495  1
  Zn  Zn115  1  0.30872195  0.31293554  0.30911907  1
  Zn  Zn116  1  0.31184612  0.31441587  0.81260818  1
  Zn  Zn117  1  0.31464114  0.81568942  0.31235962  1
  Zn  Zn118  1  0.31401873  0.81363867  0.80675500  1
  Zn  Zn119  1  0.81228755  0.30966916  0.31194054  1
  Zn  Zn120  1  0.81623025  0.31363906  0.81617757  1
  Zn  Zn121  1  0.81271401  0.81136090  0.31143646  1
  Zn  Zn122  1  0.81382286  0.80766247  0.81602386  1
  Zn  Zn123  1  0.19537147  0.43764371  0.43684390  1
  Zn  Zn124  1  0.18950180  0.44379046  0.93860120  1
  Zn  Zn125  1  0.17932017  0.94251832  0.43250930  1
  Zn  Zn126  1  0.18714610  0.93676285  0.92956651  1
  Zn  Zn127  1  0.68155998  0.43328113  0.44504288  1
  Zn  Zn128  1  0.69158017  0.43687733  0.94203464  1
  Zn  Zn129  1  0.68528920  0.93504704  0.43758506  1
  Zn  Zn130  1  0.69136989  0.93522169  0.94233194  1
  Zn  Zn131  1  0.31183388  0.06424784  0.05919028  1
  Zn  Zn132  1  0.31448325  0.08708758  0.56619530  1
  Zn  Zn133  1  0.31048745  0.56395841  0.05928686  1
  Zn  Zn134  1  0.31004836  0.56239537  0.55800621  1
  Zn  Zn135  1  0.81246227  0.05925818  0.06456948  1
  Zn  Zn136  1  0.81743877  0.06360012  0.56402003  1
  Zn  Zn137  1  0.80959811  0.55533182  0.06423025  1
  Zn  Zn138  1  0.80093210  0.54129512  0.54784086  1
  Zn  Zn139  1  0.44209691  0.44043460  0.18859539  1
  Zn  Zn140  1  0.43923398  0.42966476  0.68940754  1
  Zn  Zn141  1  0.43826786  0.93539439  0.18855617  1
  Zn  Zn142  1  0.44212810  0.93211315  0.68886682  1
  Zn  Zn143  1  0.93783175  0.43510539  0.18615513  1
  Zn  Zn144  1  0.93789622  0.43888126  0.68289856  1
  Zn  Zn145  1  0.93431321  0.94065133  0.18538119  1
  Zn  Zn146  1  0.94608749  0.93086980  0.68722220  1
  Zn  Zn147  1  0.06270699  0.06492367  0.31253880  1
  Zn  Zn148  1  0.06768602  0.05423717  0.81008844  1
  Zn  Zn149  1  0.06518550  0.56284211  0.30794641  1
  Zn  Zn150  1  0.05948176  0.57527937  0.80834500  1
  Zn  Zn151  1  0.56427623  0.06803957  0.31417789  1
  Zn  Zn152  1  0.56417637  0.06175388  0.81580139  1
  Zn  Zn153  1  0.56370618  0.56922293  0.31160492  1
  Zn  Zn154  1  0.56455880  0.56285042  0.81145583  1
  Zn  Zn155  1  0.43901486  0.18219533  0.43747039  1
  Zn  Zn156  1  0.43723491  0.18669612  0.93798604  1
  Zn  Zn157  1  0.44127003  0.68589031  0.43423315  1
  Zn  Zn158  1  0.43212316  0.69122169  0.92986028  1
  Zn  Zn159  1  0.94016567  0.19012581  0.43900734  1
  Zn  Zn160  1  0.93961366  0.19325932  0.93740319  1
  Zn  Zn161  1  0.94529906  0.68713973  0.43075011  1
  Zn  Zn162  1  0.93446742  0.69175501  0.93417978  1
  Zn  Zn163  1  0.06210972  0.31175386  0.06041866  1
  Zn  Zn164  1  0.06183036  0.31504681  0.56483093  1
  Zn  Zn165  1  0.06073647  0.80808145  0.06166080  1
  Zn  Zn166  1  0.05977560  0.81282513  0.57337157  1
  Zn  Zn167  1  0.56494605  0.31482889  0.06321722  1
  Zn  Zn168  1  0.55696007  0.31832191  0.56357257  1
  Zn  Zn169  1  0.56141083  0.68613232  0.06457542  1
  Zn  Zn170  1  0.56328903  0.81527878  0.56072636  1
  O  O171  1  0.11896047  0.12068664  0.11642570  1
  O  O172  1  0.11536297  0.11689579  0.63103418  1
  O  O173  1  0.12389788  0.61817680  0.11494801  1
  O  O174  1  0.13098978  0.61936228  0.61224193  1
  O  O175  1  0.62070891  0.12176582  0.11848595  1
  O  O176  1  0.62358436  0.11135400  0.62673330  1
  O  O177  1  0.63015403  0.61362517  0.12956410  1
  O  O178  1  0.63243509  0.61226304  0.61764372  1
  O  O179  1  0.37020700  0.39270720  0.36611138  1
  O  O180  1  0.38096274  0.38156623  0.88207047  1
  O  O181  1  0.38788653  0.88300098  0.37165671  1
  O  O182  1  0.37887177  0.88081590  0.88101067  1
  O  O183  1  0.87621024  0.36800617  0.38914933  1
  O  O184  1  0.88614771  0.37906390  0.88113618  1
  O  O185  1  0.88540745  0.86950203  0.38182987  1
  O  O186  1  0.86357295  0.88380287  0.88805329  1
  O  O187  1  0.24991484  0.01110804  0.36746038  1
  O  O188  1  0.26263425  0.00969026  0.88174627  1
  O  O189  1  0.25890666  0.51196551  0.36673536  1
  O  O190  1  0.25758274  0.50905125  0.86619774  1
  O  O191  1  0.74197276  0.00156313  0.36189005  1
  O  O192  1  0.75809123  0.00636389  0.87112385  1
  O  O193  1  0.74967794  0.51759989  0.40020156  1
  O  O194  1  0.74585293  0.50888964  0.86822847  1
  O  O195  1  0.24393553  0.49382769  0.12495819  1
  O  O196  1  0.24081981  0.50090537  0.63055810  1
  O  O197  1  0.24509433  0.99646838  0.13126579  1
  O  O198  1  0.25997623  0.99236381  0.60724275  1
  O  O199  1  0.73438784  0.48694459  0.12434593  1
  O  O200  1  0.74351471  0.49205913  0.63303440  1
  O  O201  1  0.74371675  0.99685044  0.13513911  1
  O  O202  1  0.74559231  0.99418160  0.63094203  1
  O  O203  1  0.00207499  0.36595426  0.25142019  1
  O  O204  1  0.00632655  0.37096180  0.75392988  1
  O  O205  1  0.00101605  0.87058084  0.25550721  1
  O  O206  1  0.00530046  0.85944903  0.74746157  1
  O  O207  1  0.50971153  0.36359206  0.24549090  1
  O  O208  1  0.49958521  0.36276736  0.76568686  1
  O  O209  1  0.49867876  0.86565221  0.25796619  1
  O  O210  1  0.50922441  0.86710438  0.75676790  1
  O  O211  1  0.49925673  0.13696734  0.24349060  1
  O  O212  1  0.50440119  0.13851550  0.75402259  1
  O  O213  1  0.48703865  0.63755793  0.25477599  1
  O  O214  1  0.49029817  0.63379374  0.75367416  1
  O  O215  1  0.99395518  0.12876101  0.24244721  1
  O  O216  1  0.99547785  0.12976148  0.74593644  1
  O  O217  1  0.98903304  0.63159978  0.25166777  1
  O  O218  1  1.00081802  0.63775044  0.73932730  1
  O  O219  1  0.37525213  0.25946680  0.00666004  1
  O  O220  1  0.38226737  0.24464256  0.51788982  1
  O  O221  1  0.37288415  0.76308515  0.00544703  1
  O  O222  1  0.38265400  0.74221637  0.51476225  1
  O  O223  1  0.87349370  0.26665845  -0.00574760  1
  O  O224  1  0.86756716  0.25508131  0.50476321  1
  O  O225  1  0.86861124  0.75601320  0.00562821  1
  O  O226  1  0.87568536  0.75808031  0.49927834  1
  O  O227  1  0.12052497  0.25251254  0.48575492  1
  O  O228  1  0.12764728  0.24236906  0.99153830  1
  O  O229  1  0.11526403  0.74024138  0.48870507  1
  O  O230  1  0.12820869  0.73370480  1.00548405  1
  O  O231  1  0.63050952  0.25121071  0.49575734  1
  O  O232  1  0.62265044  0.23798366  0.99152150  1
  O  O233  1  0.61841283  0.74146305  0.49198571  1
  O  O234  1  0.62508798  0.75189726  0.98875275  1
  O  O235  1  0.49574167  0.24656691  0.13119080  1
  O  O236  1  0.49840107  0.24968307  0.64217907  1
  O  O237  1  0.49244510  0.75186782  0.13402929  1
  O  O238  1  0.49481676  0.75787491  0.63600126  1
  O  O239  1  1.00720308  0.23982508  0.13330283  1
  O  O240  1  1.00106458  0.24129849  0.63266037  1
  O  O241  1  0.99819664  0.74527606  0.13831780  1
  O  O242  1  0.99566117  0.74419719  0.63414058  1
  O  O243  1  0.01339429  0.24977783  0.36904588  1
  O  O244  1  0.00905643  0.25883659  0.86735835  1
  O  O245  1  0.01025301  0.75810200  0.36348949  1
  O  O246  1  -0.00509844  0.74070727  0.85474365  1
  O  O247  1  0.50689516  0.24515925  0.36679187  1
  O  O248  1  0.50535400  0.25378165  0.86894690  1
  O  O249  1  0.50571333  0.75789690  0.36801172  1
  O  O250  1  0.50619007  0.75648769  0.86406155  1
  O  O251  1  0.24633186  0.12559490  0.48447240  1
  O  O252  1  0.23706125  0.12717114  0.99613747  1
  O  O253  1  0.24131968  0.62414977  0.48419764  1
  O  O254  1  0.24444215  0.62893735  0.98921479  1
  O  O255  1  0.75030947  0.13724661  0.50307783  1
  O  O256  1  0.74404391  0.12759216  0.99777286  1
  O  O257  1  0.75001653  0.64161681  0.49991060  1
  O  O258  1  0.74770661  0.62345698  0.98834503  1
  O  O259  1  0.26244829  0.37604056  0.00665426  1
  O  O260  1  0.26443963  0.37903196  0.50068722  1
  O  O261  1  0.25652391  0.87499673  0.00463419  1
  O  O262  1  0.25608014  0.87592880  0.49046806  1
  O  O263  1  0.75528516  0.37049883  0.01223983  1
  O  O264  1  0.75600276  0.36595939  0.51003230  1
  O  O265  1  0.75745714  0.87477347  0.01532004  1
  O  O266  1  0.75854433  0.87801279  0.50707359  1
  O  O267  1  0.12977336  0.49869575  0.23793724  1
  O  O268  1  0.13181288  0.50098030  0.74107971  1
  O  O269  1  0.13093308  0.99529799  0.24424692  1
  O  O270  1  0.11823118  0.98200739  0.74353576  1
  O  O271  1  0.61926575  0.48949662  0.24618358  1
  O  O272  1  0.63549101  0.50438880  0.73781511  1
  O  O273  1  0.63457017  1.01114582  0.24081001  1
  O  O274  1  0.63139514  0.99349806  0.74533043  1
  O  O275  1  0.36629061  0.00251180  0.25542345  1
  O  O276  1  0.38172623  -0.00484930  0.76219463  1
  O  O277  1  0.37567269  0.51159749  0.25485389  1
  O  O278  1  0.36931636  0.50635132  0.74973896  1
  O  O279  1  0.86475847  0.01161191  0.24531063  1
  O  O280  1  0.87254102  0.00402108  0.75732717  1
  O  O281  1  0.88329920  0.51082657  0.25595152  1
  O  O282  1  0.86264835  0.49491613  0.75185896  1
  O  O283  1  0.12786618  0.36279394  0.37103169  1
  O  O284  1  0.12146477  0.37314189  0.87162091  1
  O  O285  1  0.11605936  0.86934030  0.36719026  1
  O  O286  1  0.12302760  0.87885717  0.85975180  1
  O  O287  1  0.63179098  0.36492943  0.36745921  1
  O  O288  1  0.61769934  0.36475540  0.88533484  1
  O  O289  1  0.61246072  0.86653218  0.37967689  1
  O  O290  1  0.62351704  0.86799430  0.87156645  1
  O  O291  1  0.38209987  0.13216162  0.12478933  1
  O  O292  1  0.38187086  0.14099532  0.63566040  1
  O  O293  1  0.36719866  0.63925758  0.13060697  1
  O  O294  1  0.37227268  0.63092657  0.63277951  1
  O  O295  1  0.88752658  0.12249721  0.12880919  1
  O  O296  1  0.88132408  0.12587498  0.63990238  1
  O  O297  1  0.87261015  0.62155344  0.13892215  1
  O  O298  1  0.86197809  0.63122861  0.60720395  1
  O  O299  1  0.25733318  0.25855011  0.12234432  1
  O  O300  1  0.26435114  0.24922563  0.63271734  1
  O  O301  1  0.25937561  0.76023392  0.12467761  1
  O  O302  1  0.26433704  0.74440497  0.62148823  1
  O  O303  1  0.74198572  0.26619171  0.12396261  1
  O  O304  1  0.74852308  0.25648308  0.62136678  1
  O  O305  1  0.74705080  0.75952259  0.12778065  1
  O  O306  1  0.74922697  0.75559372  0.62600919  1
  O  O307  1  0.23966772  0.23859524  0.36623905  1
  O  O308  1  0.24492654  0.24296330  0.87592972  1
  O  O309  1  0.23734027  0.74748540  0.36716719  1
  O  O310  1  0.25849943  0.73602250  0.87390892  1
  O  O311  1  0.74309427  0.24869884  0.38597760  1
  O  O312  1  0.74270001  0.24412702  0.87655827  1
  O  O313  1  0.73582042  0.74480736  0.36867426  1
  O  O314  1  0.74089768  0.73741098  0.87702678  1
  O  O315  1  0.00981100  0.12659299  0.00548971  1
  O  O316  1  -0.00891587  0.11623328  0.51149987  1
  O  O317  1  0.01104153  0.62803931  0.00013215  1
  O  O318  1  0.00806417  0.61792001  0.50055729  1
  O  O319  1  0.50765392  0.11875540  0.00632990  1
  O  O320  1  0.50080902  0.10897719  0.50437434  1
  O  O321  1  0.49560041  0.62929043  -0.00429797  1
  O  O322  1  0.51218557  0.61777446  0.49711532  1
  O  O323  1  0.48971308  0.38165332  0.50218437  1
  O  O324  1  0.49053391  0.37432228  0.99108000  1
  O  O325  1  0.50211577  0.88762677  0.49264475  1
  O  O326  1  0.48951301  0.88345506  0.99148538  1
  O  O327  1  0.99308750  0.38211992  0.49949617  1
  O  O328  1  0.99405228  0.37281121  0.99053629  1
  O  O329  1  0.99229675  0.88195291  0.49254715  1
  O  O330  1  0.98454214  0.87465183  1.00737824  1
  O  O331  1  0.48536487  0.50680031  0.37056508  1
  O  O332  1  0.49612118  0.49181056  0.87425038  1
  O  O333  1  0.49582663  0.99608012  0.38081269  1
  O  O334  1  0.49474283  0.99563690  0.88207626  1
  O  O335  1  1.01057571  0.49694178  0.38647579  1
  O  O336  1  1.00285251  0.48968373  0.86666769  1
  O  O337  1  1.00578119  0.99031943  0.38124591  1
  O  O338  1  0.98515024  1.00626150  0.87802257  1
  O  O339  1  0.00727499  0.00945181  0.12242630  1
  O  O340  1  -0.00530980  0.00875530  0.61605740  1
  O  O341  1  0.01331164  0.50019515  0.12658075  1
  O  O342  1  0.01114118  0.50554122  0.61696066  1
  O  O343  1  0.50749791  0.00548501  0.12264082  1
  O  O344  1  0.50914294  -0.00337824  0.62004801  1
  O  O345  1  0.51875812  0.49494731  0.12288861  1
  O  O346  1  0.51432113  0.49648033  0.63215754  1
  O  O347  1  0.24862519  0.37710495  0.23345332  1
  O  O348  1  0.24466279  0.38983502  0.75132074  1
  O  O349  1  0.24508881  0.88759947  0.24594440  1
  O  O350  1  0.23625866  0.86897096  0.75012126  1
  O  O351  1  0.74325359  0.37138576  0.24036922  1
  O  O352  1  0.75409158  0.37796589  0.73999975  1
  O  O353  1  0.75659236  0.88485934  0.23990947  1
  O  O354  1  0.74700312  0.87922313  0.74339909  1
  O  O355  1  0.24948334  0.11499239  0.25150632  1
  O  O356  1  0.24466599  0.12224523  0.76322667  1
  O  O357  1  0.26141384  0.62938334  0.25772201  1
  O  O358  1  0.25402410  0.61713372  0.75334084  1
  O  O359  1  0.76059157  0.12096664  0.25074882  1
  O  O360  1  0.75933353  0.11890237  0.75508919  1
  O  O361  1  0.76301808  0.62013228  0.26197486  1
  O  O362  1  0.74979303  0.61574543  0.76334969  1
  O  O363  1  0.36146718  0.11917583  0.37309905  1
  O  O364  1  0.36553716  0.11521456  0.88310580  1
  O  O365  1  0.36831291  0.62438659  0.36598908  1
  O  O366  1  0.36761181  0.61977344  0.86060240  1
  O  O367  1  0.87481903  0.12685861  0.36428087  1
  O  O368  1  0.87195494  0.12056224  0.86675228  1
  O  O369  1  0.86807305  0.63132955  0.36452248  1
  O  O370  1  0.85842764  0.62140000  0.87940576  1
  O  O371  1  0.13406833  0.38336205  0.11910483  1
  O  O372  1  0.12798202  0.38490771  0.63135747  1
  O  O373  1  0.12899623  0.88038479  0.12892225  1
  O  O374  1  0.12520348  0.87639496  0.63695867  1
  O  O375  1  0.63299939  0.38116225  0.13280293  1
  O  O376  1  0.63462149  0.38911032  0.62158374  1
  O  O377  1  0.63366627  0.89268637  0.12262358  1
  O  O378  1  0.63636907  0.88355178  0.62873277  1
  O  O379  1  0.11390652  0.25149908  0.25616674  1
  O  O380  1  0.12153183  0.25870228  0.75570844  1
  O  O381  1  0.11826592  0.75566016  0.25395540  1
  O  O382  1  0.11661235  0.76018896  0.74883278  1
  O  O383  1  0.61896909  0.25834801  0.25873435  1
  O  O384  1  0.61648926  0.24572760  0.76476038  1
  O  O385  1  0.61368734  0.74206177  0.25982836  1
  O  O386  1  0.61833927  0.75412149  0.75627712  1
  O  O387  1  0.38326336  0.25046575  0.24392162  1
  O  O388  1  0.38859030  0.25196249  0.75020497  1
  O  O389  1  0.38235548  0.74785039  0.24109395  1
  O  O390  1  0.38252501  0.74281895  0.73979390  1
  O  O391  1  0.88982115  0.24180341  0.25461189  1
  O  O392  1  0.88303802  0.24100433  0.75113664  1
  O  O393  1  0.88227146  0.74222411  0.24845165  1
  O  O394  1  0.88254082  0.75528039  0.74545251  1
  O  O395  1  0.37753907  0.51007684  0.48044516  1
  O  O396  1  0.37897836  0.49381496  0.99409296  1
  O  O397  1  0.37747617  0.99366608  0.50141849  1
  O  O398  1  0.37959525  0.98984211  0.99864600  1
  O  O399  1  0.88870332  0.48914075  0.50252749  1
  O  O400  1  0.86951057  0.48427958  0.99528324  1
  O  O401  1  0.88236799  0.99025339  0.49949931  1
  O  O402  1  0.87559800  0.99248812  0.99313618  1
  O  O403  1  0.12304645  0.00739080  0.00389911  1
  O  O404  1  0.11096736  -0.00344242  0.50642087  1
  O  O405  1  0.13145814  0.51560883  0.00821438  1
  O  O406  1  0.12155659  0.50828567  0.50487563  1
  O  O407  1  0.62257549  0.01102277  0.00647851  1
  O  O408  1  0.61945812  0.00138964  0.50910176  1
  O  O409  1  0.62175228  0.49775498  0.01369017  1
  O  O410  1  0.62473461  0.50807381  0.51417895  1
  O  O411  1  0.37158309  0.37358052  0.11773162  1
  O  O412  1  0.37259586  0.35772246  0.63213716  1
  O  O413  1  0.37130010  0.86867677  0.11738854  1
  O  O414  1  0.37223688  0.86505210  0.62125666  1
  O  O415  1  0.86090636  0.38040518  0.12150550  1
  O  O416  1  0.86656321  0.37254945  0.61580479  1
  O  O417  1  0.86561042  0.87370937  0.11932851  1
  O  O418  1  0.86301157  0.88087882  0.61601876  1
  O  O419  1  0.13603617  0.13584848  0.36993701  1
  O  O420  1  0.12994057  0.12786163  0.88137805  1
  O  O421  1  0.13221135  0.63349702  0.37701902  1
  O  O422  1  0.13258619  0.61811917  0.88772000  1
  O  O423  1  0.62930579  0.13959386  0.37909702  1
  O  O424  1  0.63291543  0.12896098  0.88386512  1
  O  O425  1  0.63281157  0.63078456  0.38544413  1
  O  O426  1  0.63423382  0.63347533  0.86990998  1
