# generated using pymatgen
data_V85Zn86O256
_symmetry_space_group_name_H-M   'P 1'
_cell_length_a   16.98391880
_cell_length_b   16.97581994
_cell_length_c   16.97250712
_cell_angle_alpha   89.99135821
_cell_angle_beta   89.90553884
_cell_angle_gamma   90.02283927
_symmetry_Int_Tables_number   1
_chemical_formula_structural   V85Zn86O256
_chemical_formula_sum   'V85 Zn86 O256'
_cell_volume   4893.43737447
_cell_formula_units_Z   1
loop_
 _symmetry_equiv_pos_site_id
 _symmetry_equiv_pos_as_xyz
  1  'x, y, z'
loop_
 _atom_site_type_symbol
 _atom_site_label
 _atom_site_symmetry_multiplicity
 _atom_site_fract_x
 _atom_site_fract_y
 _atom_site_fract_z
 _atom_site_occupancy
  V  V0  1  -0.00315272  0.50940160  0.50056373  1
  V  V1  1  0.87391177  0.74243473  0.62623769  1
  V  V2  1  0.12357270  0.25024205  0.87588787  1
  V  V3  1  0.62247605  0.50857911  0.12825419  1
  V  V4  1  -0.00214261  0.38542672  0.87873883  1
  V  V5  1  0.12098695  0.12433395  0.00058667  1
  V  V6  1  0.12263272  -0.00192468  0.12014679  1
  V  V7  1  0.62564335  0.24111595  0.37894938  1
  V  V8  1  0.50623326  0.00855490  0.49868405  1
  V  V9  1  0.63895527  0.87796203  0.24788602  1
  V  V10  1  0.75806820  0.77698026  0.00049488  1
  V  V11  1  0.24701224  0.87482572  0.12470341  1
  V  V12  1  0.87146325  0.50777175  0.37304539  1
  V  V13  1  0.00446202  0.37473966  0.37721864  1
  V  V14  1  0.37524883  0.00135771  0.87475660  1
  V  V15  1  0.00548212  0.87031251  0.37948501  1
  V  V16  1  0.62267403  0.74908943  0.37988788  1
  V  V17  1  0.62978560  0.01488340  0.62275796  1
  V  V18  1  0.00625127  0.25043695  0.25769158  1
  V  V19  1  0.37500813  0.50011819  0.87200044  1
  V  V20  1  0.43800480  0.56925561  0.18180683  1
  V  V21  1  0.49940344  0.51012929  -0.00143305  1
  V  V22  1  0.88059135  -0.00056384  0.88875892  1
  V  V23  1  0.13242036  0.86813814  0.74205477  1
  V  V24  1  0.12799366  0.62702275  0.50077875  1
  V  V25  1  0.07541571  0.70160937  0.92469211  1
  V  V26  1  0.24754864  0.74976641  -0.00479802  1
  V  V27  1  0.37165939  0.75630606  0.62340070  1
  V  V28  1  0.50723355  0.62480850  0.62145254  1
  V  V29  1  0.62913287  0.87941676  0.74813790  1
  V  V30  1  0.37406309  0.12744890  0.24732428  1
  V  V31  1  0.50306298  0.75341073  0.74872277  1
  V  V32  1  0.87706046  0.38603411  -0.00026540  1
  V  V33  1  0.23951509  0.12786982  0.37358877  1
  V  V34  1  0.00352229  0.24738503  0.74480519  1
  V  V35  1  0.87789398  0.25152972  0.12669784  1
  V  V36  1  0.00703431  0.88575625  0.87703220  1
  V  V37  1  0.50162664  0.25266896  0.24902402  1
  V  V38  1  0.24917994  0.50185284  0.74853841  1
  V  V39  1  0.12106860  0.87173254  0.25168339  1
  V  V40  1  0.87750867  0.24830468  0.62206567  1
  V  V41  1  0.49870764  0.75445477  0.24402780  1
  V  V42  1  0.26547160  0.61167539  0.36734567  1
  V  V43  1  0.87680116  0.87344196  0.50257106  1
  V  V44  1  0.12611488  0.00299039  0.62479221  1
  V  V45  1  0.49976485  0.00287738  0.00624153  1
  V  V46  1  0.62729298  0.37467568  0.25026108  1
  V  V47  1  0.24991943  0.62976850  0.87448317  1
  V  V48  1  0.12124658  0.50274285  0.11370141  1
  V  V49  1  0.37106399  0.37934011  -0.00019978  1
  V  V50  1  0.37703621  0.62710025  0.74646954  1
  V  V51  1  0.86706428  0.12023484  0.25340093  1
  V  V52  1  0.87065737  -0.00445801  0.37568202  1
  V  V53  1  0.37507241  0.87604099  0.00001485  1
  V  V54  1  0.24438914  0.25215638  0.49435501  1
  V  V55  1  -0.00145077  0.74908523  0.74477406  1
  V  V56  1  0.75554741  0.00295256  0.75056877  1
  V  V57  1  0.37387967  0.24971671  0.62076793  1
  V  V58  1  0.00006151  0.12001532  0.12530612  1
  V  V59  1  0.49637633  0.25671767  0.75449194  1
  V  V60  1  0.37085152  0.88081602  0.50252090  1
  V  V61  1  0.64034131  0.00009638  0.12783634  1
  V  V62  1  0.24977200  0.37749353  0.62325636  1
  V  V63  1  0.37382045  0.12308367  0.74661745  1
  V  V64  1  0.37521361  0.00253412  0.37477537  1
  V  V65  1  0.11884484  0.50320529  0.62328817  1
  V  V66  1  0.74833928  0.74596005  0.50401748  1
  V  V67  1  0.12529843  0.37516640  0.75108841  1
  V  V68  1  0.24885947  0.25398458  0.00464174  1
  V  V69  1  0.74674637  0.24821004  0.49953573  1
  V  V70  1  0.11727378  0.12874246  0.50378887  1
  V  V71  1  0.88403323  0.12136083  0.74795230  1
  V  V72  1  0.75126617  0.50763861  0.25681322  1
  V  V73  1  0.24875588  0.00204968  0.24913405  1
  V  V74  1  0.37477692  0.38502340  0.49565903  1
  V  V75  1  0.63297401  0.48979307  0.63510812  1
  V  V76  1  0.24978962  0.75239729  0.49120480  1
  V  V77  1  0.37665977  0.74778150  0.12786568  1
  V  V78  1  0.87251506  0.61450989  0.76058205  1
  V  V79  1  0.74684420  0.60124890  0.87840980  1
  V  V80  1  0.24895765  0.12339826  0.87516680  1
  V  V81  1  0.49984486  0.38224271  0.37538807  1
  V  V82  1  0.50224540  0.87824553  0.87417372  1
  V  V83  1  0.74534485  0.24623347  0.00622777  1
  V  V84  1  0.37243634  0.26451978  0.12867310  1
  Zn  Zn85  1  0.78710994  0.67678563  0.32927850  1
  Zn  Zn86  1  0.25355989  -0.00712243  0.74320205  1
  Zn  Zn87  1  0.50362689  0.50155326  0.49975440  1
  Zn  Zn88  1  0.50038844  0.12985971  0.12306646  1
  Zn  Zn89  1  0.62622230  0.63433211  0.00323548  1
  Zn  Zn90  1  0.62295953  0.12996017  -0.00776436  1
  Zn  Zn91  1  0.13631430  0.37259895  0.24185182  1
  Zn  Zn92  1  0.75139397  0.12515697  0.87885912  1
  Zn  Zn93  1  0.75187386  0.37550393  0.12864721  1
  Zn  Zn94  1  0.75331148  0.87726180  0.62718672  1
  Zn  Zn95  1  0.10006218  0.71025489  0.33306566  1
  Zn  Zn96  1  0.74492369  0.11620066  0.37829298  1
  Zn  Zn97  1  0.50565586  0.13064232  0.62092650  1
  Zn  Zn98  1  -0.00182777  0.00388071  0.50558753  1
  Zn  Zn99  1  0.49876780  0.87781174  0.37290227  1
  Zn  Zn100  1  0.62965840  0.74972893  0.87588791  1
  Zn  Zn101  1  0.95122561  0.82437668  0.04734625  1
  Zn  Zn102  1  0.65492429  0.27014938  0.84303751  1
  Zn  Zn103  1  0.63281717  0.61782591  0.49808479  1
  Zn  Zn104  1  0.50641834  0.37803154  0.87277843  1
  Zn  Zn105  1  0.74695367  0.36994600  0.65306890  1
  Zn  Zn106  1  0.87207202  0.37836910  0.50369326  1
  Zn  Zn107  1  0.18700586  0.19136897  0.18658944  1
  Zn  Zn108  1  0.18947992  0.18598098  0.68446149  1
  Zn  Zn109  1  0.18872410  0.67866814  0.18122194  1
  Zn  Zn110  1  0.18972188  0.68931811  0.68270481  1
  Zn  Zn111  1  0.68805430  0.18481840  0.18620893  1
  Zn  Zn112  1  0.69898598  0.20057856  0.69705933  1
  Zn  Zn113  1  0.68683984  0.69472536  0.18020329  1
  Zn  Zn114  1  0.69076647  0.68576238  0.69161317  1
  Zn  Zn115  1  0.31283382  0.31553201  0.31539952  1
  Zn  Zn116  1  0.31304243  0.31295608  0.81451753  1
  Zn  Zn117  1  0.31134418  0.81373111  0.31260883  1
  Zn  Zn118  1  0.31503352  0.81418484  0.81154212  1
  Zn  Zn119  1  0.81507382  0.31625323  0.31678672  1
  Zn  Zn120  1  0.82139593  0.31025099  0.81788652  1
  Zn  Zn121  1  0.86707404  0.75265039  0.15180695  1
  Zn  Zn122  1  0.81695942  0.81205410  0.82176004  1
  Zn  Zn123  1  0.18726873  0.44054141  0.43019508  1
  Zn  Zn124  1  0.18542432  0.43946070  0.93954341  1
  Zn  Zn125  1  0.18835539  0.94030737  0.43962536  1
  Zn  Zn126  1  0.18431155  0.93656289  0.93535664  1
  Zn  Zn127  1  0.68725392  0.43324912  0.44313987  1
  Zn  Zn128  1  0.68440289  0.43067598  0.94413778  1
  Zn  Zn129  1  0.68953089  0.93030936  0.43770586  1
  Zn  Zn130  1  0.68548074  0.94587897  0.93414917  1
  Zn  Zn131  1  0.31243472  0.06726424  0.06407318  1
  Zn  Zn132  1  0.30670589  0.06278149  0.56221773  1
  Zn  Zn133  1  0.29965882  0.55973474  0.05782517  1
  Zn  Zn134  1  0.31258249  0.56694867  0.56206876  1
  Zn  Zn135  1  0.81582058  0.06192612  0.06406732  1
  Zn  Zn136  1  0.81388888  0.06722318  0.56232083  1
  Zn  Zn137  1  0.80650072  0.56149582  0.07471306  1
  Zn  Zn138  1  0.81109728  0.56179135  0.56912444  1
  Zn  Zn139  1  0.25788996  0.48499167  0.23994705  1
  Zn  Zn140  1  0.43957333  0.43970024  0.68288515  1
  Zn  Zn141  1  0.43701977  0.93503333  0.18765736  1
  Zn  Zn142  1  0.44223667  0.94096933  0.68340712  1
  Zn  Zn143  1  0.94379604  0.44170807  0.18673667  1
  Zn  Zn144  1  0.93833264  0.43395862  0.68710406  1
  Zn  Zn145  1  0.93159348  0.92997969  0.19382277  1
  Zn  Zn146  1  0.94411236  0.93638030  0.68544020  1
  Zn  Zn147  1  0.05669352  0.05688225  0.31364538  1
  Zn  Zn148  1  0.06580816  0.06163966  0.80705613  1
  Zn  Zn149  1  0.06847213  0.54614735  0.30851868  1
  Zn  Zn150  1  0.05820877  0.56308527  0.80793754  1
  Zn  Zn151  1  0.56154442  0.06222228  0.30784400  1
  Zn  Zn152  1  0.56599812  0.07247294  0.81400146  1
  Zn  Zn153  1  0.56604398  0.56430143  0.31651151  1
  Zn  Zn154  1  0.56494001  0.56316641  0.81146446  1
  Zn  Zn155  1  0.43478290  0.18919084  0.43450424  1
  Zn  Zn156  1  0.43559303  0.18643829  0.93857030  1
  Zn  Zn157  1  0.43981535  0.69005152  0.43673562  1
  Zn  Zn158  1  0.43751042  0.69024749  0.93532527  1
  Zn  Zn159  1  0.93297524  0.18717855  0.43646008  1
  Zn  Zn160  1  0.93751640  0.18918039  0.93801922  1
  Zn  Zn161  1  0.94141962  0.69842594  0.30692929  1
  Zn  Zn162  1  0.89945051  0.65627505  0.98000304  1
  Zn  Zn163  1  0.06028149  0.31573170  0.06524604  1
  Zn  Zn164  1  0.06146301  0.31689524  0.56091576  1
  Zn  Zn165  1  0.00331971  0.63470253  0.13925977  1
  Zn  Zn166  1  0.06182579  0.80986474  0.56430470  1
  Zn  Zn167  1  0.56081634  0.32234012  0.05913824  1
  Zn  Zn168  1  0.56303282  0.31271833  0.56135886  1
  Zn  Zn169  1  0.56749458  0.81501106  0.06275248  1
  Zn  Zn170  1  0.55987859  0.82089923  0.56363141  1
  O  O171  1  0.11933609  0.11968323  0.12142791  1
  O  O172  1  0.12890773  0.11895662  0.61501215  1
  O  O173  1  0.12088090  0.61438773  0.12214143  1
  O  O174  1  0.13468520  0.61378303  0.61416412  1
  O  O175  1  0.61940278  0.10842952  0.13083805  1
  O  O176  1  0.62811442  0.11667827  0.63153873  1
  O  O177  1  0.62651074  0.61287190  0.12271950  1
  O  O178  1  0.62042992  0.61783994  0.62538031  1
  O  O179  1  0.38751372  0.36594408  0.38607120  1
  O  O180  1  0.37607813  0.38469477  0.88125589  1
  O  O181  1  0.37508660  0.88545878  0.38253415  1
  O  O182  1  0.38168166  0.88244109  0.87992623  1
  O  O183  1  0.88622344  0.38496743  0.37837393  1
  O  O184  1  0.88341619  0.37172671  0.88920536  1
  O  O185  1  0.88710138  0.88117863  0.39263602  1
  O  O186  1  0.89605393  0.88722185  0.86422176  1
  O  O187  1  0.25628534  0.00966199  0.36972026  1
  O  O188  1  0.25758183  0.00613590  0.87221750  1
  O  O189  1  0.25721808  0.50730394  0.36833343  1
  O  O190  1  0.25252601  0.50968705  0.86770773  1
  O  O191  1  0.76519005  -0.00186228  0.38283011  1
  O  O192  1  0.76290216  0.00257291  0.86773362  1
  O  O193  1  0.75692515  0.49340572  0.36899940  1
  O  O194  1  0.74218758  0.50283449  0.87360825  1
  O  O195  1  0.23308870  0.50467806  0.12578831  1
  O  O196  1  0.24343996  0.49556667  0.62934747  1
  O  O197  1  0.24371658  0.99771805  0.13001242  1
  O  O198  1  0.23563408  1.00154039  0.62636566  1
  O  O199  1  0.73934341  0.49483807  0.13665877  1
  O  O200  1  0.73889657  0.49130766  0.62817995  1
  O  O201  1  0.73816054  1.00250521  0.12534617  1
  O  O202  1  0.74572582  0.99981447  0.63177599  1
  O  O203  1  -0.00343131  0.36091187  0.25702617  1
  O  O204  1  0.00661717  0.36751554  0.75762491  1
  O  O205  1  0.01313251  0.88279650  0.26317020  1
  O  O206  1  0.01124590  0.86692069  0.75350206  1
  O  O207  1  0.51058924  0.36208279  0.25975277  1
  O  O208  1  0.48980938  0.36061870  0.75013143  1
  O  O209  1  0.50225727  0.86643003  0.25252262  1
  O  O210  1  0.50733021  0.87392234  0.75426981  1
  O  O211  1  0.49290425  0.13782397  0.24966218  1
  O  O212  1  0.48378404  0.13070578  0.74683346  1
  O  O213  1  0.49507867  0.62832671  0.24661078  1
  O  O214  1  0.49672630  0.63257740  0.73999052  1
  O  O215  1  0.99400281  0.13520142  0.24771888  1
  O  O216  1  0.99327841  0.13304137  0.75175378  1
  O  O217  1  1.02713973  0.64185864  0.26585023  1
  O  O218  1  0.98473607  0.63778827  0.76239433  1
  O  O219  1  0.36849225  0.25748444  0.00478674  1
  O  O220  1  0.36552216  0.25478326  0.50654572  1
  O  O221  1  0.37141609  0.75577561  0.00862158  1
  O  O222  1  0.37231693  0.76081907  0.50478867  1
  O  O223  1  0.86987783  0.24936272  0.01553063  1
  O  O224  1  0.87369333  0.25327825  0.50899367  1
  O  O225  1  0.86262778  0.76620652  -0.01652705  1
  O  O226  1  0.86539859  0.75741123  0.51433379  1
  O  O227  1  0.13718819  0.24556169  0.50805357  1
  O  O228  1  0.13236278  0.24710932  0.99737984  1
  O  O229  1  0.13782249  0.74054319  0.51015009  1
  O  O230  1  0.13601164  0.75028109  0.99168927  1
  O  O231  1  0.63147870  0.25135224  0.49030448  1
  O  O232  1  0.64141694  0.24687074  1.02475741  1
  O  O233  1  0.62856077  0.75653737  0.49550937  1
  O  O234  1  0.63512909  0.75193946  0.99704897  1
  O  O235  1  0.49159125  0.25330998  0.13296255  1
  O  O236  1  0.48666554  0.24918989  0.62892640  1
  O  O237  1  0.49436087  0.75353706  0.13464810  1
  O  O238  1  0.49341122  0.74568631  0.62887169  1
  O  O239  1  0.99499716  0.24058295  0.13565147  1
  O  O240  1  0.99619778  0.25795098  0.63781806  1
  O  O241  1  0.98409535  0.74697101  0.12423136  1
  O  O242  1  0.99031886  0.75084385  0.63664389  1
  O  O243  1  -0.00655938  0.25624875  0.36387772  1
  O  O244  1  0.00654309  0.25530510  0.86453279  1
  O  O245  1  0.00852845  0.76622852  0.38088080  1
  O  O246  1  0.01404699  0.76376121  0.86426726  1
  O  O247  1  0.50728905  0.25446764  0.36919661  1
  O  O248  1  0.48364533  0.25211342  0.85766761  1
  O  O249  1  0.50164525  0.75345572  0.36189605  1
  O  O250  1  0.50333214  0.75907832  0.86699926  1
  O  O251  1  0.24266377  0.13403005  0.49199949  1
  O  O252  1  0.24324690  0.13335961  0.99420112  1
  O  O253  1  0.24801587  0.63184624  0.49199507  1
  O  O254  1  0.25410016  0.63341311  0.98203923  1
  O  O255  1  0.75813821  0.14095801  0.49364714  1
  O  O256  1  0.74777011  0.13184526  1.00330589  1
  O  O257  1  0.74910440  0.64063532  0.50946778  1
  O  O258  1  0.74716254  0.61736627  0.98440105  1
  O  O259  1  0.26139589  0.36720506  -0.00821277  1
  O  O260  1  0.25501861  0.36936285  0.50021092  1
  O  O261  1  0.25381273  0.86845689  0.00337246  1
  O  O262  1  0.26217121  0.86903373  0.49645848  1
  O  O263  1  0.76397571  0.36594696  0.00693058  1
  O  O264  1  0.75508147  0.35870567  0.49887022  1
  O  O265  1  0.74488224  0.87477067  0.00056004  1
  O  O266  1  0.75924634  0.86604347  0.50548922  1
  O  O267  1  0.13709508  0.49125742  0.24217240  1
  O  O268  1  0.12943577  0.49768792  0.74107310  1
  O  O269  1  0.13170578  0.99769124  0.24136336  1
  O  O270  1  0.12978849  0.99230342  0.74051320  1
  O  O271  1  0.62688849  0.49191633  0.24782584  1
  O  O272  1  0.61876693  0.49893627  0.73385807  1
  O  O273  1  0.61900121  0.98868199  0.23980621  1
  O  O274  1  0.63281415  0.99908179  0.74398087  1
  O  O275  1  0.36890789  0.00763956  0.25266148  1
  O  O276  1  0.37364928  0.00692034  0.75242199  1
  O  O277  1  0.37975637  0.51007291  0.23323653  1
  O  O278  1  0.36903779  0.50673732  0.75123875  1
  O  O279  1  0.88279716  0.00915499  0.26302032  1
  O  O280  1  0.87399441  0.00714287  0.74923399  1
  O  O281  1  0.86137104  0.49344169  0.25735053  1
  O  O282  1  0.88261150  0.51699950  0.74524183  1
  O  O283  1  0.10839626  0.37946383  0.37285129  1
  O  O284  1  0.12092915  0.36775417  0.87015646  1
  O  O285  1  0.11951305  0.88543679  0.36594979  1
  O  O286  1  0.11748456  0.88636635  0.85491216  1
  O  O287  1  0.61806790  0.36464747  0.36895736  1
  O  O288  1  0.61372415  0.35769095  0.90000170  1
  O  O289  1  0.62051418  0.86842685  0.36401126  1
  O  O290  1  0.61810124  0.88272240  0.86189383  1
  O  O291  1  0.37579588  0.13693173  0.13272930  1
  O  O292  1  0.37186309  0.13360332  0.63046549  1
  O  O293  1  0.37663059  0.62999539  0.12094699  1
  O  O294  1  0.38407894  0.63262739  0.62921954  1
  O  O295  1  0.88363924  0.12891983  0.13366409  1
  O  O296  1  0.87728780  0.13839087  0.63306082  1
  O  O297  1  0.88790557  0.63266971  0.09408227  1
  O  O298  1  0.86652621  0.63658792  0.64228786  1
  O  O299  1  0.25644413  0.24502196  0.11124575  1
  O  O300  1  0.25857460  0.25704122  0.61832894  1
  O  O301  1  0.25751190  0.75119561  0.11249656  1
  O  O302  1  0.26699514  0.74354264  0.61357063  1
  O  O303  1  0.76254502  0.25261260  0.12640355  1
  O  O304  1  0.76072961  0.24888458  0.61322676  1
  O  O305  1  0.75373037  0.74393835  0.10220324  1
  O  O306  1  0.75626622  0.75608915  0.62475618  1
  O  O307  1  0.25466145  0.24073860  0.38574342  1
  O  O308  1  0.24517939  0.24445391  0.88453376  1
  O  O309  1  0.25338184  0.74530451  0.38698702  1
  O  O310  1  0.25967135  0.74522764  0.88539868  1
  O  O311  1  0.74118639  0.24924087  0.37905814  1
  O  O312  1  0.76031627  0.24441511  0.89676108  1
  O  O313  1  0.73419520  0.75395645  0.39213969  1
  O  O314  1  0.74623415  0.75264079  0.88924171  1
  O  O315  1  0.00970643  0.13384288  0.01255871  1
  O  O316  1  0.01514134  0.12952751  0.49371521  1
  O  O317  1  0.01396665  0.63956076  -0.02983995  1
  O  O318  1  0.01437939  0.61021900  0.49881957  1
  O  O319  1  0.50232870  0.11830607  0.00226963  1
  O  O320  1  0.49254845  0.11280224  0.50092844  1
  O  O321  1  0.50290233  0.61434373  -0.00781876  1
  O  O322  1  0.50170067  0.62689766  0.51285081  1
  O  O323  1  0.49092034  0.37332398  0.49273152  1
  O  O324  1  0.48422449  0.38915357  1.00208345  1
  O  O325  1  0.48821675  0.88838895  0.49764700  1
  O  O326  1  0.49555981  0.88351075  0.99462996  1
  O  O327  1  0.99786794  0.38561011  0.49405862  1
  O  O328  1  0.98505884  0.36418832  0.99170410  1
  O  O329  1  0.99590436  0.87657844  0.49735828  1
  O  O330  1  1.02020689  0.87762381  0.97564871  1
  O  O331  1  0.50618848  0.48587219  0.37808005  1
  O  O332  1  0.49359279  0.49958990  0.88063261  1
  O  O333  1  0.49353795  1.00155550  0.38098406  1
  O  O334  1  0.49572989  0.99931537  0.88544774  1
  O  O335  1  0.99232234  0.49399408  0.38212888  1
  O  O336  1  1.00772286  0.48411520  0.87177532  1
  O  O337  1  0.99078868  0.99212313  0.38346402  1
  O  O338  1  0.99649212  0.99251814  0.86801933  1
  O  O339  1  0.00883617  0.01386088  0.13386955  1
  O  O340  1  0.01803336  -0.00110238  0.62271432  1
  O  O341  1  0.01265495  0.51488953  0.13704965  1
  O  O342  1  0.01219280  0.49338280  0.61826358  1
  O  O343  1  0.49681373  0.00130845  0.11297542  1
  O  O344  1  0.51070896  0.00711422  0.61720981  1
  O  O345  1  0.50115625  0.51009896  0.12015765  1
  O  O346  1  0.50827447  0.50925816  0.62216341  1
  O  O347  1  0.25058584  0.36885297  0.24573145  1
  O  O348  1  0.24420810  0.38067621  0.74543434  1
  O  O349  1  0.24799097  0.88565741  0.24385195  1
  O  O350  1  0.23660643  0.87209026  0.75221692  1
  O  O351  1  0.73761830  0.37936713  0.25144922  1
  O  O352  1  0.73086847  0.31293684  0.75378984  1
  O  O353  1  0.73322001  0.87496236  0.25065235  1
  O  O354  1  0.74409319  0.88426130  0.75146108  1
  O  O355  1  0.25264407  0.12370030  0.25636743  1
  O  O356  1  0.26093917  0.12632586  0.75602402  1
  O  O357  1  0.25051356  0.62943571  0.26784808  1
  O  O358  1  0.25618046  0.62464581  0.75672426  1
  O  O359  1  0.76455002  0.12854142  0.25370679  1
  O  O360  1  0.76727671  0.12063130  0.75299375  1
  O  O361  1  0.73304234  0.61116973  0.25141529  1
  O  O362  1  0.76223195  0.63047112  0.76593693  1
  O  O363  1  0.36493425  0.12151340  0.36700827  1
  O  O364  1  0.36921243  0.11928498  0.86760905  1
  O  O365  1  0.36347288  0.62502616  0.38225421  1
  O  O366  1  0.36892027  0.62107700  0.86575122  1
  O  O367  1  0.87541818  0.11495393  0.36855569  1
  O  O368  1  0.88055068  0.11515511  0.86688203  1
  O  O369  1  0.87477888  0.61044175  0.37448488  1
  O  O370  1  0.85954567  0.62128584  0.87026933  1
  O  O371  1  0.11217759  0.39086927  0.12755627  1
  O  O372  1  0.13211295  0.38278880  0.63068112  1
  O  O373  1  0.13216022  0.88762299  0.13455928  1
  O  O374  1  0.12366186  0.88159223  0.63657938  1
  O  O375  1  0.62213211  0.38770742  0.13613159  1
  O  O376  1  0.62507313  0.38587415  0.62431674  1
  O  O377  1  0.61998378  0.88865044  0.13648664  1
  O  O378  1  0.62443354  0.88682481  0.63803804  1
  O  O379  1  0.10900482  0.25049795  0.24660898  1
  O  O380  1  0.12133491  0.25357030  0.75345028  1
  O  O381  1  0.14443479  0.76977018  0.24595347  1
  O  O382  1  0.11902256  0.76076570  0.73900296  1
  O  O383  1  0.61962284  0.25552313  0.25284139  1
  O  O384  1  0.59634139  0.23757761  0.74300514  1
  O  O385  1  0.61797665  0.75983300  0.25276557  1
  O  O386  1  0.62055157  0.76216787  0.75037688  1
  O  O387  1  0.38320572  0.24758181  0.24386916  1
  O  O388  1  0.37651281  0.24415965  0.73992939  1
  O  O389  1  0.37901131  0.75626528  0.23484108  1
  O  O390  1  0.38155955  0.74833907  0.74091957  1
  O  O391  1  0.88260250  0.24453053  0.24311688  1
  O  O392  1  0.88808830  0.24091358  0.74611415  1
  O  O393  1  0.85196532  0.74095818  0.26307633  1
  O  O394  1  0.88255461  0.74724777  0.74686765  1
  O  O395  1  0.37765528  0.48728390  0.50745511  1
  O  O396  1  0.37705697  0.49627406  0.99386973  1
  O  O397  1  0.37811247  0.99626325  0.49648301  1
  O  O398  1  0.38067959  0.99645531  0.99625751  1
  O  O399  1  0.88169311  0.50089431  0.49768509  1
  O  O400  1  0.87117044  0.48339320  1.00628318  1
  O  O401  1  0.87792953  0.99208493  0.50004847  1
  O  O402  1  0.87833669  1.00431338  0.98799901  1
  O  O403  1  0.13172786  0.00726816  0.01335992  1
  O  O404  1  0.12620810  0.01138580  0.50702992  1
  O  O405  1  0.12324060  0.49703852  0.01199727  1
  O  O406  1  0.12279580  0.50429072  0.50689790  1
  O  O407  1  0.61742089  0.00226349  0.01283452  1
  O  O408  1  0.61741981  -0.00672349  0.50889331  1
  O  O409  1  0.61305185  0.49867871  0.01249682  1
  O  O410  1  0.62346733  0.50165366  0.51096717  1
  O  O411  1  0.37229908  0.36453731  0.11428064  1
  O  O412  1  0.36902839  0.36818794  0.61686427  1
  O  O413  1  0.36738909  0.86803501  0.11763010  1
  O  O414  1  0.38049694  0.86792037  0.61661959  1
  O  O415  1  0.87951428  0.36710144  0.11768633  1
  O  O416  1  0.86907148  0.36208444  0.63048252  1
  O  O417  1  0.87887930  0.86887636  0.12198922  1
  O  O418  1  0.87774517  0.86781701  0.61784282  1
  O  O419  1  0.13561862  0.11895213  0.38010240  1
  O  O420  1  0.12871533  0.12992275  0.88032174  1
  O  O421  1  0.14074562  0.61933831  0.39053685  1
  O  O422  1  0.13280159  0.63620853  0.86435102  1
  O  O423  1  0.62660794  0.13709732  0.36584314  1
  O  O424  1  0.63260176  0.13961546  0.87521221  1
  O  O425  1  0.61712295  0.64249879  0.38091409  1
  O  O426  1  0.63819316  0.62672480  0.87345044  1
