# generated using pymatgen
data_V85Zn86O256
_symmetry_space_group_name_H-M   'P 1'
_cell_length_a   16.93512940
_cell_length_b   16.92782506
_cell_length_c   16.94122816
_cell_angle_alpha   89.95676731
_cell_angle_beta   90.05802254
_cell_angle_gamma   89.95851323
_symmetry_Int_Tables_number   1
_chemical_formula_structural   V85Zn86O256
_chemical_formula_sum   'V85 Zn86 O256'
_cell_volume   4856.61987504
_cell_formula_units_Z   1
loop_
 _symmetry_equiv_pos_site_id
 _symmetry_equiv_pos_as_xyz
  1  'x, y, z'
loop_
 _atom_site_type_symbol
 _atom_site_label
 _atom_site_symmetry_multiplicity
 _atom_site_fract_x
 _atom_site_fract_y
 _atom_site_fract_z
 _atom_site_occupancy
  V  V0  1  0.87907717  0.87875671  0.50071420  1
  V  V1  1  0.12754061  0.61622078  0.00487532  1
  V  V2  1  0.62437888  0.12729312  0.00191894  1
  V  V3  1  0.48951079  0.62286439  0.61773719  1
  V  V4  1  -0.00311464  0.36854123  0.87005524  1
  V  V5  1  0.87642610  0.62131784  0.25252052  1
  V  V6  1  -0.00542579  0.24091808  0.25632980  1
  V  V7  1  0.12610800  0.62025385  0.50428152  1
  V  V8  1  0.01621314  0.00708243  0.00606378  1
  V  V9  1  0.87785286  0.87939919  -0.00255498  1
  V  V10  1  0.37389070  -0.00010271  0.87652957  1
  V  V11  1  0.49146215  -0.00567380  0.48776620  1
  V  V12  1  0.49816932  0.12815200  0.62386795  1
  V  V13  1  0.61977605  0.87821821  0.25240950  1
  V  V14  1  0.62171668  0.62387474  0.00425956  1
  V  V15  1  0.75229799  0.87705382  0.12456729  1
  V  V16  1  0.61425738  0.25289486  0.87410161  1
  V  V17  1  0.00165664  0.86924884  0.87815646  1
  V  V18  1  0.00586781  0.75200697  0.24826693  1
  V  V19  1  0.48718297  0.25249177  0.24851219  1
  V  V20  1  0.74948722  0.25015047  0.00139554  1
  V  V21  1  0.89381326  0.01199765  0.85215829  1
  V  V22  1  0.24196257  0.37561362  0.61453794  1
  V  V23  1  0.62255544  0.37536718  0.24911117  1
  V  V24  1  0.37863427  0.62390347  0.23861000  1
  V  V25  1  0.14475514  0.13300122  0.50449588  1
  V  V26  1  0.87789328  0.00556678  0.36477598  1
  V  V27  1  0.12200553  0.37625973  0.24113817  1
  V  V28  1  0.62125636  0.87200905  0.74897058  1
  V  V29  1  0.63002936  0.50071490  0.62260152  1
  V  V30  1  0.88952326  0.24146225  0.63801334  1
  V  V31  1  0.75084449  0.74825325  -0.00163981  1
  V  V32  1  0.87790010  0.75133375  0.12354329  1
  V  V33  1  0.75118338  0.75122987  0.49781912  1
  V  V34  1  0.61514025  0.62185036  0.49812712  1
  V  V35  1  0.62372002  0.75525490  0.37374419  1
  V  V36  1  0.75243375  0.62361065  0.37533539  1
  V  V37  1  0.12004643  0.37876612  0.74611572  1
  V  V38  1  0.37286362  0.12909176  0.74936660  1
  V  V39  1  0.62262101  0.25070918  0.37591992  1
  V  V40  1  0.37795194  0.37219815  -0.01881507  1
  V  V41  1  -0.00743853  0.37903117  0.37546668  1
  V  V42  1  0.25445421  0.49488486  0.75270280  1
  V  V43  1  0.37532271  0.61994865  0.75709313  1
  V  V44  1  0.25838259  0.86871196  0.62419007  1
  V  V45  1  0.25108974  0.24207273  0.00640955  1
  V  V46  1  0.24796797  0.00275513  0.74809909  1
  V  V47  1  0.75129521  0.49988574  0.25188561  1
  V  V48  1  0.74362564  0.00387757  0.75015283  1
  V  V49  1  0.75349726  0.00437686  0.24924806  1
  V  V50  1  0.62211046  0.00071047  0.62023002  1
  V  V51  1  0.75048014  0.25313005  0.50697780  1
  V  V52  1  0.37795414  0.37759314  0.50202511  1
  V  V53  1  0.75216233  0.87682632  0.62464139  1
  V  V54  1  0.49187434  0.74847657  0.74361559  1
  V  V55  1  -0.00179769  0.74894768  0.74808124  1
  V  V56  1  0.49262202  0.50056508  -0.01379181  1
  V  V57  1  0.86704771  0.61862109  0.75019806  1
  V  V58  1  0.50055940  0.38585916  0.38102341  1
  V  V59  1  0.88022370  0.37327230  0.00494564  1
  V  V60  1  0.75505671  0.12920485  0.37138247  1
  V  V61  1  -0.00736887  0.50188494  0.49588318  1
  V  V62  1  0.62472429  0.74845548  0.87327284  1
  V  V63  1  0.12444028  0.24660994  0.87306068  1
  V  V64  1  0.62318942  0.38500352  0.75622271  1
  V  V65  1  0.61545113  0.50098070  0.12485023  1
  V  V66  1  0.24562522  0.50247393  0.24467033  1
  V  V67  1  0.12347787  0.87414680  0.74615056  1
  V  V68  1  0.50072986  0.74708951  0.24046467  1
  V  V69  1  0.00332614  0.61498052  0.62914119  1
  V  V70  1  0.87337932  0.23992631  0.13308145  1
  V  V71  1  0.00475708  0.87600075  0.37319227  1
  V  V72  1  -0.00037514  0.01613953  0.50291386  1
  V  V73  1  0.13794899  0.25266316  0.37921011  1
  V  V74  1  0.49847960  -0.00028287  0.00087998  1
  V  V75  1  0.86816797  0.49585901  0.87345571  1
  V  V76  1  0.12783274  0.75305875  0.37728509  1
  V  V77  1  0.75289883  0.12594781  0.87323024  1
  V  V78  1  0.23036097  -0.01085650  0.25508515  1
  V  V79  1  0.48666809  0.12872650  0.12703846  1
  V  V80  1  0.26417825  0.37421803  0.12668041  1
  V  V81  1  0.87734974  0.75147110  0.62517864  1
  V  V82  1  0.36725434  0.11307631  0.26862954  1
  V  V83  1  0.25210140  0.62479282  0.37300941  1
  V  V84  1  0.62675303  0.00353452  0.12467230  1
  Zn  Zn85  1  0.49557381  0.25757481  0.74984038  1
  Zn  Zn86  1  0.24323681  0.12317131  0.87959135  1
  Zn  Zn87  1  0.62202548  0.12645651  0.49899491  1
  Zn  Zn88  1  0.36745248  0.24829221  0.61585080  1
  Zn  Zn89  1  0.37543889  0.75295669  0.11941575  1
  Zn  Zn90  1  0.25914602  0.74217940  0.51042613  1
  Zn  Zn91  1  0.24023897  0.87451874  0.12264313  1
  Zn  Zn92  1  0.25058715  0.61963134  0.87643206  1
  Zn  Zn93  1  0.74721544  0.61807300  0.87214371  1
  Zn  Zn94  1  0.38165219  0.50950490  0.38107380  1
  Zn  Zn95  1  0.00486731  0.49384531  0.00756446  1
  Zn  Zn96  1  0.12254417  0.00826345  0.62511277  1
  Zn  Zn97  1  0.87278685  0.37809024  0.50314233  1
  Zn  Zn98  1  0.74762644  0.37473318  0.12490074  1
  Zn  Zn99  1  0.37757667  0.86796925  0.49221481  1
  Zn  Zn100  1  0.75296457  0.37934768  0.63034161  1
  Zn  Zn101  1  0.37108905  0.87404973  0.00516941  1
  Zn  Zn102  1  0.00719252  0.11283200  0.13619916  1
  Zn  Zn103  1  0.13192095  0.74195957  0.87220111  1
  Zn  Zn104  1  0.25398863  0.75004014  -0.00247118  1
  Zn  Zn105  1  0.00587267  0.61414531  0.12773730  1
  Zn  Zn106  1  0.49853449  0.87414375  0.87514739  1
  Zn  Zn107  1  0.19059967  0.18271723  0.19163489  1
  Zn  Zn108  1  0.18437966  0.19419489  0.68637589  1
  Zn  Zn109  1  0.18741462  0.69450219  0.18167440  1
  Zn  Zn110  1  0.18627983  0.68459314  0.69095600  1
  Zn  Zn111  1  0.68364512  0.18879057  0.18924262  1
  Zn  Zn112  1  0.68457502  0.18974000  0.69041649  1
  Zn  Zn113  1  0.68827029  0.68716513  0.18464550  1
  Zn  Zn114  1  0.68644246  0.68712871  0.68398638  1
  Zn  Zn115  1  0.31584918  0.31739201  0.31411702  1
  Zn  Zn116  1  0.30601595  0.30952830  0.80975739  1
  Zn  Zn117  1  0.31233560  0.81794506  0.30792174  1
  Zn  Zn118  1  0.31230152  0.81122320  0.81570586  1
  Zn  Zn119  1  0.81201491  0.31575101  0.31447060  1
  Zn  Zn120  1  0.80686449  0.31162498  0.80969906  1
  Zn  Zn121  1  0.81507725  0.81592989  0.31048909  1
  Zn  Zn122  1  0.81251332  0.81486100  0.81158956  1
  Zn  Zn123  1  0.18235285  0.44164339  0.43487205  1
  Zn  Zn124  1  0.18750653  0.43447092  0.93658443  1
  Zn  Zn125  1  0.19053935  0.94288092  0.43723082  1
  Zn  Zn126  1  0.18772664  0.93281810  0.93588444  1
  Zn  Zn127  1  0.68772681  0.43898427  0.43812843  1
  Zn  Zn128  1  0.68777104  0.43536874  0.93755275  1
  Zn  Zn129  1  0.68769339  0.94016478  0.43750843  1
  Zn  Zn130  1  0.68787840  0.93790939  0.93576609  1
  Zn  Zn131  1  0.30804357  0.05649402  0.07028787  1
  Zn  Zn132  1  0.31603821  0.05531254  0.56327042  1
  Zn  Zn133  1  0.30994540  0.55893859  0.06136323  1
  Zn  Zn134  1  0.31103295  0.55521089  0.56379320  1
  Zn  Zn135  1  0.82085505  0.06141607  0.05750217  1
  Zn  Zn136  1  0.81306927  0.06910449  0.55948435  1
  Zn  Zn137  1  0.81210769  0.56044579  0.06495476  1
  Zn  Zn138  1  0.81121789  0.56412345  0.56340690  1
  Zn  Zn139  1  0.43699748  0.44302627  0.18929845  1
  Zn  Zn140  1  0.44058281  0.43946370  0.68307171  1
  Zn  Zn141  1  0.43378723  0.93767899  0.18902221  1
  Zn  Zn142  1  0.43771942  0.94146400  0.68739451  1
  Zn  Zn143  1  0.93573868  0.43305915  0.18661394  1
  Zn  Zn144  1  0.93363501  0.43315322  0.68622674  1
  Zn  Zn145  1  1.06013466  0.93321984  0.18438043  1
  Zn  Zn146  1  0.94205080  0.95374898  0.69137183  1
  Zn  Zn147  1  0.06719466  0.07008445  0.32428492  1
  Zn  Zn148  1  0.06238287  0.06066199  0.81534352  1
  Zn  Zn149  1  0.06366390  0.56229639  0.31307633  1
  Zn  Zn150  1  0.06111560  0.55461008  0.81814356  1
  Zn  Zn151  1  0.56199925  0.06661619  0.31107566  1
  Zn  Zn152  1  0.56089802  0.06687765  0.81257968  1
  Zn  Zn153  1  0.56384045  0.56792902  0.31146199  1
  Zn  Zn154  1  0.56135345  0.56321446  0.81117781  1
  Zn  Zn155  1  0.43659909  0.19319658  0.44110135  1
  Zn  Zn156  1  0.43163541  0.18552783  0.93925836  1
  Zn  Zn157  1  0.41948186  0.72710033  0.41608983  1
  Zn  Zn158  1  0.43833349  0.68606466  0.93623951  1
  Zn  Zn159  1  0.93395884  0.19418161  0.43956188  1
  Zn  Zn160  1  0.93834581  0.18807373  0.93926984  1
  Zn  Zn161  1  0.93787329  0.68732694  0.43694089  1
  Zn  Zn162  1  0.94227434  0.68155730  0.93846541  1
  Zn  Zn163  1  0.08166950  0.26857045  0.08195238  1
  Zn  Zn164  1  0.06029648  0.31129919  0.56269443  1
  Zn  Zn165  1  0.06851821  0.80134783  0.05735213  1
  Zn  Zn166  1  0.06590655  0.81188019  0.56135241  1
  Zn  Zn167  1  0.55724054  0.31440812  0.06348768  1
  Zn  Zn168  1  0.56246709  0.31558593  0.56422724  1
  Zn  Zn169  1  0.56216459  0.81593556  0.06211308  1
  Zn  Zn170  1  0.56022528  0.81019465  0.56141499  1
  O  O171  1  0.10835066  0.16187008  0.12144154  1
  O  O172  1  0.12716214  0.12887380  0.60971066  1
  O  O173  1  0.12447385  0.62610417  0.11027903  1
  O  O174  1  0.11479516  0.63000588  0.61744391  1
  O  O175  1  0.61733459  0.12030007  0.12006852  1
  O  O176  1  0.61699985  0.11652574  0.62505850  1
  O  O177  1  0.62820458  0.61833790  0.11142766  1
  O  O178  1  0.62073897  0.62024689  0.61617995  1
  O  O179  1  0.38545196  0.37966032  0.38053759  1
  O  O180  1  0.37355306  0.37355850  0.88309496  1
  O  O181  1  0.38988426  0.83828881  0.38180292  1
  O  O182  1  0.37899925  0.89079348  0.87093427  1
  O  O183  1  0.88843136  0.37335704  0.37912777  1
  O  O184  1  0.87781906  0.37628370  0.87869439  1
  O  O185  1  0.88281679  0.88347269  0.38184638  1
  O  O186  1  0.88504342  0.88478117  0.87492645  1
  O  O187  1  0.24619676  -0.00021413  0.35595779  1
  O  O188  1  0.25491442  0.00271335  0.86445323  1
  O  O189  1  0.24821493  0.51262794  0.36628839  1
  O  O190  1  0.24969696  0.49651760  0.85734458  1
  O  O191  1  0.75740980  0.00993204  0.37302772  1
  O  O192  1  0.75223945  0.00866352  0.86713081  1
  O  O193  1  0.74206428  0.50792881  0.36073959  1
  O  O194  1  0.76279371  0.49895118  0.87686742  1
  O  O195  1  0.25162706  0.49126432  0.13744585  1
  O  O196  1  0.24878242  0.48610438  0.63609540  1
  O  O197  1  0.25237030  0.99887238  0.14852373  1
  O  O198  1  0.24627201  0.99234006  0.63556331  1
  O  O199  1  0.73819467  0.49975297  0.13556437  1
  O  O200  1  0.73656840  0.50175149  0.62356300  1
  O  O201  1  0.74839235  0.99864652  0.12840125  1
  O  O202  1  0.74013719  0.99931348  0.62885536  1
  O  O203  1  0.00651781  0.37087982  0.25916515  1
  O  O204  1  0.00780975  0.38017442  0.75775073  1
  O  O205  1  -0.00010993  0.86699591  0.26508003  1
  O  O206  1  0.00647545  0.87303448  0.75529024  1
  O  O207  1  0.50300985  0.36924099  0.25588822  1
  O  O208  1  0.51555433  0.37304804  0.74321363  1
  O  O209  1  0.51573111  0.87038886  0.24568076  1
  O  O210  1  0.50486689  0.86674616  0.74750029  1
  O  O211  1  0.49280795  0.13263664  0.24531059  1
  O  O212  1  0.49030320  0.12605412  0.74183933  1
  O  O213  1  0.49129135  0.63220602  0.25092713  1
  O  O214  1  0.49345108  0.62888403  0.74172808  1
  O  O215  1  0.99933403  0.13752009  0.25658498  1
  O  O216  1  0.95825401  0.05115859  0.77251786  1
  O  O217  1  0.99119197  0.63133707  0.25101684  1
  O  O218  1  0.99330520  0.62717943  0.74418275  1
  O  O219  1  0.36683865  0.26364417  -0.00437909  1
  O  O220  1  0.37420722  0.26780819  0.49942793  1
  O  O221  1  0.37953906  0.75410890  0.00027275  1
  O  O222  1  0.37193336  0.75189302  0.51462923  1
  O  O223  1  0.86810260  0.25389662  0.00787684  1
  O  O224  1  0.86489817  0.25430289  0.50810219  1
  O  O225  1  0.87231844  0.75385141  0.00475519  1
  O  O226  1  0.87094629  0.75670378  0.50474851  1
  O  O227  1  0.12418278  0.24274940  0.49205496  1
  O  O228  1  0.14479357  0.26519153  0.98703137  1
  O  O229  1  0.12948552  0.73879579  0.49353820  1
  O  O230  1  0.12572432  0.73072431  0.99008926  1
  O  O231  1  0.63010652  0.25024678  0.49151803  1
  O  O232  1  0.62917514  0.24763179  0.99507058  1
  O  O233  1  0.63154938  0.74718052  0.49082840  1
  O  O234  1  0.62570848  0.74262924  0.99285602  1
  O  O235  1  0.50609461  0.24101872  0.13674416  1
  O  O236  1  0.49847201  0.23707128  0.62397213  1
  O  O237  1  0.50639151  0.75074047  0.13697509  1
  O  O238  1  0.51176207  0.73716854  0.63584224  1
  O  O239  1  0.98486119  0.26127115  0.14323839  1
  O  O240  1  0.98948735  0.25021297  0.62736131  1
  O  O241  1  0.99162332  0.74307614  0.13337865  1
  O  O242  1  0.99461297  0.74218649  0.62863379  1
  O  O243  1  0.00415061  0.25965419  0.37189391  1
  O  O244  1  0.00641960  0.26008269  0.88019652  1
  O  O245  1  0.00517704  0.75733283  0.37075417  1
  O  O246  1  -0.00418397  0.75973647  0.86778942  1
  O  O247  1  0.50764689  0.25791766  0.36837431  1
  O  O248  1  0.51178336  0.24198018  0.87650243  1
  O  O249  1  0.52077118  0.74246850  0.35934479  1
  O  O250  1  0.51149105  0.74993644  0.86476124  1
  O  O251  1  0.24306143  0.12325673  0.50288680  1
  O  O252  1  0.25907248  0.13869888  1.00124552  1
  O  O253  1  0.24265321  0.62185818  0.49362160  1
  O  O254  1  0.24061715  0.61964646  0.99591906  1
  O  O255  1  0.74437032  0.13298107  0.48764564  1
  O  O256  1  0.74491042  0.13074353  0.99396411  1
  O  O257  1  0.74575997  0.63297698  0.49323316  1
  O  O258  1  0.74149107  0.63087255  0.99683792  1
  O  O259  1  0.26434908  0.37455457  0.00643530  1
  O  O260  1  0.25097141  0.38381399  0.51085634  1
  O  O261  1  0.25320057  0.87238695  0.00117320  1
  O  O262  1  0.24613738  0.87842951  0.51715649  1
  O  O263  1  0.75757451  0.36434848  -0.00039654  1
  O  O264  1  0.75145765  0.36711579  0.50057557  1
  O  O265  1  0.75687210  0.86987104  0.00276912  1
  O  O266  1  0.75710998  0.87229754  0.50556081  1
  O  O267  1  0.13374246  0.48918430  0.25631278  1
  O  O268  1  0.13473768  0.48717047  0.75195334  1
  O  O269  1  0.12481750  1.00446603  0.25110962  1
  O  O270  1  0.13234087  0.99426005  0.74815807  1
  O  O271  1  0.62758489  0.49715989  0.24167435  1
  O  O272  1  0.62381909  0.49147578  0.74528173  1
  O  O273  1  0.63108509  0.99552340  0.24579482  1
  O  O274  1  0.62702213  0.99376085  0.74275064  1
  O  O275  1  0.38048199  0.01227708  0.25834341  1
  O  O276  1  0.36875168  0.01008130  0.75492729  1
  O  O277  1  0.36727832  0.50784204  0.25674767  1
  O  O278  1  0.36385717  0.50407162  0.74437444  1
  O  O279  1  0.86903155  -0.00175998  0.26432612  1
  O  O280  1  0.84467845  -0.02554146  0.75242307  1
  O  O281  1  0.86313894  0.50909766  0.24561743  1
  O  O282  1  0.87865435  0.50796393  0.75784110  1
  O  O283  1  0.11651092  0.36687485  0.37166690  1
  O  O284  1  0.11508161  0.36984541  0.86798449  1
  O  O285  1  0.11932244  0.86190447  0.38468306  1
  O  O286  1  0.11776833  0.87167512  0.86222500  1
  O  O287  1  0.61933518  0.36735491  0.37105898  1
  O  O288  1  0.62588794  0.36858207  0.86529519  1
  O  O289  1  0.63508209  0.86764267  0.36467894  1
  O  O290  1  0.62199686  0.86735857  0.86781317  1
  O  O291  1  0.38515377  0.12220224  0.13398329  1
  O  O292  1  0.38006742  0.12619719  0.63119999  1
  O  O293  1  0.37277759  0.62139071  0.13637835  1
  O  O294  1  0.38651443  0.61714146  0.63082758  1
  O  O295  1  0.88195910  0.13702316  0.12154173  1
  O  O296  1  0.87051453  0.14173874  0.62287304  1
  O  O297  1  0.86895102  0.63688093  0.13633510  1
  O  O298  1  0.88184356  0.63037011  0.63252732  1
  O  O299  1  0.25126112  0.25832615  0.11358200  1
  O  O300  1  0.25222432  0.27068339  0.63058611  1
  O  O301  1  0.25680651  0.75292119  0.11883789  1
  O  O302  1  0.24293817  0.76590232  0.62970307  1
  O  O303  1  0.75477391  0.24861037  0.11993170  1
  O  O304  1  0.74380456  0.24939541  0.61226526  1
  O  O305  1  0.75526593  0.75560251  0.11746726  1
  O  O306  1  0.75627503  0.75653054  0.61824815  1
  O  O307  1  0.23613498  0.25965565  0.37363235  1
  O  O308  1  0.24354166  0.24662136  0.88367472  1
  O  O309  1  0.24014964  0.73874234  0.37236497  1
  O  O310  1  0.25013592  0.73990202  0.87483149  1
  O  O311  1  0.74393107  0.24675622  0.38180803  1
  O  O312  1  0.74124070  0.24181358  0.88113251  1
  O  O313  1  0.74352635  0.74548275  0.37658322  1
  O  O314  1  0.73884854  0.75014536  0.87924414  1
  O  O315  1  -0.00217589  0.10814841  -0.00175759  1
  O  O316  1  0.00317056  0.11729932  0.49302949  1
  O  O317  1  0.01136085  0.61871488  0.00237401  1
  O  O318  1  0.00458454  0.62127286  0.50699121  1
  O  O319  1  0.50185082  0.11847870  0.00815328  1
  O  O320  1  0.49966576  0.11524325  0.50677035  1
  O  O321  1  0.50632732  0.60926191  -0.00399366  1
  O  O322  1  0.51271354  0.63371943  0.50458288  1
  O  O323  1  0.49406670  0.37380345  0.49120590  1
  O  O324  1  0.48518632  0.38192948  1.00234070  1
  O  O325  1  0.50262807  0.89204441  0.50840164  1
  O  O326  1  0.50197940  0.89077319  0.99736544  1
  O  O327  1  1.00121677  0.38568983  0.49367666  1
  O  O328  1  0.98469407  0.37003820  0.99320681  1
  O  O329  1  0.99827136  0.88186941  0.49020556  1
  O  O330  1  0.99628342  0.87560069  0.99300483  1
  O  O331  1  0.50386212  0.48899365  0.37022256  1
  O  O332  1  0.50491299  0.49613283  0.88833090  1
  O  O333  1  0.51055296  1.00249634  0.39077308  1
  O  O334  1  0.49317579  1.00316986  0.88370761  1
  O  O335  1  1.00313965  0.49287676  0.38322724  1
  O  O336  1  0.98733247  0.48483570  0.88109433  1
  O  O337  1  0.99559926  0.99516026  0.38239975  1
  O  O338  1  1.00253102  0.98546416  0.89151712  1
  O  O339  1  -0.00349321  -0.00178180  0.11129629  1
  O  O340  1  0.00482754  -0.00368738  0.60599266  1
  O  O341  1  -0.00963511  0.50207622  0.12051593  1
  O  O342  1  -0.00347100  0.51111005  0.61933777  1
  O  O343  1  0.50633137  0.00864701  0.11892507  1
  O  O344  1  0.50577488  0.00989701  0.62035842  1
  O  O345  1  0.51140671  0.49579588  0.11636899  1
  O  O346  1  0.51443791  0.51328366  0.62702166  1
  O  O347  1  0.24577969  0.38172858  0.24499252  1
  O  O348  1  0.24609253  0.38271294  0.74217858  1
  O  O349  1  0.24281967  0.88541459  0.25066990  1
  O  O350  1  0.24336961  0.88154689  0.74334220  1
  O  O351  1  0.74123445  0.38343121  0.25101932  1
  O  O352  1  0.72880083  0.36901172  0.74657785  1
  O  O353  1  0.74421556  0.88317891  0.24324420  1
  O  O354  1  0.73554003  0.87507123  0.74304146  1
  O  O355  1  0.26288083  0.11864427  0.25105625  1
  O  O356  1  0.25530091  0.11848373  0.74841965  1
  O  O357  1  0.25352701  0.61919184  0.25415309  1
  O  O358  1  0.25765778  0.61178939  0.74538616  1
  O  O359  1  0.74403841  0.12107714  0.26336137  1
  O  O360  1  0.74120263  0.11532210  0.76018342  1
  O  O361  1  0.75488631  0.61999770  0.25468671  1
  O  O362  1  0.76354420  0.63145588  0.75128683  1
  O  O363  1  0.37884157  0.12846444  0.36576065  1
  O  O364  1  0.37172494  0.11533668  0.86696410  1
  O  O365  1  0.36535146  0.62904469  0.36535998  1
  O  O366  1  0.37803279  0.62034191  0.85979563  1
  O  O367  1  0.86627326  0.11890637  0.37990827  1
  O  O368  1  0.86233691  0.11882608  0.88086957  1
  O  O369  1  0.86797515  0.63232379  0.36103696  1
  O  O370  1  0.87535978  0.61497192  0.86725836  1
  O  O371  1  0.13431135  0.36341999  0.13989444  1
  O  O372  1  0.13361654  0.37296745  0.62983768  1
  O  O373  1  0.12386362  0.86135673  0.13089494  1
  O  O374  1  0.12913331  0.87852268  0.63587653  1
  O  O375  1  0.62658881  0.38235302  0.13044605  1
  O  O376  1  0.62636928  0.38523318  0.63174254  1
  O  O377  1  0.63302261  0.88381206  0.13027253  1
  O  O378  1  0.62993939  0.88315246  0.62879217  1
  O  O379  1  0.11741424  0.25702018  0.26572797  1
  O  O380  1  0.13240033  0.26678207  0.76006349  1
  O  O381  1  0.11115900  0.73927059  0.26050694  1
  O  O382  1  0.11567847  0.75677116  0.75118942  1
  O  O383  1  0.61689388  0.25700004  0.25800906  1
  O  O384  1  0.61920967  0.25737016  0.75946103  1
  O  O385  1  0.62551002  0.75801489  0.25357340  1
  O  O386  1  0.61925055  0.75220680  0.75641210  1
  O  O387  1  0.38434691  0.24281623  0.25490710  1
  O  O388  1  0.37624025  0.23880533  0.74996481  1
  O  O389  1  0.38624350  0.74084621  0.24492714  1
  O  O390  1  0.38647555  0.74213866  0.75172678  1
  O  O391  1  0.87990279  0.25371842  0.24505889  1
  O  O392  1  0.86948841  0.25043658  0.73709659  1
  O  O393  1  0.88418879  0.74657291  0.24347142  1
  O  O394  1  0.88031555  0.74451790  0.74484797  1
  O  O395  1  0.37212161  0.48677413  0.49515440  1
  O  O396  1  0.38613417  0.49037184  1.00152650  1
  O  O397  1  0.38691644  0.99266205  0.49777933  1
  O  O398  1  0.38161443  1.00310923  0.99245394  1
  O  O399  1  0.88750720  0.50221861  0.50297978  1
  O  O400  1  0.87086486  0.48883900  0.99386884  1
  O  O401  1  0.88485059  0.99907778  0.49348377  1
  O  O402  1  0.88194298  0.99205094  0.98598659  1
  O  O403  1  0.11513173  -0.00038385  -0.00192183  1
  O  O404  1  0.11794753  0.01817538  0.49631704  1
  O  O405  1  0.12389616  0.50949111  -0.00539072  1
  O  O406  1  0.11318460  0.51409815  0.49620585  1
  O  O407  1  0.61865683  0.00749336  0.00325917  1
  O  O408  1  0.62034289  0.00272160  0.51024917  1
  O  O409  1  0.61745575  0.50364458  0.00473621  1
  O  O410  1  0.62818279  0.51180277  0.50594968  1
  O  O411  1  0.36646799  0.37592918  0.12514522  1
  O  O412  1  0.36696039  0.37501462  0.61763940  1
  O  O413  1  0.37273089  0.87337118  0.12355283  1
  O  O414  1  0.35952423  0.88059635  0.62889566  1
  O  O415  1  0.86673841  0.36475357  0.11805429  1
  O  O416  1  0.86978029  0.36339663  0.62288404  1
  O  O417  1  0.86846734  0.86043139  0.11749404  1
  O  O418  1  0.87182469  0.87319265  0.61977947  1
  O  O419  1  0.12564447  0.14358504  0.38852328  1
  O  O420  1  0.12310524  0.14058931  0.86683034  1
  O  O421  1  0.12940342  0.63360696  0.38263576  1
  O  O422  1  0.12585142  0.62200669  0.88211953  1
  O  O423  1  0.62967150  0.13894693  0.37474574  1
  O  O424  1  0.63238175  0.13114842  0.88205976  1
  O  O425  1  0.63344532  0.63187440  0.38149218  1
  O  O426  1  0.62673369  0.63087375  0.88274034  1
