# generated using pymatgen
data_V85Zn86O256
_symmetry_space_group_name_H-M   'P 1'
_cell_length_a   16.92556797
_cell_length_b   16.93649363
_cell_length_c   16.93281787
_cell_angle_alpha   90.04518084
_cell_angle_beta   89.99657699
_cell_angle_gamma   89.97815655
_symmetry_Int_Tables_number   1
_chemical_formula_structural   V85Zn86O256
_chemical_formula_sum   'V85 Zn86 O256'
_cell_volume   4853.95587585
_cell_formula_units_Z   1
loop_
 _symmetry_equiv_pos_site_id
 _symmetry_equiv_pos_as_xyz
  1  'x, y, z'
loop_
 _atom_site_type_symbol
 _atom_site_label
 _atom_site_symmetry_multiplicity
 _atom_site_fract_x
 _atom_site_fract_y
 _atom_site_fract_z
 _atom_site_occupancy
  V  V0  1  0.87912906  -0.00125465  0.87106229  1
  V  V1  1  0.37920429  0.12811265  0.74963612  1
  V  V2  1  0.74259202  0.88001647  0.12389995  1
  V  V3  1  0.25544713  0.62436815  0.36751705  1
  V  V4  1  0.50535965  0.11099232  0.61960106  1
  V  V5  1  -0.00296568  0.75523312  0.75364269  1
  V  V6  1  0.24605855  0.37303634  0.13200793  1
  V  V7  1  0.49260178  0.49306204  -0.00629455  1
  V  V8  1  0.88621162  0.49990663  0.87328274  1
  V  V9  1  0.74590338  0.62771730  0.86979267  1
  V  V10  1  0.38215251  -0.00909849  0.87499286  1
  V  V11  1  0.00550857  0.00338081  0.49724893  1
  V  V12  1  0.49996267  0.75530470  0.75946617  1
  V  V13  1  0.12166796  0.87546605  0.75421752  1
  V  V14  1  0.87292840  0.25141701  0.61820351  1
  V  V15  1  0.50010297  0.62460596  0.62637947  1
  V  V16  1  0.50072596  0.74790670  0.25810457  1
  V  V17  1  0.62966233  0.49860956  0.62213054  1
  V  V18  1  0.37763402  0.50053306  0.36460040  1
  V  V19  1  0.50624333  0.26228514  0.75276758  1
  V  V20  1  -0.00149969  0.62214233  0.12512474  1
  V  V21  1  0.25094521  0.24908922  -0.00002938  1
  V  V22  1  0.50306200  0.24835301  0.25282029  1
  V  V23  1  0.62349924  0.62781949  0.49173383  1
  V  V24  1  0.11942321  0.49380844  0.13416895  1
  V  V25  1  0.62653733  0.12678706  -0.00265650  1
  V  V26  1  0.12571379  0.00435524  0.62147447  1
  V  V27  1  0.50662577  0.11862205  0.12521473  1
  V  V28  1  0.00164387  0.49913284  0.50273781  1
  V  V29  1  0.36839236  0.87474518  0.00532102  1
  V  V30  1  0.25032935  -0.00133550  0.74975773  1
  V  V31  1  0.48961605  0.62515373  0.12983716  1
  V  V32  1  0.25234451  0.12295044  0.87440413  1
  V  V33  1  0.87578612  0.12726540  0.24915160  1
  V  V34  1  0.62718194  0.49703760  0.12766249  1
  V  V35  1  0.62084567  0.62782210  0.00208278  1
  V  V36  1  0.87900502  0.38333817  0.00703322  1
  V  V37  1  0.36925127  0.12300725  0.25492816  1
  V  V38  1  0.87241376  0.75165833  0.62409400  1
  V  V39  1  0.12533208  0.62195140  0.50219322  1
  V  V40  1  0.00489534  0.25467264  0.74679803  1
  V  V41  1  0.86726016  0.25313273  0.12395309  1
  V  V42  1  0.12602376  0.25033285  0.87091809  1
  V  V43  1  -0.00027621  -0.00052334  -0.00361005  1
  V  V44  1  0.01483524  0.37410988  0.37211953  1
  V  V45  1  0.74338519  0.00265815  0.74580628  1
  V  V46  1  0.74971701  0.75162434  -0.00010037  1
  V  V47  1  0.36763728  0.75300603  0.13182203  1
  V  V48  1  0.13172138  -0.00749286  0.12276823  1
  V  V49  1  0.37170392  0.25218805  0.61249217  1
  V  V50  1  0.49269504  0.49419451  0.50169253  1
  V  V51  1  0.87498348  0.00244110  0.37438499  1
  V  V52  1  0.50905221  -0.00894430  0.00016708  1
  V  V53  1  0.87746769  0.87606346  -0.00522157  1
  V  V54  1  0.25248387  -0.01012107  0.24969746  1
  V  V55  1  0.01251568  0.25492659  0.25017531  1
  V  V56  1  0.12251108  0.75082754  0.87913566  1
  V  V57  1  0.36552820  0.62060801  0.75394783  1
  V  V58  1  0.63458422  0.37222668  0.24973453  1
  V  V59  1  0.73954355  0.87750284  0.62556811  1
  V  V60  1  0.87249128  0.37450104  0.49475740  1
  V  V61  1  0.88041872  0.75374929  0.12952169  1
  V  V62  1  0.74236304  0.00344248  0.24888700  1
  V  V63  1  0.12203751  0.61254366  0.00023982  1
  V  V64  1  0.74424352  0.37251725  0.61745782  1
  V  V65  1  0.49505904  0.37060541  0.37918092  1
  V  V66  1  0.12119896  0.75004386  0.36729460  1
  V  V67  1  0.00019773  0.12645051  0.12327920  1
  V  V68  1  0.13488305  0.39191632  0.74674267  1
  V  V69  1  0.12524602  0.12395065  -0.00218128  1
  V  V70  1  0.00062171  0.62498401  0.62301416  1
  V  V71  1  0.62644308  0.87020981  0.25919691  1
  V  V72  1  0.37872482  -0.00168871  0.38346428  1
  V  V73  1  0.37454032  0.75135614  0.62485603  1
  V  V74  1  0.37635763  0.24919907  0.12457205  1
  V  V75  1  0.87588810  0.62787304  0.25251026  1
  V  V76  1  0.25216137  0.38468920  0.61546858  1
  V  V77  1  0.74576003  0.75116101  0.49143780  1
  V  V78  1  0.24903324  0.75370750  0.49808645  1
  V  V79  1  0.69062090  0.44425583  0.79831987  1
  V  V80  1  0.63189682  0.11722970  0.50048884  1
  V  V81  1  0.87711908  0.12719609  0.74764087  1
  V  V82  1  0.00179484  0.87475843  0.36556849  1
  V  V83  1  0.87077618  0.62155264  0.74942838  1
  V  V84  1  0.18279214  0.18824151  0.43802678  1
  Zn  Zn85  1  0.74492196  0.62546751  0.36941630  1
  Zn  Zn86  1  0.24963902  0.49550144  0.25104932  1
  Zn  Zn87  1  0.38144546  0.87936254  0.50340168  1
  Zn  Zn88  1  0.12531349  0.86838084  0.24139576  1
  Zn  Zn89  1  0.36655880  0.48197454  0.86098781  1
  Zn  Zn90  1  0.61579971  0.88614313  0.75556092  1
  Zn  Zn91  1  0.24669771  0.87504712  0.62302946  1
  Zn  Zn92  1  0.62562422  0.26052585  0.87173931  1
  Zn  Zn93  1  0.24668013  0.61934154  0.87755511  1
  Zn  Zn94  1  0.75401459  0.13279248  0.38253173  1
  Zn  Zn95  1  0.87448835  0.87574674  0.49879273  1
  Zn  Zn96  1  0.61944682  0.76276111  0.88113955  1
  Zn  Zn97  1  0.37813992  0.36800291  -0.00814204  1
  Zn  Zn98  1  0.74965984  0.13017458  0.87379404  1
  Zn  Zn99  1  0.24524507  0.75205162  0.00613961  1
  Zn  Zn100  1  0.00551382  0.13048457  0.61673289  1
  Zn  Zn101  1  0.50785031  0.87534306  0.38586523  1
  Zn  Zn102  1  0.63544772  0.25583208  0.39242161  1
  Zn  Zn103  1  0.00570930  0.37988875  0.87680290  1
  Zn  Zn104  1  0.75174845  0.50005173  0.24846020  1
  Zn  Zn105  1  0.74861598  0.25386511  -0.00305123  1
  Zn  Zn106  1  0.87241918  0.50113237  0.37293203  1
  Zn  Zn107  1  0.18904845  0.18115499  0.18753066  1
  Zn  Zn108  1  0.19119774  0.18800783  0.68194859  1
  Zn  Zn109  1  0.18693467  0.68285813  0.18758231  1
  Zn  Zn110  1  0.18555785  0.68849812  0.68525864  1
  Zn  Zn111  1  0.68714744  0.18695007  0.18955187  1
  Zn  Zn112  1  0.68596354  0.18896438  0.68295438  1
  Zn  Zn113  1  0.68772544  0.68931522  0.18581823  1
  Zn  Zn114  1  0.68391837  0.68890568  0.68507503  1
  Zn  Zn115  1  0.31119097  0.30976649  0.31870976  1
  Zn  Zn116  1  0.31256217  0.31206744  0.80982589  1
  Zn  Zn117  1  0.31423907  0.81466314  0.31271845  1
  Zn  Zn118  1  0.30833957  0.81062905  0.81455314  1
  Zn  Zn119  1  0.81650293  0.30994700  0.31377837  1
  Zn  Zn120  1  0.81699384  0.30953937  0.81578040  1
  Zn  Zn121  1  0.81408752  0.81431477  0.31132069  1
  Zn  Zn122  1  0.80731336  0.81466960  0.81262826  1
  Zn  Zn123  1  0.19061397  0.43825824  0.44080074  1
  Zn  Zn124  1  0.19407681  0.43598832  0.93858985  1
  Zn  Zn125  1  0.19099856  0.94151241  0.43254886  1
  Zn  Zn126  1  0.18891887  0.93543481  0.93490439  1
  Zn  Zn127  1  0.68694368  0.44011724  0.43379101  1
  Zn  Zn128  1  0.69323270  0.43987328  0.96275159  1
  Zn  Zn129  1  0.68684549  0.94418537  0.44069341  1
  Zn  Zn130  1  0.68958484  0.94248173  0.93264896  1
  Zn  Zn131  1  0.31596191  0.06165508  0.06386748  1
  Zn  Zn132  1  0.30837597  0.06894118  0.56191993  1
  Zn  Zn133  1  0.30726122  0.56229005  0.06117788  1
  Zn  Zn134  1  0.31330178  0.56525879  0.55939636  1
  Zn  Zn135  1  0.81051465  0.06347421  0.06284244  1
  Zn  Zn136  1  0.81526476  0.06171076  0.56270284  1
  Zn  Zn137  1  0.81179303  0.56378937  0.06234166  1
  Zn  Zn138  1  0.81061489  0.56169251  0.55991765  1
  Zn  Zn139  1  0.44089018  0.43315172  0.18530464  1
  Zn  Zn140  1  0.43514408  0.43582073  0.68371013  1
  Zn  Zn141  1  0.44115597  0.93564248  0.18877889  1
  Zn  Zn142  1  0.43371481  0.93452958  0.68691543  1
  Zn  Zn143  1  0.93980628  0.43977462  0.18986299  1
  Zn  Zn144  1  0.93787937  0.43786202  0.68629240  1
  Zn  Zn145  1  0.93668606  0.94023953  0.18590940  1
  Zn  Zn146  1  0.93655722  0.93664699  0.68384191  1
  Zn  Zn147  1  0.06596697  0.06467417  0.30970077  1
  Zn  Zn148  1  0.05976759  0.06417653  0.80936752  1
  Zn  Zn149  1  0.05863001  0.56326772  0.31321233  1
  Zn  Zn150  1  0.06240008  0.56760866  0.80987844  1
  Zn  Zn151  1  0.56235059  0.06230098  0.31831823  1
  Zn  Zn152  1  0.56060909  0.06731756  0.81456191  1
  Zn  Zn153  1  0.56054560  0.56055117  0.31126986  1
  Zn  Zn154  1  0.55279698  0.57187910  0.81693320  1
  Zn  Zn155  1  0.44027219  0.18191098  0.43829580  1
  Zn  Zn156  1  0.44220744  0.18678359  0.93460749  1
  Zn  Zn157  1  0.43711943  0.68711870  0.43853674  1
  Zn  Zn158  1  0.43349894  0.68692983  0.94059008  1
  Zn  Zn159  1  0.94780506  0.18934372  0.43553583  1
  Zn  Zn160  1  0.93690984  0.19121253  0.93562250  1
  Zn  Zn161  1  0.93753547  0.69093807  0.43677442  1
  Zn  Zn162  1  0.93860843  0.68631433  0.93875823  1
  Zn  Zn163  1  0.05959603  0.31371139  0.06128320  1
  Zn  Zn164  1  0.06874262  0.31643933  0.56259201  1
  Zn  Zn165  1  0.05767733  0.81160922  0.05966978  1
  Zn  Zn166  1  0.06155213  0.81708884  0.55901061  1
  Zn  Zn167  1  0.56451155  0.31082251  0.06497448  1
  Zn  Zn168  1  0.55988870  0.30641324  0.56555680  1
  Zn  Zn169  1  0.55918098  0.81284521  0.06843830  1
  Zn  Zn170  1  0.56118201  0.81351963  0.56510169  1
  O  O171  1  0.11974693  0.11520404  0.11604689  1
  O  O172  1  0.12184182  0.10851544  0.63569862  1
  O  O173  1  0.11657260  0.61904194  0.12053093  1
  O  O174  1  0.11773234  0.63307218  0.61060921  1
  O  O175  1  0.61314048  0.13163970  0.11700550  1
  O  O176  1  0.61236931  0.12485852  0.61963491  1
  O  O177  1  0.61643282  0.62199444  0.11535101  1
  O  O178  1  0.62001897  0.61583310  0.61889504  1
  O  O179  1  0.38734267  0.38155830  0.37266399  1
  O  O180  1  0.37553582  0.37097774  0.87867488  1
  O  O181  1  0.37616646  0.88812229  0.37664606  1
  O  O182  1  0.37168008  0.88565288  0.88046284  1
  O  O183  1  0.88193479  0.37529587  0.38692632  1
  O  O184  1  0.87910496  0.38551256  0.88043239  1
  O  O185  1  0.88182080  0.88629764  0.37352803  1
  O  O186  1  0.86918815  0.88484389  0.88326442  1
  O  O187  1  0.26318604  -0.00125448  0.36227107  1
  O  O188  1  0.25799383  0.00537610  0.86938166  1
  O  O189  1  0.26005370  0.50466903  0.37521459  1
  O  O190  1  0.25740140  0.50669955  0.88234073  1
  O  O191  1  0.75988603  0.00450318  0.36769817  1
  O  O192  1  0.76403763  0.00759589  0.86466767  1
  O  O193  1  0.75380118  0.50643853  0.37010202  1
  O  O194  1  0.74904371  0.50288253  0.86693487  1
  O  O195  1  0.24267362  0.49018354  0.12747407  1
  O  O196  1  0.26072258  0.48457849  0.62128246  1
  O  O197  1  0.24138246  1.00460988  0.13099521  1
  O  O198  1  0.24375433  0.99731190  0.63143354  1
  O  O199  1  0.73180467  0.50632761  0.12318497  1
  O  O200  1  0.73734318  0.49395235  0.62270221  1
  O  O201  1  0.75824134  0.99028228  0.13570242  1
  O  O202  1  0.76115564  0.98860266  0.63388850  1
  O  O203  1  -0.00365720  0.36753110  0.25957902  1
  O  O204  1  0.01341462  0.37039942  0.74865469  1
  O  O205  1  0.00300094  0.88168054  0.26118112  1
  O  O206  1  0.00378786  0.86252392  0.74601767  1
  O  O207  1  0.50552283  0.36487448  0.25699931  1
  O  O208  1  0.49777570  0.36105780  0.74504440  1
  O  O209  1  0.51199761  0.86714407  0.24990664  1
  O  O210  1  0.49806287  0.85968208  0.74558941  1
  O  O211  1  0.49628454  0.12955029  0.24316435  1
  O  O212  1  0.49415108  0.12902190  0.73989295  1
  O  O213  1  0.50704399  0.63327413  0.23964857  1
  O  O214  1  0.48925857  0.63601266  0.74450913  1
  O  O215  1  0.99400448  0.13008784  0.24241343  1
  O  O216  1  0.99024967  0.13386807  0.74531574  1
  O  O217  1  0.99132220  0.62400415  0.23697284  1
  O  O218  1  0.99435371  0.63612283  0.74215692  1
  O  O219  1  0.37108364  0.24424801  0.00904348  1
  O  O220  1  0.38160188  0.24769073  0.51419274  1
  O  O221  1  0.37446504  0.75873797  0.00847154  1
  O  O222  1  0.36522044  0.74561238  0.50938694  1
  O  O223  1  0.87526303  0.25839761  0.00770599  1
  O  O224  1  0.88501472  0.25768554  0.51127503  1
  O  O225  1  0.86957755  0.75864355  0.00346094  1
  O  O226  1  0.86623175  0.75109198  0.50861365  1
  O  O227  1  0.11354240  0.24219649  0.49260437  1
  O  O228  1  0.12958410  0.24426498  0.99224560  1
  O  O229  1  0.13160034  0.74604220  0.49077155  1
  O  O230  1  0.12326513  0.74583757  0.99293038  1
  O  O231  1  0.61532137  0.22968680  0.50380554  1
  O  O232  1  0.62527153  0.24402611  0.99563042  1
  O  O233  1  0.63466682  0.73888595  0.51078915  1
  O  O234  1  0.62899607  0.74364499  1.00226843  1
  O  O235  1  0.49268457  0.24351322  0.13210510  1
  O  O236  1  0.48765367  0.24406649  0.63598271  1
  O  O237  1  0.49126103  0.74222019  0.13264174  1
  O  O238  1  0.49050663  0.74342447  0.63416994  1
  O  O239  1  0.99306452  0.24377169  0.12900807  1
  O  O240  1  0.99509290  0.25249356  0.63401731  1
  O  O241  1  0.98643729  0.74512314  0.12268333  1
  O  O242  1  0.99106027  0.74659781  0.62837648  1
  O  O243  1  -0.00331541  0.26109214  0.36230998  1
  O  O244  1  0.00536451  0.25245765  0.86096628  1
  O  O245  1  0.00962013  0.76113300  0.38078152  1
  O  O246  1  0.00896179  0.74477143  0.86548468  1
  O  O247  1  0.50027968  0.25518364  0.36801300  1
  O  O248  1  0.50444496  0.24590423  0.85835106  1
  O  O249  1  0.49503781  0.74980626  0.36153013  1
  O  O250  1  0.49830311  0.74600376  0.86262906  1
  O  O251  1  0.23942606  0.13442893  0.50404861  1
  O  O252  1  0.24610036  0.12929922  0.99502874  1
  O  O253  1  0.24224630  0.63266138  0.49231441  1
  O  O254  1  0.23575946  0.63158277  1.00269629  1
  O  O255  1  0.73759357  0.12114552  0.50328740  1
  O  O256  1  0.73860442  0.12703376  1.00095839  1
  O  O257  1  0.74127689  0.63312055  0.49921586  1
  O  O258  1  0.74159211  0.62846772  0.99046958  1
  O  O259  1  0.25221464  0.36323641  0.01255104  1
  O  O260  1  0.24336674  0.37160242  0.51641817  1
  O  O261  1  0.26344075  0.87354643  -0.00194649  1
  O  O262  1  0.25233860  0.86232421  0.49864419  1
  O  O263  1  0.77093941  0.37032940  0.00059676  1
  O  O264  1  0.75893087  0.37966286  0.50673462  1
  O  O265  1  0.75898619  0.87553862  0.00756777  1
  O  O266  1  0.74971397  0.86928176  0.50744834  1
  O  O267  1  0.12639543  0.50421910  0.23794596  1
  O  O268  1  0.12322186  0.49027189  0.74981805  1
  O  O269  1  0.13494315  1.00024423  0.23917173  1
  O  O270  1  0.12685881  0.99131162  0.74684724  1
  O  O271  1  0.62374319  0.49073972  0.24352173  1
  O  O272  1  0.62241834  0.50307840  0.74627916  1
  O  O273  1  0.63743567  0.99548446  0.25373960  1
  O  O274  1  0.64001593  1.00681495  0.75318946  1
  O  O275  1  0.36953827  0.00467109  0.25242727  1
  O  O276  1  0.37259576  0.00626996  0.75759412  1
  O  O277  1  0.37749537  0.49713151  0.26112253  1
  O  O278  1  0.38434476  0.51759812  0.74790232  1
  O  O279  1  0.86827078  0.00614692  0.25619036  1
  O  O280  1  0.87420429  0.00847553  0.75379633  1
  O  O281  1  0.87177604  0.51207929  0.24817795  1
  O  O282  1  0.87854432  0.50917098  0.75800249  1
  O  O283  1  0.11388728  0.38297449  0.37592722  1
  O  O284  1  0.12647537  0.37024832  0.86292360  1
  O  O285  1  0.11907017  0.86778929  0.37165278  1
  O  O286  1  0.12444990  0.86846022  0.86328676  1
  O  O287  1  0.61309470  0.37386944  0.36779116  1
  O  O288  1  0.63954442  0.38820936  0.86606382  1
  O  O289  1  0.62835417  0.87855915  0.36310707  1
  O  O290  1  0.63284348  0.87376755  0.86715257  1
  O  O291  1  0.38478406  0.13304311  0.13102672  1
  O  O292  1  0.38149942  0.13237707  0.63106970  1
  O  O293  1  0.38461243  0.63199869  0.12061262  1
  O  O294  1  0.37755063  0.63389378  0.63329268  1
  O  O295  1  0.88200099  0.13263041  0.12729666  1
  O  O296  1  0.87925688  0.13532147  0.62913201  1
  O  O297  1  0.87925068  0.63264164  0.12882596  1
  O  O298  1  0.87609268  0.63500485  0.62891801  1
  O  O299  1  0.25714196  0.25125572  0.12089958  1
  O  O300  1  0.26701347  0.25522783  0.63053406  1
  O  O301  1  0.26312186  0.74550211  0.12817276  1
  O  O302  1  0.25541388  0.75060299  0.61586426  1
  O  O303  1  0.76440551  0.24687181  0.12530601  1
  O  O304  1  0.76024577  0.26180794  0.63011519  1
  O  O305  1  0.75956894  0.75793731  0.11757452  1
  O  O306  1  0.75621878  0.75651058  0.62023603  1
  O  O307  1  0.24366130  0.24749514  0.37997001  1
  O  O308  1  0.24472896  0.24141947  0.87915306  1
  O  O309  1  0.24641190  0.74318905  0.38045423  1
  O  O310  1  0.23386817  0.74528032  0.87599592  1
  O  O311  1  0.74554732  0.24426200  0.36721723  1
  O  O312  1  0.74457650  0.24752431  0.87543502  1
  O  O313  1  0.75438611  0.74981900  0.38824762  1
  O  O314  1  0.74864586  0.74193930  0.88256994  1
  O  O315  1  0.00503571  0.12040222  0.00279655  1
  O  O316  1  -0.00281316  0.10856019  0.50013970  1
  O  O317  1  0.00698841  0.63023057  0.01366358  1
  O  O318  1  0.00549187  0.61993737  0.50214213  1
  O  O319  1  0.50660528  0.11698558  0.00704014  1
  O  O320  1  0.50278151  0.12220935  0.51536841  1
  O  O321  1  0.50463527  0.61935690  0.00754526  1
  O  O322  1  0.50590246  0.61971245  0.50796748  1
  O  O323  1  0.50634052  0.38273507  0.49229971  1
  O  O324  1  0.50118928  0.39037549  1.00581394  1
  O  O325  1  0.49410449  0.86692749  0.49771748  1
  O  O326  1  0.49295069  0.88610769  1.00561365  1
  O  O327  1  0.99546864  0.38319267  0.49598550  1
  O  O328  1  0.98503186  0.37090974  0.99311076  1
  O  O329  1  0.99692926  0.88515692  0.48829894  1
  O  O330  1  0.98477743  0.88271868  1.00297614  1
  O  O331  1  0.49474731  0.49316392  0.38156088  1
  O  O332  1  0.49326048  0.50710907  0.89159043  1
  O  O333  1  0.48320902  0.99462433  0.36686662  1
  O  O334  1  0.49135782  1.00537849  0.88540358  1
  O  O335  1  0.99515892  0.49473767  0.38474632  1
  O  O336  1  0.98926120  0.50364398  0.87426580  1
  O  O337  1  0.99635028  0.99493153  0.37810902  1
  O  O338  1  0.98758037  1.00466009  0.87921287  1
  O  O339  1  0.00492391  0.00827852  0.11712052  1
  O  O340  1  0.00691457  -0.00137993  0.61519934  1
  O  O341  1  0.00710858  0.50822732  0.12456248  1
  O  O342  1  -0.00568633  0.50826291  0.61164654  1
  O  O343  1  0.49543556  0.00960902  0.11576091  1
  O  O344  1  0.49416235  0.01307530  0.63051505  1
  O  O345  1  0.50661745  0.50871060  0.12054570  1
  O  O346  1  0.50877799  0.50156327  0.61886761  1
  O  O347  1  0.25671431  0.37265822  0.23597178  1
  O  O348  1  0.23867525  0.37265591  0.74219180  1
  O  O349  1  0.24726183  0.88574671  0.24833668  1
  O  O350  1  0.24023206  0.88109468  0.74942738  1
  O  O351  1  0.73738566  0.37599007  0.25249738  1
  O  O352  1  0.75146630  0.38228550  0.74308027  1
  O  O353  1  0.74508474  0.88074097  0.24350022  1
  O  O354  1  0.75278922  0.88602208  0.74130809  1
  O  O355  1  0.26568749  0.11617912  0.24284185  1
  O  O356  1  0.26036010  0.11880467  0.75319092  1
  O  O357  1  0.24696057  0.61997737  0.26451623  1
  O  O358  1  0.26296859  0.63028146  0.74780372  1
  O  O359  1  0.75752658  0.11652502  0.24771233  1
  O  O360  1  0.76255497  0.12051360  0.74404640  1
  O  O361  1  0.75903220  0.62601038  0.24928988  1
  O  O362  1  0.75194405  0.63189851  0.76253117  1
  O  O363  1  0.38221043  0.11313487  0.36524095  1
  O  O364  1  0.37227701  0.11625915  0.86740647  1
  O  O365  1  0.36650228  0.61462754  0.38060816  1
  O  O366  1  0.37205085  0.62957738  0.85998723  1
  O  O367  1  0.87848497  0.11549700  0.36952280  1
  O  O368  1  0.87466094  0.12110980  0.86407031  1
  O  O369  1  0.87756703  0.62849749  0.36093092  1
  O  O370  1  0.86493440  0.61704822  0.87398010  1
  O  O371  1  0.13190188  0.38289581  0.11920891  1
  O  O372  1  0.13837364  0.37205276  0.63724795  1
  O  O373  1  0.11711404  0.88798710  0.12309862  1
  O  O374  1  0.12465103  0.88125977  0.63706217  1
  O  O375  1  0.61765521  0.38438633  0.13626279  1
  O  O376  1  0.63540800  0.38083899  0.61946483  1
  O  O377  1  0.63840480  0.87261436  0.13200546  1
  O  O378  1  0.63662828  0.87052233  0.63476754  1
  O  O379  1  0.11164096  0.24521297  0.24023890  1
  O  O380  1  0.11928565  0.25153645  0.75251415  1
  O  O381  1  0.12893348  0.74976421  0.26258311  1
  O  O382  1  0.11656966  0.75554835  0.75479566  1
  O  O383  1  0.61350185  0.25535286  0.24771096  1
  O  O384  1  0.61069157  0.24856252  0.74809772  1
  O  O385  1  0.61671990  0.75957896  0.24409580  1
  O  O386  1  0.60674105  0.74589007  0.75107000  1
  O  O387  1  0.38420803  0.24169930  0.24616421  1
  O  O388  1  0.38286185  0.23760014  0.74721822  1
  O  O389  1  0.38535363  0.75698727  0.24223937  1
  O  O390  1  0.38024778  0.74456596  0.74506402  1
  O  O391  1  0.88368626  0.24565853  0.23993821  1
  O  O392  1  0.88358692  0.24662100  0.74087211  1
  O  O393  1  0.87038768  0.74385691  0.23950090  1
  O  O394  1  0.87965571  0.74500063  0.74559017  1
  O  O395  1  0.38908658  0.50435984  0.49342415  1
  O  O396  1  0.38854118  0.49800324  1.00809541  1
  O  O397  1  0.36700739  1.00175009  0.48652482  1
  O  O398  1  0.38204451  0.99377664  0.99388089  1
  O  O399  1  0.88190594  0.49225273  0.49865399  1
  O  O400  1  0.87016473  0.49092077  0.99237913  1
  O  O401  1  0.88166262  0.99735306  0.48997776  1
  O  O402  1  0.87727162  0.99556648  0.99107774  1
  O  O403  1  0.12103917  0.00307329  0.00281987  1
  O  O404  1  0.11927385  -0.01049430  0.51044649  1
  O  O405  1  0.12597383  0.50932493  0.00920576  1
  O  O406  1  0.11663882  0.51180630  0.49613334  1
  O  O407  1  0.61734787  0.00871950  -0.00227536  1
  O  O408  1  0.62135393  0.01533796  0.50076146  1
  O  O409  1  0.61312721  0.50787362  0.00684995  1
  O  O410  1  0.61685025  0.50722665  0.50679807  1
  O  O411  1  0.37171900  0.36049393  0.12247659  1
  O  O412  1  0.36495969  0.36238181  0.62926403  1
  O  O413  1  0.37991907  0.86603602  0.11701301  1
  O  O414  1  0.36838562  0.86246827  0.62506070  1
  O  O415  1  0.88252668  0.37007675  0.11448199  1
  O  O416  1  0.86761432  0.37138432  0.61605683  1
  O  O417  1  0.86851766  0.86951313  0.11957506  1
  O  O418  1  0.86867024  0.86235750  0.62374620  1
  O  O419  1  0.13146656  0.12299074  0.37800434  1
  O  O420  1  0.13086719  0.12852051  0.87834973  1
  O  O421  1  0.12883864  0.63166838  0.38321034  1
  O  O422  1  0.12195808  0.63150825  0.88454629  1
  O  O423  1  0.62469080  0.12626125  0.38947604  1
  O  O424  1  0.62664357  0.12739157  0.88700240  1
  O  O425  1  0.62221929  0.62241520  0.38816152  1
  O  O426  1  0.62895976  0.62834882  0.88652827  1
