# generated using pymatgen
data_V85Zn86O256
_symmetry_space_group_name_H-M   'P 1'
_cell_length_a   16.93453889
_cell_length_b   16.94428480
_cell_length_c   16.94630816
_cell_angle_alpha   90.00619185
_cell_angle_beta   89.95850910
_cell_angle_gamma   90.02832393
_symmetry_Int_Tables_number   1
_chemical_formula_structural   V85Zn86O256
_chemical_formula_sum   'V85 Zn86 O256'
_cell_volume   4862.63362025
_cell_formula_units_Z   1
loop_
 _symmetry_equiv_pos_site_id
 _symmetry_equiv_pos_as_xyz
  1  'x, y, z'
loop_
 _atom_site_type_symbol
 _atom_site_label
 _atom_site_symmetry_multiplicity
 _atom_site_fract_x
 _atom_site_fract_y
 _atom_site_fract_z
 _atom_site_occupancy
  V  V0  1  0.75233738  0.51457226  0.75259726  1
  V  V1  1  0.37228728  0.74549195  0.12989803  1
  V  V2  1  0.87084406  0.26265757  0.12636299  1
  V  V3  1  0.49159813  0.62360929  0.62351433  1
  V  V4  1  0.87327550  0.87244868  0.49792772  1
  V  V5  1  0.50099726  0.24883186  0.24821359  1
  V  V6  1  0.62639923  0.25130062  0.37228158  1
  V  V7  1  0.63306113  0.37517502  0.24262804  1
  V  V8  1  0.49917293  0.37285971  0.37567937  1
  V  V9  1  0.74299821  0.25573104  0.00385335  1
  V  V10  1  0.24560616  0.75044454  -0.00487620  1
  V  V11  1  0.36446057  0.37310243  0.50401365  1
  V  V12  1  0.37334617  0.50052922  0.37150243  1
  V  V13  1  -0.00063975  0.61966138  0.63303215  1
  V  V14  1  0.37225291  0.12595607  0.24815474  1
  V  V15  1  0.11896877  0.00116500  0.11825778  1
  V  V16  1  0.64091783  0.09603284  -0.01753460  1
  V  V17  1  0.75137638  -0.00296409  0.24969098  1
  V  V18  1  0.87632867  0.12786413  0.24376469  1
  V  V19  1  0.75320534  0.87327134  0.12487993  1
  V  V20  1  0.88212228  0.24139970  0.63166142  1
  V  V21  1  0.62727687  0.62055289  0.49784851  1
  V  V22  1  0.12266883  0.24913792  0.87646429  1
  V  V23  1  0.24207189  0.62514801  0.87404341  1
  V  V24  1  0.49855651  0.49406072  0.50007215  1
  V  V25  1  0.36506234  0.62161614  0.74584989  1
  V  V26  1  0.13258476  0.75344380  0.38599278  1
  V  V27  1  0.37988367  0.00400608  0.87119559  1
  V  V28  1  0.62603846  0.86969518  0.25068313  1
  V  V29  1  0.36979556  0.24591690  0.62730910  1
  V  V30  1  0.00109090  0.87380890  0.37592994  1
  V  V31  1  0.12130552  0.01506406  0.62646237  1
  V  V32  1  0.75519333  0.37564319  0.62560221  1
  V  V33  1  0.12292931  0.86561611  0.74903184  1
  V  V34  1  0.50638869  -0.00173432  0.50284195  1
  V  V35  1  0.75266795  0.74236223  -0.00515096  1
  V  V36  1  0.87086745  0.37817182  -0.00771821  1
  V  V37  1  0.62288259  0.12715365  0.49843687  1
  V  V38  1  0.25169904  0.00278131  0.74999630  1
  V  V39  1  0.24780926  0.23149318  0.50286811  1
  V  V40  1  0.49395385  0.49695427  0.00135697  1
  V  V41  1  0.00885641  0.87748010  0.87662449  1
  V  V42  1  0.88172011  0.88013440  -0.00162147  1
  V  V43  1  0.25307296  0.62572279  0.36993144  1
  V  V44  1  0.74879377  0.12696592  0.37022798  1
  V  V45  1  0.25175942  0.25155399  -0.00020473  1
  V  V46  1  0.87846122  0.00038188  0.37213774  1
  V  V47  1  0.87539782  0.51642680  0.86925298  1
  V  V48  1  0.37520521  0.25728864  0.11998135  1
  V  V49  1  0.49428261  0.25089541  0.75138322  1
  V  V50  1  0.49732505  0.62115899  0.12871641  1
  V  V51  1  0.50011707  0.87376860  0.37432424  1
  V  V52  1  0.50069447  0.11859585  0.11552688  1
  V  V53  1  0.36729969  0.49981237  0.87378016  1
  V  V54  1  0.75748750  0.50447245  0.24530329  1
  V  V55  1  0.49802035  0.74517669  0.24790224  1
  V  V56  1  0.75082473  0.74943910  0.50470917  1
  V  V57  1  0.80922560  0.92511732  0.67935703  1
  V  V58  1  0.49132376  0.37658338  0.87772221  1
  V  V59  1  0.12132881  0.87676853  0.25009571  1
  V  V60  1  0.88014825  0.73767810  0.13088150  1
  V  V61  1  0.13358895  0.62680940  0.50471553  1
  V  V62  1  0.88404845  0.49869025  0.37362021  1
  V  V63  1  0.62215802  0.86855558  0.73227639  1
  V  V64  1  0.37937902  0.87940400  -0.00112199  1
  V  V65  1  0.62542663  0.25477834  0.87762866  1
  V  V66  1  0.24426720  0.37938995  0.12561174  1
  V  V67  1  -0.00470237  0.12545738  0.11798808  1
  V  V68  1  0.12077907  0.62098252  0.00914125  1
  V  V69  1  -0.00014573  0.73488357  0.25158128  1
  V  V70  1  0.49218083  0.74451920  0.75275975  1
  V  V71  1  0.37528122  0.00005798  0.37472757  1
  V  V72  1  0.11662961  0.24846738  0.37963059  1
  V  V73  1  0.13874649  0.37641139  0.74991849  1
  V  V74  1  0.50441352  0.87822058  0.87556514  1
  V  V75  1  0.62613588  0.62281822  -0.00522268  1
  V  V76  1  0.00338787  0.49105955  0.50282580  1
  V  V77  1  0.61893553  -0.00560394  0.12724828  1
  V  V78  1  0.49961912  0.12175774  0.63666829  1
  V  V79  1  0.00420741  0.01049872  0.50379564  1
  V  V80  1  0.87514552  0.74214279  0.63346099  1
  V  V81  1  0.62600958  0.49731103  0.62492581  1
  V  V82  1  0.24847856  0.87628496  0.12481186  1
  V  V83  1  0.62735621  0.74646627  0.37380556  1
  V  V84  1  0.14611287  0.49435027  0.62979830  1
  Zn  Zn85  1  0.24444098  0.12061321  0.38022755  1
  Zn  Zn86  1  0.66564308  0.03714643  0.66359097  1
  Zn  Zn87  1  0.11769212  0.37884338  0.26040761  1
  Zn  Zn88  1  0.24574485  0.00199941  0.25181997  1
  Zn  Zn89  1  0.12236781  0.12421222  -0.00036648  1
  Zn  Zn90  1  0.25000145  0.86456411  0.61618342  1
  Zn  Zn91  1  -0.06987955  0.04136696  -0.05586515  1
  Zn  Zn92  1  0.00321289  0.24422926  0.74822579  1
  Zn  Zn93  1  0.75044945  0.25357259  0.50117494  1
  Zn  Zn94  1  0.76089383  0.62537921  0.37164739  1
  Zn  Zn95  1  0.62341006  0.37984303  0.75067180  1
  Zn  Zn96  1  0.62943220  0.74510222  0.87234395  1
  Zn  Zn97  1  0.36611918  0.85877926  0.50060297  1
  Zn  Zn98  1  0.10316142  0.50247502  0.13761689  1
  Zn  Zn99  1  -0.00236836  0.74441670  0.75821631  1
  Zn  Zn100  1  0.25122324  0.49973787  0.24802390  1
  Zn  Zn101  1  -0.00021879  0.25682974  0.25187386  1
  Zn  Zn102  1  -0.00043095  0.37812439  0.86953544  1
  Zn  Zn103  1  -0.00414824  0.50172404  0.00103960  1
  Zn  Zn104  1  0.88167958  0.37027371  0.49945255  1
  Zn  Zn105  1  0.63146490  0.49608680  0.12129908  1
  Zn  Zn106  1  0.25520202  0.12536830  0.87660750  1
  Zn  Zn107  1  0.18486017  0.19078343  0.19013090  1
  Zn  Zn108  1  0.19001978  0.18500960  0.69411701  1
  Zn  Zn109  1  0.18672763  0.68837274  0.19124772  1
  Zn  Zn110  1  0.18477490  0.68571511  0.68944683  1
  Zn  Zn111  1  0.68889491  0.18421853  0.18063398  1
  Zn  Zn112  1  0.68768651  0.20034149  0.69255563  1
  Zn  Zn113  1  0.68789410  0.68201754  0.18186875  1
  Zn  Zn114  1  0.68275088  0.68898407  0.68271581  1
  Zn  Zn115  1  0.30585730  0.31034231  0.31456377  1
  Zn  Zn116  1  0.31261706  0.31111657  0.81342056  1
  Zn  Zn117  1  0.31026631  0.81501851  0.31398527  1
  Zn  Zn118  1  0.30934071  0.81279934  0.80887027  1
  Zn  Zn119  1  0.81522339  0.31838024  0.31397859  1
  Zn  Zn120  1  0.80937146  0.31596105  0.81021046  1
  Zn  Zn121  1  0.81423228  0.80722409  0.31333090  1
  Zn  Zn122  1  0.81747644  0.81135234  0.82027348  1
  Zn  Zn123  1  0.18888598  0.43425517  0.44157344  1
  Zn  Zn124  1  0.18819747  0.43440461  0.94168698  1
  Zn  Zn125  1  0.19124482  0.93810220  0.44508655  1
  Zn  Zn126  1  0.18921761  0.93740884  0.93512938  1
  Zn  Zn127  1  0.69351053  0.43706866  0.43310414  1
  Zn  Zn128  1  0.68713122  0.43908428  0.93490784  1
  Zn  Zn129  1  0.68864945  0.93681136  0.43919027  1
  Zn  Zn130  1  0.68694278  0.92643460  0.93764357  1
  Zn  Zn131  1  0.30963891  0.06178558  0.06162003  1
  Zn  Zn132  1  0.32706032  0.03654071  0.57581489  1
  Zn  Zn133  1  0.31259254  0.56321684  0.06037820  1
  Zn  Zn134  1  0.31657531  0.69664479  0.56143360  1
  Zn  Zn135  1  0.77337129  0.09857397  -0.15886013  1
  Zn  Zn136  1  0.81630684  0.06812190  0.55038949  1
  Zn  Zn137  1  0.81488421  0.55909194  0.06264128  1
  Zn  Zn138  1  0.81598435  0.56044046  0.56076594  1
  Zn  Zn139  1  0.43774504  0.43549162  0.19001635  1
  Zn  Zn140  1  0.43017326  0.43637667  0.68790023  1
  Zn  Zn141  1  0.43527640  0.93452908  0.18923403  1
  Zn  Zn142  1  0.43790802  0.93445408  0.68568806  1
  Zn  Zn143  1  0.94239224  0.43886428  0.18625576  1
  Zn  Zn144  1  0.94224013  0.43130355  0.69081567  1
  Zn  Zn145  1  0.93839783  0.93588631  0.18345922  1
  Zn  Zn146  1  0.94141134  1.06702985  0.69037655  1
  Zn  Zn147  1  0.06245758  0.06812100  0.31190799  1
  Zn  Zn148  1  0.06737413  0.06222578  0.81624999  1
  Zn  Zn149  1  0.06762072  0.55808858  0.31765327  1
  Zn  Zn150  1  0.06448508  0.55806229  0.81185477  1
  Zn  Zn151  1  0.56011049  0.06261056  0.30874424  1
  Zn  Zn152  1  0.59486385  0.06113538  0.81492934  1
  Zn  Zn153  1  0.56495696  0.55850481  0.31060939  1
  Zn  Zn154  1  0.56106669  0.56093009  0.81279657  1
  Zn  Zn155  1  0.43617854  0.18558020  0.43855540  1
  Zn  Zn156  1  0.44428273  0.18423137  0.94179765  1
  Zn  Zn157  1  0.44119329  0.68152858  0.43188968  1
  Zn  Zn158  1  0.43450065  0.68766998  0.93831972  1
  Zn  Zn159  1  0.93293851  0.19023509  0.43961960  1
  Zn  Zn160  1  0.92990591  0.19960421  0.93105159  1
  Zn  Zn161  1  0.94408538  0.68075078  0.44128343  1
  Zn  Zn162  1  0.93899366  0.69379133  0.93880519  1
  Zn  Zn163  1  0.05898892  0.31607121  0.06169445  1
  Zn  Zn164  1  0.06927092  0.31015597  0.56544257  1
  Zn  Zn165  1  0.06143565  0.80727259  0.06336684  1
  Zn  Zn166  1  0.05944097  0.81603645  0.56884691  1
  Zn  Zn167  1  0.55725719  0.31543825  0.06293781  1
  Zn  Zn168  1  0.56233549  0.31080654  0.56444577  1
  Zn  Zn169  1  0.56211416  0.80918412  0.05975959  1
  Zn  Zn170  1  0.54498105  0.80157443  0.55713736  1
  O  O171  1  0.11414597  0.11944488  0.12544176  1
  O  O172  1  0.12500939  0.11385895  0.62809852  1
  O  O173  1  0.13475193  0.62130640  0.11244140  1
  O  O174  1  0.12155951  0.61336374  0.62159730  1
  O  O175  1  0.61934119  0.10965739  0.12272374  1
  O  O176  1  0.61912233  0.13079802  0.61275814  1
  O  O177  1  0.61476013  0.62015005  0.11414898  1
  O  O178  1  0.61816370  0.61735129  0.61352785  1
  O  O179  1  0.38028486  0.37523663  0.38296583  1
  O  O180  1  0.38312778  0.38430367  0.87070316  1
  O  O181  1  0.38209844  0.88294214  0.37562643  1
  O  O182  1  0.38200099  0.87911510  0.88162495  1
  O  O183  1  0.87046910  0.39137517  0.38322545  1
  O  O184  1  0.87511551  0.38282948  0.87868793  1
  O  O185  1  0.88143312  0.87806729  0.37981203  1
  O  O186  1  0.87779379  0.87927011  0.89196818  1
  O  O187  1  0.25996077  0.00299250  0.37312190  1
  O  O188  1  0.26108093  0.00045201  0.86968234  1
  O  O189  1  0.25752052  0.50765991  0.37955603  1
  O  O190  1  0.26189651  0.50661043  0.88459814  1
  O  O191  1  0.75721435  0.00509006  0.36883084  1
  O  O192  1  0.68911237  0.03275850  0.89679060  1
  O  O193  1  0.75924165  0.50435781  0.36624889  1
  O  O194  1  0.75728216  0.49898414  0.86015781  1
  O  O195  1  0.26050564  0.48480569  0.12448799  1
  O  O196  1  0.24058682  0.50168659  0.62285047  1
  O  O197  1  0.24318241  0.99196793  0.12983860  1
  O  O198  1  0.23383983  0.99980063  0.63386782  1
  O  O199  1  0.75167308  0.50062424  0.14044213  1
  O  O200  1  0.74807105  0.49618005  0.63359974  1
  O  O201  1  0.74016312  0.98091092  0.13409248  1
  O  O202  1  0.75570294  0.98677986  0.61416900  1
  O  O203  1  0.00306304  0.36972267  0.24804756  1
  O  O204  1  0.01459099  0.36743387  0.75194053  1
  O  O205  1  0.00907687  0.86938101  0.25472983  1
  O  O206  1  0.01707241  0.87492334  0.76013211  1
  O  O207  1  0.50751243  0.36727973  0.25702765  1
  O  O208  1  0.49933312  0.36811488  0.75781902  1
  O  O209  1  0.50622702  0.86627148  0.25490755  1
  O  O210  1  0.50448189  0.86145332  0.75096774  1
  O  O211  1  0.49292301  0.13061654  0.23997418  1
  O  O212  1  0.51232588  0.13083429  0.74031471  1
  O  O213  1  0.50499645  0.62646698  0.23636062  1
  O  O214  1  0.49179131  0.62702851  0.74445388  1
  O  O215  1  0.99097375  0.13198055  0.24185405  1
  O  O216  1  1.00437378  0.12979635  0.75417900  1
  O  O217  1  1.00746158  0.63637121  0.25700206  1
  O  O218  1  1.00755469  0.62654291  0.73789059  1
  O  O219  1  0.36967500  0.24302583  0.01082575  1
  O  O220  1  0.37155216  0.25365792  0.50789237  1
  O  O221  1  0.36647213  0.75718500  0.00941709  1
  O  O222  1  0.40238767  0.75006247  0.51018803  1
  O  O223  1  0.86092428  0.25816768  0.00454825  1
  O  O224  1  0.86941849  0.25151916  0.51188004  1
  O  O225  1  0.86989199  0.75495757  0.01276640  1
  O  O226  1  0.87042868  0.75448252  0.50546580  1
  O  O227  1  0.13620966  0.24852175  0.49482750  1
  O  O228  1  0.13229307  0.25064857  0.99337023  1
  O  O229  1  0.11337678  0.74251125  0.49213686  1
  O  O230  1  0.13850565  0.74057148  1.00687990  1
  O  O231  1  0.62602088  0.24289598  0.49179563  1
  O  O232  1  0.63382604  0.26193000  0.99587618  1
  O  O233  1  0.63097348  0.74113579  0.49590200  1
  O  O234  1  0.63553964  0.74147354  1.00102236  1
  O  O235  1  0.49308776  0.24130484  0.12768128  1
  O  O236  1  0.49474272  0.24283945  0.63405059  1
  O  O237  1  0.49263018  0.74168833  0.12829013  1
  O  O238  1  0.50618559  0.73044086  0.63769544  1
  O  O239  1  0.98765733  0.24263644  0.12271038  1
  O  O240  1  0.98496102  0.25191802  0.62315455  1
  O  O241  1  0.98792626  0.75155272  0.13478141  1
  O  O242  1  0.99105371  0.74051386  0.62690152  1
  O  O243  1  0.01320292  0.24684404  0.38071017  1
  O  O244  1  0.01408687  0.25476337  0.87728902  1
  O  O245  1  0.00702895  0.75528084  0.37043025  1
  O  O246  1  -0.01046285  0.76856851  0.87134329  1
  O  O247  1  0.50671640  0.25232582  0.36836463  1
  O  O248  1  0.49693533  0.26073078  0.87030208  1
  O  O249  1  0.50752740  0.75178766  0.36531800  1
  O  O250  1  0.50002433  0.75607590  0.86757098  1
  O  O251  1  0.26177177  0.13081219  0.50428231  1
  O  O252  1  0.24745854  0.13812433  1.00244052  1
  O  O253  1  0.23843967  0.63277994  0.49277780  1
  O  O254  1  0.24397161  0.63168986  0.99376265  1
  O  O255  1  0.73705808  0.12533122  0.48986810  1
  O  O256  1  0.72889820  0.13870002  1.00707108  1
  O  O257  1  0.74191259  0.62941752  0.49823641  1
  O  O258  1  0.73987519  0.63119357  1.00877098  1
  O  O259  1  0.25000246  0.36151189  0.00984662  1
  O  O260  1  0.26254307  0.36307922  0.50057728  1
  O  O261  1  0.25546871  0.86659149  0.00483620  1
  O  O262  1  0.25117602  0.86274034  0.49840003  1
  O  O263  1  0.75860661  0.37016579  -0.00422984  1
  O  O264  1  0.74930046  0.37703926  0.51452442  1
  O  O265  1  0.75778802  0.86434806  0.00755848  1
  O  O266  1  0.76345657  0.86462639  0.49117174  1
  O  O267  1  0.13309500  0.49698593  0.24971458  1
  O  O268  1  0.12582647  0.49295254  0.73781998  1
  O  O269  1  0.12400174  0.99247865  0.24272088  1
  O  O270  1  0.13067600  0.99298462  0.74179282  1
  O  O271  1  0.63603554  0.49102225  0.24918792  1
  O  O272  1  0.63537086  0.50119911  0.74525145  1
  O  O273  1  0.63032169  0.99132996  0.24503585  1
  O  O274  1  0.61183362  0.97308731  0.74151494  1
  O  O275  1  0.37552710  0.00601869  0.25987836  1
  O  O276  1  0.36633027  -0.00968687  0.76122321  1
  O  O277  1  0.37337326  0.49178199  0.26696141  1
  O  O278  1  0.37959461  0.51063885  0.76062227  1
  O  O279  1  0.87153171  0.00668295  0.25289657  1
  O  O280  1  0.86560061  -0.01416521  0.73372522  1
  O  O281  1  0.86489694  0.49565198  0.25998056  1
  O  O282  1  0.86610985  0.49873245  0.76039247  1
  O  O283  1  0.13631720  0.35495880  0.37811599  1
  O  O284  1  0.12577272  0.36993190  0.86876560  1
  O  O285  1  0.12100646  0.86944664  0.36982911  1
  O  O286  1  0.12162996  0.87593886  0.86591199  1
  O  O287  1  0.62069445  0.36851408  0.36674389  1
  O  O288  1  0.61187483  0.37016799  0.87407372  1
  O  O289  1  0.62170823  0.86630330  0.36990532  1
  O  O290  1  0.61852404  0.86599657  0.86471769  1
  O  O291  1  0.38350919  0.12686433  0.12965169  1
  O  O292  1  0.39043835  0.13090766  0.62026124  1
  O  O293  1  0.38208089  0.63497586  0.12046927  1
  O  O294  1  0.38229170  0.61866664  0.63346978  1
  O  O295  1  0.87931541  0.13372933  0.13685471  1
  O  O296  1  0.86851734  0.13580067  0.62589457  1
  O  O297  1  0.87023413  0.63973837  0.12409260  1
  O  O298  1  0.88612642  0.63184638  0.61827259  1
  O  O299  1  0.25647919  0.25678005  0.12063147  1
  O  O300  1  0.26377330  0.24168751  0.62284940  1
  O  O301  1  0.25649954  0.75531294  0.12104704  1
  O  O302  1  0.25668532  0.75144874  0.63717133  1
  O  O303  1  0.75681740  0.24947708  0.11539183  1
  O  O304  1  0.75764275  0.25942521  0.62517605  1
  O  O305  1  0.75867168  0.75684713  0.12250394  1
  O  O306  1  0.75712937  0.74317108  0.61166552  1
  O  O307  1  0.24785440  0.24104742  0.38788427  1
  O  O308  1  0.24549864  0.24838481  0.88399943  1
  O  O309  1  0.23896884  0.74355026  0.37013756  1
  O  O310  1  0.25777384  0.73958141  0.88555224  1
  O  O311  1  0.74317538  0.24475748  0.37498549  1
  O  O312  1  0.73681740  0.25120588  0.87984233  1
  O  O313  1  0.74629589  0.74381081  0.38451063  1
  O  O314  1  0.75171980  0.74976498  0.89058121  1
  O  O315  1  -0.00559266  0.12412028  0.01010521  1
  O  O316  1  -0.00904986  0.10857600  0.49541640  1
  O  O317  1  0.02031213  0.63211541  -0.00703873  1
  O  O318  1  0.01460413  0.61492046  0.51023032  1
  O  O319  1  0.51506980  0.12195570  0.01307918  1
  O  O320  1  0.51099341  0.12101074  0.50420527  1
  O  O321  1  0.50408568  0.62007935  0.00956420  1
  O  O322  1  0.50710554  0.61367210  0.50720545  1
  O  O323  1  0.49647924  0.37609966  0.49307583  1
  O  O324  1  0.49966742  0.38547122  0.99188769  1
  O  O325  1  0.50244357  0.88485868  0.49135817  1
  O  O326  1  0.49137280  0.86636342  0.98897466  1
  O  O327  1  1.00494707  0.38793578  0.50659155  1
  O  O328  1  0.98305675  0.37588630  0.99452231  1
  O  O329  1  0.98825346  0.87957348  0.49627141  1
  O  O330  1  0.98885236  0.86849059  0.99765664  1
  O  O331  1  0.49487729  0.49314313  0.37920932  1
  O  O332  1  0.49204067  0.49468234  0.88127471  1
  O  O333  1  0.49696825  0.99308677  0.37728775  1
  O  O334  1  0.49690461  0.98346043  0.86667625  1
  O  O335  1  0.99310215  0.50267682  0.38599394  1
  O  O336  1  0.98619015  0.50078776  0.87712834  1
  O  O337  1  0.99685447  0.99280103  0.37951739  1
  O  O338  1  1.00631422  0.98533401  0.88110274  1
  O  O339  1  0.00726423  0.01030848  0.12987650  1
  O  O340  1  0.01104875  0.00100667  0.61855366  1
  O  O341  1  -0.00807390  0.50717535  0.11407148  1
  O  O342  1  0.00091221  0.50603101  0.61976986  1
  O  O343  1  0.50703742  0.00663738  0.13510987  1
  O  O344  1  0.50244061  0.00959001  0.61491519  1
  O  O345  1  0.49732982  0.50506958  0.11816325  1
  O  O346  1  0.50524124  0.50554717  0.62167674  1
  O  O347  1  0.24689775  0.37335851  0.23886999  1
  O  O348  1  0.23942267  0.37391910  0.75241058  1
  O  O349  1  0.23600142  0.87483971  0.24447692  1
  O  O350  1  0.23769751  0.88401073  0.75291551  1
  O  O351  1  0.74187323  0.38769283  0.25547706  1
  O  O352  1  0.74623370  0.38523065  0.73862799  1
  O  O353  1  0.74639166  0.87489384  0.24484473  1
  O  O354  1  0.74399867  0.87267120  0.74385367  1
  O  O355  1  0.26398513  0.12373508  0.24657843  1
  O  O356  1  0.25001134  0.10802344  0.75605061  1
  O  O357  1  0.24734464  0.62327779  0.26561917  1
  O  O358  1  0.25810298  0.62587650  0.75953368  1
  O  O359  1  0.75536803  0.11721594  0.25161384  1
  O  O360  1  0.70552608  0.10664450  0.75198460  1
  O  O361  1  0.74287551  0.60893720  0.25346281  1
  O  O362  1  0.74720486  0.61333050  0.74316647  1
  O  O363  1  0.37785026  0.11902670  0.36261385  1
  O  O364  1  0.38110129  0.10687561  0.88466114  1
  O  O365  1  0.36614517  0.61322054  0.38113959  1
  O  O366  1  0.36731792  0.61827910  0.86868528  1
  O  O367  1  0.86965398  0.12285039  0.36292014  1
  O  O368  1  0.87115404  0.11613711  0.88405294  1
  O  O369  1  0.87656240  0.60727326  0.38235715  1
  O  O370  1  0.87585596  0.61507530  0.87843226  1
  O  O371  1  0.13369209  0.37987868  0.12327132  1
  O  O372  1  0.12746060  0.38687087  0.63180304  1
  O  O373  1  0.12547360  0.88072768  0.13178167  1
  O  O374  1  0.12485837  0.88126661  0.63864470  1
  O  O375  1  0.61797050  0.37723839  0.13914606  1
  O  O376  1  0.63069037  0.38215754  0.62680658  1
  O  O377  1  0.63001645  0.87309973  0.13218249  1
  O  O378  1  0.61941702  0.85960588  0.63327856  1
  O  O379  1  0.12384102  0.25120969  0.26595051  1
  O  O380  1  0.12960686  0.25742204  0.75953526  1
  O  O381  1  0.11780265  0.75753855  0.25772841  1
  O  O382  1  0.12155698  0.76245434  0.74993777  1
  O  O383  1  0.62262710  0.25491082  0.25194207  1
  O  O384  1  0.61134809  0.25830116  0.76017575  1
  O  O385  1  0.62133037  0.75060324  0.25359418  1
  O  O386  1  0.61662794  0.75291467  0.75275838  1
  O  O387  1  0.38025989  0.24177064  0.24293137  1
  O  O388  1  0.38573651  0.25050595  0.74423744  1
  O  O389  1  0.37962230  0.75667078  0.23733013  1
  O  O390  1  0.38523425  0.73916978  0.75594395  1
  O  O391  1  0.87092228  0.24506276  0.24237953  1
  O  O392  1  0.87439806  0.25331553  0.73546945  1
  O  O393  1  0.88326383  0.75174919  0.23989256  1
  O  O394  1  0.87345041  0.75569139  0.73647791  1
  O  O395  1  0.38539737  0.48533640  0.48905817  1
  O  O396  1  0.38740312  0.50748073  0.99005968  1
  O  O397  1  0.39300260  1.01218321  0.48153755  1
  O  O398  1  0.37026248  0.98445797  0.99548496  1
  O  O399  1  0.88613180  0.49647908  0.49340256  1
  O  O400  1  0.86799354  0.49523445  0.98393992  1
  O  O401  1  0.88032158  0.99074042  0.49143776  1
  O  O402  1  0.86968063  0.97730866  1.01719540  1
  O  O403  1  0.13174094  0.00093765  0.01481926  1
  O  O404  1  0.11699946  -0.00455914  0.51545660  1
  O  O405  1  0.12480083  0.51343958  0.00113855  1
  O  O406  1  0.12364080  0.50516314  0.51077960  1
  O  O407  1  0.62294915  -0.01158850  0.02097848  1
  O  O408  1  0.61551380  0.00834692  0.49365140  1
  O  O409  1  0.61547589  0.50461130  0.00109567  1
  O  O410  1  0.62071564  0.50413121  0.50255160  1
  O  O411  1  0.37229872  0.36070338  0.12965797  1
  O  O412  1  0.38403697  0.36039068  0.61497475  1
  O  O413  1  0.37077120  0.86887278  0.11785800  1
  O  O414  1  0.36187134  0.91461680  0.60581735  1
  O  O415  1  0.87365163  0.36539446  0.11629712  1
  O  O416  1  0.86901810  0.36729056  0.62299240  1
  O  O417  1  0.86872539  0.86466640  0.12058794  1
  O  O418  1  0.86994015  0.86605145  0.61694772  1
  O  O419  1  0.12930178  0.13819961  0.37322928  1
  O  O420  1  0.13183931  0.13472968  0.88169995  1
  O  O421  1  0.13241593  0.63192405  0.38579871  1
  O  O422  1  0.13827132  0.61872368  0.88143372  1
  O  O423  1  0.62726443  0.13141467  0.37730295  1
  O  O424  1  0.59798098  0.15025851  0.89051362  1
  O  O425  1  0.62221687  0.62779029  0.38677691  1
  O  O426  1  0.61697206  0.62639499  0.88985402  1
