# generated using pymatgen
data_V85Zn86O256
_symmetry_space_group_name_H-M   'P 1'
_cell_length_a   16.96087802
_cell_length_b   16.95265295
_cell_length_c   16.96328700
_cell_angle_alpha   90.04790711
_cell_angle_beta   89.96790991
_cell_angle_gamma   89.97974927
_symmetry_Int_Tables_number   1
_chemical_formula_structural   V85Zn86O256
_chemical_formula_sum   'V85 Zn86 O256'
_cell_volume   4877.48300705
_cell_formula_units_Z   1
loop_
 _symmetry_equiv_pos_site_id
 _symmetry_equiv_pos_as_xyz
  1  'x, y, z'
loop_
 _atom_site_type_symbol
 _atom_site_label
 _atom_site_symmetry_multiplicity
 _atom_site_fract_x
 _atom_site_fract_y
 _atom_site_fract_z
 _atom_site_occupancy
  V  V0  1  0.61460009  0.60931693  -0.00367227  1
  V  V1  1  0.62510356  0.74350042  0.86976697  1
  V  V2  1  0.87488263  0.12283556  0.74695184  1
  V  V3  1  -0.00570927  0.75362060  0.25608722  1
  V  V4  1  0.88129797  0.88069813  0.50470035  1
  V  V5  1  0.12778650  0.50119958  0.62263304  1
  V  V6  1  0.62682605  0.86875210  0.73749084  1
  V  V7  1  0.13618572  0.74757401  0.37886459  1
  V  V8  1  0.13327071  0.37885901  0.23785638  1
  V  V9  1  0.25491822  0.50664580  0.75089806  1
  V  V10  1  0.73356404  0.37816456  0.13279829  1
  V  V11  1  0.75602855  0.49347507  0.73547102  1
  V  V12  1  0.50274963  0.60474797  0.12207692  1
  V  V13  1  0.12340080  0.00104744  0.12273697  1
  V  V14  1  0.62330686  0.24736912  0.87131989  1
  V  V15  1  0.12645809  0.25350756  0.37633824  1
  V  V16  1  0.87556054  0.13017254  0.25028707  1
  V  V17  1  0.11947481  0.87570110  0.25785344  1
  V  V18  1  0.49988946  0.87889800  0.37642180  1
  V  V19  1  0.11261805  0.12528906  0.50659104  1
  V  V20  1  0.37282161  0.00073068  0.38051769  1
  V  V21  1  0.25851817  0.24779798  0.50394326  1
  V  V22  1  0.37714318  0.87874332  -0.00791545  1
  V  V23  1  0.12113342  0.24998174  0.87567305  1
  V  V24  1  0.87345098  0.62915506  0.24772436  1
  V  V25  1  0.49325939  0.24884473  0.74291995  1
  V  V26  1  0.87040441  0.75151423  0.62203229  1
  V  V27  1  0.87396766  0.50199007  0.37163419  1
  V  V28  1  0.63104377  0.37008576  0.74124196  1
  V  V29  1  0.49882472  0.00182196  -0.00963516  1
  V  V30  1  0.25597124  0.12216665  0.87396086  1
  V  V31  1  0.38107526  0.74698379  0.12369896  1
  V  V32  1  0.87327335  0.61872031  0.74359413  1
  V  V33  1  0.61649884  0.49598194  0.62051018  1
  V  V34  1  0.25192285  -0.00423443  0.74950437  1
  V  V35  1  0.12631469  0.37496998  0.74957710  1
  V  V36  1  0.11897719  0.87248819  0.76366600  1
  V  V37  1  0.80113947  0.56556867  0.92099565  1
  V  V38  1  0.61565737  0.62225750  0.50181771  1
  V  V39  1  0.12599951  0.51189742  0.11382489  1
  V  V40  1  0.87332594  0.37939607  0.50478378  1
  V  V41  1  0.75085346  0.12536880  0.37852945  1
  V  V42  1  0.11008644  -0.00229610  0.62040358  1
  V  V43  1  0.62676647  0.25494888  0.37324475  1
  V  V44  1  0.74921545  0.00256850  0.25089664  1
  V  V45  1  0.37377456  0.75033553  0.62841149  1
  V  V46  1  0.50034573  0.74953332  0.24885289  1
  V  V47  1  0.62336599  0.12680286  -0.00096776  1
  V  V48  1  0.75196547  0.86984766  0.12650320  1
  V  V49  1  0.72331278  0.49895436  0.25398918  1
  V  V50  1  0.24979143  0.00169573  0.24912249  1
  V  V51  1  0.49855427  0.37959283  0.37948396  1
  V  V52  1  -0.00152735  0.12639365  0.11977376  1
  V  V53  1  0.00050513  0.75251507  0.75798062  1
  V  V54  1  0.37310784  0.12752880  0.25025635  1
  V  V55  1  0.88271698  0.24801256  0.62165868  1
  V  V56  1  0.50542918  0.87168667  0.86815427  1
  V  V57  1  0.00156176  0.50786817  0.49934619  1
  V  V58  1  0.75050414  -0.00682574  0.74341392  1
  V  V59  1  0.37862862  0.37973892  0.00094140  1
  V  V60  1  0.25516240  0.87610576  0.12530515  1
  V  V61  1  -0.00693635  0.38553526  0.87937171  1
  V  V62  1  0.75082765  0.25222962  0.00026685  1
  V  V63  1  0.24762730  0.12692919  0.37726237  1
  V  V64  1  0.88907229  -0.00335932  0.37752967  1
  V  V65  1  0.74556915  0.75161155  0.00153324  1
  V  V66  1  0.38281044  0.50128006  0.87739508  1
  V  V67  1  0.36869606  0.25549365  0.12561978  1
  V  V68  1  0.49823660  0.12588437  0.12527080  1
  V  V69  1  0.00245206  0.24471938  0.74684259  1
  V  V70  1  0.74964532  0.25507187  0.50661953  1
  V  V71  1  0.74720666  0.62745037  0.37735453  1
  V  V72  1  0.50329879  0.25522000  0.25117053  1
  V  V73  1  0.00027406  0.25697941  0.24834415  1
  V  V74  1  0.62486764  0.75364132  0.37731090  1
  V  V75  1  0.25716009  0.37032009  0.62716896  1
  V  V76  1  0.25137901  0.74256223  -0.00615001  1
  V  V77  1  0.62321398  0.00024507  0.12435553  1
  V  V78  1  0.00236461  0.37920813  0.37360608  1
  V  V79  1  0.24863729  0.25516714  0.00097828  1
  V  V80  1  0.25146793  0.50852490  0.26023378  1
  V  V81  1  0.14330691  0.62811423  0.49598262  1
  V  V82  1  0.37348094  0.12237567  0.73915612  1
  V  V83  1  0.37928730  0.38876023  0.50042112  1
  V  V84  1  0.87378301  0.25923543  0.12199498  1
  Zn  Zn85  1  0.36692759  0.62568842  0.26298648  1
  Zn  Zn86  1  0.49976005  0.12236500  0.62099624  1
  Zn  Zn87  1  0.88997783  -0.03266465  0.86838538  1
  Zn  Zn88  1  0.36504810  0.86123074  0.49584098  1
  Zn  Zn89  1  -0.00449616  0.62602888  0.12053216  1
  Zn  Zn90  1  0.74569792  0.75899136  0.50769380  1
  Zn  Zn91  1  0.62432229  0.87791046  0.25110737  1
  Zn  Zn92  1  0.12656103  0.12031009  -0.00310148  1
  Zn  Zn93  1  0.09638754  0.64170359  0.97128010  1
  Zn  Zn94  1  0.00363164  0.63022541  0.62311959  1
  Zn  Zn95  1  0.62150342  0.12314000  0.50241397  1
  Zn  Zn96  1  0.25039324  0.62537469  0.87423877  1
  Zn  Zn97  1  0.75293288  0.12337545  0.87342314  1
  Zn  Zn98  1  0.50065045  0.37478398  0.87589246  1
  Zn  Zn99  1  0.50225825  0.00154218  0.50411073  1
  Zn  Zn100  1  -0.01038603  -0.03333757  -0.00214368  1
  Zn  Zn101  1  0.91627307  0.80038883  0.07480995  1
  Zn  Zn102  1  0.24388170  0.86780959  0.61660302  1
  Zn  Zn103  1  0.87483831  0.38879576  -0.00010261  1
  Zn  Zn104  1  0.50298093  0.63255487  0.63307013  1
  Zn  Zn105  1  0.62463962  0.00087256  0.62048114  1
  Zn  Zn106  1  0.39314640  0.63462794  0.75663102  1
  Zn  Zn107  1  0.18656805  0.18956076  0.18669334  1
  Zn  Zn108  1  0.18755513  0.18428164  0.68540528  1
  Zn  Zn109  1  0.18939717  0.68862425  0.18780736  1
  Zn  Zn110  1  0.18900674  0.69070465  0.68500497  1
  Zn  Zn111  1  0.68621311  0.18951097  0.18883811  1
  Zn  Zn112  1  0.69057144  0.18422978  0.68276180  1
  Zn  Zn113  1  0.67901286  0.68440125  0.18755871  1
  Zn  Zn114  1  0.68922961  0.68239844  0.68937053  1
  Zn  Zn115  1  0.31271308  0.31804959  0.31563409  1
  Zn  Zn116  1  0.31376908  0.31195881  0.81430044  1
  Zn  Zn117  1  0.31275845  0.81399177  0.31046254  1
  Zn  Zn118  1  0.31393052  0.81585283  0.80894850  1
  Zn  Zn119  1  0.81024200  0.31856275  0.31323346  1
  Zn  Zn120  1  0.81481829  0.31044116  0.81250497  1
  Zn  Zn121  1  0.81066846  0.81766914  0.31511492  1
  Zn  Zn122  1  0.80798210  0.80222911  0.80777010  1
  Zn  Zn123  1  0.19007095  0.43750929  0.43750847  1
  Zn  Zn124  1  0.19086738  0.43786657  0.93534720  1
  Zn  Zn125  1  0.18248736  0.93760694  0.43933036  1
  Zn  Zn126  1  0.18914889  0.93721372  0.93803754  1
  Zn  Zn127  1  0.68535724  0.43738253  0.43709316  1
  Zn  Zn128  1  0.68308434  0.42676099  0.93670454  1
  Zn  Zn129  1  0.69267409  0.93793319  0.44186403  1
  Zn  Zn130  1  0.72713737  0.91393097  0.91420347  1
  Zn  Zn131  1  0.31326959  0.06531817  0.05970276  1
  Zn  Zn132  1  0.30377115  0.05430382  0.56359219  1
  Zn  Zn133  1  0.31137725  0.55791142  0.07196048  1
  Zn  Zn134  1  0.31759886  0.56539074  0.56928679  1
  Zn  Zn135  1  0.81060732  0.06156185  0.06187487  1
  Zn  Zn136  1  0.81525446  0.06336865  0.56319813  1
  Zn  Zn137  1  0.80018031  0.56486051  0.08257209  1
  Zn  Zn138  1  0.80892337  0.56567872  0.56132034  1
  Zn  Zn139  1  0.43211918  0.43316994  0.19258920  1
  Zn  Zn140  1  0.43877803  0.43570542  0.68919727  1
  Zn  Zn141  1  0.43757121  0.93762712  0.18795226  1
  Zn  Zn142  1  0.43545326  0.93566407  0.68446959  1
  Zn  Zn143  1  0.93842596  0.44364552  0.18545667  1
  Zn  Zn144  1  0.94212271  0.43497181  0.68599360  1
  Zn  Zn145  1  0.93816657  0.94191063  0.19176493  1
  Zn  Zn146  1  0.93773040  0.93514096  0.68566586  1
  Zn  Zn147  1  0.06455456  0.06920348  0.30892873  1
  Zn  Zn148  1  0.06553209  0.06074480  0.81046584  1
  Zn  Zn149  1  0.06407078  0.56666769  0.31034521  1
  Zn  Zn150  1  0.06465065  0.56494736  0.80834123  1
  Zn  Zn151  1  0.56223608  0.06769630  0.31515639  1
  Zn  Zn152  1  0.56571119  0.06077825  0.80574786  1
  Zn  Zn153  1  0.53378680  0.57718516  0.32770460  1
  Zn  Zn154  1  0.56611548  0.55631502  0.81121790  1
  Zn  Zn155  1  0.43722179  0.18837065  0.43908963  1
  Zn  Zn156  1  0.43532120  0.18921898  0.93293169  1
  Zn  Zn157  1  0.42666220  0.68252919  0.44222439  1
  Zn  Zn158  1  0.43876585  0.68702999  0.93557518  1
  Zn  Zn159  1  0.93710164  0.19021420  0.43464991  1
  Zn  Zn160  1  0.93880428  0.11167297  0.93396417  1
  Zn  Zn161  1  0.94029831  0.69422656  0.43407425  1
  Zn  Zn162  1  0.93300689  0.69685801  0.93599897  1
  Zn  Zn163  1  0.06003665  0.31634494  0.05782651  1
  Zn  Zn164  1  0.06486062  0.31515618  0.56094406  1
  Zn  Zn165  1  0.07577061  0.80836600  0.07114922  1
  Zn  Zn166  1  0.05692792  0.81373918  0.56110900  1
  Zn  Zn167  1  0.55812002  0.31227921  0.06197344  1
  Zn  Zn168  1  0.56194359  0.30855397  0.56354398  1
  Zn  Zn169  1  0.56782498  0.81338811  0.05815762  1
  Zn  Zn170  1  0.55180338  0.81028442  0.55908650  1
  O  O171  1  0.11811838  0.11620054  0.12711370  1
  O  O172  1  0.12793528  0.11243814  0.61809379  1
  O  O173  1  0.12400919  0.61722517  0.12399718  1
  O  O174  1  0.12427228  0.61994024  0.61435034  1
  O  O175  1  0.61731428  0.12231396  0.12056849  1
  O  O176  1  0.62175076  0.12264998  0.62090895  1
  O  O177  1  0.61694806  0.62574385  0.10653196  1
  O  O178  1  0.63003483  0.61462783  0.61690971  1
  O  O179  1  0.38234602  0.37120648  0.39034690  1
  O  O180  1  0.37661590  0.38016579  0.88406152  1
  O  O181  1  0.38132774  0.88459616  0.37211885  1
  O  O182  1  0.38662323  0.87152322  0.88568821  1
  O  O183  1  0.88266756  0.38145927  0.38320840  1
  O  O184  1  0.88912397  0.36973801  0.87752212  1
  O  O185  1  0.87700302  0.89302462  0.37540553  1
  O  O186  1  0.83626414  0.87298466  0.88819297  1
  O  O187  1  0.25467536  0.00703462  0.36734974  1
  O  O188  1  0.24058243  0.00984611  0.86325400  1
  O  O189  1  0.24487947  0.49888839  0.35963273  1
  O  O190  1  0.26179555  0.49625999  0.86475212  1
  O  O191  1  0.75716361  0.01146022  0.36918421  1
  O  O192  1  0.74766181  0.00876599  0.85406161  1
  O  O193  1  0.75345986  0.50806224  0.36990968  1
  O  O194  1  0.74746749  0.49909945  0.86532381  1
  O  O195  1  0.23303703  0.50195956  0.13750777  1
  O  O196  1  0.24832674  0.48910877  0.63135418  1
  O  O197  1  0.24325163  0.99914908  0.12942456  1
  O  O198  1  0.23745993  0.99903485  0.63974319  1
  O  O199  1  0.74110923  0.49187418  0.14261202  1
  O  O200  1  0.74385379  0.49783324  0.63210383  1
  O  O201  1  0.74104951  0.99741782  0.13023189  1
  O  O202  1  0.75106383  1.00416744  0.63822582  1
  O  O203  1  0.00895344  0.37434578  0.25466277  1
  O  O204  1  0.00565540  0.36417697  0.75558554  1
  O  O205  1  0.00981927  0.86984827  0.24600995  1
  O  O206  1  0.00985708  0.86947136  0.74860064  1
  O  O207  1  0.49035231  0.36103294  0.26074139  1
  O  O208  1  0.50948479  0.36515657  0.75169089  1
  O  O209  1  0.50006927  0.86689349  0.25800135  1
  O  O210  1  0.50825408  0.88379439  0.76451084  1
  O  O211  1  0.49215268  0.13624899  0.24725950  1
  O  O212  1  0.48844691  0.12928740  0.75187799  1
  O  O213  1  0.51488391  0.64325157  0.23008354  1
  O  O214  1  0.50554575  0.62093341  0.74610250  1
  O  O215  1  0.99720631  0.13692178  0.23933081  1
  O  O216  1  0.99656001  0.13934840  0.75166418  1
  O  O217  1  0.98840696  0.63335755  0.25185612  1
  O  O218  1  0.98890559  0.62938385  0.74604425  1
  O  O219  1  0.36772152  0.25275666  0.00672659  1
  O  O220  1  0.36069599  0.25457047  0.49766355  1
  O  O221  1  0.37345218  0.75926915  0.00731702  1
  O  O222  1  0.37480074  0.74674522  0.51391734  1
  O  O223  1  0.86452321  0.25169057  0.01591437  1
  O  O224  1  0.87286968  0.25868150  0.50367004  1
  O  O225  1  0.85006123  0.73845203  0.00448419  1
  O  O226  1  0.87455995  0.75827567  0.50526990  1
  O  O227  1  0.13479043  0.24720639  0.49595929  1
  O  O228  1  0.13271985  0.25208131  0.99223980  1
  O  O229  1  0.11951127  0.74363055  0.48683404  1
  O  O230  1  0.14850174  0.74646396  1.00870304  1
  O  O231  1  0.63656917  0.24925347  0.49431306  1
  O  O232  1  0.62861205  0.24690740  0.99182992  1
  O  O233  1  0.62678848  0.74566551  0.49318696  1
  O  O234  1  0.63019977  0.73709055  0.99415835  1
  O  O235  1  0.49219702  0.24494622  0.13309166  1
  O  O236  1  0.50257729  0.24578717  0.63979188  1
  O  O237  1  0.49162617  0.75585445  0.12945048  1
  O  O238  1  0.48365689  0.75065326  0.62566716  1
  O  O239  1  0.99187553  0.25126546  0.13035709  1
  O  O240  1  0.99150889  0.25716798  0.63038158  1
  O  O241  1  1.00030004  0.74766176  0.14370559  1
  O  O242  1  0.98791827  0.74938267  0.63198420  1
  O  O243  1  0.00598330  0.25782227  0.36726832  1
  O  O244  1  0.01491016  0.25801432  0.86548579  1
  O  O245  1  0.01285786  0.74926931  0.36248398  1
  O  O246  1  -0.00633090  0.75051288  0.85740150  1
  O  O247  1  0.50822687  0.25340815  0.36895140  1
  O  O248  1  0.50858701  0.24901405  0.86466825  1
  O  O249  1  0.50940155  0.75975648  0.36709570  1
  O  O250  1  0.51256195  0.76074673  0.88349037  1
  O  O251  1  0.24224879  0.13219057  0.49650447  1
  O  O252  1  0.24809017  0.13371963  0.99165864  1
  O  O253  1  0.24151980  0.61585197  0.49854336  1
  O  O254  1  0.26390912  0.64065674  1.00252514  1
  O  O255  1  0.75654227  0.13545749  0.48870499  1
  O  O256  1  0.74155848  0.13869126  1.00142549  1
  O  O257  1  0.74449749  0.63001220  0.48678659  1
  O  O258  1  0.74152059  0.62129586  0.99274427  1
  O  O259  1  0.25970506  0.36068039  -0.00561852  1
  O  O260  1  0.25926023  0.37006492  0.50625987  1
  O  O261  1  0.26010909  0.86961748  0.00452595  1
  O  O262  1  0.25679039  0.89194162  0.50527415  1
  O  O263  1  0.75107375  0.36597541  0.00870988  1
  O  O264  1  0.76237237  0.36639164  0.49056054  1
  O  O265  1  0.73230223  0.86255072  0.01581808  1
  O  O266  1  0.77200186  0.87002653  0.48627742  1
  O  O267  1  0.13177982  0.49319557  0.24718117  1
  O  O268  1  0.13377918  0.49226107  0.74165682  1
  O  O269  1  0.12740826  0.99507011  0.24250207  1
  O  O270  1  0.12600180  0.98966420  0.74116416  1
  O  O271  1  0.62699042  0.51068779  0.26452047  1
  O  O272  1  0.63520552  0.48826676  0.74222762  1
  O  O273  1  0.62829296  1.00546922  0.23947645  1
  O  O274  1  0.63493114  0.98937966  0.74503983  1
  O  O275  1  0.37006392  0.00731602  0.25700526  1
  O  O276  1  0.36243021  0.00632338  0.74930148  1
  O  O277  1  0.35395929  0.49870827  0.24321617  1
  O  O278  1  0.36835900  0.49692343  0.75841253  1
  O  O279  1  0.87080936  0.00957347  0.26029180  1
  O  O280  1  0.87046956  0.00568775  0.75086395  1
  O  O281  1  0.87071628  0.50952438  0.25844743  1
  O  O282  1  0.86913768  0.50420324  0.74094577  1
  O  O283  1  0.11980860  0.37115427  0.36811990  1
  O  O284  1  0.12024180  0.36932576  0.86853402  1
  O  O285  1  0.12692370  0.86870374  0.36430451  1
  O  O286  1  0.12396843  0.87879337  0.86202150  1
  O  O287  1  0.61983083  0.35978341  0.38171705  1
  O  O288  1  0.62181366  0.36183736  0.86548650  1
  O  O289  1  0.61783245  0.87044260  0.37408835  1
  O  O290  1  0.62239546  0.86403660  0.86671972  1
  O  O291  1  0.37952635  0.13460403  0.12949562  1
  O  O292  1  0.36972497  0.12220696  0.63675976  1
  O  O293  1  0.38692530  0.63238094  0.12820108  1
  O  O294  1  0.37907586  0.63377441  0.63217112  1
  O  O295  1  0.88131068  0.13486514  0.13247829  1
  O  O296  1  0.87626152  0.13559548  0.63322204  1
  O  O297  1  0.87080764  0.62675335  0.14394528  1
  O  O298  1  0.87905144  0.63064203  0.62860696  1
  O  O299  1  0.25764462  0.24400927  0.11472623  1
  O  O300  1  0.24401251  0.26242332  0.61859562  1
  O  O301  1  0.26482970  0.75488773  0.12112552  1
  O  O302  1  0.26262741  0.75136366  0.62533601  1
  O  O303  1  0.75513333  0.25732125  0.12304866  1
  O  O304  1  0.76292125  0.24872391  0.61183012  1
  O  O305  1  0.73797592  0.75974065  0.12125357  1
  O  O306  1  0.76535692  0.74368011  0.62446721  1
  O  O307  1  0.24410911  0.24720731  0.38254665  1
  O  O308  1  0.24049959  0.24484138  0.87972199  1
  O  O309  1  0.23566471  0.75264959  0.36944980  1
  O  O310  1  0.25940984  0.75120417  0.89147573  1
  O  O311  1  0.74574376  0.24533107  0.37989049  1
  O  O312  1  0.74220821  0.25140125  0.88531985  1
  O  O313  1  0.73645905  0.74470708  0.37120178  1
  O  O314  1  0.73294724  0.74525242  0.88496623  1
  O  O315  1  0.00982218  0.14243645  0.01699972  1
  O  O316  1  0.01402266  0.13636575  0.49802647  1
  O  O317  1  -0.00651305  0.63775881  0.00772207  1
  O  O318  1  0.00267645  0.61507042  0.49755202  1
  O  O319  1  0.50187338  0.11999785  0.00305245  1
  O  O320  1  0.50201268  0.12314532  0.50074370  1
  O  O321  1  0.50745078  0.62380336  0.00718038  1
  O  O322  1  0.51439939  0.62698666  0.50789178  1
  O  O323  1  0.48507458  0.36429280  0.49658549  1
  O  O324  1  0.48372893  0.36665671  0.99635953  1
  O  O325  1  0.49151520  0.87780220  0.48434104  1
  O  O326  1  0.49693431  0.88379960  0.99286135  1
  O  O327  1  0.99651455  0.38772117  0.49332680  1
  O  O328  1  0.99551678  0.37640875  0.98511805  1
  O  O329  1  0.98163209  0.87131809  0.49310436  1
  O  O330  1  0.99399400  0.85729317  1.01415191  1
  O  O331  1  0.51481763  0.47653496  0.37814956  1
  O  O332  1  0.48672829  0.49418099  0.87253632  1
  O  O333  1  0.49061539  0.99400453  0.36999264  1
  O  O334  1  0.50992954  0.99477828  0.88724299  1
  O  O335  1  0.99535777  0.49849552  0.38031600  1
  O  O336  1  1.00240498  0.48277178  0.86405947  1
  O  O337  1  0.98671165  1.01090322  0.37050863  1
  O  O338  1  0.99449556  1.01541116  0.88572811  1
  O  O339  1  0.00587139  0.01066815  0.12444842  1
  O  O340  1  0.01151202  0.00306941  0.62863087  1
  O  O341  1  0.01908593  0.50531928  0.13240663  1
  O  O342  1  0.00924688  0.50059056  0.61465182  1
  O  O343  1  0.50549254  0.00655399  0.12076559  1
  O  O344  1  0.50219357  0.00225590  0.62274293  1
  O  O345  1  0.49651812  0.50637077  0.13267638  1
  O  O346  1  0.51462729  0.49690879  0.62623398  1
  O  O347  1  0.23730169  0.38151335  0.25350717  1
  O  O348  1  0.24756472  0.37905449  0.74246525  1
  O  O349  1  0.24499374  0.88363050  0.24415390  1
  O  O350  1  0.23625658  0.88115089  0.74953596  1
  O  O351  1  0.74724165  0.38786415  0.24681664  1
  O  O352  1  0.74225822  0.37956208  0.75312776  1
  O  O353  1  0.74498145  0.88524020  0.24571757  1
  O  O354  1  0.74116811  0.88355033  0.74648399  1
  O  O355  1  0.25280732  0.12153616  0.25601371  1
  O  O356  1  0.25489035  0.11948045  0.75541211  1
  O  O357  1  0.25030505  0.61482748  0.25195850  1
  O  O358  1  0.25053968  0.61094200  0.74668132  1
  O  O359  1  0.75594470  0.12398220  0.25891375  1
  O  O360  1  0.75947580  0.11731515  0.74805129  1
  O  O361  1  0.75014047  0.61962364  0.26010752  1
  O  O362  1  0.76402864  0.61171547  0.74700170  1
  O  O363  1  0.36741182  0.12112006  0.36800331  1
  O  O364  1  0.36012656  0.12860648  0.86834907  1
  O  O365  1  0.42704441  0.61617353  0.35658706  1
  O  O366  1  0.37136524  0.61669156  0.87352060  1
  O  O367  1  0.86910582  0.12125140  0.37018539  1
  O  O368  1  0.86921862  0.14423374  0.85245418  1
  O  O369  1  0.86404469  0.62269522  0.37048890  1
  O  O370  1  0.86807986  0.62163613  0.86694270  1
  O  O371  1  0.12008596  0.38090445  0.13567181  1
  O  O372  1  0.13419222  0.38184158  0.62855682  1
  O  O373  1  0.13582913  0.88307574  0.13792526  1
  O  O374  1  0.12220278  0.88712639  0.62625077  1
  O  O375  1  0.63462814  0.36740389  0.12481114  1
  O  O376  1  0.62541573  0.37787473  0.63308375  1
  O  O377  1  0.62807725  0.88680462  0.12938684  1
  O  O378  1  0.61771847  0.86951154  0.63571733  1
  O  O379  1  0.12244892  0.26286271  0.25278055  1
  O  O380  1  0.12089038  0.25456909  0.75334035  1
  O  O381  1  0.12128824  0.75751709  0.25799517  1
  O  O382  1  0.11666004  0.76485580  0.74204210  1
  O  O383  1  0.61435739  0.24590475  0.25905366  1
  O  O384  1  0.62310850  0.25328947  0.75459405  1
  O  O385  1  0.61771454  0.75502800  0.25825101  1
  O  O386  1  0.63344852  0.75565974  0.75803662  1
  O  O387  1  0.37631969  0.24707268  0.24315991  1
  O  O388  1  0.38327121  0.23999709  0.75573975  1
  O  O389  1  0.38301723  0.74803461  0.24272928  1
  O  O390  1  0.37081764  0.74869259  0.73882322  1
  O  O391  1  0.87793833  0.25046773  0.24163121  1
  O  O392  1  0.88224196  0.24891822  0.73758661  1
  O  O393  1  0.88185407  0.74401766  0.26264106  1
  O  O394  1  0.87859786  0.74112958  0.74148471  1
  O  O395  1  0.37320670  0.48715529  0.50214530  1
  O  O396  1  0.36453074  0.48919051  0.99389766  1
  O  O397  1  0.37526084  1.00711746  0.48441410  1
  O  O398  1  0.38633835  0.99127059  1.00654733  1
  O  O399  1  0.88053734  0.49624392  0.49492736  1
  O  O400  1  0.85263201  0.50942389  0.98950251  1
  O  O401  1  0.87391853  0.99407346  0.48888551  1
  O  O402  1  0.88393108  1.02214747  0.98863817  1
  O  O403  1  0.12324187  -0.00200331  0.01382672  1
  O  O404  1  0.12320050  0.00952148  0.51224302  1
  O  O405  1  0.13257983  0.49901279  0.01344214  1
  O  O406  1  0.11904058  0.50751086  0.50106527  1
  O  O407  1  0.61586909  0.01004233  0.01364426  1
  O  O408  1  0.62410179  0.00263517  0.50075109  1
  O  O409  1  0.62554647  0.51022601  -0.00825814  1
  O  O410  1  0.63432768  0.50869253  0.50951585  1
  O  O411  1  0.37624206  0.36199116  0.11862175  1
  O  O412  1  0.36866452  0.37597749  0.61413191  1
  O  O413  1  0.37255922  0.86986382  0.11670770  1
  O  O414  1  0.37031198  0.86408870  0.62368318  1
  O  O415  1  0.86705908  0.37364596  0.12236014  1
  O  O416  1  0.88070911  0.36932866  0.60993912  1
  O  O417  1  0.85706960  0.88161171  0.13267249  1
  O  O418  1  0.87646832  0.87044785  0.61241571  1
  O  O419  1  0.13032081  0.13278943  0.38097969  1
  O  O420  1  0.13467352  0.13435424  0.87496762  1
  O  O421  1  0.12380428  0.63889578  0.38094935  1
  O  O422  1  0.13723156  0.61823967  0.87293583  1
  O  O423  1  0.63560133  0.13566483  0.37662326  1
  O  O424  1  0.62695065  0.13507644  0.87765616  1
  O  O425  1  0.62768165  0.63426830  0.38263386  1
  O  O426  1  0.61739053  0.62938545  0.88764874  1
