# generated using pymatgen
data_V85Zn86O256
_symmetry_space_group_name_H-M   'P 1'
_cell_length_a   16.92630035
_cell_length_b   16.92738022
_cell_length_c   16.92990259
_cell_angle_alpha   90.03365313
_cell_angle_beta   90.03995507
_cell_angle_gamma   90.06713132
_symmetry_Int_Tables_number   1
_chemical_formula_structural   V85Zn86O256
_chemical_formula_sum   'V85 Zn86 O256'
_cell_volume   4850.71515615
_cell_formula_units_Z   1
loop_
 _symmetry_equiv_pos_site_id
 _symmetry_equiv_pos_as_xyz
  1  'x, y, z'
loop_
 _atom_site_type_symbol
 _atom_site_label
 _atom_site_symmetry_multiplicity
 _atom_site_fract_x
 _atom_site_fract_y
 _atom_site_fract_z
 _atom_site_occupancy
  V  V0  1  -0.00303999  0.25510923  0.74394267  1
  V  V1  1  0.87461758  0.00352319  0.87452918  1
  V  V2  1  0.61722470  0.50044149  0.12399000  1
  V  V3  1  0.62940580  0.61953496  -0.00515850  1
  V  V4  1  0.36655824  0.12240572  0.74737428  1
  V  V5  1  0.37117686  0.51431457  0.37245641  1
  V  V6  1  -0.00393158  0.62754190  0.12585376  1
  V  V7  1  0.23527986  0.73819104  0.49039728  1
  V  V8  1  0.00082944  0.00345308  0.00291516  1
  V  V9  1  0.75087843  -0.00093986  0.24885198  1
  V  V10  1  0.87226929  0.75118822  0.12034174  1
  V  V11  1  0.50293479  0.62323256  0.62616198  1
  V  V12  1  0.12328793  0.62979486  -0.00078561  1
  V  V13  1  -0.00400007  0.12783476  0.62097727  1
  V  V14  1  0.24833002  0.38067717  0.64163178  1
  V  V15  1  0.37087955  0.87608347  0.49670458  1
  V  V16  1  0.24319249  0.25112839  0.49738298  1
  V  V17  1  0.63589836  0.62165443  0.49875935  1
  V  V18  1  0.00623923  0.75351281  0.25457221  1
  V  V19  1  0.49818483  0.12370455  0.62360142  1
  V  V20  1  0.88374350  0.13180687  0.24890314  1
  V  V21  1  0.12470476  0.49860646  0.12519279  1
  V  V22  1  0.62503086  0.24992110  0.37877057  1
  V  V23  1  0.75204340  0.00012555  0.74371483  1
  V  V24  1  0.12806844  0.00078347  0.13246209  1
  V  V25  1  0.74945256  0.12577319  0.37335043  1
  V  V26  1  0.25073331  0.12583936  0.36258545  1
  V  V27  1  0.50423832  0.74957534  0.74931692  1
  V  V28  1  0.86905374  0.75387656  0.62816979  1
  V  V29  1  0.12061439  0.75247209  0.86974859  1
  V  V30  1  0.74283397  0.49670432  0.75992103  1
  V  V31  1  0.49946116  0.49926861  0.50076907  1
  V  V32  1  0.38716018  0.38279612  -0.00007527  1
  V  V33  1  0.12544407  0.87986559  0.74931983  1
  V  V34  1  0.49994527  0.00041622  -0.00469927  1
  V  V35  1  0.12355704  0.12307742  0.49439544  1
  V  V36  1  0.37374058  0.25031714  0.62511244  1
  V  V37  1  0.50039941  0.87442955  0.87396619  1
  V  V38  1  -0.00111525  0.87640641  0.86965776  1
  V  V39  1  0.74882034  0.87198158  0.11676716  1
  V  V40  1  0.37017652  0.00227016  0.35863877  1
  V  V41  1  0.37161723  0.37564045  0.50025369  1
  V  V42  1  0.25134586  0.87951585  0.13484511  1
  V  V43  1  0.62532169  0.12632879  -0.00038186  1
  V  V44  1  0.63532624  0.74346628  0.37254136  1
  V  V45  1  -0.00346385  0.49841158  0.00135901  1
  V  V46  1  0.63110319  0.87468978  0.74764930  1
  V  V47  1  0.00604325  0.87452996  0.38603170  1
  V  V48  1  0.62754487  -0.00683795  0.61872550  1
  V  V49  1  0.87921291  -0.00319650  0.38045350  1
  V  V50  1  0.12342937  0.49688276  0.64430120  1
  V  V51  1  0.00382546  0.36159522  0.37766388  1
  V  V52  1  0.75143332  0.37244475  0.63133513  1
  V  V53  1  0.49704637  0.24567735  0.25072050  1
  V  V54  1  0.37400772  0.24522272  0.12674373  1
  V  V55  1  0.37164548  -0.00729006  0.86457586  1
  V  V56  1  0.24918456  0.87922818  0.62711790  1
  V  V57  1  0.49583627  0.73625413  0.24939982  1
  V  V58  1  0.49718319  -0.00250702  0.49636296  1
  V  V59  1  0.24885223  0.11980266  0.87448768  1
  V  V60  1  0.49563075  0.37320427  0.37672951  1
  V  V61  1  0.05505485  0.55560872  0.45644740  1
  V  V62  1  0.49912808  0.87283527  0.37134405  1
  V  V63  1  0.74910847  0.13418737  0.87192666  1
  V  V64  1  0.64010646  0.74883276  0.88194036  1
  V  V65  1  0.12285824  0.00235637  0.62219771  1
  V  V66  1  0.49614039  0.12217526  0.12825774  1
  V  V67  1  0.75113948  0.37671554  0.12744189  1
  V  V68  1  0.37213268  0.87262365  -0.00208850  1
  V  V69  1  0.00419854  0.62899644  0.63371675  1
  V  V70  1  0.12719250  0.25305545  0.87037604  1
  V  V71  1  0.25267972  0.51270008  0.25174110  1
  V  V72  1  0.37427947  0.74862876  0.62120338  1
  V  V73  1  0.12088867  0.36313460  0.25192135  1
  V  V74  1  0.62520114  0.37500381  0.25163586  1
  V  V75  1  0.51480389  0.37582809  0.86675393  1
  V  V76  1  0.00305529  0.37705077  0.87005208  1
  V  V77  1  0.62463517  0.87116807  0.24829723  1
  V  V78  1  0.86575986  0.62613196  0.25553016  1
  V  V79  1  0.86762883  0.50450619  0.38652570  1
  V  V80  1  0.37290806  0.73904066  0.12585969  1
  V  V81  1  0.76106296  0.25053288  0.50531757  1
  V  V82  1  0.87129236  0.62621294  0.75859235  1
  V  V83  1  0.75026735  0.25062821  0.00183886  1
  V  V84  1  0.25036709  0.37522594  0.12487967  1
  Zn  Zn85  1  0.88299378  0.25623718  0.12946610  1
  Zn  Zn86  1  0.12637208  0.12565611  -0.00036166  1
  Zn  Zn87  1  0.62341470  -0.00306260  0.12479827  1
  Zn  Zn88  1  0.87331611  0.50251339  0.87893346  1
  Zn  Zn89  1  0.36706087  0.61409146  0.74791750  1
  Zn  Zn90  1  0.87530896  0.12994617  0.74262369  1
  Zn  Zn91  1  0.62306781  0.49247245  0.63199171  1
  Zn  Zn92  1  0.24838150  0.61936821  0.86666956  1
  Zn  Zn93  1  0.24544511  0.75418269  0.00251368  1
  Zn  Zn94  1  0.87011646  0.88035516  0.50774481  1
  Zn  Zn95  1  0.87616797  0.37427567  0.00125167  1
  Zn  Zn96  1  0.00714063  0.13413503  0.12881542  1
  Zn  Zn97  1  0.12953793  0.87488855  0.25738261  1
  Zn  Zn98  1  0.87117080  0.87260440  -0.00309028  1
  Zn  Zn99  1  0.25145194  0.25047916  -0.00240975  1
  Zn  Zn100  1  0.74945031  0.75612678  0.50329116  1
  Zn  Zn101  1  0.49259116  0.61647242  0.11741821  1
  Zn  Zn102  1  0.62445262  0.12272441  0.49763876  1
  Zn  Zn103  1  0.51127211  0.25471695  0.75213612  1
  Zn  Zn104  1  0.37202570  0.50055169  0.86725858  1
  Zn  Zn105  1  0.88468934  0.37677805  0.50981834  1
  Zn  Zn106  1  0.74744239  0.50334316  0.25506211  1
  Zn  Zn107  1  0.18618221  0.18790493  0.18488420  1
  Zn  Zn108  1  0.18477003  0.19099013  0.68741611  1
  Zn  Zn109  1  0.18593707  0.68998349  0.18572208  1
  Zn  Zn110  1  0.18368194  0.69281357  0.68354785  1
  Zn  Zn111  1  0.68768928  0.18762097  0.18668755  1
  Zn  Zn112  1  0.68489265  0.18825493  0.68464720  1
  Zn  Zn113  1  0.68650245  0.68622695  0.18226619  1
  Zn  Zn114  1  0.68928229  0.68204654  0.69029001  1
  Zn  Zn115  1  0.31012174  0.31253474  0.31033559  1
  Zn  Zn116  1  0.32060020  0.30836024  0.81519316  1
  Zn  Zn117  1  0.31298370  0.80673808  0.31241336  1
  Zn  Zn118  1  0.29774565  0.78040748  0.79697927  1
  Zn  Zn119  1  0.81482882  0.31715555  0.31745168  1
  Zn  Zn120  1  0.81834021  0.31622677  0.81302169  1
  Zn  Zn121  1  0.81612733  0.81407026  0.31017335  1
  Zn  Zn122  1  0.81570380  0.81440033  0.80663727  1
  Zn  Zn123  1  0.19019900  0.43556335  0.43519951  1
  Zn  Zn124  1  0.18751169  0.43661366  0.93599159  1
  Zn  Zn125  1  0.18882739  0.94042007  0.43955042  1
  Zn  Zn126  1  0.18765452  0.93847748  0.94077915  1
  Zn  Zn127  1  0.68887633  0.43428281  0.44332101  1
  Zn  Zn128  1  0.68729631  0.43825310  0.94000513  1
  Zn  Zn129  1  0.69118839  0.93118301  0.43625552  1
  Zn  Zn130  1  0.68669552  0.94182429  0.93469121  1
  Zn  Zn131  1  0.31218303  0.05989250  0.05925169  1
  Zn  Zn132  1  0.30782514  0.06051019  0.55751176  1
  Zn  Zn133  1  0.30405472  0.55662913  0.04502746  1
  Zn  Zn134  1  0.30904389  0.56134399  0.56528929  1
  Zn  Zn135  1  0.81464448  0.06150221  0.06403665  1
  Zn  Zn136  1  0.81103789  0.06404817  0.55985610  1
  Zn  Zn137  1  0.80645548  0.56484891  0.06324921  1
  Zn  Zn138  1  0.81274415  0.56080357  0.57214204  1
  Zn  Zn139  1  0.43489947  0.43547390  0.19089944  1
  Zn  Zn140  1  0.43686282  0.43839982  0.69325175  1
  Zn  Zn141  1  0.43882772  0.93220251  0.18399049  1
  Zn  Zn142  1  0.43892307  0.93550542  0.68700639  1
  Zn  Zn143  1  0.93591917  0.43841981  0.19300771  1
  Zn  Zn144  1  0.93593611  0.44067865  0.68805917  1
  Zn  Zn145  1  0.93871637  0.93814042  0.19039043  1
  Zn  Zn146  1  0.94174428  0.94144781  0.68703592  1
  Zn  Zn147  1  0.06436017  0.05917445  0.31598054  1
  Zn  Zn148  1  0.06355735  0.06363043  0.80721661  1
  Zn  Zn149  1  0.05723942  0.55580811  0.29597632  1
  Zn  Zn150  1  0.05951344  0.56480921  0.81401137  1
  Zn  Zn151  1  0.56259650  0.06064323  0.31071057  1
  Zn  Zn152  1  0.57516676  0.08874493  0.79760188  1
  Zn  Zn153  1  0.56110503  0.56049917  0.31372520  1
  Zn  Zn154  1  0.55607611  0.56075101  0.81855058  1
  Zn  Zn155  1  0.43147994  0.18569549  0.43810538  1
  Zn  Zn156  1  0.43716888  0.19199173  0.93711426  1
  Zn  Zn157  1  0.44116818  0.68884244  0.44075897  1
  Zn  Zn158  1  0.44189268  0.68409489  0.93575799  1
  Zn  Zn159  1  0.93906163  0.18519461  0.43524582  1
  Zn  Zn160  1  0.93743381  0.18992919  0.93852634  1
  Zn  Zn161  1  0.93447695  0.69258917  0.43972577  1
  Zn  Zn162  1  0.93919967  0.69127430  0.93804735  1
  Zn  Zn163  1  0.06318350  0.30916034  0.05935623  1
  Zn  Zn164  1  0.06589835  0.31629433  0.56287689  1
  Zn  Zn165  1  0.05880491  0.81783714  0.06310289  1
  Zn  Zn166  1  0.05974219  0.80924423  0.56365307  1
  Zn  Zn167  1  0.56480422  0.30970487  0.06031611  1
  Zn  Zn168  1  0.56568068  0.31272611  0.56501720  1
  Zn  Zn169  1  0.56001963  0.80742330  0.06104158  1
  Zn  Zn170  1  0.56483527  0.81122253  0.55842893  1
  O  O171  1  0.12583847  0.11630456  0.12054915  1
  O  O172  1  0.12109977  0.11902316  0.61830505  1
  O  O173  1  0.11501056  0.62119421  0.11895434  1
  O  O174  1  0.11287160  0.61737451  0.63267292  1
  O  O175  1  0.61830045  0.12237831  0.11525517  1
  O  O176  1  0.61413544  0.10939676  0.61854790  1
  O  O177  1  0.62184551  0.61593532  0.11803251  1
  O  O178  1  0.61799348  0.62301327  0.61752810  1
  O  O179  1  0.37961116  0.37669348  0.38288405  1
  O  O180  1  0.37294043  0.37509053  0.89339940  1
  O  O181  1  0.37906118  0.88186906  0.37828487  1
  O  O182  1  0.37689243  0.87834122  0.88027811  1
  O  O183  1  0.88852666  0.38951049  0.37419107  1
  O  O184  1  0.88930219  0.37844680  0.88115342  1
  O  O185  1  0.88378778  0.88291474  0.37429200  1
  O  O186  1  0.88015904  0.88492345  0.87393535  1
  O  O187  1  0.25815680  0.01239430  0.37787029  1
  O  O188  1  0.25902622  0.00743133  0.87886449  1
  O  O189  1  0.25967369  0.49486772  0.36478943  1
  O  O190  1  0.26045451  0.51191994  0.90333919  1
  O  O191  1  0.75430748  0.00363084  0.36341323  1
  O  O192  1  0.75737026  0.00689007  0.86575233  1
  O  O193  1  0.76439398  0.49290446  0.37432583  1
  O  O194  1  0.75455378  0.49509366  0.86487956  1
  O  O195  1  0.24559408  0.49304713  0.12888654  1
  O  O196  1  0.23503726  0.49379139  0.62239373  1
  O  O197  1  0.24225259  0.99211080  0.12068371  1
  O  O198  1  0.23805596  0.99132974  0.62036248  1
  O  O199  1  0.73889298  0.49173892  0.12831299  1
  O  O200  1  0.74651108  0.49235439  0.63890112  1
  O  O201  1  0.74969007  0.99363839  0.13602318  1
  O  O202  1  0.74200957  1.00682894  0.63421379  1
  O  O203  1  0.00934650  0.38556805  0.26434099  1
  O  O204  1  -0.00200970  0.36954818  0.75771641  1
  O  O205  1  0.00100545  0.86742240  0.25967919  1
  O  O206  1  0.00693650  0.88246534  0.76294425  1
  O  O207  1  0.50593440  0.36587158  0.25696186  1
  O  O208  1  0.50471915  0.37143476  0.75975149  1
  O  O209  1  0.50720637  0.86612034  0.25302047  1
  O  O210  1  0.51359521  0.87262015  0.75410524  1
  O  O211  1  0.50582632  0.12877015  0.23565092  1
  O  O212  1  0.48015941  0.10639116  0.73067933  1
  O  O213  1  0.50182001  0.63376431  0.24383310  1
  O  O214  1  0.50248559  0.63011045  0.73822512  1
  O  O215  1  0.98623672  0.12056814  0.25274697  1
  O  O216  1  0.99949841  0.13308132  0.73899316  1
  O  O217  1  0.98928134  0.63244383  0.24365266  1
  O  O218  1  0.98798014  0.62144200  0.74109610  1
  O  O219  1  0.37398174  0.25845505  0.01235656  1
  O  O220  1  0.36544970  0.25430121  0.50708432  1
  O  O221  1  0.37595724  0.76214839  0.00505375  1
  O  O222  1  0.37632538  0.75873716  0.50905493  1
  O  O223  1  0.86195682  0.24988364  0.00371953  1
  O  O224  1  0.86352295  0.25162956  0.49310888  1
  O  O225  1  0.87976807  0.75298697  0.01507658  1
  O  O226  1  0.87090649  0.74652781  0.51727877  1
  O  O227  1  0.13803840  0.24476104  0.50293677  1
  O  O228  1  0.12926131  0.24588422  0.98516818  1
  O  O229  1  0.13597699  0.74944412  0.50411465  1
  O  O230  1  0.11779188  0.74399804  0.99533764  1
  O  O231  1  0.62936622  0.24811236  0.48861509  1
  O  O232  1  0.63857027  0.24011103  1.00327356  1
  O  O233  1  0.62642584  0.74092908  0.49021780  1
  O  O234  1  0.62712723  0.74902964  0.98606376  1
  O  O235  1  0.49518457  0.24139281  0.12863214  1
  O  O236  1  0.49496470  0.23886371  0.62501242  1
  O  O237  1  0.48988005  0.75012647  0.13347665  1
  O  O238  1  0.49691945  0.74289899  0.62651008  1
  O  O239  1  0.99550445  0.24684133  0.12120413  1
  O  O240  1  1.01019129  0.24319586  0.63354672  1
  O  O241  1  0.99172661  0.74896517  0.13341320  1
  O  O242  1  0.99322194  0.73385300  0.62408198  1
  O  O243  1  -0.00581810  0.26337282  0.36979559  1
  O  O244  1  0.00695569  0.25702972  0.87021195  1
  O  O245  1  -0.00727316  0.76437369  0.36921786  1
  O  O246  1  0.00866015  0.76361091  0.87991021  1
  O  O247  1  0.50482625  0.25100581  0.37244120  1
  O  O248  1  0.48936432  0.26965871  0.87243499  1
  O  O249  1  0.50498276  0.75394448  0.36636266  1
  O  O250  1  0.50959595  0.75785855  0.86590152  1
  O  O251  1  0.24090385  0.13285056  0.49481751  1
  O  O252  1  0.25219733  0.12780881  0.98594862  1
  O  O253  1  0.25405539  0.63998235  0.50354211  1
  O  O254  1  0.23042967  0.63432569  1.00484840  1
  O  O255  1  0.74668405  0.13294063  0.49208758  1
  O  O256  1  0.74528991  0.12960920  0.99680918  1
  O  O257  1  0.73808906  0.62583872  0.50671258  1
  O  O258  1  0.73050677  0.63054562  1.00704780  1
  O  O259  1  0.25795934  0.37314604  0.01411210  1
  O  O260  1  0.25477315  0.36739253  0.50459897  1
  O  O261  1  0.25847378  0.87565207  0.00989384  1
  O  O262  1  0.25459953  0.87011370  0.50829301  1
  O  O263  1  0.75088018  0.36783153  0.00822010  1
  O  O264  1  0.75467220  0.36567762  0.50819462  1
  O  O265  1  0.75042810  0.88351652  0.01323872  1
  O  O266  1  0.75650795  0.87051035  0.50044377  1
  O  O267  1  0.13342944  0.49125583  0.24130773  1
  O  O268  1  0.12810724  0.50324381  0.74334340  1
  O  O269  1  0.11991474  0.99619242  0.23627326  1
  O  O270  1  0.12587370  0.98864378  0.74246281  1
  O  O271  1  0.62738652  0.49323880  0.24520534  1
  O  O272  1  0.64040751  0.50978146  0.75333233  1
  O  O273  1  0.63314928  0.99192689  0.24761883  1
  O  O274  1  0.63223460  0.99477143  0.74188408  1
  O  O275  1  0.38072102  -0.00371819  0.25987582  1
  O  O276  1  0.37259565  -0.00062086  0.75968608  1
  O  O277  1  0.36567907  0.49534487  0.25998288  1
  O  O278  1  0.36598975  0.50059419  0.75003511  1
  O  O279  1  0.86781736  0.00723412  0.25797484  1
  O  O280  1  0.86741623  0.00258973  0.75449918  1
  O  O281  1  0.87397178  0.51046140  0.26231828  1
  O  O282  1  0.86723802  0.51135657  0.75351220  1
  O  O283  1  0.11300160  0.37832819  0.36769866  1
  O  O284  1  0.11460684  0.36745256  0.87977823  1
  O  O285  1  0.11054123  0.88221823  0.37607474  1
  O  O286  1  0.11820863  0.87603757  0.86844183  1
  O  O287  1  0.61816100  0.36772490  0.37286127  1
  O  O288  1  0.61310372  0.37357118  0.88124533  1
  O  O289  1  0.61820285  0.86574822  0.36714887  1
  O  O290  1  0.62302925  0.86665822  0.86870818  1
  O  O291  1  0.38444721  0.13156046  0.11766760  1
  O  O292  1  0.37549244  0.12786523  0.62762150  1
  O  O293  1  0.37223374  0.63669336  0.11088323  1
  O  O294  1  0.38326898  0.63401378  0.62455532  1
  O  O295  1  0.87471342  0.12303132  0.14197630  1
  O  O296  1  0.89187326  0.12027622  0.62030153  1
  O  O297  1  0.87718406  0.63194804  0.13244328  1
  O  O298  1  0.88410728  0.62968562  0.63516952  1
  O  O299  1  0.25808433  0.25619502  0.12396847  1
  O  O300  1  0.25357567  0.25781317  0.61812579  1
  O  O301  1  0.25694144  0.75886677  0.12389330  1
  O  O302  1  0.25873761  0.75865403  0.61347921  1
  O  O303  1  0.75183253  0.25904273  0.11954921  1
  O  O304  1  0.74596717  0.25403990  0.61662258  1
  O  O305  1  0.75913955  0.76109655  0.13290932  1
  O  O306  1  0.76532350  0.74529232  0.62867058  1
  O  O307  1  0.25793349  0.23682828  0.38336604  1
  O  O308  1  0.24438495  0.24084177  0.87310302  1
  O  O309  1  0.25274168  0.75454732  0.39143706  1
  O  O310  1  0.22851015  0.75983181  0.88596874  1
  O  O311  1  0.74214228  0.24812536  0.38150604  1
  O  O312  1  0.75623215  0.23913703  0.88037196  1
  O  O313  1  0.73785486  0.75152870  0.37104654  1
  O  O314  1  0.73827936  0.75451166  0.87037015  1
  O  O315  1  0.00013830  0.11259259  -0.00105422  1
  O  O316  1  0.01466807  0.13466553  0.50434238  1
  O  O317  1  0.00571722  0.62001564  0.00504007  1
  O  O318  1  -0.00329988  0.62153728  0.51337437  1
  O  O319  1  0.50690529  0.12241088  0.00464724  1
  O  O320  1  0.49708418  0.11734537  0.50888656  1
  O  O321  1  0.52051621  0.63658192  0.00521545  1
  O  O322  1  0.50681422  0.62038552  0.51108074  1
  O  O323  1  0.49298258  0.37891994  0.49737791  1
  O  O324  1  0.49060539  0.36937407  0.99536508  1
  O  O325  1  0.49308214  0.87811021  0.49112355  1
  O  O326  1  0.49325691  0.87913031  0.99385919  1
  O  O327  1  1.00014566  0.37020650  0.48538208  1
  O  O328  1  0.99896526  0.38523707  0.99483572  1
  O  O329  1  0.99292071  0.87059881  0.48906200  1
  O  O330  1  0.99714364  0.88813525  0.98911854  1
  O  O331  1  0.49167499  0.49197812  0.37983948  1
  O  O332  1  0.49332900  0.48214866  0.87303212  1
  O  O333  1  0.49334598  0.99575253  0.37936414  1
  O  O334  1  0.49107569  0.99379060  0.87874894  1
  O  O335  1  0.99474996  0.49930552  0.38678168  1
  O  O336  1  1.00015759  0.49416741  0.88379078  1
  O  O337  1  0.99162427  0.98596629  0.37040914  1
  O  O338  1  0.99201990  0.99832299  0.87883315  1
  O  O339  1  0.00628619  0.00127836  0.11759188  1
  O  O340  1  0.01355228  0.00996455  0.62774872  1
  O  O341  1  0.00322468  0.50541775  0.12043523  1
  O  O342  1  0.01340190  0.50808769  0.62819371  1
  O  O343  1  0.49878485  0.00680713  0.11619637  1
  O  O344  1  0.50508804  0.00099712  0.61456016  1
  O  O345  1  0.51281068  0.49726701  0.13212535  1
  O  O346  1  0.50303379  0.50632139  0.61987802  1
  O  O347  1  0.24440596  0.38027383  0.23969431  1
  O  O348  1  0.25413441  0.36519882  0.73958225  1
  O  O349  1  0.24920012  0.87130560  0.23931978  1
  O  O350  1  0.24296934  0.86776594  0.73420741  1
  O  O351  1  0.74313046  0.37507877  0.24415676  1
  O  O352  1  0.75409491  0.38667789  0.74768029  1
  O  O353  1  0.74492463  0.88191469  0.24327683  1
  O  O354  1  0.73932563  0.88483805  0.75218287  1
  O  O355  1  0.24758524  0.12995642  0.26402675  1
  O  O356  1  0.25973707  0.12672613  0.75486876  1
  O  O357  1  0.24443075  0.61212540  0.24534133  1
  O  O358  1  0.26200336  0.66623998  0.75957820  1
  O  O359  1  0.75439045  0.11676892  0.25431074  1
  O  O360  1  0.75494906  0.11799728  0.75706723  1
  O  O361  1  0.76211121  0.62517866  0.24755851  1
  O  O362  1  0.76288632  0.61267788  0.74751003  1
  O  O363  1  0.36173894  0.11571534  0.37822096  1
  O  O364  1  0.37073566  0.11719382  0.86589188  1
  O  O365  1  0.38210424  0.61311985  0.37833336  1
  O  O366  1  0.37314288  0.62602222  0.87017445  1
  O  O367  1  0.87007961  0.11808463  0.36585704  1
  O  O368  1  0.86782403  0.11551090  0.87406060  1
  O  O369  1  0.88030143  0.61361631  0.37085487  1
  O  O370  1  0.88164194  0.62671505  0.86207765  1
  O  O371  1  0.13290956  0.37946848  0.12842586  1
  O  O372  1  0.13141669  0.38910493  0.62731522  1
  O  O373  1  0.13461941  0.88145316  0.12585056  1
  O  O374  1  0.12692614  0.88134861  0.62925068  1
  O  O375  1  0.63216770  0.37932318  0.12909483  1
  O  O376  1  0.64109814  0.37612353  0.62263913  1
  O  O377  1  0.63121042  0.87239107  0.13067085  1
  O  O378  1  0.61997705  0.88534385  0.63145802  1
  O  O379  1  0.12788141  0.26397998  0.24743401  1
  O  O380  1  0.11471561  0.24523869  0.76275600  1
  O  O381  1  0.11033211  0.75123488  0.24752088  1
  O  O382  1  0.12142525  0.76665940  0.75644173  1
  O  O383  1  0.62034621  0.25350185  0.26125683  1
  O  O384  1  0.60693580  0.19670904  0.76169493  1
  O  O385  1  0.61755683  0.75055593  0.25496146  1
  O  O386  1  0.62393465  0.75656923  0.75538930  1
  O  O387  1  0.38207130  0.25508517  0.23614435  1
  O  O388  1  0.38143200  0.23730665  0.74233455  1
  O  O389  1  0.38367340  0.75275337  0.23902767  1
  O  O390  1  0.39071830  0.76126592  0.73105758  1
  O  O391  1  0.86645678  0.23416893  0.25245808  1
  O  O392  1  0.89148598  0.24676430  0.75516391  1
  O  O393  1  0.88342022  0.74371260  0.24406495  1
  O  O394  1  0.87210921  0.73759232  0.74188158  1
  O  O395  1  0.37874999  0.49457592  0.49436928  1
  O  O396  1  0.38508950  0.48354940  1.01137235  1
  O  O397  1  0.37920106  0.99186767  0.49284059  1
  O  O398  1  0.38060380  0.98937965  0.99105312  1
  O  O399  1  0.87060708  0.50028889  0.48995232  1
  O  O400  1  0.88534786  0.50379993  1.00120599  1
  O  O401  1  0.87148348  1.00213513  0.48446851  1
  O  O402  1  0.88034179  0.99794843  0.99149990  1
  O  O403  1  0.11639937  0.00121734  0.00915220  1
  O  O404  1  0.12726078  0.01146826  0.50828197  1
  O  O405  1  0.11283025  0.50809046  0.00604851  1
  O  O406  1  0.12303262  0.49926223  0.50781733  1
  O  O407  1  0.61661582  0.00449428  0.00402540  1
  O  O408  1  0.61809738  -0.00210970  0.50373888  1
  O  O409  1  0.62603368  0.51098975  0.00630840  1
  O  O410  1  0.61683714  0.50653259  0.49872895  1
  O  O411  1  0.37105212  0.36759135  0.11847027  1
  O  O412  1  0.36827712  0.37014341  0.61819313  1
  O  O413  1  0.36839085  0.86953640  0.11656125  1
  O  O414  1  0.36739694  0.87280001  0.61740844  1
  O  O415  1  0.86245633  0.37736113  0.12638755  1
  O  O416  1  0.86124016  0.38030085  0.62358943  1
  O  O417  1  0.86717458  0.86858533  0.12631273  1
  O  O418  1  0.88752785  0.85696749  0.62957238  1
  O  O419  1  0.13738380  0.11891541  0.38159468  1
  O  O420  1  0.13465340  0.12826249  0.87388589  1
  O  O421  1  0.10539497  0.60923562  0.38981026  1
  O  O422  1  0.12189101  0.63596946  0.88101892  1
  O  O423  1  0.63021729  0.13237244  0.37512493  1
  O  O424  1  0.63828529  0.11091279  0.89292514  1
  O  O425  1  0.61823661  0.63237359  0.38479669  1
  O  O426  1  0.62235651  0.63658122  0.88350659  1
