# generated using pymatgen
data_V85Zn86O256
_symmetry_space_group_name_H-M   'P 1'
_cell_length_a   16.92892088
_cell_length_b   16.92458557
_cell_length_c   16.92542601
_cell_angle_alpha   90.01080572
_cell_angle_beta   90.03015886
_cell_angle_gamma   90.00403530
_symmetry_Int_Tables_number   1
_chemical_formula_structural   V85Zn86O256
_chemical_formula_sum   'V85 Zn86 O256'
_cell_volume   4849.38715883
_cell_formula_units_Z   1
loop_
 _symmetry_equiv_pos_site_id
 _symmetry_equiv_pos_as_xyz
  1  'x, y, z'
loop_
 _atom_site_type_symbol
 _atom_site_label
 _atom_site_symmetry_multiplicity
 _atom_site_fract_x
 _atom_site_fract_y
 _atom_site_fract_z
 _atom_site_occupancy
  V  V0  1  0.87174230  0.50076776  0.86971057  1
  V  V1  1  0.12878725  0.48691618  0.62688386  1
  V  V2  1  -0.00004233  0.75009422  0.74963609  1
  V  V3  1  0.74414122  0.62378066  0.86821845  1
  V  V4  1  0.00141654  0.62469413  0.12541193  1
  V  V5  1  -0.00019745  0.87640661  0.37484983  1
  V  V6  1  0.24892689  0.48748352  0.74927100  1
  V  V7  1  0.25675133  0.49993264  0.25368118  1
  V  V8  1  0.12629142  -0.00461449  0.62335110  1
  V  V9  1  0.87495410  0.25202423  0.62330052  1
  V  V10  1  0.86083046  0.12239623  0.25171177  1
  V  V11  1  0.62338163  0.12939769  0.00577424  1
  V  V12  1  0.49734983  0.49253481  0.49243840  1
  V  V13  1  0.87460760  0.25113378  0.12441294  1
  V  V14  1  -0.00121025  0.00016925  0.49669357  1
  V  V15  1  0.73924897  0.87679905  0.62815407  1
  V  V16  1  0.56677203  0.19196344  0.81739243  1
  V  V17  1  0.74019415  0.62700138  0.37800209  1
  V  V18  1  0.61443017  0.62174664  -0.00432161  1
  V  V19  1  0.25904780  0.12363103  0.37368989  1
  V  V20  1  0.37339233  0.86931795  0.00129798  1
  V  V21  1  0.00092990  0.12501195  0.62375543  1
  V  V22  1  0.00482856  0.62364168  0.62400490  1
  V  V23  1  0.25784170  0.62364446  0.37735345  1
  V  V24  1  0.12702129  0.12457191  0.49802722  1
  V  V25  1  0.74824522  0.38184892  0.62754613  1
  V  V26  1  0.74756173  0.25084042  -0.00611989  1
  V  V27  1  0.87646276  0.12633805  0.74997409  1
  V  V28  1  0.25140923  0.62758357  0.87886088  1
  V  V29  1  0.00369742  0.12162460  0.12719335  1
  V  V30  1  0.87383971  0.37622407  0.49856064  1
  V  V31  1  0.61899812  0.50279392  0.62535316  1
  V  V32  1  0.87047268  0.50135465  0.37268427  1
  V  V33  1  0.49773757  0.25408721  0.26024858  1
  V  V34  1  0.00026158  0.24896703  0.24933625  1
  V  V35  1  0.61384442  0.77081436  0.86216436  1
  V  V36  1  0.62429056  0.38057642  0.25899749  1
  V  V37  1  0.25003243  0.37597752  0.12417260  1
  V  V38  1  0.87534040  0.37627769  -0.00105202  1
  V  V39  1  0.00011546  0.87459680  0.87382529  1
  V  V40  1  0.49573411  0.00539332  0.52023993  1
  V  V41  1  0.25817232  0.00289077  0.24336073  1
  V  V42  1  0.37406619  0.24484034  0.12970976  1
  V  V43  1  0.62836149  0.11578710  0.50386557  1
  V  V44  1  0.86103218  0.00239550  0.37134106  1
  V  V45  1  0.12835253  0.75038502  0.88119899  1
  V  V46  1  0.12452726  0.88291549  0.24611937  1
  V  V47  1  0.74776225  0.24798294  0.49052778  1
  V  V48  1  0.00034857  0.75015293  0.25037435  1
  V  V49  1  0.39403275  -0.01375985  0.85735876  1
  V  V50  1  0.25495180  0.75035557  0.50888852  1
  V  V51  1  0.50439498  0.37556840  0.87042687  1
  V  V52  1  0.37743442  0.63883320  0.74560258  1
  V  V53  1  0.74952169  0.87854963  0.13301614  1
  V  V54  1  0.38179036  0.37473162  -0.00150496  1
  V  V55  1  0.74349831  0.75134281  -0.00276970  1
  V  V56  1  0.73505615  0.74609497  0.49842977  1
  V  V57  1  0.87188286  0.74903697  0.12407786  1
  V  V58  1  0.00060605  0.37684785  0.37331404  1
  V  V59  1  0.50490019  0.74674932  0.25637865  1
  V  V60  1  0.12900247  0.25445882  0.87285892  1
  V  V61  1  0.38083449  0.49986112  0.87453393  1
  V  V62  1  0.00497987  -0.00090299  0.00298287  1
  V  V63  1  0.49597372  0.12409149  0.13702900  1
  V  V64  1  0.86601091  0.62062247  0.24892952  1
  V  V65  1  0.24707211  0.86666936  0.12305195  1
  V  V66  1  0.74832178  0.38560639  0.12668572  1
  V  V67  1  0.87471366  0.00089406  0.87413502  1
  V  V68  1  0.12898422  0.25052921  0.37426047  1
  V  V69  1  0.12800018  0.12339804  -0.00009134  1
  V  V70  1  0.49950244  -0.00509892  0.00466558  1
  V  V71  1  0.00538451  0.25874629  0.74999909  1
  V  V72  1  0.24513940  0.00636070  0.75182848  1
  V  V73  1  0.61304355  0.49945454  0.12238857  1
  V  V74  1  0.36855580  0.37429829  0.49263673  1
  V  V75  1  0.87446576  0.75045094  0.62063448  1
  V  V76  1  0.74774705  -0.00208824  0.74504227  1
  V  V77  1  0.00381371  0.50091155  -0.00120163  1
  V  V78  1  0.38350844  0.25254397  0.63476769  1
  V  V79  1  0.62712516  0.37798150  0.75438366  1
  V  V80  1  0.87075430  0.62245210  0.74844074  1
  V  V81  1  0.87366662  0.87576536  -0.00014967  1
  V  V82  1  0.50570293  0.87932063  0.37627011  1
  V  V83  1  0.63000358  0.00118093  0.13816036  1
  V  V84  1  0.49792027  0.63438058  0.62155609  1
  Zn  Zn85  1  0.12709475  0.62384942  0.49894341  1
  Zn  Zn86  1  0.62463990  0.24753018  0.37496005  1
  Zn  Zn87  1  0.37899012  0.00116264  0.37602884  1
  Zn  Zn88  1  0.37758341  0.62362179  0.24813001  1
  Zn  Zn89  1  0.25856133  0.12230780  0.87632703  1
  Zn  Zn90  1  0.24873808  0.25556981  0.51324873  1
  Zn  Zn91  1  0.13421782  0.62910572  0.00498341  1
  Zn  Zn92  1  0.00599573  0.37965033  0.87168641  1
  Zn  Zn93  1  0.12663453  0.74749354  0.37562186  1
  Zn  Zn94  1  0.12827076  0.50211278  0.12571456  1
  Zn  Zn95  1  0.12576510  0.87278556  0.74853505  1
  Zn  Zn96  1  0.74770054  0.12793840  0.87186950  1
  Zn  Zn97  1  0.00293098  0.50087618  0.49850599  1
  Zn  Zn98  1  0.37490423  0.74643291  0.12509317  1
  Zn  Zn99  1  0.49575573  0.62656403  0.12257523  1
  Zn  Zn100  1  0.87268948  0.87572504  0.49939446  1
  Zn  Zn101  1  0.25889190  0.87125587  0.62857231  1
  Zn  Zn102  1  0.63102198  0.87243484  0.25946914  1
  Zn  Zn103  1  0.37932967  0.86968069  0.50303495  1
  Zn  Zn104  1  0.25121035  0.24806311  -0.00009120  1
  Zn  Zn105  1  0.12655647  0.37678218  0.24883673  1
  Zn  Zn106  1  0.39065583  0.12824556  0.74649976  1
  Zn  Zn107  1  0.18740146  0.18596613  0.18759430  1
  Zn  Zn108  1  0.19190147  0.19189419  0.68561342  1
  Zn  Zn109  1  0.18672225  0.68868141  0.19359398  1
  Zn  Zn110  1  0.18775581  0.68249791  0.69256323  1
  Zn  Zn111  1  0.68465718  0.19708435  0.18517130  1
  Zn  Zn112  1  0.69176988  0.18704257  0.67829742  1
  Zn  Zn113  1  0.68252349  0.68642608  0.18705909  1
  Zn  Zn114  1  0.68171152  0.68907188  0.68712353  1
  Zn  Zn115  1  0.31427608  0.31416549  0.31367962  1
  Zn  Zn116  1  0.31384530  0.30795417  0.81135425  1
  Zn  Zn117  1  0.31974865  0.81074024  0.31759829  1
  Zn  Zn118  1  0.30804676  0.81676253  0.81173343  1
  Zn  Zn119  1  0.81161825  0.31480975  0.30811114  1
  Zn  Zn120  1  0.81302056  0.31487796  0.81135859  1
  Zn  Zn121  1  0.81426983  0.80935784  0.31545999  1
  Zn  Zn122  1  0.80940912  0.81045188  0.81087859  1
  Zn  Zn123  1  0.18906719  0.44032555  0.43852722  1
  Zn  Zn124  1  0.19140268  0.43755923  0.93779839  1
  Zn  Zn125  1  0.18949264  0.93548121  0.43468186  1
  Zn  Zn126  1  0.19058059  0.93695337  0.93616552  1
  Zn  Zn127  1  0.68629023  0.44228213  0.44160102  1
  Zn  Zn128  1  0.68660185  0.44021542  0.93764977  1
  Zn  Zn129  1  0.68351824  0.93474594  0.44417334  1
  Zn  Zn130  1  0.68783353  0.94335902  0.94094107  1
  Zn  Zn131  1  0.31425605  0.05626759  0.06326700  1
  Zn  Zn132  1  0.31430397  0.06963510  0.56726594  1
  Zn  Zn133  1  0.31801203  0.56010762  0.06123432  1
  Zn  Zn134  1  0.31536101  0.55955567  0.56346728  1
  Zn  Zn135  1  0.81341043  0.06362326  0.06387704  1
  Zn  Zn136  1  0.81183431  0.06252617  0.55873015  1
  Zn  Zn137  1  0.80973576  0.56378142  0.05641219  1
  Zn  Zn138  1  0.81160379  0.56204377  0.55986675  1
  Zn  Zn139  1  0.43719602  0.43541590  0.18980678  1
  Zn  Zn140  1  0.43579989  0.43275215  0.68491777  1
  Zn  Zn141  1  0.43787018  0.93156245  0.18937989  1
  Zn  Zn142  1  0.42713835  0.92994819  0.68611439  1
  Zn  Zn143  1  0.93714625  0.43941708  0.18831480  1
  Zn  Zn144  1  0.93839768  0.43922285  0.68669595  1
  Zn  Zn145  1  0.93489387  0.94042610  0.18842004  1
  Zn  Zn146  1  0.93569647  0.93579922  0.68522003  1
  Zn  Zn147  1  0.06326627  0.06184104  0.31137122  1
  Zn  Zn148  1  0.06342716  0.06575622  0.81313759  1
  Zn  Zn149  1  0.06801948  0.56134787  0.31145684  1
  Zn  Zn150  1  0.06535557  0.56365499  0.81029326  1
  Zn  Zn151  1  0.56739638  0.06547598  0.32148324  1
  Zn  Zn152  1  0.55157667  0.00689029  0.79455968  1
  Zn  Zn153  1  0.56252622  0.55970439  0.30941929  1
  Zn  Zn154  1  0.56044989  0.56227622  0.80733378  1
  Zn  Zn155  1  0.43874226  0.18800218  0.44748040  1
  Zn  Zn156  1  0.43200592  0.17748169  0.94340089  1
  Zn  Zn157  1  0.43995917  0.68528095  0.43680535  1
  Zn  Zn158  1  0.43839921  0.69288697  0.93129993  1
  Zn  Zn159  1  0.93587756  0.18644295  0.43409746  1
  Zn  Zn160  1  0.93962331  0.18851826  0.93587510  1
  Zn  Zn161  1  0.93624553  0.68698246  0.43815927  1
  Zn  Zn162  1  0.93678112  0.68690462  0.93768228  1
  Zn  Zn163  1  0.06378330  0.31129258  0.05966275  1
  Zn  Zn164  1  0.06223787  0.31217564  0.55895546  1
  Zn  Zn165  1  0.06401561  0.81287474  0.06401450  1
  Zn  Zn166  1  0.06629347  0.80976136  0.55758740  1
  Zn  Zn167  1  0.55999001  0.31227795  0.06483353  1
  Zn  Zn168  1  0.56144225  0.31141608  0.56256932  1
  Zn  Zn169  1  0.56168680  0.81135240  0.06640002  1
  Zn  Zn170  1  0.55950934  0.81719801  0.56421480  1
  O  O171  1  0.11171428  0.13057971  0.11634001  1
  O  O172  1  0.11899696  0.11624206  0.61817064  1
  O  O173  1  0.11580300  0.62604565  0.12337803  1
  O  O174  1  0.11659782  0.61700142  0.62628449  1
  O  O175  1  0.62071765  0.11984154  0.12200041  1
  O  O176  1  0.62377895  0.13736097  0.60335198  1
  O  O177  1  0.62443459  0.61629696  0.11468170  1
  O  O178  1  0.60953270  0.61573017  0.63403755  1
  O  O179  1  0.37634988  0.36952277  0.39247989  1
  O  O180  1  0.38289506  0.37826230  0.87916728  1
  O  O181  1  0.38833495  0.87836129  0.38336631  1
  O  O182  1  0.36170871  0.88631496  0.88729890  1
  O  O183  1  0.87907485  0.38374827  0.37555311  1
  O  O184  1  0.87684732  0.38488274  0.88047242  1
  O  O185  1  0.88561343  0.88207074  0.37330634  1
  O  O186  1  0.87929555  0.87887897  0.88083436  1
  O  O187  1  0.25251357  0.00662607  0.36614999  1
  O  O188  1  0.25515876  0.00114021  0.86482849  1
  O  O189  1  0.24635598  0.51269069  0.36890547  1
  O  O190  1  0.25451382  0.50564218  0.86447749  1
  O  O191  1  0.76249448  -0.00975678  0.38050872  1
  O  O192  1  0.75871625  0.00407346  0.86748675  1
  O  O193  1  0.76341123  0.50945889  0.38396497  1
  O  O194  1  0.75992952  0.51136868  0.88106692  1
  O  O195  1  0.24950739  0.49122377  0.12907768  1
  O  O196  1  0.23988374  0.50441523  0.63736424  1
  O  O197  1  0.25063116  0.99323819  0.13931337  1
  O  O198  1  0.23970508  1.00108891  0.62975195  1
  O  O199  1  0.74432641  0.48944193  0.11692856  1
  O  O200  1  0.74167253  0.48861424  0.61799532  1
  O  O201  1  0.74336979  0.99000517  0.11949526  1
  O  O202  1  0.76183221  0.98388019  0.62861767  1
  O  O203  1  0.00138929  0.36855203  0.25605798  1
  O  O204  1  -0.00410133  0.36252019  0.75143368  1
  O  O205  1  0.00538219  0.87303389  0.25398653  1
  O  O206  1  -0.00005812  0.86822551  0.75617838  1
  O  O207  1  0.51106135  0.36639729  0.24455153  1
  O  O208  1  0.50976470  0.37320601  0.76163881  1
  O  O209  1  0.50388279  0.86685794  0.25842662  1
  O  O210  1  0.46947207  0.93043623  0.79045560  1
  O  O211  1  0.50768636  0.13256182  0.24139499  1
  O  O212  1  0.51521264  0.12275529  0.76387270  1
  O  O213  1  0.49931764  0.63482289  0.25034817  1
  O  O214  1  0.48464626  0.62026478  0.74023616  1
  O  O215  1  0.99645973  0.12949805  0.24172039  1
  O  O216  1  0.99087817  0.13206645  0.74499635  1
  O  O217  1  0.99269885  0.62700807  0.23955850  1
  O  O218  1  0.99373934  0.62936265  0.74017247  1
  O  O219  1  0.37347307  0.25423598  0.01108908  1
  O  O220  1  0.37333118  0.26100162  0.50674806  1
  O  O221  1  0.37932331  0.76518264  -0.00043339  1
  O  O222  1  0.35831161  0.74649173  0.49560025  1
  O  O223  1  0.87080592  0.25510045  0.00569584  1
  O  O224  1  0.87052035  0.25527634  0.50448389  1
  O  O225  1  0.86460228  0.75384026  0.00414826  1
  O  O226  1  0.86989273  0.74927889  0.51194090  1
  O  O227  1  0.12813303  0.24456273  0.49179837  1
  O  O228  1  0.12662318  0.23969377  0.99324227  1
  O  O229  1  0.13675732  0.74437282  0.49527681  1
  O  O230  1  0.11669183  0.74648952  0.98599811  1
  O  O231  1  0.63352666  0.25010590  0.49540776  1
  O  O232  1  0.63278776  0.23866714  1.00994423  1
  O  O233  1  0.63692164  0.74951576  0.50435917  1
  O  O234  1  0.63221217  0.74595921  0.99268300  1
  O  O235  1  0.49302271  0.24293357  0.13355531  1
  O  O236  1  0.48482748  0.25435550  0.62313879  1
  O  O237  1  0.49827399  0.74910756  0.13840716  1
  O  O238  1  0.50412650  0.73369005  0.61941421  1
  O  O239  1  0.99362225  0.24421263  0.12829462  1
  O  O240  1  0.99607196  0.24547149  0.63098264  1
  O  O241  1  0.99211512  0.74292800  0.12819178  1
  O  O242  1  0.99417703  0.74364988  0.62791258  1
  O  O243  1  0.00879623  0.25507356  0.37007010  1
  O  O244  1  0.00714534  0.25212205  0.86622078  1
  O  O245  1  -0.00232644  0.75809424  0.36825821  1
  O  O246  1  0.00310668  0.75387246  0.86922676  1
  O  O247  1  0.49732941  0.24414934  0.36264009  1
  O  O248  1  0.50231208  0.24915506  0.87522443  1
  O  O249  1  0.49820418  0.75625092  0.36546856  1
  O  O250  1  0.51545808  0.75431251  0.87414381  1
  O  O251  1  0.24175949  0.12596069  0.49042857  1
  O  O252  1  0.23779439  0.12085029  1.00204664  1
  O  O253  1  0.25138697  0.62941029  0.49260544  1
  O  O254  1  0.25155955  0.61750732  0.98360768  1
  O  O255  1  0.74163815  0.13388663  0.50392318  1
  O  O256  1  0.74228952  0.13212388  0.99980290  1
  O  O257  1  0.75273980  0.63783359  0.49485632  1
  O  O258  1  0.74289668  0.63477985  0.98928227  1
  O  O259  1  0.26284223  0.37271761  0.00568737  1
  O  O260  1  0.26311139  0.37583363  0.49790283  1
  O  O261  1  0.25677980  0.88487129  0.01429521  1
  O  O262  1  0.24862770  0.85980888  0.49874172  1
  O  O263  1  0.75475621  0.36924103  0.00485815  1
  O  O264  1  0.75525391  0.36941403  0.50668298  1
  O  O265  1  0.75440617  0.86844323  0.00710206  1
  O  O266  1  0.75189401  0.86373405  0.51018361  1
  O  O267  1  0.13799840  0.49598066  0.24523567  1
  O  O268  1  0.13831961  0.50332277  0.74221052  1
  O  O269  1  0.13326073  0.98853988  0.25425146  1
  O  O270  1  0.12488010  0.99894006  0.74036706  1
  O  O271  1  0.62308084  0.49184663  0.23761213  1
  O  O272  1  0.62287584  0.48840149  0.73949400  1
  O  O273  1  0.62487361  0.99922229  0.24060693  1
  O  O274  1  0.64911776  1.01236105  0.74445559  1
  O  O275  1  0.36097551  -0.00332601  0.25221487  1
  O  O276  1  0.35861777  0.01201553  0.74772583  1
  O  O277  1  0.36200405  0.49982437  0.24699074  1
  O  O278  1  0.36528993  0.50201096  0.75741989  1
  O  O279  1  0.87619873  0.01040283  0.25784804  1
  O  O280  1  0.87225241  0.00866189  0.75387524  1
  O  O281  1  0.87595297  0.50973484  0.25771850  1
  O  O282  1  0.87893376  0.50484976  0.76197976  1
  O  O283  1  0.11958550  0.36712293  0.37537120  1
  O  O284  1  0.12441576  0.35963980  0.88322005  1
  O  O285  1  0.11264590  0.87440857  0.36790920  1
  O  O286  1  0.11783568  0.86778741  0.87439374  1
  O  O287  1  0.63348944  0.37690186  0.36165914  1
  O  O288  1  0.61937715  0.37829144  0.86770148  1
  O  O289  1  0.61332713  0.87715141  0.37557908  1
  O  O290  1  0.62808338  0.87086475  0.87637841  1
  O  O291  1  0.38301234  0.13227051  0.12246019  1
  O  O292  1  0.37706974  0.14194315  0.62781609  1
  O  O293  1  0.37810203  0.62773098  0.12688259  1
  O  O294  1  0.38190976  0.62236337  0.63805311  1
  O  O295  1  0.88498206  0.12969967  0.13027564  1
  O  O296  1  0.88131879  0.13086889  0.62982183  1
  O  O297  1  0.87753450  0.62741922  0.13077955  1
  O  O298  1  0.88003512  0.62813474  0.63046324  1
  O  O299  1  0.25757815  0.25528679  0.12535983  1
  O  O300  1  0.26452272  0.25064919  0.62627941  1
  O  O301  1  0.25127078  0.76280524  0.13136122  1
  O  O302  1  0.24180619  0.74733257  0.61223992  1
  O  O303  1  0.75613483  0.25971515  0.11342062  1
  O  O304  1  0.75781517  0.26225824  0.61566109  1
  O  O305  1  0.75174128  0.75474356  0.11479819  1
  O  O306  1  0.75475279  0.75485348  0.61846441  1
  O  O307  1  0.23893946  0.24281369  0.37091829  1
  O  O308  1  0.24404583  0.24286892  0.87799118  1
  O  O309  1  0.24855874  0.73888379  0.38056151  1
  O  O310  1  0.23959493  0.74206860  0.86986856  1
  O  O311  1  0.75415391  0.25502931  0.38791374  1
  O  O312  1  0.75738478  0.24940375  0.88993535  1
  O  O313  1  0.75622610  0.74440122  0.39115794  1
  O  O314  1  0.74279793  0.74537226  0.88202264  1
  O  O315  1  0.00520994  0.11848870  0.00644529  1
  O  O316  1  0.00653787  0.12096644  0.50340631  1
  O  O317  1  -0.00290574  0.61893519  0.01214020  1
  O  O318  1  -0.00028007  0.62328262  0.51299817  1
  O  O319  1  0.50762966  0.12282524  0.01728173  1
  O  O320  1  0.50948620  0.11095906  0.49824312  1
  O  O321  1  0.51167098  0.63071831  -0.00183721  1
  O  O322  1  0.48786348  0.61272847  0.51585102  1
  O  O323  1  0.49316002  0.38672733  0.50185200  1
  O  O324  1  0.48960462  0.36681476  0.98904569  1
  O  O325  1  0.50390538  0.89064963  0.49648757  1
  O  O326  1  0.49116953  0.88554772  1.01041522  1
  O  O327  1  0.99206385  0.37520342  0.48965539  1
  O  O328  1  0.99333107  0.38467883  0.99959733  1
  O  O329  1  0.99770363  0.87920404  0.49031726  1
  O  O330  1  0.99420340  0.88238483  0.99716527  1
  O  O331  1  0.50471248  0.50769240  0.39444044  1
  O  O332  1  0.49212511  0.48941493  0.87005259  1
  O  O333  1  0.49740846  0.99327168  0.37778056  1
  O  O334  1  0.50146526  1.01591569  0.90174712  1
  O  O335  1  0.99175349  0.49478551  0.37425874  1
  O  O336  1  0.99464273  0.50182924  0.88139985  1
  O  O337  1  0.99496667  0.99317709  0.37862068  1
  O  O338  1  0.99399421  0.99508665  0.88081621  1
  O  O339  1  -0.00518645  0.00903006  0.11513692  1
  O  O340  1  0.00445921  0.00508087  0.61762727  1
  O  O341  1  0.00160285  0.50724784  0.11756730  1
  O  O342  1  0.01160240  0.50665452  0.62735933  1
  O  O343  1  0.50689687  0.00643934  0.12421757  1
  O  O344  1  0.50011371  -0.00089258  0.61831711  1
  O  O345  1  0.50953580  0.50006292  0.12321301  1
  O  O346  1  0.50495104  0.50536367  0.62140671  1
  O  O347  1  0.25014191  0.38071799  0.24210899  1
  O  O348  1  0.25113455  0.38913585  0.75649065  1
  O  O349  1  0.24385036  0.88414478  0.24761589  1
  O  O350  1  0.24413715  0.88815224  0.74639200  1
  O  O351  1  0.73980011  0.36815190  0.23571322  1
  O  O352  1  0.73900981  0.36842822  0.74128951  1
  O  O353  1  0.75044849  0.86531906  0.23693266  1
  O  O354  1  0.75918326  0.88253619  0.73673897  1
  O  O355  1  0.24109432  0.10960461  0.25636422  1
  O  O356  1  0.23980240  0.11296515  0.75498941  1
  O  O357  1  0.25127403  0.61924631  0.26026185  1
  O  O358  1  0.26204966  0.61778105  0.75808309  1
  O  O359  1  0.76227338  0.13263250  0.24072912  1
  O  O360  1  0.76413879  0.12330874  0.74702493  1
  O  O361  1  0.76147343  0.63481304  0.25683263  1
  O  O362  1  0.75333763  0.63005984  0.76096564  1
  O  O363  1  0.36135501  0.12755056  0.37913948  1
  O  O364  1  0.37750633  0.10703259  0.86987422  1
  O  O365  1  0.36149687  0.62520172  0.37188456  1
  O  O366  1  0.37306482  0.61831978  0.86649076  1
  O  O367  1  0.87846673  0.11587042  0.36333438  1
  O  O368  1  0.87507978  0.12044284  0.86583678  1
  O  O369  1  0.87101093  0.61888291  0.36713393  1
  O  O370  1  0.86711749  0.62040147  0.86955923  1
  O  O371  1  0.14006721  0.37322380  0.12191439  1
  O  O372  1  0.11963529  0.38776360  0.62485736  1
  O  O373  1  0.13165630  0.87382117  0.13342142  1
  O  O374  1  0.12341633  0.88741145  0.62400543  1
  O  O375  1  0.63058069  0.38246409  0.12690230  1
  O  O376  1  0.63034696  0.37859729  0.63377410  1
  O  O377  1  0.63424056  0.88489385  0.12496932  1
  O  O378  1  0.64024017  0.87215209  0.62737683  1
  O  O379  1  0.11831326  0.25174571  0.25717732  1
  O  O380  1  0.11548559  0.24190092  0.75881248  1
  O  O381  1  0.11694743  0.76207200  0.25308546  1
  O  O382  1  0.11711064  0.74992245  0.75949305  1
  O  O383  1  0.61643319  0.25977856  0.25265452  1
  O  O384  1  0.62680696  0.25020247  0.75566533  1
  O  O385  1  0.61086309  0.75283729  0.24703894  1
  O  O386  1  0.62995781  0.75517535  0.76384904  1
  O  O387  1  0.38210970  0.25730430  0.23765436  1
  O  O388  1  0.37872530  0.24647836  0.74293992  1
  O  O389  1  0.38905163  0.74960055  0.24788704  1
  O  O390  1  0.37236413  0.73727294  0.75589689  1
  O  O391  1  0.88173990  0.24385508  0.24461748  1
  O  O392  1  0.88145995  0.24413121  0.74456855  1
  O  O393  1  0.88134095  0.74252768  0.24287389  1
  O  O394  1  0.87828396  0.74331935  0.73918107  1
  O  O395  1  0.38505071  0.48616133  0.50778548  1
  O  O396  1  0.37181240  0.48981098  0.98354133  1
  O  O397  1  0.38844469  1.00408469  0.50145987  1
  O  O398  1  0.38453998  0.99179078  0.99625614  1
  O  O399  1  0.87970342  0.49367967  0.49247156  1
  O  O400  1  0.88484408  0.49884851  0.99044743  1
  O  O401  1  0.88267158  0.99978780  0.49041465  1
  O  O402  1  0.88381342  0.99720677  0.99403482  1
  O  O403  1  0.11173504  0.00636883  -0.00641292  1
  O  O404  1  0.12000390  0.00403764  0.50440733  1
  O  O405  1  0.11355355  0.50332680  -0.00036055  1
  O  O406  1  0.12430142  0.50244692  0.51414984  1
  O  O407  1  0.62111292  0.01222719  0.01071688  1
  O  O408  1  0.61839145  0.00953155  0.50382610  1
  O  O409  1  0.62874409  0.51104910  0.00707953  1
  O  O410  1  0.61177894  0.49306057  0.51456210  1
  O  O411  1  0.36875373  0.36932796  0.11649232  1
  O  O412  1  0.37649375  0.36398767  0.61608671  1
  O  O413  1  0.36514695  0.87483165  0.11856766  1
  O  O414  1  0.37183988  0.86871991  0.61638848  1
  O  O415  1  0.86740872  0.37317183  0.11955451  1
  O  O416  1  0.86809314  0.37336312  0.62056078  1
  O  O417  1  0.86881206  0.87058221  0.11903258  1
  O  O418  1  0.87012536  0.86346034  0.62186256  1
  O  O419  1  0.12932143  0.13269695  0.37923306  1
  O  O420  1  0.12237986  0.13399998  0.88658175  1
  O  O421  1  0.13569783  0.62676621  0.37734566  1
  O  O422  1  0.13411105  0.63181204  0.87529294  1
  O  O423  1  0.62650516  0.13099690  0.39379483  1
  O  O424  1  0.62589825  0.13505148  0.88298808  1
  O  O425  1  0.64190410  0.61863314  0.36858032  1
  O  O426  1  0.63017332  0.62634090  0.87832792  1
