# generated using pymatgen
data_V85Zn86O256
_symmetry_space_group_name_H-M   'P 1'
_cell_length_a   16.91081536
_cell_length_b   16.91036515
_cell_length_c   16.92075778
_cell_angle_alpha   90.04214224
_cell_angle_beta   89.95686033
_cell_angle_gamma   89.99711081
_symmetry_Int_Tables_number   1
_chemical_formula_structural   V85Zn86O256
_chemical_formula_sum   'V85 Zn86 O256'
_cell_volume   4838.79363431
_cell_formula_units_Z   1
loop_
 _symmetry_equiv_pos_site_id
 _symmetry_equiv_pos_as_xyz
  1  'x, y, z'
loop_
 _atom_site_type_symbol
 _atom_site_label
 _atom_site_symmetry_multiplicity
 _atom_site_fract_x
 _atom_site_fract_y
 _atom_site_fract_z
 _atom_site_occupancy
  V  V0  1  0.87541468  0.37463035  0.00190357  1
  V  V1  1  0.74794424  -0.00109897  0.25043460  1
  V  V2  1  -0.00074165  0.87408629  0.37204978  1
  V  V3  1  0.12757131  0.74765632  0.37382774  1
  V  V4  1  0.74853480  0.74867078  0.50016194  1
  V  V5  1  0.49946036  0.39287686  0.37771869  1
  V  V6  1  0.87327088  0.61858560  0.24334521  1
  V  V7  1  0.49061651  0.62055875  0.62676253  1
  V  V8  1  0.01210128  -0.00021286  -0.00976412  1
  V  V9  1  0.01668460  0.11653533  0.12347307  1
  V  V10  1  0.87992712  0.74569348  0.62246294  1
  V  V11  1  0.12784466  0.25238589  0.37595390  1
  V  V12  1  0.37325343  0.49836907  0.87424692  1
  V  V13  1  0.00202267  0.25049697  0.24739193  1
  V  V14  1  0.74761006  0.62084500  0.36924101  1
  V  V15  1  0.12423134  0.87638385  0.74119319  1
  V  V16  1  0.49618973  0.24150736  0.75363288  1
  V  V17  1  0.24284012  0.23702106  -0.00262128  1
  V  V18  1  0.48995610  0.74880364  0.24809222  1
  V  V19  1  0.24915921  0.00606522  0.24503131  1
  V  V20  1  0.13040864  0.63146511  0.00142992  1
  V  V21  1  0.87382403  0.12522953  0.24492071  1
  V  V22  1  0.24755736  0.87136061  0.11974457  1
  V  V23  1  0.12698279  0.12570509  0.49973557  1
  V  V24  1  0.62348564  0.74811346  0.87384270  1
  V  V25  1  0.39013521  0.13479264  0.24484222  1
  V  V26  1  0.87063005  0.49799148  0.37302625  1
  V  V27  1  0.12803907  0.37278900  0.75775970  1
  V  V28  1  0.38194880  0.38702207  0.50111951  1
  V  V29  1  0.49401697  0.01111593  0.00795809  1
  V  V30  1  0.11635524  0.50432856  0.62644318  1
  V  V31  1  0.87380162  -0.00074189  0.37471330  1
  V  V32  1  0.62188833  0.74698943  0.37507811  1
  V  V33  1  0.49910875  0.61872301  0.12335103  1
  V  V34  1  0.87408093  0.12018762  0.76729910  1
  V  V35  1  0.74388707  0.12521716  0.37841300  1
  V  V36  1  0.61757418  0.61840013  0.49952875  1
  V  V37  1  0.75028448  0.75026668  -0.00225775  1
  V  V38  1  0.62953162  0.01143407  0.62291741  1
  V  V39  1  0.00009759  0.37625722  0.37527274  1
  V  V40  1  0.49475811  0.37329432  0.88219693  1
  V  V41  1  0.87626082  0.88580546  -0.01217203  1
  V  V42  1  0.63539816  0.49942917  0.12721705  1
  V  V43  1  0.49229530  0.74549567  0.74997826  1
  V  V44  1  0.00062111  0.74368068  0.24562128  1
  V  V45  1  0.87580636  0.37363264  0.50173785  1
  V  V46  1  0.00626661  0.24701968  0.75856965  1
  V  V47  1  0.74807807  0.87492597  0.12525121  1
  V  V48  1  0.87992956  0.62033673  0.74490455  1
  V  V49  1  0.25368699  0.37999286  0.11159936  1
  V  V50  1  0.12305294  0.50769548  0.12898490  1
  V  V51  1  0.37614149  0.24265739  0.62629963  1
  V  V52  1  0.12502310  0.88022701  0.24257363  1
  V  V53  1  0.74182024  0.24538056  0.50346208  1
  V  V54  1  0.00068513  -0.00028221  0.50014672  1
  V  V55  1  0.62141422  0.87312450  0.24771617  1
  V  V56  1  0.74968199  0.62107740  0.86779506  1
  V  V57  1  0.49605612  0.87463370  0.37716249  1
  V  V58  1  0.25046566  0.75289058  0.50364399  1
  V  V59  1  0.63253494  0.12540833  0.00514552  1
  V  V60  1  0.25984484  -0.00565453  0.74181903  1
  V  V61  1  0.87657270  0.24390421  0.62695551  1
  V  V62  1  0.87867862  0.74848890  0.12177845  1
  V  V63  1  0.25408408  0.61226395  0.37116984  1
  V  V64  1  0.75006852  0.37781555  0.63199084  1
  V  V65  1  0.61452850  0.24818372  0.37381795  1
  V  V66  1  0.00054130  0.50908173  0.00100425  1
  V  V67  1  0.63313533  0.37608831  0.25287734  1
  V  V68  1  0.12354275  0.75779360  0.87864727  1
  V  V69  1  0.75251968  0.00167160  0.76344089  1
  V  V70  1  0.49940591  0.87771737  0.87609890  1
  V  V71  1  0.37346704  0.59771741  0.25028029  1
  V  V72  1  0.62311922  0.49870193  0.62508789  1
  V  V73  1  0.25653173  0.63480095  0.86867869  1
  V  V74  1  0.74874429  0.87564489  0.62505757  1
  V  V75  1  0.37219208  0.86949079  0.00066509  1
  V  V76  1  -0.00158481  0.75467147  0.75412914  1
  V  V77  1  0.63307634  0.24542904  0.87719941  1
  V  V78  1  0.62583578  0.37906584  0.75474763  1
  V  V79  1  0.25196113  0.37581494  0.62644007  1
  V  V80  1  0.13584752  0.38172031  0.24989481  1
  V  V81  1  0.24400763  0.12829683  0.86161179  1
  V  V82  1  0.87423761  0.49779985  0.87035147  1
  V  V83  1  0.37279294  0.87579698  0.50887360  1
  V  V84  1  0.50368655  0.00908053  0.50013350  1
  Zn  Zn85  1  0.62451433  0.62155843  -0.00162604  1
  Zn  Zn86  1  0.36815969  0.74261894  0.12161850  1
  Zn  Zn87  1  0.38549325  0.24577461  0.11391670  1
  Zn  Zn88  1  0.25449657  0.24994294  0.49846048  1
  Zn  Zn89  1  -0.00552781  0.50901143  0.50488076  1
  Zn  Zn90  1  0.75682880  0.24640329  0.00143552  1
  Zn  Zn91  1  0.25304966  0.12632824  0.37122220  1
  Zn  Zn92  1  0.75656950  0.37518873  0.13240162  1
  Zn  Zn93  1  0.36814065  0.74744818  0.63015290  1
  Zn  Zn94  1  0.61855136  0.00918896  0.13118175  1
  Zn  Zn95  1  0.13017250  -0.00491885  0.62011209  1
  Zn  Zn96  1  0.00124983  0.12181269  0.62767821  1
  Zn  Zn97  1  0.37401162  0.00415620  0.37391998  1
  Zn  Zn98  1  0.00639753  0.37144570  0.87971096  1
  Zn  Zn99  1  0.87669227  0.25000574  0.12270962  1
  Zn  Zn100  1  0.87477418  0.87359129  0.49849440  1
  Zn  Zn101  1  0.49704844  0.49444296  0.00250182  1
  Zn  Zn102  1  0.37688087  0.00797385  0.87169940  1
  Zn  Zn103  1  0.25560030  0.50511678  0.74803669  1
  Zn  Zn104  1  0.12144081  0.62655453  0.50382765  1
  Zn  Zn105  1  0.62447033  0.87665773  0.74955014  1
  Zn  Zn106  1  0.50076779  0.12479192  0.62715150  1
  Zn  Zn107  1  0.19350122  0.19485298  0.18584965  1
  Zn  Zn108  1  0.18765153  0.18697085  0.68448378  1
  Zn  Zn109  1  0.19103247  0.68626096  0.18850252  1
  Zn  Zn110  1  0.18547646  0.68865157  0.68891730  1
  Zn  Zn111  1  0.68683390  0.19318045  0.18568308  1
  Zn  Zn112  1  0.69017816  0.18784511  0.69468402  1
  Zn  Zn113  1  0.68603836  0.68759514  0.18707969  1
  Zn  Zn114  1  0.68590381  0.68702546  0.68937216  1
  Zn  Zn115  1  0.31695056  0.31682171  0.31226400  1
  Zn  Zn116  1  0.31250912  0.31013704  0.81610193  1
  Zn  Zn117  1  0.31046735  0.81290509  0.31320312  1
  Zn  Zn118  1  0.31219585  0.81663251  0.81365363  1
  Zn  Zn119  1  0.81070441  0.30864652  0.31333393  1
  Zn  Zn120  1  0.81505946  0.31082094  0.81456715  1
  Zn  Zn121  1  0.81221053  0.80950789  0.31153947  1
  Zn  Zn122  1  0.81124231  0.81228043  0.80997612  1
  Zn  Zn123  1  0.18845496  0.43533939  0.44393549  1
  Zn  Zn124  1  0.18962686  0.44463144  0.93789358  1
  Zn  Zn125  1  0.18930092  0.93671549  0.43158829  1
  Zn  Zn126  1  0.19006828  0.94049964  0.93055412  1
  Zn  Zn127  1  0.68895659  0.43597523  0.44130079  1
  Zn  Zn128  1  0.68818473  0.43860453  0.94024737  1
  Zn  Zn129  1  0.68405919  0.93604460  0.43862295  1
  Zn  Zn130  1  0.68227134  0.93802671  0.94189670  1
  Zn  Zn131  1  0.31027401  0.06317769  0.06575657  1
  Zn  Zn132  1  0.31278227  0.06295777  0.55970396  1
  Zn  Zn133  1  0.31070250  0.55954343  0.05751799  1
  Zn  Zn134  1  0.30573893  0.56276912  0.55998627  1
  Zn  Zn135  1  0.81142798  0.06042769  0.06407519  1
  Zn  Zn136  1  0.81378307  0.06218222  0.56351966  1
  Zn  Zn137  1  0.81193005  0.56329078  0.05770806  1
  Zn  Zn138  1  0.80748031  0.56103883  0.56147408  1
  Zn  Zn139  1  0.45511082  0.40870145  0.17601330  1
  Zn  Zn140  1  0.43825123  0.43598278  0.69432224  1
  Zn  Zn141  1  0.43061372  0.94035477  0.18672257  1
  Zn  Zn142  1  0.44196726  0.93626396  0.68636229  1
  Zn  Zn143  1  0.94392169  0.43941871  0.18618984  1
  Zn  Zn144  1  0.93906179  0.43236209  0.69194338  1
  Zn  Zn145  1  0.93753942  0.93704280  0.18244131  1
  Zn  Zn146  1  0.93674249  0.93618939  0.68753888  1
  Zn  Zn147  1  0.06428699  0.06334215  0.31217244  1
  Zn  Zn148  1  0.06719932  0.06132175  0.81348417  1
  Zn  Zn149  1  0.05944011  0.56334592  0.31559481  1
  Zn  Zn150  1  0.06278469  0.56562648  0.81233078  1
  Zn  Zn151  1  0.56147238  0.06271066  0.31378707  1
  Zn  Zn152  1  0.56677752  0.06232659  0.81650391  1
  Zn  Zn153  1  0.56082080  0.55882525  0.30651038  1
  Zn  Zn154  1  0.55991859  0.55977489  0.81031078  1
  Zn  Zn155  1  0.43242301  0.18947869  0.43698190  1
  Zn  Zn156  1  0.42694029  0.18982983  0.93621910  1
  Zn  Zn157  1  0.43312209  0.68275683  0.43787255  1
  Zn  Zn158  1  0.43620165  0.68666402  0.93904770  1
  Zn  Zn159  1  0.93671433  0.18678718  0.43647078  1
  Zn  Zn160  1  0.94596261  0.18499261  0.94163713  1
  Zn  Zn161  1  0.93865355  0.68461003  0.43678139  1
  Zn  Zn162  1  0.93933903  0.68842335  0.93551113  1
  Zn  Zn163  1  0.06289858  0.31332947  0.06280201  1
  Zn  Zn164  1  0.06202135  0.31414417  0.56619851  1
  Zn  Zn165  1  0.05957245  0.81689495  0.06018884  1
  Zn  Zn166  1  0.06061329  0.81071533  0.56113949  1
  Zn  Zn167  1  0.56451403  0.30792073  0.06685028  1
  Zn  Zn168  1  0.56012391  0.31177033  0.56305513  1
  Zn  Zn169  1  0.55926886  0.81091528  0.06132870  1
  Zn  Zn170  1  0.56146046  0.81193808  0.56419493  1
  O  O171  1  0.11446023  0.12468499  0.13271897  1
  O  O172  1  0.12158970  0.12410590  0.61035089  1
  O  O173  1  0.13012344  0.62107719  0.11591238  1
  O  O174  1  0.13066526  0.60758713  0.62652895  1
  O  O175  1  0.62191884  0.12784483  0.11203529  1
  O  O176  1  0.62825250  0.11471546  0.62695357  1
  O  O177  1  0.61730621  0.61756378  0.12651894  1
  O  O178  1  0.62166525  0.61699509  0.61852537  1
  O  O179  1  0.38971333  0.37207747  0.38596823  1
  O  O180  1  0.38361761  0.38240645  0.87174748  1
  O  O181  1  0.38628786  0.87506742  0.38016585  1
  O  O182  1  0.38447900  0.87904253  0.88209550  1
  O  O183  1  0.87700024  0.38126034  0.37858446  1
  O  O184  1  0.87916897  0.38319907  0.87932090  1
  O  O185  1  0.88013684  0.88075017  0.37420885  1
  O  O186  1  0.87163747  0.87085576  0.88992729  1
  O  O187  1  0.25293703  0.00017781  0.35988399  1
  O  O188  1  0.25317419  0.00685069  0.85925407  1
  O  O189  1  0.24188361  0.51395778  0.37774031  1
  O  O190  1  0.25544142  0.51356206  0.87240966  1
  O  O191  1  0.75181292  0.00652945  0.37141694  1
  O  O192  1  0.74411539  -0.00703344  0.86245536  1
  O  O193  1  0.76108084  0.50627141  0.37905026  1
  O  O194  1  0.76352327  0.50767306  0.87866411  1
  O  O195  1  0.23259206  0.49350763  0.11601770  1
  O  O196  1  0.24330725  0.49028169  0.62777903  1
  O  O197  1  0.25309727  0.98802067  0.13704736  1
  O  O198  1  0.24876266  1.00577517  0.63758576  1
  O  O199  1  0.73956285  0.50068936  0.12184267  1
  O  O200  1  0.73837951  0.48935217  0.62373690  1
  O  O201  1  0.74485761  0.99299598  0.13347047  1
  O  O202  1  0.74635901  0.99301340  0.62896873  1
  O  O203  1  0.00863935  0.36921477  0.25600305  1
  O  O204  1  0.00918697  0.36444349  0.75308600  1
  O  O205  1  0.00536862  0.86720422  0.25170450  1
  O  O206  1  0.00550533  0.86452074  0.74724599  1
  O  O207  1  0.51448508  0.38059538  0.27374232  1
  O  O208  1  0.51009570  0.36456107  0.75812359  1
  O  O209  1  0.49984295  0.86817043  0.25580111  1
  O  O210  1  0.50318002  0.86946678  0.75956001  1
  O  O211  1  0.48965229  0.12492162  0.25039765  1
  O  O212  1  0.50566135  0.13713055  0.75053658  1
  O  O213  1  0.49142609  0.62924318  0.24235042  1
  O  O214  1  0.50550410  0.63357802  0.73953350  1
  O  O215  1  0.99415091  0.12684927  0.24176276  1
  O  O216  1  0.99158311  0.12745856  0.74869167  1
  O  O217  1  0.98988260  0.63684044  0.25410087  1
  O  O218  1  0.98812189  0.63617953  0.75165970  1
  O  O219  1  0.35433690  0.25083907  0.00102427  1
  O  O220  1  0.37539987  0.26056172  0.50990024  1
  O  O221  1  0.38057240  0.76486192  0.00289478  1
  O  O222  1  0.36721569  0.75697407  0.49935816  1
  O  O223  1  0.87857578  0.25973793  -0.00126450  1
  O  O224  1  0.86801980  0.25354637  0.50795306  1
  O  O225  1  0.87290034  0.75774430  0.00610592  1
  O  O226  1  0.86749482  0.74896957  0.50618211  1
  O  O227  1  0.12486442  0.24463266  0.49330332  1
  O  O228  1  0.14267514  0.25752482  1.00243189  1
  O  O229  1  0.13152810  0.75157064  0.48963442  1
  O  O230  1  0.11580781  0.74488172  0.99062431  1
  O  O231  1  0.63696788  0.25317037  0.49643404  1
  O  O232  1  0.62521297  0.24052077  0.99578169  1
  O  O233  1  0.62898222  0.74213010  0.49426072  1
  O  O234  1  0.63046843  0.74681458  0.99115481  1
  O  O235  1  0.48066218  0.30065128  0.13706264  1
  O  O236  1  0.49494811  0.24802096  0.63387299  1
  O  O237  1  0.49778770  0.74022631  0.13375504  1
  O  O238  1  0.50044421  0.74068171  0.63350466  1
  O  O239  1  0.99882061  0.23661606  0.12867666  1
  O  O240  1  0.99077520  0.24923556  0.63512779  1
  O  O241  1  0.98701677  0.75487426  0.13124696  1
  O  O242  1  0.98480989  0.75330644  0.62948440  1
  O  O243  1  0.00974966  0.25505837  0.37034746  1
  O  O244  1  0.00049632  0.25011560  0.86323268  1
  O  O245  1  0.00607478  0.75512629  0.36553328  1
  O  O246  1  0.00872804  0.74828157  0.86501814  1
  O  O247  1  0.51328563  0.25598533  0.38614335  1
  O  O248  1  0.50414183  0.25491139  0.87041333  1
  O  O249  1  0.50263300  0.75358069  0.36924815  1
  O  O250  1  0.50424152  0.75411611  0.86985539  1
  O  O251  1  0.24185427  0.12785046  0.49359808  1
  O  O252  1  0.24488092  0.13229307  0.99893634  1
  O  O253  1  0.24589686  0.63198458  0.48662353  1
  O  O254  1  0.23729094  0.62501695  0.98800980  1
  O  O255  1  0.75693923  0.13265607  0.48992931  1
  O  O256  1  0.73678669  0.12296548  1.00118584  1
  O  O257  1  0.74002575  0.62895344  0.48939771  1
  O  O258  1  0.75127755  0.63318884  0.98552778  1
  O  O259  1  0.24462888  0.37244474  0.00837446  1
  O  O260  1  0.26184127  0.37224631  0.50779900  1
  O  O261  1  0.25935711  0.88406374  0.00695162  1
  O  O262  1  0.26041631  0.86700281  0.49174246  1
  O  O263  1  0.76672988  0.37701704  -0.00000692  1
  O  O264  1  0.75534858  0.36588508  0.51188753  1
  O  O265  1  0.75803418  0.87171642  0.00477558  1
  O  O266  1  0.75087702  0.86736988  0.50597150  1
  O  O267  1  0.11666195  0.49407087  0.24172112  1
  O  O268  1  0.12587964  0.49312768  0.74080794  1
  O  O269  1  0.13108449  0.98879551  0.25499150  1
  O  O270  1  0.13152830  0.99157557  0.74512030  1
  O  O271  1  0.62495293  0.49200775  0.24061460  1
  O  O272  1  0.62542132  0.48564305  0.74582142  1
  O  O273  1  0.62901472  0.99204914  0.24995814  1
  O  O274  1  0.63420359  0.99919303  0.74225209  1
  O  O275  1  0.36777536  0.01188898  0.25136458  1
  O  O276  1  0.36375475  -0.00533024  0.74853352  1
  O  O277  1  0.38657895  0.50072190  0.24713131  1
  O  O278  1  0.37401546  0.50049347  0.76440990  1
  O  O279  1  0.86949000  0.00525725  0.25522242  1
  O  O280  1  0.87027394  0.01301102  0.74572588  1
  O  O281  1  0.87974993  0.51167862  0.25480423  1
  O  O282  1  0.88033539  0.50806140  0.75641766  1
  O  O283  1  0.12169027  0.37212667  0.36987204  1
  O  O284  1  0.12640834  0.38355193  0.86133621  1
  O  O285  1  0.12152164  0.86349204  0.36386526  1
  O  O286  1  0.13250438  0.86268280  0.86261501  1
  O  O287  1  0.61811696  0.37021797  0.37680456  1
  O  O288  1  0.62125006  0.36981862  0.86908933  1
  O  O289  1  0.61317547  0.86845985  0.37000912  1
  O  O290  1  0.61311551  0.86829874  0.87705593  1
  O  O291  1  0.37313173  0.12808508  0.13865751  1
  O  O292  1  0.37648839  0.13896994  0.62092378  1
  O  O293  1  0.37904847  0.62191546  0.13253402  1
  O  O294  1  0.38750201  0.62428586  0.61673889  1
  O  O295  1  0.87840742  0.12328943  0.13721508  1
  O  O296  1  0.87710631  0.13547383  0.62890619  1
  O  O297  1  0.86751610  0.63359749  0.13295941  1
  O  O298  1  0.86440766  0.63242182  0.63362013  1
  O  O299  1  0.25240312  0.26411233  0.11547891  1
  O  O300  1  0.25781235  0.26062288  0.62479764  1
  O  O301  1  0.25187213  0.76501497  0.13023927  1
  O  O302  1  0.24988606  0.74164737  0.60920705  1
  O  O303  1  0.75779625  0.25512724  0.12088469  1
  O  O304  1  0.75549260  0.25353168  0.62045925  1
  O  O305  1  0.75746213  0.75406031  0.11886906  1
  O  O306  1  0.75572302  0.75637646  0.62209933  1
  O  O307  1  0.23747721  0.25393187  0.37582162  1
  O  O308  1  0.24895751  0.23781767  0.88120182  1
  O  O309  1  0.24301336  0.74388996  0.38066344  1
  O  O310  1  0.24365174  0.74172773  0.87199964  1
  O  O311  1  0.74366633  0.24271139  0.38483359  1
  O  O312  1  0.73666483  0.25436893  0.87902668  1
  O  O313  1  0.74263247  0.74176679  0.37911213  1
  O  O314  1  0.74312019  0.74461182  0.87745298  1
  O  O315  1  -0.00136136  0.11238900  0.01355749  1
  O  O316  1  0.00612562  0.11629238  0.49873548  1
  O  O317  1  0.00961660  0.61620224  -0.00596138  1
  O  O318  1  0.00840532  0.62175041  0.49396740  1
  O  O319  1  0.50143027  0.11375193  -0.00370254  1
  O  O320  1  0.49609190  0.11198937  0.50067421  1
  O  O321  1  0.50101775  0.62627153  0.01433382  1
  O  O322  1  0.51158349  0.62990019  0.50695762  1
  O  O323  1  0.49101957  0.37500624  0.49448537  1
  O  O324  1  0.50874175  0.37410190  0.98383343  1
  O  O325  1  0.49458160  0.87948927  0.49310872  1
  O  O326  1  0.49465803  0.88391014  0.99371752  1
  O  O327  1  0.99210295  0.37555286  0.49335915  1
  O  O328  1  0.99306945  0.38593018  0.99846132  1
  O  O329  1  0.99904871  0.88174126  0.49067674  1
  O  O330  1  0.98538114  0.88812875  1.00655428  1
  O  O331  1  0.50550757  0.49153247  0.38371850  1
  O  O332  1  0.49385712  0.49125004  0.87486443  1
  O  O333  1  0.50072004  0.99066579  0.38309066  1
  O  O334  1  0.49869450  0.99332212  0.88399577  1
  O  O335  1  0.98655758  0.49403049  0.37580762  1
  O  O336  1  0.99048911  0.50051014  0.88108201  1
  O  O337  1  0.99580037  0.99554420  0.38217502  1
  O  O338  1  1.00039069  1.00674279  0.89103282  1
  O  O339  1  -0.00177595  0.01194480  0.12028317  1
  O  O340  1  0.00103294  -0.00119787  0.61050586  1
  O  O341  1  0.01199457  0.50073684  0.11456589  1
  O  O342  1  0.01292216  0.49192929  0.62526312  1
  O  O343  1  0.50163479  -0.00633824  0.11068600  1
  O  O344  1  0.51084585  0.00175044  0.61948819  1
  O  O345  1  0.51003580  0.50431601  0.12396645  1
  O  O346  1  0.51296751  0.50592097  0.63303315  1
  O  O347  1  0.23900997  0.37223998  0.24222485  1
  O  O348  1  0.24484021  0.37598627  0.74296845  1
  O  O349  1  0.24250383  0.88043062  0.24451288  1
  O  O350  1  0.24398552  0.88723904  0.74996787  1
  O  O351  1  0.73882554  0.37616604  0.25594878  1
  O  O352  1  0.74324114  0.36579982  0.73914505  1
  O  O353  1  0.74302819  0.87765849  0.24617807  1
  O  O354  1  0.74979794  0.88263051  0.74153471  1
  O  O355  1  0.24900732  0.11770619  0.25061845  1
  O  O356  1  0.24605427  0.11522513  0.75462366  1
  O  O357  1  0.25985878  0.62532065  0.26106693  1
  O  O358  1  0.24589206  0.62545428  0.76474436  1
  O  O359  1  0.75648572  0.12093964  0.25655267  1
  O  O360  1  0.76507203  0.11790185  0.74926929  1
  O  O361  1  0.75686020  0.63106295  0.26194203  1
  O  O362  1  0.76063514  0.63098534  0.76110872  1
  O  O363  1  0.37293071  0.12486646  0.36311345  1
  O  O364  1  0.35424395  0.12102439  0.87947735  1
  O  O365  1  0.36272826  0.62284009  0.36753465  1
  O  O366  1  0.36114679  0.62458267  0.87771762  1
  O  O367  1  0.86709809  0.12059275  0.36486477  1
  O  O368  1  0.87569039  0.12770249  0.86543815  1
  O  O369  1  0.86596119  0.61870443  0.36737615  1
  O  O370  1  0.86985351  0.61933747  0.86648229  1
  O  O371  1  0.12948277  0.38382415  0.13298326  1
  O  O372  1  0.13400049  0.38158549  0.63253150  1
  O  O373  1  0.12993493  0.86998103  0.13516870  1
  O  O374  1  0.12355908  0.87275121  0.63605407  1
  O  O375  1  0.63131760  0.38213826  0.13619839  1
  O  O376  1  0.62980533  0.37959377  0.63154752  1
  O  O377  1  0.63115911  0.87237808  0.13122220  1
  O  O378  1  0.63685858  0.88033036  0.62582861  1
  O  O379  1  0.12091837  0.25853615  0.25737661  1
  O  O380  1  0.11716610  0.25808377  0.74253870  1
  O  O381  1  0.11684996  0.75408149  0.25368070  1
  O  O382  1  0.11640034  0.75505040  0.75370596  1
  O  O383  1  0.62985258  0.25920343  0.26352431  1
  O  O384  1  0.62013700  0.25664405  0.75875965  1
  O  O385  1  0.61235226  0.75229633  0.25590217  1
  O  O386  1  0.61648569  0.75314674  0.75823168  1
  O  O387  1  0.36933234  0.23650454  0.24914818  1
  O  O388  1  0.38556786  0.25807132  0.74058233  1
  O  O389  1  0.38433365  0.74575442  0.25038333  1
  O  O390  1  0.38719428  0.75561593  0.74835057  1
  O  O391  1  0.88341883  0.24049215  0.25210933  1
  O  O392  1  0.88015904  0.23855126  0.74596343  1
  O  O393  1  0.88053038  0.74206326  0.24265131  1
  O  O394  1  0.88069251  0.74518725  0.74337142  1
  O  O395  1  0.37282225  0.48597402  0.50428825  1
  O  O396  1  0.37973825  0.50652162  0.98277565  1
  O  O397  1  0.38246178  0.99231187  0.49734641  1
  O  O398  1  0.38438301  0.99400106  1.00056554  1
  O  O399  1  0.87342003  0.49238950  0.49312940  1
  O  O400  1  0.88356274  0.49759452  0.99295892  1
  O  O401  1  0.88257076  0.99875642  0.49265794  1
  O  O402  1  0.87829072  0.98916756  1.00267073  1
  O  O403  1  0.11067713  -0.01294874  0.00009901  1
  O  O404  1  0.11947570  0.00630347  0.49717544  1
  O  O405  1  0.11754196  0.51102743  0.00342904  1
  O  O406  1  0.12348084  0.49719825  0.51627396  1
  O  O407  1  0.61395930  0.01057080  0.00268275  1
  O  O408  1  0.61619487  -0.00494221  0.50987138  1
  O  O409  1  0.62127959  0.50231013  0.00984718  1
  O  O410  1  0.62872943  0.50779534  0.51011698  1
  O  O411  1  0.35061006  0.39465343  0.12523449  1
  O  O412  1  0.37177945  0.37158815  0.61786977  1
  O  O413  1  0.36677099  0.87194376  0.11795819  1
  O  O414  1  0.38131752  0.87008461  0.61190250  1
  O  O415  1  0.87698860  0.37619338  0.11723885  1
  O  O416  1  0.86760148  0.36470400  0.62557249  1
  O  O417  1  0.86595662  0.86705531  0.11999661  1
  O  O418  1  0.86376922  0.86715956  0.62261419  1
  O  O419  1  0.12441465  0.13494951  0.38336835  1
  O  O420  1  0.14398119  0.11788164  0.87788617  1
  O  O421  1  0.13497718  0.63570867  0.36914021  1
  O  O422  1  0.13309550  0.63566901  0.87935289  1
  O  O423  1  0.63623683  0.13189085  0.37060229  1
  O  O424  1  0.61994065  0.13429476  0.88981374  1
  O  O425  1  0.62905071  0.62487880  0.37938395  1
  O  O426  1  0.63284893  0.62803836  0.87339729  1
