# generated using pymatgen
data_V85Zn86O256
_symmetry_space_group_name_H-M   'P 1'
_cell_length_a   16.94312345
_cell_length_b   16.93061802
_cell_length_c   16.93768141
_cell_angle_alpha   89.94406789
_cell_angle_beta   90.01717200
_cell_angle_gamma   89.92044864
_symmetry_Int_Tables_number   1
_chemical_formula_structural   V85Zn86O256
_chemical_formula_sum   'V85 Zn86 O256'
_cell_volume   4858.69459419
_cell_formula_units_Z   1
loop_
 _symmetry_equiv_pos_site_id
 _symmetry_equiv_pos_as_xyz
  1  'x, y, z'
loop_
 _atom_site_type_symbol
 _atom_site_label
 _atom_site_symmetry_multiplicity
 _atom_site_fract_x
 _atom_site_fract_y
 _atom_site_fract_z
 _atom_site_occupancy
  V  V0  1  0.62661183  0.12501598  0.49923628  1
  V  V1  1  0.37662399  0.37213053  0.00952275  1
  V  V2  1  0.86621300  0.86941572  0.00250760  1
  V  V3  1  0.87362420  0.24989878  0.12612344  1
  V  V4  1  0.74390406  0.12805378  0.86938148  1
  V  V5  1  0.36855607  0.75490728  0.13178035  1
  V  V6  1  0.50141238  0.87616439  0.37215856  1
  V  V7  1  0.36957677  0.50986774  0.37062629  1
  V  V8  1  0.75304903  0.74835949  0.50413533  1
  V  V9  1  0.25661037  0.74052297  0.49151909  1
  V  V10  1  0.37421749  0.12961449  0.24042913  1
  V  V11  1  0.12996156  0.25604511  0.37263227  1
  V  V12  1  0.12765604  0.37094570  0.76176297  1
  V  V13  1  0.73585757  0.62951697  0.87784553  1
  V  V14  1  0.87148029  -0.00037445  0.86571134  1
  V  V15  1  0.62282879  0.49876861  0.62782239  1
  V  V16  1  -0.00194172  -0.00289924  -0.00285829  1
  V  V17  1  0.24722923  0.36769849  0.62461719  1
  V  V18  1  0.62993878  -0.00015834  0.63127001  1
  V  V19  1  0.87480825  0.50330115  0.37120596  1
  V  V20  1  0.37722793  -0.00722980  0.87480216  1
  V  V21  1  0.12922269  -0.00296937  0.12127749  1
  V  V22  1  0.24613620  0.76099936  0.00421937  1
  V  V23  1  0.49070516  0.62704166  0.62671613  1
  V  V24  1  0.00317662  0.24844636  0.76029704  1
  V  V25  1  0.63926018  0.87963388  0.24932255  1
  V  V26  1  0.24596240  0.25047648  0.00043958  1
  V  V27  1  0.50109097  0.00413499  -0.00024389  1
  V  V28  1  0.38427790  0.50095535  0.88304493  1
  V  V29  1  0.74914986  0.37723739  0.12413413  1
  V  V30  1  0.62540617  0.62394747  0.50382138  1
  V  V31  1  -0.00455287  0.00195829  0.49312800  1
  V  V32  1  0.23787481  0.37431353  0.13265901  1
  V  V33  1  0.75125829  0.50719651  0.24667731  1
  V  V34  1  0.75290379  0.10848504  0.37129302  1
  V  V35  1  0.00355421  0.25080168  0.24903816  1
  V  V36  1  0.87491851  0.37550085  -0.00241101  1
  V  V37  1  0.25141461  -0.00013586  0.74844832  1
  V  V38  1  0.37001285  0.36790407  0.50005760  1
  V  V39  1  0.49827361  0.62294632  0.10652080  1
  V  V40  1  0.49849284  0.37585254  0.37687030  1
  V  V41  1  0.61991406  0.50573894  0.11238322  1
  V  V42  1  0.87225366  0.11029229  0.25233553  1
  V  V43  1  0.50121934  0.00126955  0.49985405  1
  V  V44  1  0.13016765  0.13218590  0.49968976  1
  V  V45  1  0.49742157  0.25234553  0.24034202  1
  V  V46  1  0.25207022  0.50158076  0.75198080  1
  V  V47  1  -0.00072685  0.50602461  0.50798691  1
  V  V48  1  0.75118040  0.62431752  0.37421681  1
  V  V49  1  0.62429583  0.86898731  0.74729830  1
  V  V50  1  0.75312485  0.50455264  0.74887609  1
  V  V51  1  0.00074870  0.72997373  0.74575118  1
  V  V52  1  0.75793867  0.87735071  0.63224820  1
  V  V53  1  0.87108747  0.13015177  0.74501505  1
  V  V54  1  -0.01170265  0.74734555  0.25306182  1
  V  V55  1  -0.00041787  0.12378908  0.12461681  1
  V  V56  1  0.37612708  0.00208471  0.37434802  1
  V  V57  1  0.88055486  0.73213812  0.62661419  1
  V  V58  1  0.50113598  0.13148262  0.63019945  1
  V  V59  1  0.63122247  0.25025784  0.37318053  1
  V  V60  1  0.74301412  0.25129604  -0.00635249  1
  V  V61  1  0.49059435  0.75537361  0.74406089  1
  V  V62  1  0.49648050  0.73618271  0.25502921  1
  V  V63  1  -0.00261563  0.13561491  0.62290414  1
  V  V64  1  0.25151105  -0.00468041  0.24609808  1
  V  V65  1  0.87622085  0.36638991  0.50270873  1
  V  V66  1  0.12515891  0.87291429  0.25049665  1
  V  V67  1  0.75266906  0.36660396  0.62684529  1
  V  V68  1  0.25318896  0.12993927  0.37764805  1
  V  V69  1  -0.01175104  0.62825887  0.12694510  1
  V  V70  1  0.62530207  0.37729044  0.24882661  1
  V  V71  1  0.55913863  0.82001990  0.92061010  1
  V  V72  1  0.24240553  0.12891565  0.87403858  1
  V  V73  1  0.12761280  0.00266124  0.62148466  1
  V  V74  1  0.63891702  0.00266263  0.12704004  1
  V  V75  1  0.87644550  0.50779890  0.87059542  1
  V  V76  1  0.62614123  0.74990174  0.37565004  1
  V  V77  1  0.50009577  0.35825408  0.87484285  1
  V  V78  1  0.12465920  0.62838569  0.00309028  1
  V  V79  1  0.11895122  0.87385047  0.74657055  1
  V  V80  1  0.37844689  0.13407926  0.75351073  1
  V  V81  1  0.00061595  0.50115308  0.00080043  1
  V  V82  1  0.25710392  0.86517890  0.62306272  1
  V  V83  1  0.61943936  0.36313250  0.75379957  1
  V  V84  1  0.00218703  0.37767718  0.37033164  1
  Zn  Zn85  1  0.73552394  0.74751297  -0.00016104  1
  Zn  Zn86  1  0.11849943  0.49625387  0.13874869  1
  Zn  Zn87  1  -0.00526329  0.88020468  0.37193642  1
  Zn  Zn88  1  0.37089961  0.62852545  0.75046977  1
  Zn  Zn89  1  0.12501919  0.62673140  0.50064690  1
  Zn  Zn90  1  0.12051198  0.12816701  -0.00629578  1
  Zn  Zn91  1  0.12551699  0.74984189  0.87398025  1
  Zn  Zn92  1  0.00301965  0.37186420  0.87844299  1
  Zn  Zn93  1  0.37081858  0.87654552  0.00337655  1
  Zn  Zn94  1  0.75565753  0.24610227  0.50083853  1
  Zn  Zn95  1  0.22845356  0.51986456  0.27127417  1
  Zn  Zn96  1  0.87656000  0.87811561  0.50088030  1
  Zn  Zn97  1  0.37618486  0.24972052  0.62335657  1
  Zn  Zn98  1  0.85775755  0.75179869  0.13164720  1
  Zn  Zn99  1  0.62157209  0.13043380  -0.00450278  1
  Zn  Zn100  1  -0.00185604  0.87182252  0.87058537  1
  Zn  Zn101  1  0.49749809  0.49903638  0.50261429  1
  Zn  Zn102  1  0.25055095  0.62426325  0.88024319  1
  Zn  Zn103  1  0.12723116  0.74441813  0.37372813  1
  Zn  Zn104  1  0.49982945  0.12786461  0.12211364  1
  Zn  Zn105  1  0.37799005  0.87483380  0.50388824  1
  Zn  Zn106  1  0.11964526  0.50326235  0.63078028  1
  Zn  Zn107  1  0.18794371  0.18820068  0.18396491  1
  Zn  Zn108  1  0.18774700  0.18995906  0.68984722  1
  Zn  Zn109  1  0.18162359  0.68758552  0.18848353  1
  Zn  Zn110  1  0.18428074  0.68139589  0.68096924  1
  Zn  Zn111  1  0.68887014  0.18491180  0.18687070  1
  Zn  Zn112  1  0.68691031  0.18782979  0.68844752  1
  Zn  Zn113  1  0.68388524  0.68898699  0.18501842  1
  Zn  Zn114  1  0.68686453  0.68787715  0.69196232  1
  Zn  Zn115  1  0.31458855  0.31536960  0.30982486  1
  Zn  Zn116  1  0.31278905  0.31302841  0.81646236  1
  Zn  Zn117  1  0.31496165  0.81474230  0.31339117  1
  Zn  Zn118  1  0.30784489  0.81074849  0.81460256  1
  Zn  Zn119  1  0.81519086  0.31300640  0.31054740  1
  Zn  Zn120  1  0.81514726  0.31378482  0.81103811  1
  Zn  Zn121  1  0.81646242  0.81948920  0.32266063  1
  Zn  Zn122  1  0.81527858  0.80866131  0.81112246  1
  Zn  Zn123  1  0.18678067  0.43729858  0.43972156  1
  Zn  Zn124  1  0.19104580  0.44108395  0.94223883  1
  Zn  Zn125  1  0.18585834  0.93761837  0.43584389  1
  Zn  Zn126  1  0.18515438  0.93790835  0.93228198  1
  Zn  Zn127  1  0.68850510  0.43656865  0.44004255  1
  Zn  Zn128  1  0.68555264  0.43754799  0.93274071  1
  Zn  Zn129  1  0.68826763  0.93337538  0.44460404  1
  Zn  Zn130  1  0.69339803  0.94818416  0.93961097  1
  Zn  Zn131  1  0.31189821  0.06226450  0.06036763  1
  Zn  Zn132  1  0.31453006  0.06247320  0.56270098  1
  Zn  Zn133  1  0.29222870  0.58018700  0.10283702  1
  Zn  Zn134  1  0.31248946  0.55306582  0.56207290  1
  Zn  Zn135  1  0.81559844  0.06498568  0.05684194  1
  Zn  Zn136  1  0.81195447  0.06496307  0.56468877  1
  Zn  Zn137  1  0.80948627  0.56665562  0.05758167  1
  Zn  Zn138  1  0.81330819  0.55570869  0.56094817  1
  Zn  Zn139  1  0.43473191  0.44321550  0.18820392  1
  Zn  Zn140  1  0.43570454  0.43601106  0.69121000  1
  Zn  Zn141  1  0.44240499  0.93646085  0.18749821  1
  Zn  Zn142  1  0.43958272  0.94261478  0.68919433  1
  Zn  Zn143  1  0.93762240  0.43886821  0.18816999  1
  Zn  Zn144  1  0.93572072  0.43143047  0.68946824  1
  Zn  Zn145  1  0.93856680  0.93276972  0.18282794  1
  Zn  Zn146  1  0.93923565  0.94374802  0.68166347  1
  Zn  Zn147  1  0.06583761  0.06628236  0.31047040  1
  Zn  Zn148  1  0.06068349  0.05975753  0.80941363  1
  Zn  Zn149  1  0.06473250  0.56831074  0.31701594  1
  Zn  Zn150  1  0.06837659  0.55862793  0.81756935  1
  Zn  Zn151  1  0.56484886  0.06429095  0.30832381  1
  Zn  Zn152  1  0.56175617  0.05833788  0.81240430  1
  Zn  Zn153  1  0.56463023  0.55893918  0.31391056  1
  Zn  Zn154  1  0.55919872  0.56027898  0.80926538  1
  Zn  Zn155  1  0.44080172  0.19004540  0.43444246  1
  Zn  Zn156  1  0.42950075  0.18643471  0.94036168  1
  Zn  Zn157  1  0.43622628  0.68943861  0.44444317  1
  Zn  Zn158  1  0.42704422  0.68641721  0.94131113  1
  Zn  Zn159  1  0.93789312  0.18512369  0.43275983  1
  Zn  Zn160  1  0.93176208  0.18547016  0.93669532  1
  Zn  Zn161  1  0.93740186  0.68894176  0.43477328  1
  Zn  Zn162  1  0.93661712  0.68637953  0.93095160  1
  Zn  Zn163  1  0.06440480  0.30985024  0.05866622  1
  Zn  Zn164  1  0.06528455  0.31573008  0.56307566  1
  Zn  Zn165  1  0.05762943  0.81415153  0.06603895  1
  Zn  Zn166  1  0.06697032  0.81083352  0.56321611  1
  Zn  Zn167  1  0.56268247  0.31828145  0.05948456  1
  Zn  Zn168  1  0.56431472  0.31207834  0.56097329  1
  Zn  Zn169  1  0.56270085  0.81430086  0.08359613  1
  Zn  Zn170  1  0.56260103  0.81148898  0.56341215  1
  O  O171  1  0.11756785  0.11360058  0.12330188  1
  O  O172  1  0.12272558  0.12434815  0.61592869  1
  O  O173  1  0.10681641  0.62471448  0.11390620  1
  O  O174  1  0.12797024  0.61446601  0.61353874  1
  O  O175  1  0.62161990  0.11385198  0.12463420  1
  O  O176  1  0.62113497  0.11739961  0.62281229  1
  O  O177  1  0.60761316  0.61818388  0.13062759  1
  O  O178  1  0.61991937  0.61671446  0.62358882  1
  O  O179  1  0.38290196  0.37731436  0.38150174  1
  O  O180  1  0.38534158  0.38059830  0.87866992  1
  O  O181  1  0.38556436  0.88489099  0.37610032  1
  O  O182  1  0.36870653  0.88952314  0.87604878  1
  O  O183  1  0.88069433  0.38301794  0.38083464  1
  O  O184  1  0.87571220  0.38502872  0.88294966  1
  O  O185  1  0.88203978  0.87761773  0.38834206  1
  O  O186  1  0.87734078  0.88381221  0.87672943  1
  O  O187  1  0.25421816  0.00901745  0.36679941  1
  O  O188  1  0.25652933  0.00617095  0.86810333  1
  O  O189  1  0.26352215  0.49748830  0.37917509  1
  O  O190  1  0.25964288  0.49904002  0.86691241  1
  O  O191  1  0.74242288  0.00966498  0.37846024  1
  O  O192  1  0.76414440  0.01085540  0.87544747  1
  O  O193  1  0.75505908  0.50239194  0.36810810  1
  O  O194  1  0.75505308  0.50555273  0.86737036  1
  O  O195  1  0.23788695  0.47788386  0.10757744  1
  O  O196  1  0.25417576  0.48741019  0.63916709  1
  O  O197  1  0.24161072  1.00525701  0.13324559  1
  O  O198  1  0.24487633  0.99551251  0.62984529  1
  O  O199  1  0.74394750  0.49953938  0.13079061  1
  O  O200  1  0.74390329  0.49124456  0.63133463  1
  O  O201  1  0.73758839  1.00487596  0.11784067  1
  O  O202  1  0.74154327  0.99115226  0.62117944  1
  O  O203  1  -0.00715915  0.36666941  0.26280610  1
  O  O204  1  0.00809302  0.36526307  0.75206278  1
  O  O205  1  0.00631306  0.86555111  0.24891972  1
  O  O206  1  0.01165004  0.87586136  0.74419805  1
  O  O207  1  0.50331965  0.36987781  0.25610483  1
  O  O208  1  0.50563436  0.37556014  0.76294259  1
  O  O209  1  0.50846046  0.87068947  0.26182888  1
  O  O210  1  0.50820092  0.86782657  0.74337448  1
  O  O211  1  0.49176202  0.13449186  0.24988214  1
  O  O212  1  0.49164282  0.11763365  0.74190677  1
  O  O213  1  0.50238230  0.63503376  0.25403971  1
  O  O214  1  0.49947958  0.63523526  0.74285874  1
  O  O215  1  0.99309640  0.13193846  0.24585847  1
  O  O216  1  0.99708515  0.13210503  0.74215592  1
  O  O217  1  1.00016424  0.64009819  0.24287318  1
  O  O218  1  1.00599658  0.63176410  0.74938385  1
  O  O219  1  0.36233886  0.26017865  -0.00206354  1
  O  O220  1  0.37928059  0.26244298  0.49925407  1
  O  O221  1  0.36394922  0.75534196  0.00773905  1
  O  O222  1  0.36244909  0.75817966  0.49955762  1
  O  O223  1  0.86731109  0.25580680  0.00632950  1
  O  O224  1  0.87507088  0.26203457  0.49286209  1
  O  O225  1  0.87936344  0.76582298  -0.00640022  1
  O  O226  1  0.87297534  0.74921950  0.51381993  1
  O  O227  1  0.12002155  0.23918412  0.49027409  1
  O  O228  1  0.13791634  0.24536607  0.99912927  1
  O  O229  1  0.14237452  0.75375644  0.49913122  1
  O  O230  1  0.12714223  0.74608182  1.00150794  1
  O  O231  1  0.62731910  0.24291023  0.48979573  1
  O  O232  1  0.63898701  0.24966979  1.00491726  1
  O  O233  1  0.63246987  0.74453966  0.49575666  1
  O  O234  1  0.61512721  0.76654729  0.98735628  1
  O  O235  1  0.50662684  0.25083137  0.13701568  1
  O  O236  1  0.50157579  0.23490924  0.62099219  1
  O  O237  1  0.49690365  0.73845003  0.13620838  1
  O  O238  1  0.50227083  0.74102908  0.63244038  1
  O  O239  1  0.99615275  0.24495502  0.13083447  1
  O  O240  1  1.00595530  0.23957384  0.63124543  1
  O  O241  1  0.99262613  0.74590030  0.13560290  1
  O  O242  1  0.99010988  0.75119132  0.63218724  1
  O  O243  1  0.00655010  0.25598762  0.36742542  1
  O  O244  1  -0.00229159  0.24882025  0.86481311  1
  O  O245  1  0.00144087  0.75239271  0.36341989  1
  O  O246  1  0.00059075  0.75067281  0.85642159  1
  O  O247  1  0.51172755  0.25883168  0.36699566  1
  O  O248  1  0.49535271  0.25939413  0.87529025  1
  O  O249  1  0.50402492  0.75714662  0.37303328  1
  O  O250  1  0.49785943  0.75423039  0.87068257  1
  O  O251  1  0.24532593  0.12230432  0.48711754  1
  O  O252  1  0.25019706  0.13136030  0.99129985  1
  O  O253  1  0.25865898  0.63954024  0.50589079  1
  O  O254  1  0.23825959  0.63494581  1.00792210  1
  O  O255  1  0.74499105  0.12704304  0.49195421  1
  O  O256  1  0.75080732  0.13483204  0.98912670  1
  O  O257  1  0.74483873  0.62795939  0.49689306  1
  O  O258  1  0.74604251  0.62489028  0.98266071  1
  O  O259  1  0.25641978  0.36575537  0.00258235  1
  O  O260  1  0.25734670  0.37885216  0.51131791  1
  O  O261  1  0.24579508  0.86505110  -0.00105826  1
  O  O262  1  0.25107765  0.87424426  0.51174722  1
  O  O263  1  0.75481742  0.37014684  0.00270584  1
  O  O264  1  0.75833299  0.37416397  0.50831284  1
  O  O265  1  0.76349734  0.87086323  -0.01047560  1
  O  O266  1  0.74954758  0.86507196  0.51528444  1
  O  O267  1  0.11945340  0.49562529  0.25249677  1
  O  O268  1  0.13381298  0.49079951  0.75109137  1
  O  O269  1  0.13224894  0.99664445  0.24295640  1
  O  O270  1  0.13098778  0.99318221  0.74232308  1
  O  O271  1  0.63198311  0.49334869  0.24381782  1
  O  O272  1  0.63091095  0.49188202  0.74076298  1
  O  O273  1  0.62261910  0.99490059  0.23674869  1
  O  O274  1  0.61882274  0.98822901  0.73774155  1
  O  O275  1  0.36936148  0.00553025  0.25374579  1
  O  O276  1  0.37015085  0.00786782  0.75705415  1
  O  O277  1  0.37465221  0.49531524  0.26949326  1
  O  O278  1  0.36759204  0.49955427  0.76191266  1
  O  O279  1  0.88163357  0.01131129  0.24355919  1
  O  O280  1  0.88341367  0.01457583  0.75562855  1
  O  O281  1  0.86433367  0.49527310  0.25909433  1
  O  O282  1  0.86553941  0.49189836  0.75836339  1
  O  O283  1  0.11745954  0.36321672  0.38028005  1
  O  O284  1  0.12461615  0.37919258  0.86535339  1
  O  O285  1  0.11941952  0.87650778  0.36116003  1
  O  O286  1  0.12140393  0.87219817  0.86116279  1
  O  O287  1  0.61940796  0.36983194  0.37090152  1
  O  O288  1  0.60857322  0.37953939  0.86928821  1
  O  O289  1  0.61964818  0.87059789  0.37182915  1
  O  O290  1  0.62449778  0.88181315  0.86712606  1
  O  O291  1  0.37635674  0.12191545  0.13751969  1
  O  O292  1  0.38326979  0.12562887  0.63309827  1
  O  O293  1  0.39174820  0.63852488  0.11921552  1
  O  O294  1  0.38832918  0.61589168  0.62732368  1
  O  O295  1  0.88008816  0.13055637  0.13027691  1
  O  O296  1  0.88420141  0.12465855  0.63230533  1
  O  O297  1  0.88448371  0.62878257  0.11880236  1
  O  O298  1  0.87098254  0.63385414  0.62555293  1
  O  O299  1  0.24746749  0.26143883  0.11688737  1
  O  O300  1  0.25349251  0.26284746  0.62957990  1
  O  O301  1  0.25880672  0.75141358  0.11950585  1
  O  O302  1  0.24982536  0.76255228  0.62028826  1
  O  O303  1  0.75529833  0.25649672  0.11919301  1
  O  O304  1  0.74468348  0.26274992  0.62129259  1
  O  O305  1  0.74706301  0.74303363  0.11287030  1
  O  O306  1  0.76334772  0.75362761  0.62590220  1
  O  O307  1  0.24133281  0.24330077  0.36595739  1
  O  O308  1  0.25438523  0.23882122  0.88261453  1
  O  O309  1  0.25009242  0.75607582  0.38804555  1
  O  O310  1  0.24670282  0.74504391  0.88660867  1
  O  O311  1  0.73913154  0.24967693  0.37417904  1
  O  O312  1  0.75684306  0.24291377  0.88286746  1
  O  O313  1  0.74633387  0.74277200  0.38238504  1
  O  O314  1  0.75269144  0.73300228  0.87251862  1
  O  O315  1  -0.00207057  0.11397935  0.00353645  1
  O  O316  1  0.00726196  0.12108223  0.50442122  1
  O  O317  1  0.00160482  0.61969493  0.00395591  1
  O  O318  1  -0.00867649  0.60714271  0.49885804  1
  O  O319  1  0.50157674  0.11974486  0.00227953  1
  O  O320  1  0.50743047  0.12013428  0.50402975  1
  O  O321  1  0.50359635  0.62991800  0.00835159  1
  O  O322  1  0.50811360  0.62371637  0.50982913  1
  O  O323  1  0.49543964  0.37522327  0.49152796  1
  O  O324  1  0.49064131  0.37023575  0.98756233  1
  O  O325  1  0.50199425  0.88086161  0.48991947  1
  O  O326  1  0.50446511  0.87708680  0.99070162  1
  O  O327  1  0.99328063  0.37808810  0.48988994  1
  O  O328  1  0.99429522  0.38248012  0.99959470  1
  O  O329  1  1.00718266  0.89455974  0.50460821  1
  O  O330  1  0.99320040  0.88514652  0.99505178  1
  O  O331  1  0.49706621  0.48674885  0.37698990  1
  O  O332  1  0.48685505  0.49389917  0.87126646  1
  O  O333  1  0.49923291  0.99480466  0.37871347  1
  O  O334  1  0.49261503  1.00416261  0.88867638  1
  O  O335  1  0.99052810  0.49234108  0.38126924  1
  O  O336  1  0.99219015  0.49816524  0.88204737  1
  O  O337  1  1.00708718  1.00639521  0.39036162  1
  O  O338  1  0.98998872  1.00072568  0.88105516  1
  O  O339  1  0.00552946  0.00432003  0.11541579  1
  O  O340  1  0.00977317  0.01500477  0.61684557  1
  O  O341  1  -0.00234165  0.50736189  0.11746217  1
  O  O342  1  -0.00419947  0.49098424  0.61049202  1
  O  O343  1  0.50476151  0.00032775  0.11176128  1
  O  O344  1  0.50751445  0.00901969  0.61827353  1
  O  O345  1  0.50331597  0.51486117  0.12749333  1
  O  O346  1  0.50828175  0.50549401  0.62726788  1
  O  O347  1  0.25674673  0.37701491  0.23243816  1
  O  O348  1  0.24429695  0.37843149  0.74733648  1
  O  O349  1  0.24343526  0.88812141  0.25432989  1
  O  O350  1  0.24135374  0.87639857  0.73970220  1
  O  O351  1  0.74586289  0.38428002  0.24381667  1
  O  O352  1  0.74348547  0.38229435  0.74485173  1
  O  O353  1  0.73787789  0.87013448  0.25616619  1
  O  O354  1  0.74311042  0.86803012  0.73939093  1
  O  O355  1  0.25600239  0.11857478  0.25689619  1
  O  O356  1  0.25706680  0.12042612  0.75546755  1
  O  O357  1  0.25661462  0.60939454  0.20992819  1
  O  O358  1  0.25144747  0.61607662  0.75311573  1
  O  O359  1  0.76022645  0.12917191  0.25907077  1
  O  O360  1  0.75992034  0.13122609  0.75476938  1
  O  O361  1  0.74211015  0.61317727  0.25634613  1
  O  O362  1  0.74659492  0.61124662  0.75642271  1
  O  O363  1  0.36954744  0.12200772  0.36769328  1
  O  O364  1  0.36711856  0.11487718  0.86914117  1
  O  O365  1  0.38464497  0.60744823  0.38275488  1
  O  O366  1  0.37274444  0.61151425  0.87475077  1
  O  O367  1  0.86479166  0.12778639  0.36538437  1
  O  O368  1  0.86725886  0.11912272  0.86589788  1
  O  O369  1  0.86759377  0.61113900  0.38014992  1
  O  O370  1  0.86597831  0.61155020  0.87655857  1
  O  O371  1  0.13373152  0.37197772  0.12588095  1
  O  O372  1  0.13237968  0.37930197  0.63451126  1
  O  O373  1  0.11879092  0.88907470  0.13537410  1
  O  O374  1  0.13598238  0.88159583  0.62968908  1
  O  O375  1  0.62975941  0.38367678  0.13041228  1
  O  O376  1  0.62872998  0.38138940  0.63095939  1
  O  O377  1  0.62424615  0.89076826  0.13591804  1
  O  O378  1  0.63236759  0.88065984  0.63063203  1
  O  O379  1  0.11187300  0.24238383  0.25739146  1
  O  O380  1  0.11617481  0.25794002  0.74876309  1
  O  O381  1  0.11641387  0.75952681  0.24871917  1
  O  O382  1  0.11331151  0.75482113  0.74516602  1
  O  O383  1  0.62013030  0.25614195  0.25553001  1
  O  O384  1  0.62670314  0.26394037  0.74844000  1
  O  O385  1  0.61623455  0.75782438  0.25797242  1
  O  O386  1  0.61488569  0.76210505  0.74746942  1
  O  O387  1  0.38593119  0.24167558  0.25608269  1
  O  O388  1  0.37285055  0.23675563  0.74976562  1
  O  O389  1  0.38483380  0.75545660  0.24510496  1
  O  O390  1  0.38631656  0.74998725  0.75507683  1
  O  O391  1  0.88552421  0.24503845  0.24436093  1
  O  O392  1  0.88536936  0.23956607  0.75162526  1
  O  O393  1  0.88525731  0.75678726  0.24897590  1
  O  O394  1  0.89008240  0.75131027  0.73809350  1
  O  O395  1  0.37877545  0.48615926  0.49148572  1
  O  O396  1  0.36840601  0.48831463  0.98365921  1
  O  O397  1  0.38453587  1.00020830  0.49256694  1
  O  O398  1  0.38211324  0.99632296  0.99482697  1
  O  O399  1  0.88198598  0.48822586  0.49299451  1
  O  O400  1  0.88347316  0.49593897  0.99411986  1
  O  O401  1  0.89351899  1.00491606  0.50716154  1
  O  O402  1  0.88047860  0.99120535  0.99137639  1
  O  O403  1  0.11712721  0.00039895  0.00520758  1
  O  O404  1  0.12074549  0.01403572  0.50219681  1
  O  O405  1  0.11094997  0.50659961  -0.00022874  1
  O  O406  1  0.10571576  0.49346817  0.49971753  1
  O  O407  1  0.61935702  0.00319762  0.00934900  1
  O  O408  1  0.62006138  0.00474516  0.51096926  1
  O  O409  1  0.62836135  0.49518129  0.01377788  1
  O  O410  1  0.62410193  0.50252794  0.51317345  1
  O  O411  1  0.37091397  0.38245107  0.11226688  1
  O  O412  1  0.37050372  0.37186343  0.61831609  1
  O  O413  1  0.38668489  0.85982102  0.12186201  1
  O  O414  1  0.35979926  0.88466185  0.62577381  1
  O  O415  1  0.86826244  0.37152648  0.11808789  1
  O  O416  1  0.86470827  0.37701720  0.61593289  1
  O  O417  1  0.87558496  0.87407727  0.10605895  1
  O  O418  1  0.86919949  0.87269236  0.62206609  1
  O  O419  1  0.13383225  0.13417400  0.37957234  1
  O  O420  1  0.13844296  0.11641829  0.87365409  1
  O  O421  1  0.12350306  0.63063884  0.38722244  1
  O  O422  1  0.12635973  0.62730045  0.89033530  1
  O  O423  1  0.63196744  0.13293693  0.37649600  1
  O  O424  1  0.63983882  0.11781898  0.87311308  1
  O  O425  1  0.63027676  0.62855168  0.38337579  1
  O  O426  1  0.63715919  0.61959011  0.86918367  1
