# generated using pymatgen
data_V85Zn86O256
_symmetry_space_group_name_H-M   'P 1'
_cell_length_a   16.93649656
_cell_length_b   16.94551137
_cell_length_c   16.94506560
_cell_angle_alpha   90.05389319
_cell_angle_beta   89.97448568
_cell_angle_gamma   90.02268758
_symmetry_Int_Tables_number   1
_chemical_formula_structural   V85Zn86O256
_chemical_formula_sum   'V85 Zn86 O256'
_cell_volume   4863.19005918
_cell_formula_units_Z   1
loop_
 _symmetry_equiv_pos_site_id
 _symmetry_equiv_pos_as_xyz
  1  'x, y, z'
loop_
 _atom_site_type_symbol
 _atom_site_label
 _atom_site_symmetry_multiplicity
 _atom_site_fract_x
 _atom_site_fract_y
 _atom_site_fract_z
 _atom_site_occupancy
  V  V0  1  0.11730914  0.00391181  0.62990842  1
  V  V1  1  0.37191142  0.50951513  0.36977611  1
  V  V2  1  0.72902655  0.24146320  0.50547813  1
  V  V3  1  0.12392065  0.50225547  0.61685570  1
  V  V4  1  0.62411437  0.49604458  0.12772400  1
  V  V5  1  0.87755000  0.49806477  0.87352658  1
  V  V6  1  0.74916595  -0.00437349  0.25238505  1
  V  V7  1  0.87872308  0.00544499  0.86839888  1
  V  V8  1  0.50415671  0.12791221  0.12671513  1
  V  V9  1  0.12175589  0.12072411  0.00105319  1
  V  V10  1  0.50569579  0.00440501  0.49952154  1
  V  V11  1  0.87403256  0.12598023  0.25233730  1
  V  V12  1  0.75065364  0.49697559  0.74948163  1
  V  V13  1  0.24530397  0.75534356  -0.00173355  1
  V  V14  1  0.24741748  0.63397777  0.86995122  1
  V  V15  1  0.38257305  0.87632952  -0.00165060  1
  V  V16  1  0.74682579  0.37208373  0.11731700  1
  V  V17  1  0.49921081  0.49681452  -0.00067762  1
  V  V18  1  0.00219938  0.74847766  0.75505828  1
  V  V19  1  0.24993177  0.50027471  0.74743990  1
  V  V20  1  0.37458357  0.37503256  0.49380566  1
  V  V21  1  0.74792189  0.75659430  0.49576991  1
  V  V22  1  0.63671900  0.25092680  0.87869492  1
  V  V23  1  0.51003461  0.12876883  0.62285402  1
  V  V24  1  0.00152583  0.49553023  -0.00790315  1
  V  V25  1  0.55532316  0.80858865  0.70416656  1
  V  V26  1  0.87525402  0.75104184  0.12767650  1
  V  V27  1  -0.00006529  0.87302669  0.37802251  1
  V  V28  1  0.24481607  0.12268131  0.36929010  1
  V  V29  1  0.62913029  0.62302522  0.49265006  1
  V  V30  1  0.62775791  0.49840792  0.62482292  1
  V  V31  1  0.61176494  0.76107488  0.87848482  1
  V  V32  1  -0.00569597  0.48524254  0.49325837  1
  V  V33  1  0.88418802  0.23649327  0.62079825  1
  V  V34  1  0.50149032  0.87110636  0.37761014  1
  V  V35  1  0.62524768  -0.00333835  0.12362175  1
  V  V36  1  0.00623943  0.87532734  0.88234674  1
  V  V37  1  0.00052059  0.62881330  0.61183225  1
  V  V38  1  0.37971220  0.63521275  0.74815095  1
  V  V39  1  -0.00270981  0.12156738  0.12464545  1
  V  V40  1  0.26089895  0.86791792  0.62917573  1
  V  V41  1  0.87782183  0.36934522  -0.00661930  1
  V  V42  1  0.24981427  0.88799823  0.12553568  1
  V  V43  1  0.49984751  0.62374145  0.62997022  1
  V  V44  1  0.31909614  0.81810726  0.45576255  1
  V  V45  1  0.49397765  0.74125829  0.25129102  1
  V  V46  1  0.24925477  0.00561032  0.74885925  1
  V  V47  1  0.37590724  0.49887907  0.87287442  1
  V  V48  1  0.62473445  0.86543915  0.25301453  1
  V  V49  1  0.73060141  0.12264181  0.38186042  1
  V  V50  1  0.25286365  0.51693262  0.24945903  1
  V  V51  1  0.25036410  0.37516291  0.12771395  1
  V  V52  1  0.74877800  0.49831326  0.24922339  1
  V  V53  1  0.87384124  -0.00003542  0.38045490  1
  V  V54  1  0.00131173  0.63005765  0.12367776  1
  V  V55  1  0.63421615  0.12897169  0.00012282  1
  V  V56  1  0.38436130  -0.00063761  0.87409244  1
  V  V57  1  0.50971656  0.36980012  0.36691333  1
  V  V58  1  0.49869584  0.36467158  0.87038530  1
  V  V59  1  0.74827948  0.62744578  0.87396506  1
  V  V60  1  0.11566866  0.25445310  0.37473317  1
  V  V61  1  0.12810238  0.86519525  0.75354481  1
  V  V62  1  0.87774068  0.88094256  0.00152510  1
  V  V63  1  0.37806225  0.25216050  0.62711934  1
  V  V64  1  -0.00396344  0.23306444  0.75302620  1
  V  V65  1  0.87717319  0.62613446  0.25421241  1
  V  V66  1  0.86823360  0.75923613  0.62854533  1
  V  V67  1  0.37693713  0.12258474  0.25226668  1
  V  V68  1  0.12362152  0.88215846  0.25452998  1
  V  V69  1  0.73926112  -0.00623768  0.74617330  1
  V  V70  1  0.62294204  0.62349150  0.00003531  1
  V  V71  1  0.36945462  0.00211554  0.38189921  1
  V  V72  1  0.12616855  0.49954031  0.12229739  1
  V  V73  1  0.25092916  0.13009240  0.87512599  1
  V  V74  1  0.38060879  0.25149171  0.13204101  1
  V  V75  1  0.38201416  0.13292177  0.75043983  1
  V  V76  1  0.87096339  0.24934746  0.12137056  1
  V  V77  1  0.11148945  0.37811628  0.75437602  1
  V  V78  1  0.24889490  0.25090366  0.00302335  1
  V  V79  1  0.12102234  0.37464295  0.25298437  1
  V  V80  1  0.24878146  0.25021372  0.49839672  1
  V  V81  1  0.11827484  0.12611354  0.50573702  1
  V  V82  1  0.87643775  0.62415548  0.74916482  1
  V  V83  1  0.62344431  0.36527251  0.74733306  1
  V  V84  1  0.12487982  0.62830304  -0.00683509  1
  Zn  Zn85  1  0.75047939  0.87144416  0.12519500  1
  Zn  Zn86  1  0.25017780  0.37565547  0.62512518  1
  Zn  Zn87  1  0.75546778  0.37027417  0.62333525  1
  Zn  Zn88  1  0.87713252  0.47296707  0.36235226  1
  Zn  Zn89  1  0.86851167  0.36022127  0.48398916  1
  Zn  Zn90  1  0.49457645  0.61924609  0.13163971  1
  Zn  Zn91  1  0.11867345  0.25701021  0.87984517  1
  Zn  Zn92  1  0.75085785  0.62355434  0.37456096  1
  Zn  Zn93  1  0.50170530  0.49963035  0.49636737  1
  Zn  Zn94  1  0.55243494  0.24505310  0.27096518  1
  Zn  Zn95  1  0.87191213  0.88085935  0.50818721  1
  Zn  Zn96  1  -0.02163981  0.26996207  0.26147160  1
  Zn  Zn97  1  0.75858280  0.12760262  0.87308693  1
  Zn  Zn98  1  0.37599928  0.37225862  0.00026939  1
  Zn  Zn99  1  0.37297220  0.74352552  0.12412964  1
  Zn  Zn100  1  0.75004605  0.75157942  0.00013699  1
  Zn  Zn101  1  0.50639057  -0.00259652  -0.00618889  1
  Zn  Zn102  1  0.62513795  -0.01133727  0.62704236  1
  Zn  Zn103  1  0.05077238  0.71425131  0.29700382  1
  Zn  Zn104  1  0.17436235  0.67674101  0.43632060  1
  Zn  Zn105  1  0.12367895  0.00498759  0.12736040  1
  Zn  Zn106  1  -0.00600748  0.00419278  0.50878355  1
  Zn  Zn107  1  0.18688443  0.18840347  0.19069747  1
  Zn  Zn108  1  0.18727042  0.19226895  0.68712600  1
  Zn  Zn109  1  0.18800181  0.69420420  0.18150086  1
  Zn  Zn110  1  0.18756179  0.68730756  0.59711727  1
  Zn  Zn111  1  0.69581017  0.18565357  0.18562391  1
  Zn  Zn112  1  0.69678025  0.18123321  0.69352477  1
  Zn  Zn113  1  0.68735271  0.68539065  0.18589715  1
  Zn  Zn114  1  0.69025511  0.68526830  0.68551317  1
  Zn  Zn115  1  0.30912110  0.31414622  0.31260101  1
  Zn  Zn116  1  0.30822153  0.31485527  0.81122169  1
  Zn  Zn117  1  0.30741972  0.81198399  0.29353536  1
  Zn  Zn118  1  0.31753604  0.81529700  0.81163007  1
  Zn  Zn119  1  0.76860353  0.30676251  0.30958300  1
  Zn  Zn120  1  0.81714270  0.31216501  0.80768098  1
  Zn  Zn121  1  0.81526757  0.81099143  0.31433162  1
  Zn  Zn122  1  0.81159759  0.81419702  0.81595432  1
  Zn  Zn123  1  0.18917915  0.44167572  0.43600534  1
  Zn  Zn124  1  0.18922120  0.43731530  0.93526667  1
  Zn  Zn125  1  0.18059030  0.94158521  0.43859533  1
  Zn  Zn126  1  0.19138925  0.94129000  0.93585833  1
  Zn  Zn127  1  0.69426331  0.43501756  0.43873336  1
  Zn  Zn128  1  0.68922352  0.43715040  0.93750776  1
  Zn  Zn129  1  0.68443275  0.93557041  0.43803130  1
  Zn  Zn130  1  0.69480218  0.93796560  0.93795416  1
  Zn  Zn131  1  0.31608641  0.06521416  0.06098585  1
  Zn  Zn132  1  0.31088654  0.06407378  0.56201214  1
  Zn  Zn133  1  0.31295042  0.56381347  0.06023316  1
  Zn  Zn134  1  0.31617705  0.56340665  0.55777602  1
  Zn  Zn135  1  0.81198895  0.05838804  0.06054142  1
  Zn  Zn136  1  0.80630994  0.06365489  0.56831781  1
  Zn  Zn137  1  0.81324525  0.56253867  0.06094407  1
  Zn  Zn138  1  0.81603497  0.56197324  0.56037639  1
  Zn  Zn139  1  0.44016463  0.43376077  0.19275388  1
  Zn  Zn140  1  0.43998055  0.43755034  0.68695936  1
  Zn  Zn141  1  0.43758912  0.93747174  0.18800375  1
  Zn  Zn142  1  0.43620809  0.94680573  0.68672118  1
  Zn  Zn143  1  0.93657438  0.44061385  0.18056546  1
  Zn  Zn144  1  0.93302103  0.43311997  0.67731110  1
  Zn  Zn145  1  0.94040872  0.93824873  0.19152589  1
  Zn  Zn146  1  0.93846876  0.93755539  0.69524385  1
  Zn  Zn147  1  0.05835222  0.06103365  0.31243247  1
  Zn  Zn148  1  0.06494288  0.05963902  0.82011738  1
  Zn  Zn149  1  0.06327801  0.55010383  0.31504990  1
  Zn  Zn150  1  0.06424767  0.56474579  0.80878830  1
  Zn  Zn151  1  0.55604110  0.05460450  0.30669681  1
  Zn  Zn152  1  0.56619398  0.06696757  0.80912967  1
  Zn  Zn153  1  0.56235828  0.55552571  0.31376001  1
  Zn  Zn154  1  0.56340131  0.55974745  0.81292524  1
  Zn  Zn155  1  0.44120321  0.18859054  0.43920836  1
  Zn  Zn156  1  0.44217929  0.18623175  0.94203887  1
  Zn  Zn157  1  0.44457156  0.68336752  0.43705158  1
  Zn  Zn158  1  0.43428093  0.68569707  0.94180962  1
  Zn  Zn159  1  0.93523092  0.18454591  0.43616318  1
  Zn  Zn160  1  0.94267658  0.18963743  0.93640977  1
  Zn  Zn161  1  0.93314250  0.68873002  0.44126254  1
  Zn  Zn162  1  0.93702204  0.69023228  0.93852633  1
  Zn  Zn163  1  0.05856651  0.30898037  0.06749992  1
  Zn  Zn164  1  0.06151903  0.31300599  0.56808848  1
  Zn  Zn165  1  0.06588396  0.81406972  0.06635832  1
  Zn  Zn166  1  0.06207745  0.81949637  0.56185475  1
  Zn  Zn167  1  0.56195977  0.31161965  0.06009508  1
  Zn  Zn168  1  0.55613195  0.31662543  0.56230202  1
  Zn  Zn169  1  0.56163487  0.81027321  0.06498563  1
  Zn  Zn170  1  0.55809402  0.80749401  0.54240411  1
  O  O171  1  0.11594278  0.12735161  0.12149887  1
  O  O172  1  0.13368830  0.11787079  0.61692463  1
  O  O173  1  0.11865331  0.62049359  0.11622590  1
  O  O174  1  0.11124181  0.60774884  0.63872142  1
  O  O175  1  0.62529076  0.11910411  0.11999097  1
  O  O176  1  0.61055960  0.12509938  0.63646669  1
  O  O177  1  0.62067927  0.61660869  0.11509427  1
  O  O178  1  0.61853573  0.61651891  0.62193172  1
  O  O179  1  0.37968465  0.37961416  0.37982914  1
  O  O180  1  0.38241820  0.37984660  0.87372961  1
  O  O181  1  0.37192232  0.87889596  0.38105080  1
  O  O182  1  0.36744326  0.88867058  0.88425876  1
  O  O183  1  0.85629165  0.36154746  0.36822938  1
  O  O184  1  0.86909044  0.38334782  0.88365989  1
  O  O185  1  0.87895529  0.88763666  0.37612764  1
  O  O186  1  0.88410915  0.88084424  0.88350156  1
  O  O187  1  0.25688775  0.00955378  0.38192037  1
  O  O188  1  0.25777605  0.00994868  0.86460482  1
  O  O189  1  0.26176638  0.49844204  0.36440796  1
  O  O190  1  0.25836716  0.50592556  0.86947385  1
  O  O191  1  0.75502912  0.00398105  0.37380073  1
  O  O192  1  0.76432223  0.00089802  0.87148161  1
  O  O193  1  0.75258836  0.50199347  0.36283165  1
  O  O194  1  0.75399341  0.51044000  0.87044772  1
  O  O195  1  0.24588120  0.49367833  0.12790099  1
  O  O196  1  0.24146057  0.49854065  0.63206877  1
  O  O197  1  0.24999825  0.99156973  0.11900421  1
  O  O198  1  0.24480342  0.99785103  0.63653424  1
  O  O199  1  0.74227189  0.49639621  0.12609804  1
  O  O200  1  0.74125721  0.49871017  0.62891376  1
  O  O201  1  0.73994790  0.99736516  0.13231467  1
  O  O202  1  0.74419175  0.99849876  0.63924026  1
  O  O203  1  0.01425589  0.38014939  0.24231013  1
  O  O204  1  0.01046269  0.37763385  0.74706393  1
  O  O205  1  0.01095562  0.87868753  0.25976036  1
  O  O206  1  0.00741557  0.86825371  0.76032987  1
  O  O207  1  0.50157340  0.36557129  0.26294141  1
  O  O208  1  0.51071984  0.37980594  0.75881616  1
  O  O209  1  0.50413764  0.86826423  0.25858861  1
  O  O210  1  0.49042808  0.86752277  0.75172759  1
  O  O211  1  0.49665619  0.13586162  0.24673971  1
  O  O212  1  0.48686351  0.12349862  0.74266556  1
  O  O213  1  0.50855103  0.63895357  0.25276755  1
  O  O214  1  0.49286317  0.61740389  0.74334873  1
  O  O215  1  0.98443564  0.12735481  0.24744552  1
  O  O216  1  1.00834230  0.13538831  0.75153718  1
  O  O217  1  0.99368090  0.62281348  0.23896543  1
  O  O218  1  0.99428401  0.63203822  0.74493204  1
  O  O219  1  0.36872680  0.24803441  0.01375620  1
  O  O220  1  0.36861007  0.25637448  0.50459577  1
  O  O221  1  0.36391931  0.76055657  -0.00392653  1
  O  O222  1  0.38103091  0.75692269  0.50304820  1
  O  O223  1  0.88199841  0.26161114  0.00425863  1
  O  O224  1  0.87565841  0.24399842  0.51230727  1
  O  O225  1  0.87499747  0.75824951  0.01031404  1
  O  O226  1  0.86421241  0.75187448  0.51095172  1
  O  O227  1  0.12825127  0.24647788  0.49571164  1
  O  O228  1  0.13261110  0.24471314  1.00131366  1
  O  O229  1  0.11920905  0.73634465  0.51918847  1
  O  O230  1  0.13815765  0.74751300  1.00135373  1
  O  O231  1  0.63077057  0.24520372  0.51066927  1
  O  O232  1  0.62391806  0.24206769  0.99083392  1
  O  O233  1  0.63996595  0.73924563  0.50374034  1
  O  O234  1  0.62556388  0.74133483  0.99331642  1
  O  O235  1  0.49363928  0.24577347  0.12745735  1
  O  O236  1  0.48576246  0.24442999  0.61932558  1
  O  O237  1  0.49916922  0.74970422  0.14033619  1
  O  O238  1  0.50947486  0.74353619  0.63504073  1
  O  O239  1  0.98606550  0.24263484  0.13353700  1
  O  O240  1  0.99199277  0.24983193  0.63567986  1
  O  O241  1  0.99437314  0.73716173  0.11848270  1
  O  O242  1  0.99160400  0.74348842  0.63647888  1
  O  O243  1  0.01117246  0.24585790  0.37254983  1
  O  O244  1  0.00121614  0.25108107  0.85805525  1
  O  O245  1  -0.01285958  0.76733178  0.37694073  1
  O  O246  1  -0.00492467  0.75613064  0.86238711  1
  O  O247  1  0.49897105  0.26331983  0.37534088  1
  O  O248  1  0.50736302  0.26114615  0.87893512  1
  O  O249  1  0.49593542  0.75798989  0.36393106  1
  O  O250  1  0.51320371  0.74576309  0.87902508  1
  O  O251  1  0.24134333  0.13075754  0.48987717  1
  O  O252  1  0.24610431  0.13710022  0.99857411  1
  O  O253  1  0.24146749  0.62937130  0.51432377  1
  O  O254  1  0.24473081  0.63388069  0.99026861  1
  O  O255  1  0.74428200  0.13040973  0.49613478  1
  O  O256  1  0.73814632  0.12035723  0.99579892  1
  O  O257  1  0.74521272  0.63094999  0.49878379  1
  O  O258  1  0.73929286  0.62428481  0.99220152  1
  O  O259  1  0.25142405  0.36467375  0.00574889  1
  O  O260  1  0.25996315  0.37084567  0.49986964  1
  O  O261  1  0.25569057  0.87140969  0.00382987  1
  O  O262  1  0.25032981  0.87595226  0.51205356  1
  O  O263  1  0.76257834  0.38288232  0.00929050  1
  O  O264  1  0.74634916  0.35504903  0.50417316  1
  O  O265  1  0.76261726  0.87096881  0.00412052  1
  O  O266  1  0.74943251  0.86072064  0.49922990  1
  O  O267  1  0.13385678  0.49290299  0.24188808  1
  O  O268  1  0.12975500  0.49157075  0.74462607  1
  O  O269  1  0.12233652  0.98959584  0.24707775  1
  O  O270  1  0.13343451  0.99633988  0.74771702  1
  O  O271  1  0.63196049  0.50484194  0.23594144  1
  O  O272  1  0.63151363  0.49073430  0.74448005  1
  O  O273  1  0.62845479  0.98785233  0.24280169  1
  O  O274  1  0.63323116  0.99488241  0.75097833  1
  O  O275  1  0.38419046  0.01445514  0.26224924  1
  O  O276  1  0.36729869  0.01166633  0.75597475  1
  O  O277  1  0.36713761  0.49472771  0.26072441  1
  O  O278  1  0.36873009  0.50130645  0.75814740  1
  O  O279  1  0.86825552  0.00465409  0.25790689  1
  O  O280  1  0.87168314  -0.00098996  0.76514145  1
  O  O281  1  0.86906671  0.50912189  0.24595643  1
  O  O282  1  0.87086105  0.50304653  0.75292781  1
  O  O283  1  0.13062333  0.36674642  0.36583091  1
  O  O284  1  0.12892525  0.37498189  0.85886631  1
  O  O285  1  0.11727489  0.87928101  0.36563279  1
  O  O286  1  0.11865911  0.88358252  0.86695211  1
  O  O287  1  0.60735536  0.38357792  0.38168840  1
  O  O288  1  0.62036383  0.36879646  0.86980544  1
  O  O289  1  0.61323818  0.87860624  0.36547249  1
  O  O290  1  0.62593417  0.85946987  0.88586468  1
  O  O291  1  0.38204652  0.12903629  0.13418322  1
  O  O292  1  0.37899290  0.13326831  0.63187820  1
  O  O293  1  0.38435448  0.63043991  0.11063255  1
  O  O294  1  0.39193042  0.61522059  0.63291280  1
  O  O295  1  0.87617659  0.13037323  0.12874814  1
  O  O296  1  0.87580513  0.13709390  0.62645358  1
  O  O297  1  0.88195789  0.63101985  0.12933167  1
  O  O298  1  0.88284460  0.63165219  0.63146585  1
  O  O299  1  0.25624692  0.25422576  0.12012418  1
  O  O300  1  0.25969935  0.25328912  0.61697817  1
  O  O301  1  0.25325037  0.76459523  0.11397516  1
  O  O302  1  0.25360677  0.76954229  0.64173897  1
  O  O303  1  0.76272829  0.25773837  0.11769422  1
  O  O304  1  0.75870144  0.24362405  0.61648318  1
  O  O305  1  0.76003322  0.74969007  0.12127579  1
  O  O306  1  0.75891786  0.74408331  0.61522660  1
  O  O307  1  0.23993972  0.24317851  0.38002894  1
  O  O308  1  0.24826495  0.24748115  0.88551766  1
  O  O309  1  0.26356300  0.76265234  0.39050538  1
  O  O310  1  0.25395087  0.73981185  0.87811095  1
  O  O311  1  0.75067250  0.23332923  0.39828713  1
  O  O312  1  0.74094929  0.24913170  0.87094483  1
  O  O313  1  0.75802611  0.74418058  0.39131774  1
  O  O314  1  0.74340480  0.73824698  0.87628710  1
  O  O315  1  0.01048774  0.13443468  0.01104425  1
  O  O316  1  0.01476543  0.12270627  0.49572654  1
  O  O317  1  0.00617965  0.61986039  0.00270850  1
  O  O318  1  -0.00846190  0.61499601  0.50972458  1
  O  O319  1  0.51202418  0.12132505  0.00962704  1
  O  O320  1  0.49688333  0.11696481  0.50909855  1
  O  O321  1  0.51214368  0.61541073  -0.00529324  1
  O  O322  1  0.51093395  0.62288511  0.50980133  1
  O  O323  1  0.48793866  0.37764047  0.49147970  1
  O  O324  1  0.49743492  0.38061349  0.99013779  1
  O  O325  1  0.49662053  0.88154404  0.48485862  1
  O  O326  1  0.48645553  0.87733750  1.00613021  1
  O  O327  1  0.99609276  0.38329901  0.50172204  1
  O  O328  1  0.99271737  0.38494139  1.00520693  1
  O  O329  1  0.99574712  0.88379403  0.49369966  1
  O  O330  1  0.99721571  0.86725028  0.98868456  1
  O  O331  1  0.48794758  0.48866064  0.37269913  1
  O  O332  1  0.49360760  0.49018540  0.87847140  1
  O  O333  1  0.49058246  0.99279194  0.38036305  1
  O  O334  1  0.48782922  1.00777812  0.87382898  1
  O  O335  1  0.99404821  0.49805422  0.38856369  1
  O  O336  1  0.99593022  0.50658602  0.88550525  1
  O  O337  1  0.98966179  0.99343457  0.37885841  1
  O  O338  1  0.98968579  0.98948206  0.87236056  1
  O  O339  1  -0.00286437  0.01756836  0.12838276  1
  O  O340  1  0.01323028  -0.00291396  0.63005344  1
  O  O341  1  0.00406441  0.51174110  0.11252274  1
  O  O342  1  0.00310462  0.50504667  0.61347064  1
  O  O343  1  0.51327543  0.00686039  0.12802908  1
  O  O344  1  0.50020724  0.00989709  0.61666221  1
  O  O345  1  0.50746265  0.49602167  0.12003099  1
  O  O346  1  0.51253667  0.50526686  0.62270107  1
  O  O347  1  0.24013875  0.38026924  0.24269975  1
  O  O348  1  0.24204073  0.38671096  0.74774545  1
  O  O349  1  0.23886791  0.88030752  0.23914225  1
  O  O350  1  0.24616024  0.88505111  0.74647150  1
  O  O351  1  0.75634952  0.39204855  0.22875404  1
  O  O352  1  0.74254317  0.38021452  0.74662157  1
  O  O353  1  0.74179274  0.87743052  0.25082276  1
  O  O354  1  0.75547102  0.89370181  0.75878546  1
  O  O355  1  0.25771711  0.12742388  0.26232522  1
  O  O356  1  0.25683756  0.12255750  0.75379938  1
  O  O357  1  0.25052968  0.61573214  0.23721293  1
  O  O358  1  0.25933073  0.61087077  0.75718170  1
  O  O359  1  0.75947374  0.11356689  0.25831483  1
  O  O360  1  0.74897600  0.10549800  0.75941027  1
  O  O361  1  0.75727899  0.61521566  0.24835534  1
  O  O362  1  0.75503316  0.61856938  0.75684780  1
  O  O363  1  0.36880179  0.12111938  0.37041565  1
  O  O364  1  0.37118441  0.12462483  0.86882900  1
  O  O365  1  0.38134826  0.60796827  0.37780772  1
  O  O366  1  0.36965053  0.61620551  0.86987885  1
  O  O367  1  0.86913839  0.11513187  0.36878322  1
  O  O368  1  0.87872553  0.10811642  0.88635771  1
  O  O369  1  0.87762200  0.62608734  0.35919850  1
  O  O370  1  0.86722117  0.61999697  0.87103195  1
  O  O371  1  0.13080806  0.37989460  0.12937611  1
  O  O372  1  0.12612903  0.38539534  0.63489355  1
  O  O373  1  0.13005669  0.88537211  0.12968221  1
  O  O374  1  0.13491910  0.88648354  0.63544465  1
  O  O375  1  0.63469202  0.38363319  0.11396706  1
  O  O376  1  0.62436447  0.38118935  0.63231331  1
  O  O377  1  0.62626022  0.88157601  0.13116359  1
  O  O378  1  0.60571090  0.86633559  0.63574282  1
  O  O379  1  0.12335885  0.25891152  0.25870263  1
  O  O380  1  0.11341982  0.26277422  0.74617900  1
  O  O381  1  0.12559788  0.77381587  0.23602378  1
  O  O382  1  0.11593225  0.76352699  0.74648447  1
  O  O383  1  0.66277842  0.25966687  0.26088714  1
  O  O384  1  0.62975273  0.26073382  0.75566859  1
  O  O385  1  0.61763629  0.76006761  0.24534992  1
  O  O386  1  0.62482677  0.75168826  0.76106375  1
  O  O387  1  0.36736375  0.24050141  0.23954329  1
  O  O388  1  0.36772715  0.24451944  0.74030797  1
  O  O389  1  0.38942483  0.75176760  0.24577127  1
  O  O390  1  0.37507233  0.73427255  0.75566025  1
  O  O391  1  0.86589090  0.23979457  0.24063782  1
  O  O392  1  0.88931828  0.25057896  0.74181315  1
  O  O393  1  0.87214433  0.74328224  0.23671448  1
  O  O394  1  0.87884485  0.74471736  0.74602695  1
  O  O395  1  0.37604766  0.49146416  0.48754727  1
  O  O396  1  0.37761794  0.49572895  0.98577685  1
  O  O397  1  0.38332679  1.00647700  0.48844867  1
  O  O398  1  0.37734449  0.99599103  0.99060745  1
  O  O399  1  0.88431403  0.49184120  0.49722447  1
  O  O400  1  0.88373910  0.49391395  0.99479943  1
  O  O401  1  0.87282978  1.00072880  0.49508411  1
  O  O402  1  0.87411362  0.98647861  0.99348313  1
  O  O403  1  0.13194421  0.01729906  0.00181685  1
  O  O404  1  0.12492270  0.00932392  0.51271555  1
  O  O405  1  0.11973123  0.50362745  0.00327724  1
  O  O406  1  0.11149902  0.49334807  0.50631562  1
  O  O407  1  0.62523083  0.00421421  0.00741988  1
  O  O408  1  0.61055217  -0.00765676  0.50566029  1
  O  O409  1  0.62067829  0.50541800  0.00579832  1
  O  O410  1  0.62718650  0.50466953  0.50952158  1
  O  O411  1  0.37041722  0.36661599  0.12532767  1
  O  O412  1  0.37575772  0.36969791  0.61624923  1
  O  O413  1  0.36711196  0.87666278  0.11775186  1
  O  O414  1  0.35934196  0.88529939  0.62756429  1
  O  O415  1  0.87113428  0.36770425  0.11562663  1
  O  O416  1  0.87174233  0.35755202  0.61907563  1
  O  O417  1  0.87919056  0.86803767  0.12032029  1
  O  O418  1  0.88126616  0.86275386  0.62767194  1
  O  O419  1  0.13024000  0.13054084  0.37872686  1
  O  O420  1  0.13200933  0.13105753  0.88383864  1
  O  O421  1  0.11889642  0.63948675  0.34954526  1
  O  O422  1  0.13724365  0.61941645  0.87905670  1
  O  O423  1  0.63206574  0.11575638  0.36834492  1
  O  O424  1  0.62295033  0.13605930  0.88263240  1
  O  O425  1  0.62547364  0.61684048  0.38947007  1
  O  O426  1  0.63172641  0.62938311  0.88007348  1
