# generated using pymatgen
data_V85Zn86O256
_symmetry_space_group_name_H-M   'P 1'
_cell_length_a   16.95011924
_cell_length_b   16.96706424
_cell_length_c   16.96007361
_cell_angle_alpha   90.03102758
_cell_angle_beta   89.95385461
_cell_angle_gamma   89.94583174
_symmetry_Int_Tables_number   1
_chemical_formula_structural   V85Zn86O256
_chemical_formula_sum   'V85 Zn86 O256'
_cell_volume   4877.60689438
_cell_formula_units_Z   1
loop_
 _symmetry_equiv_pos_site_id
 _symmetry_equiv_pos_as_xyz
  1  'x, y, z'
loop_
 _atom_site_type_symbol
 _atom_site_label
 _atom_site_symmetry_multiplicity
 _atom_site_fract_x
 _atom_site_fract_y
 _atom_site_fract_z
 _atom_site_occupancy
  V  V0  1  0.37583509  0.37605113  0.49968628  1
  V  V1  1  0.62831654  0.25045319  0.87612197  1
  V  V2  1  0.49860060  -0.00202956  0.00075585  1
  V  V3  1  0.12279398  0.74139212  0.89109279  1
  V  V4  1  0.62834155  0.62244110  0.00271991  1
  V  V5  1  0.50024041  0.12570698  0.12252925  1
  V  V6  1  0.25261562  0.73652443  0.00369818  1
  V  V7  1  0.87078167  0.00428291  0.37639672  1
  V  V8  1  0.12796271  -0.00157397  0.62720751  1
  V  V9  1  0.85997807  0.74000545  0.61822310  1
  V  V10  1  0.74871107  0.38525761  0.62822163  1
  V  V11  1  0.24904919  0.37950720  0.62538479  1
  V  V12  1  0.49739620  0.75170449  0.24004404  1
  V  V13  1  0.81033396  0.91894655  0.55811339  1
  V  V14  1  0.12232694  0.37735578  0.75290728  1
  V  V15  1  0.63325262  0.74341112  0.37445811  1
  V  V16  1  0.74776668  0.62132634  0.86400952  1
  V  V17  1  0.24724277  0.00416032  0.24882170  1
  V  V18  1  0.87458730  0.62457514  0.25624636  1
  V  V19  1  0.62664075  0.38410979  0.75250365  1
  V  V20  1  0.87405748  0.38076600  0.49489339  1
  V  V21  1  -0.00347203  0.37964442  0.37401410  1
  V  V22  1  0.12266658  0.25326138  0.37781635  1
  V  V23  1  -0.00175375  0.25261053  0.75032994  1
  V  V24  1  0.62520150  0.12575236  0.49314946  1
  V  V25  1  0.37376861  0.62957529  0.24256067  1
  V  V26  1  0.50030358  0.37781005  0.37374853  1
  V  V27  1  0.50086730  0.49658041  0.00100031  1
  V  V28  1  0.12770190  0.87374765  0.75293810  1
  V  V29  1  0.49121725  0.63932634  0.62702071  1
  V  V30  1  0.61921448  0.74777327  0.86559647  1
  V  V31  1  0.12382563  0.37710790  0.25066358  1
  V  V32  1  0.63463600  0.87123583  0.24289677  1
  V  V33  1  0.86557967  0.88761836  0.00363687  1
  V  V34  1  -0.05508727  0.32501776  0.93134486  1
  V  V35  1  0.74681818  0.00667647  0.25270851  1
  V  V36  1  0.87369737  0.50251532  0.87440308  1
  V  V37  1  0.75465411  0.49644680  0.24180838  1
  V  V38  1  0.62958178  -0.00546185  0.11901571  1
  V  V39  1  0.37538720  0.37907894  -0.00380076  1
  V  V40  1  0.12396804  0.74714181  0.37784210  1
  V  V41  1  0.49816411  0.86857650  0.86934786  1
  V  V42  1  0.00115921  0.50839667  -0.00605779  1
  V  V43  1  0.75072256  0.12404873  0.85236041  1
  V  V44  1  0.86329840  0.75217015  0.12153910  1
  V  V45  1  0.75051074  0.25185563  0.49637722  1
  V  V46  1  0.37284098  0.00070345  0.37470730  1
  V  V47  1  0.12417829  0.87531677  0.25315259  1
  V  V48  1  -0.00112422  0.12502404  0.63097333  1
  V  V49  1  0.37656724  0.86488424  0.50152512  1
  V  V50  1  0.49938515  0.00223609  0.49565711  1
  V  V51  1  0.62871352  0.25135649  0.37225802  1
  V  V52  1  0.37229948  0.24917561  0.12505422  1
  V  V53  1  0.00364971  0.74119750  0.74094694  1
  V  V54  1  0.37560924  0.63575958  0.76049381  1
  V  V55  1  0.25210638  0.62574811  0.37758463  1
  V  V56  1  0.12653719  0.12474818  0.50260272  1
  V  V57  1  0.26001252  0.86881358  0.62899750  1
  V  V58  1  0.63782369  0.12322933  -0.00165709  1
  V  V59  1  -0.00161023  0.87891082  0.87860343  1
  V  V60  1  0.49938278  0.25057889  0.24704360  1
  V  V61  1  0.12630626  0.50893341  0.11962382  1
  V  V62  1  0.37511833  -0.00081561  0.87573666  1
  V  V63  1  0.12822890  0.25419006  0.87641243  1
  V  V64  1  0.25101400  0.50242221  0.24887688  1
  V  V65  1  0.87402091  0.25127429  0.63074845  1
  V  V66  1  0.62784981  0.38069345  0.23617382  1
  V  V67  1  0.25960219  0.50295109  0.76456034  1
  V  V68  1  0.37227385  0.12542116  0.24899335  1
  V  V69  1  0.49773210  0.37894203  0.87531163  1
  V  V70  1  0.12258751  0.51093416  0.62816462  1
  V  V71  1  -0.00062822  0.63355617  0.11939504  1
  V  V72  1  0.25719494  0.86994530  0.12612475  1
  V  V73  1  0.50382573  0.50300309  0.50405853  1
  V  V74  1  0.37598741  0.12187961  0.75136530  1
  V  V75  1  0.37383645  0.25161855  0.62606842  1
  V  V76  1  0.49914136  0.87312266  0.36894264  1
  V  V77  1  0.50264593  0.62029736  0.12416953  1
  V  V78  1  0.25139601  0.24661831  0.00121028  1
  V  V79  1  -0.00078199  0.50696457  0.50262517  1
  V  V80  1  0.49999933  0.12633279  0.62349484  1
  V  V81  1  -0.00548303  0.87409708  0.38431294  1
  V  V82  1  0.11663143  0.11348285  -0.00002440  1
  V  V83  1  0.87401681  0.00196653  0.85032840  1
  V  V84  1  0.88554027  0.12297432  0.23402527  1
  Zn  Zn85  1  -0.03932543  0.27644999  0.19790809  1
  Zn  Zn86  1  0.37477850  0.86819315  0.00522184  1
  Zn  Zn87  1  0.74763481  0.75205372  -0.00247715  1
  Zn  Zn88  1  0.25026976  0.12333086  0.87348259  1
  Zn  Zn89  1  0.25410917  -0.00188919  0.75051703  1
  Zn  Zn90  1  0.63687249  0.00061141  0.63032026  1
  Zn  Zn91  1  0.25131634  0.37796099  0.12462444  1
  Zn  Zn92  1  0.62509625  0.50717332  0.63155644  1
  Zn  Zn93  1  0.49851751  0.25297417  0.75098428  1
  Zn  Zn94  1  0.12466723  0.62669319  0.50453024  1
  Zn  Zn95  1  0.24989853  0.25115704  0.50162441  1
  Zn  Zn96  1  0.25464532  0.74409919  0.50696248  1
  Zn  Zn97  1  0.24752423  0.12732455  0.37589059  1
  Zn  Zn98  1  0.75620622  0.61318989  0.37960870  1
  Zn  Zn99  1  0.81551262  0.32181893  0.07888085  1
  Zn  Zn100  1  0.11277563  0.00359890  0.12868699  1
  Zn  Zn101  1  0.63273311  0.63088705  0.50938271  1
  Zn  Zn102  1  -0.00197676  -0.00394890  0.50427523  1
  Zn  Zn103  1  0.63824994  0.87381006  0.73281447  1
  Zn  Zn104  1  0.87755933  0.61611758  0.74457712  1
  Zn  Zn105  1  0.37747845  0.50176660  0.37286665  1
  Zn  Zn106  1  -0.00381657  0.75113651  0.25061261  1
  Zn  Zn107  1  0.15369673  0.20223598  0.17259996  1
  Zn  Zn108  1  0.18933340  0.18842557  0.68947867  1
  Zn  Zn109  1  0.18531647  0.69059106  0.18700535  1
  Zn  Zn110  1  0.19367985  0.68879334  0.69477468  1
  Zn  Zn111  1  0.69283095  0.18407792  0.19004937  1
  Zn  Zn112  1  0.68135204  0.19583247  0.68354392  1
  Zn  Zn113  1  0.68833994  0.68134833  0.18731648  1
  Zn  Zn114  1  0.68419256  0.68631005  0.68831570  1
  Zn  Zn115  1  0.30781823  0.31231862  0.31405782  1
  Zn  Zn116  1  0.31241208  0.31354471  0.81251157  1
  Zn  Zn117  1  0.31261244  0.81115166  0.31321294  1
  Zn  Zn118  1  0.30991006  0.81174538  0.82146498  1
  Zn  Zn119  1  0.81075799  0.31180347  0.30691286  1
  Zn  Zn120  1  0.80444054  0.30938963  0.81049523  1
  Zn  Zn121  1  0.81404769  0.81533221  0.31146706  1
  Zn  Zn122  1  0.81581476  0.80268083  0.80695756  1
  Zn  Zn123  1  0.18667109  0.44207882  0.43940464  1
  Zn  Zn124  1  0.18546293  0.43604251  0.94014521  1
  Zn  Zn125  1  0.18945571  0.93664153  0.44033673  1
  Zn  Zn126  1  0.19248398  0.93073111  0.93676319  1
  Zn  Zn127  1  0.68788668  0.44284532  0.43310376  1
  Zn  Zn128  1  0.69217903  0.44168640  0.94117024  1
  Zn  Zn129  1  0.68115293  0.93757037  0.43030402  1
  Zn  Zn130  1  0.70870119  0.91660841  0.88464710  1
  Zn  Zn131  1  0.30590288  0.06076679  0.06369361  1
  Zn  Zn132  1  0.31253586  0.05813299  0.56384898  1
  Zn  Zn133  1  0.31580403  0.56303382  0.06143740  1
  Zn  Zn134  1  0.31624365  0.56109340  0.56487190  1
  Zn  Zn135  1  0.80827439  0.05941298  0.06317920  1
  Zn  Zn136  1  0.81220646  0.08049648  0.56153624  1
  Zn  Zn137  1  0.81347382  0.55804826  0.05984877  1
  Zn  Zn138  1  0.81193385  0.56485495  0.55909046  1
  Zn  Zn139  1  0.43763182  0.43786932  0.18395554  1
  Zn  Zn140  1  0.43870737  0.44125221  0.68803766  1
  Zn  Zn141  1  0.43763558  0.93785887  0.18613673  1
  Zn  Zn142  1  0.47288379  0.91969388  0.66929781  1
  Zn  Zn143  1  0.93668647  0.44863246  0.18329895  1
  Zn  Zn144  1  0.93868319  0.43700034  0.68749557  1
  Zn  Zn145  1  0.93666261  0.93694222  0.18944835  1
  Zn  Zn146  1  0.94538997  0.93112281  0.68816736  1
  Zn  Zn147  1  0.05961150  0.06014728  0.31886466  1
  Zn  Zn148  1  0.06267157  0.06290758  0.81372878  1
  Zn  Zn149  1  0.05963090  0.56320194  0.31224642  1
  Zn  Zn150  1  0.06695614  0.56461483  0.81481481  1
  Zn  Zn151  1  0.56220988  0.06353789  0.31053637  1
  Zn  Zn152  1  0.56362288  0.05859238  0.81021213  1
  Zn  Zn153  1  0.56408032  0.55971505  0.30846133  1
  Zn  Zn154  1  0.55469525  0.56402290  0.81342811  1
  Zn  Zn155  1  0.43602136  0.19081839  0.43518605  1
  Zn  Zn156  1  0.44247897  0.18915765  0.93787161  1
  Zn  Zn157  1  0.44326619  0.68559646  0.43122704  1
  Zn  Zn158  1  0.43435210  0.68448994  0.93852635  1
  Zn  Zn159  1  0.94065010  0.18910319  0.43830763  1
  Zn  Zn160  1  0.92578874  0.15426136  0.95289354  1
  Zn  Zn161  1  0.93604128  0.69016531  0.44120311  1
  Zn  Zn162  1  0.93504951  0.69128001  0.93679109  1
  Zn  Zn163  1  0.06737367  0.31609002  0.06528203  1
  Zn  Zn164  1  0.06213537  0.31611530  0.56349613  1
  Zn  Zn165  1  0.04608795  0.84123185  0.07633098  1
  Zn  Zn166  1  0.06735694  0.81149938  0.56371391  1
  Zn  Zn167  1  0.65826931  0.30887122  0.05821014  1
  Zn  Zn168  1  0.56312022  0.31487395  0.56309180  1
  Zn  Zn169  1  0.56363544  0.80995540  0.05739536  1
  Zn  Zn170  1  0.56525751  0.81126774  0.55481171  1
  O  O171  1  0.14086379  0.11267500  0.10385528  1
  O  O172  1  0.12175515  0.12049062  0.62074253  1
  O  O173  1  0.11505994  0.61636020  0.13311010  1
  O  O174  1  0.13305937  0.61413153  0.62626594  1
  O  O175  1  0.61851014  0.11625133  0.11654307  1
  O  O176  1  0.61680678  0.12631132  0.61264237  1
  O  O177  1  0.61487869  0.62714372  0.11634544  1
  O  O178  1  0.60926807  0.62475727  0.62694985  1
  O  O179  1  0.38649493  0.37440828  0.37835314  1
  O  O180  1  0.38235099  0.36781289  0.88753862  1
  O  O181  1  0.37999506  0.88177553  0.37826424  1
  O  O182  1  0.37946365  0.88270540  0.88281721  1
  O  O183  1  0.88400845  0.36662674  0.38270117  1
  O  O184  1  0.87771480  0.37788603  0.87381291  1
  O  O185  1  0.88401917  0.88584098  0.37005465  1
  O  O186  1  0.88024211  0.88740733  0.87617833  1
  O  O187  1  0.25583836  0.00211248  0.36819727  1
  O  O188  1  0.26434296  0.00042973  0.87426984  1
  O  O189  1  0.25072736  0.51199260  0.36902338  1
  O  O190  1  0.24592400  0.49639306  0.86240783  1
  O  O191  1  0.75657328  -0.00575834  0.36466679  1
  O  O192  1  0.76714231  0.01278560  0.87387163  1
  O  O193  1  0.74435924  0.49824920  0.35387330  1
  O  O194  1  0.76138271  0.50809195  0.87831449  1
  O  O195  1  0.24247748  0.50233431  0.13008564  1
  O  O196  1  0.24448805  0.49137045  0.63150189  1
  O  O197  1  0.24455982  0.98847581  0.13398001  1
  O  O198  1  0.24653859  0.98747117  0.62828509  1
  O  O199  1  0.75295246  0.50320545  0.13961386  1
  O  O200  1  0.74647268  0.48789789  0.62189952  1
  O  O201  1  0.73566913  1.00139577  0.13244684  1
  O  O202  1  0.75548461  0.98987797  0.60995679  1
  O  O203  1  0.00956499  0.37882710  0.25956531  1
  O  O204  1  0.01171064  0.36583570  0.74359719  1
  O  O205  1  0.00973351  0.87313493  0.26587461  1
  O  O206  1  0.00741779  0.86422216  0.75918641  1
  O  O207  1  0.50493381  0.37185860  0.25730041  1
  O  O208  1  0.50453186  0.37464500  0.75796843  1
  O  O209  1  0.50666310  0.86787116  0.25014288  1
  O  O210  1  0.49260268  0.87084082  0.76936501  1
  O  O211  1  0.49416628  0.13061907  0.24425138  1
  O  O212  1  0.49106417  0.12857537  0.74072188  1
  O  O213  1  0.49446320  0.62942216  0.24242612  1
  O  O214  1  0.48652507  0.62101828  0.73827212  1
  O  O215  1  0.98463546  0.11189496  0.24931471  1
  O  O216  1  1.00875371  0.13441128  0.73710598  1
  O  O217  1  0.99196424  0.62562878  0.23925274  1
  O  O218  1  1.00155420  0.63903837  0.75389450  1
  O  O219  1  0.36948549  0.25445950  0.00510577  1
  O  O220  1  0.37259462  0.25723826  0.50746284  1
  O  O221  1  0.35687816  0.74944767  -0.00493812  1
  O  O222  1  0.37570647  0.76220900  0.48904478  1
  O  O223  1  0.89166577  0.26033623  -0.01157271  1
  O  O224  1  0.86831332  0.25831735  0.50593228  1
  O  O225  1  0.87059282  0.75896905  0.00578506  1
  O  O226  1  0.88004064  0.74961304  0.51999824  1
  O  O227  1  0.12662024  0.24407287  0.49665095  1
  O  O228  1  0.13465309  0.24510907  0.99181304  1
  O  O229  1  0.12972206  0.74667298  0.48978228  1
  O  O230  1  0.12587540  0.75832496  0.99276239  1
  O  O231  1  0.63044374  0.24807504  0.49233508  1
  O  O232  1  0.61235549  0.23460965  0.98300785  1
  O  O233  1  0.61709580  0.74721110  0.47826216  1
  O  O234  1  0.62616759  0.73570834  0.99413226  1
  O  O235  1  0.48833204  0.23967564  0.13355520  1
  O  O236  1  0.49435518  0.24082736  0.62428259  1
  O  O237  1  0.50293558  0.74075267  0.13376376  1
  O  O238  1  0.49575091  0.73714909  0.61769892  1
  O  O239  1  1.04673645  0.23847181  0.14038451  1
  O  O240  1  0.99295313  0.24556404  0.62791236  1
  O  O241  1  0.99140845  0.74680121  0.12694799  1
  O  O242  1  1.00164771  0.75420954  0.63902608  1
  O  O243  1  0.01343729  0.26192500  0.38185915  1
  O  O244  1  0.00296263  0.25621458  0.87447215  1
  O  O245  1  0.00741029  0.75530755  0.37472568  1
  O  O246  1  0.00762633  0.75674117  0.86766153  1
  O  O247  1  0.50814489  0.25778519  0.36889571  1
  O  O248  1  0.50643750  0.26212594  0.87329742  1
  O  O249  1  0.50800707  0.75318145  0.35881824  1
  O  O250  1  0.50599744  0.75705927  0.88557403  1
  O  O251  1  0.23766218  0.12608211  0.50234562  1
  O  O252  1  0.24886526  0.13679153  0.99419708  1
  O  O253  1  0.25141191  0.62472451  0.49158525  1
  O  O254  1  0.24800354  0.63732820  1.00496520  1
  O  O255  1  0.74020959  0.14294864  0.50000266  1
  O  O256  1  0.73943955  0.11815472  0.98987627  1
  O  O257  1  0.74285910  0.61687752  0.49100200  1
  O  O258  1  0.74031395  0.62161950  0.99217823  1
  O  O259  1  0.25729692  0.36493740  0.00006352  1
  O  O260  1  0.25698459  0.37846598  0.50882413  1
  O  O261  1  0.25056671  0.86735949  0.01291260  1
  O  O262  1  0.26071942  0.87322687  0.50823377  1
  O  O263  1  0.73996885  0.37094247  0.00885588  1
  O  O264  1  0.75483623  0.36984065  0.50358867  1
  O  O265  1  0.76439031  0.87416238  -0.01402229  1
  O  O266  1  0.74658487  0.87013989  0.49992842  1
  O  O267  1  0.13082723  0.49461999  0.24609132  1
  O  O268  1  0.13325509  0.49746015  0.74583805  1
  O  O269  1  0.13122295  0.99276165  0.25282467  1
  O  O270  1  0.12841613  0.99236976  0.74612231  1
  O  O271  1  0.62835070  0.48536356  0.24791479  1
  O  O272  1  0.61947230  0.48773368  0.75153873  1
  O  O273  1  0.62999344  0.99421822  0.24392773  1
  O  O274  1  0.61599752  0.99086908  0.74204124  1
  O  O275  1  0.36826925  0.00510452  0.25534613  1
  O  O276  1  0.37856411  0.00978772  0.76011520  1
  O  O277  1  0.36768147  0.50735790  0.25036109  1
  O  O278  1  0.36202369  0.50154303  0.74969575  1
  O  O279  1  0.86703780  0.00566866  0.25481293  1
  O  O280  1  0.87566474  -0.00186894  0.75231448  1
  O  O281  1  0.86832382  0.51163670  0.24827467  1
  O  O282  1  0.88790716  0.50014968  0.76767487  1
  O  O283  1  0.12020430  0.37197582  0.37229270  1
  O  O284  1  0.12887001  0.36243556  0.86939280  1
  O  O285  1  0.12371945  0.86757934  0.36968166  1
  O  O286  1  0.11686107  0.87141303  0.86961645  1
  O  O287  1  0.61366755  0.36891456  0.36848696  1
  O  O288  1  0.62033379  0.36813725  0.87021314  1
  O  O289  1  0.61766143  0.86536740  0.36246090  1
  O  O290  1  0.61017716  0.85979316  0.88931849  1
  O  O291  1  0.37743310  0.12758421  0.13096087  1
  O  O292  1  0.37842851  0.13201962  0.63030090  1
  O  O293  1  0.38267001  0.62380018  0.13629868  1
  O  O294  1  0.38532106  0.62145125  0.63399288  1
  O  O295  1  0.87678024  0.11995388  0.13413079  1
  O  O296  1  0.88663437  0.13841157  0.62098597  1
  O  O297  1  0.88171171  0.63395563  0.12989411  1
  O  O298  1  0.87277608  0.63471176  0.62892550  1
  O  O299  1  0.25202588  0.25357153  0.11650291  1
  O  O300  1  0.25347075  0.26443844  0.62600027  1
  O  O301  1  0.24599191  0.75351193  0.11239522  1
  O  O302  1  0.24665912  0.76429446  0.62422067  1
  O  O303  1  0.73751112  0.24569775  0.11211127  1
  O  O304  1  0.75636992  0.25874563  0.61623922  1
  O  O305  1  0.75976247  0.74515224  0.12097500  1
  O  O306  1  0.76058033  0.75036125  0.63010646  1
  O  O307  1  0.23843416  0.24908832  0.38238262  1
  O  O308  1  0.24320308  0.24787952  0.88072553  1
  O  O309  1  0.24402726  0.73837730  0.37564629  1
  O  O310  1  0.23342599  0.75771362  0.89189221  1
  O  O311  1  0.73632471  0.25825866  0.38090780  1
  O  O312  1  0.74072252  0.23773295  0.87259614  1
  O  O313  1  0.73444175  0.74961228  0.36392982  1
  O  O314  1  0.74069947  0.73628395  0.87812082  1
  O  O315  1  0.01748395  0.12220651  0.00445974  1
  O  O316  1  0.01113637  0.12477437  0.51217295  1
  O  O317  1  -0.00399444  0.62242151  0.01068322  1
  O  O318  1  0.00180942  0.61001050  0.49362745  1
  O  O319  1  0.50578860  0.11330151  0.00274344  1
  O  O320  1  0.50607174  0.12523509  0.50346090  1
  O  O321  1  0.50245467  0.61830103  0.00719483  1
  O  O322  1  0.49920057  0.61871894  0.50937656  1
  O  O323  1  0.49612907  0.38067155  0.49287891  1
  O  O324  1  0.49251418  0.38384272  0.99332158  1
  O  O325  1  0.49277824  0.88123701  0.48817175  1
  O  O326  1  0.49457675  0.88632734  1.00001836  1
  O  O327  1  0.99207585  0.38165217  0.49497717  1
  O  O328  1  1.00515089  0.38199783  0.99309477  1
  O  O329  1  1.00886173  0.87630781  0.48846963  1
  O  O330  1  0.98213542  0.86630576  0.98149482  1
  O  O331  1  0.49953937  0.49280314  0.38009607  1
  O  O332  1  0.50189562  0.48636723  0.88250254  1
  O  O333  1  0.49421107  0.99470862  0.37658566  1
  O  O334  1  0.49182191  0.99389998  0.88423090  1
  O  O335  1  1.00702316  0.48675790  0.38485852  1
  O  O336  1  0.99866777  0.50744650  0.88776876  1
  O  O337  1  0.99165534  0.99150676  0.38357993  1
  O  O338  1  0.98576826  0.99437089  0.86744350  1
  O  O339  1  0.01713039  -0.05025207  0.11479084  1
  O  O340  1  0.00623522  0.00738214  0.62406294  1
  O  O341  1  0.00634414  0.51178638  0.11364501  1
  O  O342  1  0.01146133  0.49405912  0.61680226  1
  O  O343  1  0.50687688  0.00505530  0.12016904  1
  O  O344  1  0.48996019  0.01947951  0.61173962  1
  O  O345  1  0.49699022  0.51163182  0.11740001  1
  O  O346  1  0.50224425  0.50568286  0.61689604  1
  O  O347  1  0.24513065  0.38765436  0.25033345  1
  O  O348  1  0.24586805  0.38531502  0.74470320  1
  O  O349  1  0.24619266  0.88403551  0.24993549  1
  O  O350  1  0.24662772  0.87539472  0.74597623  1
  O  O351  1  0.73660907  0.37788483  0.24662246  1
  O  O352  1  0.73945034  0.37107587  0.73973041  1
  O  O353  1  0.73842754  0.88411636  0.24971353  1
  O  O354  1  0.74015835  0.87702983  0.77980330  1
  O  O355  1  0.25039418  0.11186197  0.24993021  1
  O  O356  1  0.26315047  0.12264993  0.75113970  1
  O  O357  1  0.25664974  0.62225805  0.25446747  1
  O  O358  1  0.26224644  0.61168737  0.74666141  1
  O  O359  1  0.75902794  0.11169038  0.25129075  1
  O  O360  1  0.74378843  0.12880876  0.75314782  1
  O  O361  1  0.75784081  0.61624881  0.25234983  1
  O  O362  1  0.75056911  0.62328336  0.76073003  1
  O  O363  1  0.37157174  0.12064540  0.36785645  1
  O  O364  1  0.37837106  0.11921269  0.86736513  1
  O  O365  1  0.36891228  0.62386571  0.36351198  1
  O  O366  1  0.38290239  0.61966250  0.85928972  1
  O  O367  1  0.88186008  0.10707441  0.38107684  1
  O  O368  1  0.86863865  0.11241904  0.86842235  1
  O  O369  1  0.87651081  0.63537403  0.35949805  1
  O  O370  1  0.86576147  0.61921989  0.87309359  1
  O  O371  1  0.12830965  0.39160029  0.13537773  1
  O  O372  1  0.13397846  0.38220955  0.63147968  1
  O  O373  1  0.14103150  0.86224764  0.14715447  1
  O  O374  1  0.13368007  0.87999903  0.63338031  1
  O  O375  1  0.60634092  0.37137326  0.14066956  1
  O  O376  1  0.63194766  0.37410131  0.63425716  1
  O  O377  1  0.61805588  0.88244066  0.13136202  1
  O  O378  1  0.58768859  0.88882186  0.62970722  1
  O  O379  1  0.13901674  0.27016070  0.26505329  1
  O  O380  1  0.12129297  0.25467891  0.75868390  1
  O  O381  1  0.12382746  0.75537911  0.26405420  1
  O  O382  1  0.11890167  0.75438644  0.75879418  1
  O  O383  1  0.62067110  0.25674316  0.25715750  1
  O  O384  1  0.61989313  0.25936621  0.75992233  1
  O  O385  1  0.61972364  0.75640291  0.25123202  1
  O  O386  1  0.62199730  0.75183863  0.76232686  1
  O  O387  1  0.37652989  0.24487895  0.24620191  1
  O  O388  1  0.37625815  0.24368636  0.74313549  1
  O  O389  1  0.38462585  0.74190177  0.25355085  1
  O  O390  1  0.36400264  0.73467751  0.75578639  1
  O  O391  1  0.87515430  0.22686534  0.25968894  1
  O  O392  1  0.88011286  0.25814180  0.73711343  1
  O  O393  1  0.87485314  0.74631676  0.23915034  1
  O  O394  1  0.88947286  0.74684069  0.73938403  1
  O  O395  1  0.38670702  0.49377271  0.49659231  1
  O  O396  1  0.38460366  0.49097359  1.00338784  1
  O  O397  1  0.37950221  0.99527731  0.48983142  1
  O  O398  1  0.38184582  1.00166172  0.99454484  1
  O  O399  1  0.88313022  0.48708939  0.50588247  1
  O  O400  1  0.88688842  0.50039469  0.98886389  1
  O  O401  1  0.86792138  0.98988199  0.49992499  1
  O  O402  1  0.87362689  0.98970181  0.99647195  1
  O  O403  1  0.13172059  0.01316985  -0.01107442  1
  O  O404  1  0.12494526  0.00818737  0.50790910  1
  O  O405  1  0.11824174  0.49767360  0.00975657  1
  O  O406  1  0.11785395  0.50134746  0.51106497  1
  O  O407  1  0.61593553  0.00597984  0.00766835  1
  O  O408  1  0.61869783  0.01099828  0.49834461  1
  O  O409  1  0.61094505  0.51186650  -0.00595761  1
  O  O410  1  0.61180100  0.49911898  0.50125316  1
  O  O411  1  0.37388139  0.36845155  0.11376851  1
  O  O412  1  0.36892730  0.37139215  0.62158943  1
  O  O413  1  0.36208282  0.87472214  0.12816273  1
  O  O414  1  0.37355210  0.88093645  0.61312906  1
  O  O415  1  0.90149504  0.35472134  0.13812388  1
  O  O416  1  0.86761824  0.36988698  0.61719727  1
  O  O417  1  0.87203933  0.86942942  0.11005243  1
  O  O418  1  0.87252919  0.86683650  0.62336973  1
  O  O419  1  0.12274725  0.13404144  0.38411935  1
  O  O420  1  0.12625168  0.13581997  0.88203818  1
  O  O421  1  0.13254463  0.63141807  0.37559451  1
  O  O422  1  0.12230452  0.64297099  0.87915522  1
  O  O423  1  0.61818625  0.13550078  0.38476189  1
  O  O424  1  0.63126186  0.12883749  0.87714090  1
  O  O425  1  0.62301634  0.63897220  0.36703913  1
  O  O426  1  0.62790268  0.62852976  0.87911463  1
