# generated using pymatgen
data_V85Zn86O256
_symmetry_space_group_name_H-M   'P 1'
_cell_length_a   16.95298024
_cell_length_b   16.97275967
_cell_length_c   16.94669992
_cell_angle_alpha   90.00028802
_cell_angle_beta   89.83191241
_cell_angle_gamma   90.00802892
_symmetry_Int_Tables_number   1
_chemical_formula_structural   V85Zn86O256
_chemical_formula_sum   'V85 Zn86 O256'
_cell_volume   4876.20307297
_cell_formula_units_Z   1
loop_
 _symmetry_equiv_pos_site_id
 _symmetry_equiv_pos_as_xyz
  1  'x, y, z'
loop_
 _atom_site_type_symbol
 _atom_site_label
 _atom_site_symmetry_multiplicity
 _atom_site_fract_x
 _atom_site_fract_y
 _atom_site_fract_z
 _atom_site_occupancy
  V  V0  1  0.00930925  0.25656665  0.75246167  1
  V  V1  1  0.62801467  0.25734608  0.37505753  1
  V  V2  1  0.74992088  0.75008653  0.50214570  1
  V  V3  1  0.01383935  0.50445677  -0.00112403  1
  V  V4  1  0.62728581  -0.00468749  0.13103544  1
  V  V5  1  0.60739704  0.37068637  0.75408377  1
  V  V6  1  0.12276238  0.25645792  0.88876872  1
  V  V7  1  0.49912478  0.49260485  -0.00544960  1
  V  V8  1  0.87766851  0.00053493  0.37325993  1
  V  V9  1  0.50502809  -0.00923668  -0.00956313  1
  V  V10  1  0.12513160  0.87510545  0.24158022  1
  V  V11  1  0.62140796  0.75612516  0.87426847  1
  V  V12  1  0.38098098  0.87265987  -0.01266884  1
  V  V13  1  0.87999015  0.87372088  0.49764596  1
  V  V14  1  0.25475140  -0.00532187  0.24158509  1
  V  V15  1  0.49873247  0.25172060  0.24761748  1
  V  V16  1  0.87999642  0.12342559  0.75341729  1
  V  V17  1  0.50427067  -0.00241723  0.50546182  1
  V  V18  1  0.37531243  0.25029237  0.12815348  1
  V  V19  1  0.62795190  0.49173558  0.12370071  1
  V  V20  1  0.00097398  0.24639539  0.24769237  1
  V  V21  1  0.37052870  0.75562087  0.12853312  1
  V  V22  1  0.38065375  0.50760060  0.36536096  1
  V  V23  1  0.75089121  0.87110295  0.12990534  1
  V  V24  1  0.25372105  0.62937928  0.37087689  1
  V  V25  1  0.74939697  0.25549878  0.00647613  1
  V  V26  1  0.62394510  0.12780716  0.50292494  1
  V  V27  1  0.37587356  0.48961883  0.87285751  1
  V  V28  1  0.75498769  0.12758670  0.88005174  1
  V  V29  1  0.49532925  0.12037187  0.12560402  1
  V  V30  1  0.44708717  0.32729873  0.42503819  1
  V  V31  1  0.49421246  0.50069181  0.49456018  1
  V  V32  1  0.62817248  0.12311081  0.00222898  1
  V  V33  1  0.24840489  0.23887339  0.00485287  1
  V  V34  1  -0.00254412  0.50716785  0.50389685  1
  V  V35  1  0.00494149  0.61776730  0.13221420  1
  V  V36  1  0.25451526  0.12719921  0.36863990  1
  V  V37  1  0.24771370  0.87274629  0.62723920  1
  V  V38  1  0.00306594  0.73828818  0.74296150  1
  V  V39  1  0.37638755  0.87342255  0.49764514  1
  V  V40  1  0.75562041  -0.00146102  0.75522799  1
  V  V41  1  0.12751905  0.12584917  0.49792325  1
  V  V42  1  0.50490517  0.87742839  0.36446290  1
  V  V43  1  0.87473799  0.38151198  0.00446557  1
  V  V44  1  -0.00778152  0.75130820  0.25150297  1
  V  V45  1  0.49382057  0.62145187  0.12820421  1
  V  V46  1  0.75398820  0.74599969  0.00067183  1
  V  V47  1  0.87603589  0.50515714  0.36945926  1
  V  V48  1  0.12393126  0.62778629  0.50352454  1
  V  V49  1  0.24911386  0.50925988  0.24363232  1
  V  V50  1  0.37736530  0.00504503  0.37002346  1
  V  V51  1  0.12188378  0.75729063  0.37502729  1
  V  V52  1  0.62451818  0.62136870  -0.00082711  1
  V  V53  1  0.75305285  0.49472080  0.24409218  1
  V  V54  1  0.61145472  0.25180915  0.87503759  1
  V  V55  1  0.00319872  -0.00295150  0.48744442  1
  V  V56  1  0.37282696  0.62481932  0.75345389  1
  V  V57  1  0.75197388  0.24866113  0.50132700  1
  V  V58  1  0.87588917  0.87951672  -0.01512975  1
  V  V59  1  0.12282928  0.50271948  0.62711326  1
  V  V60  1  0.62409457  0.62505997  0.49846692  1
  V  V61  1  0.27371205  0.00188012  0.74885705  1
  V  V62  1  0.75205767  0.62102503  0.87145612  1
  V  V63  1  0.24641103  0.74766675  0.00121422  1
  V  V64  1  0.00085565  0.37786811  0.37477462  1
  V  V65  1  0.62871505  0.00264578  0.62650508  1
  V  V66  1  0.49996002  0.74586488  0.24866044  1
  V  V67  1  0.13064793  0.25182853  0.37758106  1
  V  V68  1  0.12404302  0.38213637  0.24557841  1
  V  V69  1  0.74999630  0.37210903  0.63153207  1
  V  V70  1  0.75159369  0.62554040  0.36726176  1
  V  V71  1  0.87608639  0.37520473  0.50095024  1
  V  V72  1  0.62281597  0.49730500  0.62484319  1
  V  V73  1  0.87819615  0.49395056  0.87472167  1
  V  V74  1  0.87978260  0.24866750  0.62734745  1
  V  V75  1  0.06255443  0.92367957  0.80346274  1
  V  V76  1  0.49924131  0.62717392  0.62523382  1
  V  V77  1  0.74869561  -0.00391321  0.25189862  1
  V  V78  1  0.11745335  0.73955072  0.87688675  1
  V  V79  1  0.12115400  -0.00287066  0.62523404  1
  V  V80  1  0.37629137  0.74895639  0.62475602  1
  V  V81  1  0.87358653  0.25263046  0.12732735  1
  V  V82  1  0.25039755  0.37527680  0.60834392  1
  V  V83  1  0.62550724  0.75444989  0.37007098  1
  V  V84  1  0.25061117  0.38094640  0.12350335  1
  Zn  Zn85  1  0.02668659  0.12087353  0.09358447  1
  Zn  Zn86  1  0.87793726  0.61809821  0.73942894  1
  Zn  Zn87  1  0.24864041  0.62136454  0.88002712  1
  Zn  Zn88  1  0.87280903  0.12400872  0.24696089  1
  Zn  Zn89  1  0.88208091  0.74332060  0.62093884  1
  Zn  Zn90  1  0.00479458  0.12357368  0.62750769  1
  Zn  Zn91  1  0.24849184  0.49815526  0.75013470  1
  Zn  Zn92  1  0.75098191  0.87375334  0.62695077  1
  Zn  Zn93  1  0.87427220  0.74440262  0.12886741  1
  Zn  Zn94  1  0.36767936  0.26552738  0.62239321  1
  Zn  Zn95  1  0.37770571  0.36999848  -0.00513275  1
  Zn  Zn96  1  0.75063714  0.49727966  0.74978948  1
  Zn  Zn97  1  0.12716255  0.37613159  0.75032538  1
  Zn  Zn98  1  0.43638692  0.15869913  0.69317775  1
  Zn  Zn99  1  0.25316552  0.12470418  0.86371578  1
  Zn  Zn100  1  0.75007645  0.12519633  0.37389316  1
  Zn  Zn101  1  0.24908953  0.75055805  0.49904401  1
  Zn  Zn102  1  0.49574779  0.75608240  0.75938704  1
  Zn  Zn103  1  0.62302885  0.87765788  0.75328787  1
  Zn  Zn104  1  0.62492429  0.37460528  0.25020175  1
  Zn  Zn105  1  0.19668775  0.93887422  0.07966616  1
  Zn  Zn106  1  0.01805738  -0.01407461  0.00358150  1
  Zn  Zn107  1  0.19070269  0.18505989  0.18261402  1
  Zn  Zn108  1  0.22182617  0.20486893  0.70135965  1
  Zn  Zn109  1  0.18289915  0.68898882  0.18351913  1
  Zn  Zn110  1  0.18736105  0.68702983  0.68928138  1
  Zn  Zn111  1  0.68876030  0.18353344  0.18757196  1
  Zn  Zn112  1  0.68561849  0.18670035  0.69135647  1
  Zn  Zn113  1  0.68239908  0.68336002  0.18689160  1
  Zn  Zn114  1  0.68920243  0.68464839  0.68852249  1
  Zn  Zn115  1  0.30877857  0.31205529  0.30501699  1
  Zn  Zn116  1  0.30867600  0.31388025  0.80595364  1
  Zn  Zn117  1  0.31363394  0.81351192  0.30965336  1
  Zn  Zn118  1  0.30731511  0.81014024  0.81144214  1
  Zn  Zn119  1  0.81179614  0.31751052  0.31297702  1
  Zn  Zn120  1  0.81360772  0.31074584  0.81616102  1
  Zn  Zn121  1  0.81296778  0.81803417  0.31618967  1
  Zn  Zn122  1  0.81204773  0.80677967  0.80767389  1
  Zn  Zn123  1  0.18577617  0.44585155  0.43102882  1
  Zn  Zn124  1  0.19156131  0.43299056  0.93446809  1
  Zn  Zn125  1  0.19033862  0.93786624  0.43373251  1
  Zn  Zn126  1  0.19680891  0.92937916  0.92348280  1
  Zn  Zn127  1  0.68832681  0.43748804  0.43968003  1
  Zn  Zn128  1  0.68915173  0.43454326  0.93598964  1
  Zn  Zn129  1  0.68954338  0.93539274  0.43676392  1
  Zn  Zn130  1  0.69714878  0.93860975  0.94150404  1
  Zn  Zn131  1  0.33206321  0.07819956  0.02956021  1
  Zn  Zn132  1  0.30372935  0.05680742  0.56189458  1
  Zn  Zn133  1  0.31470132  0.56586481  0.06033332  1
  Zn  Zn134  1  0.31068436  0.56013669  0.55896263  1
  Zn  Zn135  1  0.84939804  0.04664750  0.07707641  1
  Zn  Zn136  1  0.81435948  0.06340249  0.56518181  1
  Zn  Zn137  1  0.81818685  0.56705142  0.06624845  1
  Zn  Zn138  1  0.81073364  0.56324749  0.56239690  1
  Zn  Zn139  1  0.43828955  0.43570186  0.18940155  1
  Zn  Zn140  1  0.43246967  0.43853781  0.68285892  1
  Zn  Zn141  1  0.43639407  0.93608729  0.18419326  1
  Zn  Zn142  1  0.44398495  0.93168160  0.68824230  1
  Zn  Zn143  1  0.93667532  0.43804252  0.18446711  1
  Zn  Zn144  1  0.93994212  0.43760162  0.68785632  1
  Zn  Zn145  1  0.94153847  0.93471331  0.18322195  1
  Zn  Zn146  1  0.93152581  0.93812881  0.67821068  1
  Zn  Zn147  1  0.08006622  0.07818117  0.27731334  1
  Zn  Zn148  1  0.04421489  0.09369374  0.86796417  1
  Zn  Zn149  1  0.06529086  0.56833663  0.31258473  1
  Zn  Zn150  1  0.06143913  0.56133788  0.81594768  1
  Zn  Zn151  1  0.56374826  0.06919580  0.31294522  1
  Zn  Zn152  1  0.56861306  0.06168260  0.81189257  1
  Zn  Zn153  1  0.56570491  0.56462114  0.30904963  1
  Zn  Zn154  1  0.56119990  0.56271563  0.81158445  1
  Zn  Zn155  1  0.41494372  0.16050584  0.49243522  1
  Zn  Zn156  1  0.44046091  0.16121338  0.88414129  1
  Zn  Zn157  1  0.43721234  0.68787309  0.43515479  1
  Zn  Zn158  1  0.43604162  0.68267459  0.94094336  1
  Zn  Zn159  1  0.94185909  0.18521809  0.43453650  1
  Zn  Zn160  1  0.93509198  0.19212343  0.94132936  1
  Zn  Zn161  1  0.93801741  0.68691465  0.43478068  1
  Zn  Zn162  1  0.93774129  0.68133935  0.93811186  1
  Zn  Zn163  1  0.05799559  0.32182767  0.06569442  1
  Zn  Zn164  1  0.06582887  0.31312699  0.56311243  1
  Zn  Zn165  1  0.05679927  0.80597609  0.06116450  1
  Zn  Zn166  1  0.06226539  0.81480750  0.56193727  1
  Zn  Zn167  1  0.56186365  0.31140652  0.06061907  1
  Zn  Zn168  1  0.55884955  0.30326312  0.57569983  1
  Zn  Zn169  1  0.56573684  0.81107770  0.06342776  1
  Zn  Zn170  1  0.56455514  0.81524797  0.56415753  1
  O  O171  1  0.10670764  0.11648770  0.16945383  1
  O  O172  1  0.12643712  0.10907639  0.61268965  1
  O  O173  1  0.10535747  0.63133345  0.12221791  1
  O  O174  1  0.13014632  0.62132499  0.61054066  1
  O  O175  1  0.61991971  0.11652710  0.11981345  1
  O  O176  1  0.62905682  0.11423453  0.61844658  1
  O  O177  1  0.61480580  0.61563440  0.11775861  1
  O  O178  1  0.62004512  0.61766842  0.61940334  1
  O  O179  1  0.38245251  0.38359270  0.36700874  1
  O  O180  1  0.37166934  0.38560855  0.87375459  1
  O  O181  1  0.38301833  0.88063132  0.38148994  1
  O  O182  1  0.37736217  0.86426164  0.88854197  1
  O  O183  1  0.87862927  0.38648752  0.38230994  1
  O  O184  1  0.87153010  0.38715267  0.88324369  1
  O  O185  1  0.87157148  0.88893213  0.38663883  1
  O  O186  1  0.86991827  0.86425778  0.88709034  1
  O  O187  1  0.26082966  0.00401073  0.36790251  1
  O  O188  1  0.25829996  -0.00937973  0.85027794  1
  O  O189  1  0.25858936  0.50947659  0.36472134  1
  O  O190  1  0.25965676  0.50314433  0.87343454  1
  O  O191  1  0.75580889  0.00001949  0.36766820  1
  O  O192  1  0.74156132  0.01145352  0.86228958  1
  O  O193  1  0.75621995  0.50692561  0.37053271  1
  O  O194  1  0.75664187  0.50616607  0.87375583  1
  O  O195  1  0.25777822  0.49734242  0.13470140  1
  O  O196  1  0.23571666  0.49883621  0.62278368  1
  O  O197  1  0.26746975  1.00351954  0.14069821  1
  O  O198  1  0.24195708  0.99083956  0.63200151  1
  O  O199  1  0.74168814  0.51074015  0.13400221  1
  O  O200  1  0.74006820  0.48849978  0.62305319  1
  O  O201  1  0.74919350  0.99136233  0.13324635  1
  O  O202  1  0.74578803  1.00103600  0.63640729  1
  O  O203  1  0.00699018  0.37079512  0.25383258  1
  O  O204  1  0.00236012  0.35978678  0.74567619  1
  O  O205  1  0.01354002  0.86792304  0.24583368  1
  O  O206  1  -0.00408117  0.86776060  0.74883592  1
  O  O207  1  0.50658562  0.35860051  0.24222409  1
  O  O208  1  0.50927340  0.37654680  0.74523706  1
  O  O209  1  0.49876027  0.86940179  0.26037283  1
  O  O210  1  0.51027177  0.86699252  0.74609835  1
  O  O211  1  0.50742535  0.13822410  0.23939288  1
  O  O212  1  0.48787979  0.13182385  0.78554346  1
  O  O213  1  0.50207249  0.63277396  0.24077247  1
  O  O214  1  0.48998894  0.62852149  0.74293854  1
  O  O215  1  0.98635096  0.14602797  0.27021866  1
  O  O216  1  0.98906368  0.13348428  0.75852384  1
  O  O217  1  1.00331814  0.63266901  0.24132431  1
  O  O218  1  0.99887188  0.63537161  0.75097147  1
  O  O219  1  0.36352417  0.25575414  0.01899622  1
  O  O220  1  0.38411558  0.27112933  0.47827388  1
  O  O221  1  0.37216337  0.75703375  0.00639916  1
  O  O222  1  0.37467434  0.76109621  0.50186730  1
  O  O223  1  0.86997402  0.26072815  0.00631460  1
  O  O224  1  0.87354527  0.25485817  0.50548555  1
  O  O225  1  0.86290624  0.75088864  -0.00065246  1
  O  O226  1  0.86851186  0.75699918  0.49527079  1
  O  O227  1  0.11757623  0.24110865  0.48591336  1
  O  O228  1  0.12798227  0.26162152  0.99482699  1
  O  O229  1  0.12475541  0.74430522  0.49286711  1
  O  O230  1  0.13129210  0.76001487  0.98554022  1
  O  O231  1  0.62903058  0.24387338  0.49731519  1
  O  O232  1  0.63388239  0.24722536  0.99666666  1
  O  O233  1  0.63191008  0.74575452  0.49218422  1
  O  O234  1  0.63544550  0.74284531  0.99303153  1
  O  O235  1  0.49533435  0.24229658  0.12821297  1
  O  O236  1  0.48062704  0.24467149  0.62349650  1
  O  O237  1  0.49867446  0.74215597  0.13166172  1
  O  O238  1  0.49450741  0.74107853  0.62053415  1
  O  O239  1  0.99379843  0.24782138  0.13239678  1
  O  O240  1  0.99869695  0.24451182  0.63267886  1
  O  O241  1  0.99674755  0.74145103  0.13509855  1
  O  O242  1  1.00482248  0.75214581  0.63966169  1
  O  O243  1  0.00601588  0.26183735  0.37078650  1
  O  O244  1  0.01446009  0.24816848  0.87054141  1
  O  O245  1  0.01130104  0.74156274  0.36527216  1
  O  O246  1  0.01134174  0.74469897  0.86920767  1
  O  O247  1  0.50501436  0.25753316  0.36937820  1
  O  O248  1  0.51363574  0.25259196  0.89442566  1
  O  O249  1  0.50327405  0.75676025  0.36774119  1
  O  O250  1  0.51873119  0.73963452  0.87961579  1
  O  O251  1  0.23370539  0.11376952  0.48429867  1
  O  O252  1  0.23309935  0.14399690  1.03376318  1
  O  O253  1  0.24204335  0.62646927  0.48956929  1
  O  O254  1  0.25654321  0.64268360  0.99793986  1
  O  O255  1  0.74026959  0.13048881  0.50065468  1
  O  O256  1  0.74704825  0.13340263  0.99304668  1
  O  O257  1  0.74348065  0.63023268  0.48768171  1
  O  O258  1  0.74562172  0.62895918  0.99334486  1
  O  O259  1  0.25045761  0.37257830  0.01585332  1
  O  O260  1  0.24465318  0.39047782  0.50907500  1
  O  O261  1  0.26481585  0.86614078  0.00195083  1
  O  O262  1  0.26030198  0.87628461  0.50741260  1
  O  O263  1  0.76145098  0.36813261  -0.00275955  1
  O  O264  1  0.75429656  0.36905447  0.51148981  1
  O  O265  1  0.75588969  0.86213142  0.00729379  1
  O  O266  1  0.75763361  0.86453085  0.49866372  1
  O  O267  1  0.13591908  0.49319102  0.25799316  1
  O  O268  1  0.12183767  0.50120999  0.73938964  1
  O  O269  1  0.13691397  0.97997179  0.26042520  1
  O  O270  1  0.11582623  0.98617646  0.74021447  1
  O  O271  1  0.63221634  0.49862613  0.24121790  1
  O  O272  1  0.62519191  0.48710346  0.74447934  1
  O  O273  1  0.63203375  1.00431071  0.23933251  1
  O  O274  1  0.63435073  1.00114022  0.74110395  1
  O  O275  1  0.37222322  -0.00779754  0.26341465  1
  O  O276  1  0.37249922  0.00876610  0.73484277  1
  O  O277  1  0.36845710  0.50027722  0.25864851  1
  O  O278  1  0.37685306  0.50784418  0.75733584  1
  O  O279  1  0.86961568  -0.00101384  0.25903981  1
  O  O280  1  0.86856501  0.01080382  0.74466099  1
  O  O281  1  0.86786710  0.49618351  0.25869621  1
  O  O282  1  0.87455064  0.49874976  0.75919676  1
  O  O283  1  0.12239389  0.37122539  0.36706272  1
  O  O284  1  0.13021054  0.36152381  0.86896866  1
  O  O285  1  0.13043286  0.86096265  0.37020043  1
  O  O286  1  0.12513650  0.86250550  0.85873810  1
  O  O287  1  0.62915784  0.36202018  0.37656927  1
  O  O288  1  0.62847619  0.36874446  0.86060097  1
  O  O289  1  0.61570321  0.86728610  0.37963116  1
  O  O290  1  0.63526971  0.85721201  0.87998240  1
  O  O291  1  0.39015314  0.13118991  0.12018915  1
  O  O292  1  0.37260801  0.13604310  0.59724207  1
  O  O293  1  0.38892023  0.63574818  0.11908571  1
  O  O294  1  0.37898722  0.62885073  0.62898558  1
  O  O295  1  0.86920940  0.14601803  0.12842183  1
  O  O296  1  0.87980463  0.13221637  0.63423523  1
  O  O297  1  0.89283732  0.62985534  0.12306989  1
  O  O298  1  0.86847556  0.63079408  0.62633792  1
  O  O299  1  0.25705500  0.26195095  0.13164508  1
  O  O300  1  0.24226274  0.27089185  0.60812716  1
  O  O301  1  0.26012795  0.74493589  0.11838655  1
  O  O302  1  0.25560116  0.75696907  0.62214360  1
  O  O303  1  0.75253238  0.25014448  0.11341766  1
  O  O304  1  0.75593281  0.25509567  0.62111466  1
  O  O305  1  0.74838864  0.75220888  0.11939974  1
  O  O306  1  0.74500016  0.74968380  0.60993415  1
  O  O307  1  0.24219494  0.24216024  0.36802725  1
  O  O308  1  0.24391357  0.25553321  0.89215576  1
  O  O309  1  0.24513974  0.74348899  0.37539989  1
  O  O310  1  0.23744767  0.74852810  0.88033339  1
  O  O311  1  0.74539952  0.24959679  0.38277474  1
  O  O312  1  0.74456490  0.24571815  0.88636719  1
  O  O313  1  0.74711587  0.74368322  0.38053138  1
  O  O314  1  0.74398133  0.73840005  0.88121010  1
  O  O315  1  0.00206107  0.11103593  -0.01808084  1
  O  O316  1  0.01262602  0.11663622  0.49827523  1
  O  O317  1  -0.00131578  0.61053979  0.00847522  1
  O  O318  1  0.00730686  0.61427060  0.49373587  1
  O  O319  1  0.51167143  0.10924736  0.00956362  1
  O  O320  1  0.51756909  0.11084410  0.49178548  1
  O  O321  1  0.50547834  0.61388680  0.00776879  1
  O  O322  1  0.50513650  0.61832221  0.50283812  1
  O  O323  1  0.50357757  0.38120182  0.49404087  1
  O  O324  1  0.49686248  0.38906110  1.00657318  1
  O  O325  1  0.49606119  0.88037075  0.48988418  1
  O  O326  1  0.49165896  0.87574675  1.00411831  1
  O  O327  1  0.99684551  0.38678841  0.49415398  1
  O  O328  1  0.98661298  0.39177699  1.00785136  1
  O  O329  1  0.99131111  0.88233626  0.50065160  1
  O  O330  1  0.97974732  0.87255259  1.00606073  1
  O  O331  1  0.49238734  0.50731242  0.37843070  1
  O  O332  1  0.49176124  0.50531350  0.88441998  1
  O  O333  1  0.49766435  0.99440262  0.37930182  1
  O  O334  1  0.51786153  0.99422296  0.89219032  1
  O  O335  1  0.99302427  0.49831145  0.37898979  1
  O  O336  1  0.99228904  0.50499040  0.88938378  1
  O  O337  1  0.99352961  1.00404670  0.38429328  1
  O  O338  1  1.01120314  0.98401402  0.86782300  1
  O  O339  1  -0.03527437  0.01534870  0.10795525  1
  O  O340  1  0.00630866  0.00163234  0.61306007  1
  O  O341  1  -0.00123809  0.50949934  0.11751233  1
  O  O342  1  0.00973565  0.49658466  0.61464430  1
  O  O343  1  0.51028167  0.00347656  0.12450481  1
  O  O344  1  0.50902840  -0.00357480  0.61095491  1
  O  O345  1  0.50554330  0.50615789  0.12144943  1
  O  O346  1  0.50306706  0.50560977  0.61420251  1
  O  O347  1  0.24332665  0.38595865  0.24243292  1
  O  O348  1  0.24460942  0.38203950  0.73303794  1
  O  O349  1  0.24042262  0.88030337  0.25180048  1
  O  O350  1  0.26040769  0.88418776  0.73387770  1
  O  O351  1  0.74503706  0.39093469  0.25419978  1
  O  O352  1  0.74826681  0.37341300  0.73914936  1
  O  O353  1  0.75172042  0.88522381  0.24452747  1
  O  O354  1  0.74760038  0.88382528  0.74859670  1
  O  O355  1  0.25081457  0.11327042  0.26343217  1
  O  O356  1  0.23970448  0.10009525  0.74620114  1
  O  O357  1  0.24233051  0.61884203  0.25634249  1
  O  O358  1  0.26269700  0.62133974  0.74965002  1
  O  O359  1  0.75324066  0.11111410  0.25201801  1
  O  O360  1  0.76016382  0.12210800  0.75709063  1
  O  O361  1  0.74418759  0.61709303  0.26223456  1
  O  O362  1  0.75085794  0.61964419  0.76106715  1
  O  O363  1  0.36773179  0.11331554  0.39059956  1
  O  O364  1  0.34740112  0.12158537  0.92332561  1
  O  O365  1  0.36316788  0.62102024  0.37612126  1
  O  O366  1  0.37399876  0.61793281  0.86676874  1
  O  O367  1  0.86975228  0.11143503  0.37973128  1
  O  O368  1  0.86238575  0.13375171  0.86804983  1
  O  O369  1  0.86637484  0.61290753  0.37951189  1
  O  O370  1  0.86658365  0.61297075  0.87436309  1
  O  O371  1  0.13229882  0.37372790  0.13881869  1
  O  O372  1  0.13055473  0.38743319  0.62265495  1
  O  O373  1  0.12744625  0.86543450  0.13750428  1
  O  O374  1  0.13555520  0.88625465  0.61507786  1
  O  O375  1  0.62406194  0.38913637  0.12339967  1
  O  O376  1  0.63046972  0.37491452  0.63576521  1
  O  O377  1  0.63936357  0.88173451  0.12075831  1
  O  O378  1  0.63157810  0.89051962  0.62052365  1
  O  O379  1  0.11771794  0.26128681  0.26055134  1
  O  O380  1  0.12205895  0.25088513  0.75530154  1
  O  O381  1  0.12001884  0.75929034  0.25674528  1
  O  O382  1  0.11377290  0.74535187  0.75946175  1
  O  O383  1  0.62181612  0.25065152  0.25885925  1
  O  O384  1  0.62660797  0.26173366  0.75853473  1
  O  O385  1  0.61209032  0.74633198  0.25614136  1
  O  O386  1  0.62829538  0.74773093  0.76590467  1
  O  O387  1  0.38356636  0.25114799  0.23940970  1
  O  O388  1  0.33770625  0.23099198  0.73539343  1
  O  O389  1  0.38816961  0.75364865  0.24319580  1
  O  O390  1  0.37577981  0.74199743  0.74426909  1
  O  O391  1  0.88143121  0.25731080  0.24359453  1
  O  O392  1  0.88276923  0.24487726  0.74602934  1
  O  O393  1  0.88890032  0.75717680  0.25545187  1
  O  O394  1  0.89140375  0.74614172  0.75039911  1
  O  O395  1  0.38720639  0.50531770  0.48658420  1
  O  O396  1  0.38243793  0.49870100  0.99094342  1
  O  O397  1  0.38486331  0.98892265  0.49355538  1
  O  O398  1  0.38962093  0.97918544  1.00804002  1
  O  O399  1  0.88105406  0.49513103  0.49375222  1
  O  O400  1  0.87628117  0.49459469  0.99479919  1
  O  O401  1  0.88193263  0.99386577  0.49686925  1
  O  O402  1  0.85618542  0.97929101  0.98641982  1
  O  O403  1  0.13234210  -0.01843494  -0.00093779  1
  O  O404  1  0.11845332  0.00260805  0.50108775  1
  O  O405  1  0.11172573  0.49352344  -0.00463352  1
  O  O406  1  0.11553626  0.50994358  0.50195781  1
  O  O407  1  0.62582052  0.00033568  0.01345997  1
  O  O408  1  0.62319277  0.00636505  0.50382412  1
  O  O409  1  0.61969495  0.50241879  0.00392358  1
  O  O410  1  0.61404957  0.50391530  0.50244833  1
  O  O411  1  0.36672726  0.36898358  0.12686646  1
  O  O412  1  0.35654823  0.38419259  0.61907384  1
  O  O413  1  0.38209058  0.85855862  0.11875284  1
  O  O414  1  0.37099588  0.86926949  0.61458961  1
  O  O415  1  0.87504238  0.36519840  0.11798073  1
  O  O416  1  0.86820441  0.37008368  0.62027871  1
  O  O417  1  0.86095860  0.86719738  0.11891605  1
  O  O418  1  0.86989358  0.86695261  0.61123617  1
  O  O419  1  0.13184790  0.13463926  0.37431585  1
  O  O420  1  0.14018430  0.15041568  0.87515033  1
  O  O421  1  0.13465804  0.63325976  0.38351652  1
  O  O422  1  0.12863938  0.63650106  0.87522774  1
  O  O423  1  0.62875780  0.13847110  0.38291450  1
  O  O424  1  0.63720650  0.13491373  0.88086209  1
  O  O425  1  0.63179243  0.63212152  0.38020465  1
  O  O426  1  0.63396327  0.62713682  0.88078631  1
