# generated using pymatgen
data_V85Zn86O256
_symmetry_space_group_name_H-M   'P 1'
_cell_length_a   16.95313291
_cell_length_b   16.94247300
_cell_length_c   16.94901074
_cell_angle_alpha   89.96889117
_cell_angle_beta   90.00326920
_cell_angle_gamma   89.97175359
_symmetry_Int_Tables_number   1
_chemical_formula_structural   V85Zn86O256
_chemical_formula_sum   'V85 Zn86 O256'
_cell_volume   4868.22908145
_cell_formula_units_Z   1
loop_
 _symmetry_equiv_pos_site_id
 _symmetry_equiv_pos_as_xyz
  1  'x, y, z'
loop_
 _atom_site_type_symbol
 _atom_site_label
 _atom_site_symmetry_multiplicity
 _atom_site_fract_x
 _atom_site_fract_y
 _atom_site_fract_z
 _atom_site_occupancy
  V  V0  1  0.37141148  0.87088114  0.48840202  1
  V  V1  1  0.37448868  0.12516939  0.75074903  1
  V  V2  1  0.87035164  -0.00126646  0.35832440  1
  V  V3  1  0.62492328  0.25421993  0.87417590  1
  V  V4  1  0.74654049  0.87667131  0.13633472  1
  V  V5  1  0.25938180  0.86452589  0.62235421  1
  V  V6  1  0.37805347  0.88127672  0.00131494  1
  V  V7  1  0.36568860  0.50575801  0.87631509  1
  V  V8  1  0.87342527  0.87272430  0.00120196  1
  V  V9  1  -0.00095573  -0.00190986  0.50069485  1
  V  V10  1  0.50087806  0.25303619  0.75060899  1
  V  V11  1  -0.00242419  0.25920241  0.75563271  1
  V  V12  1  0.00285647  0.61552651  0.12132310  1
  V  V13  1  0.37365278  0.62659488  0.24891262  1
  V  V14  1  -0.00049008  0.74641257  0.25042041  1
  V  V15  1  0.26418468  0.00279119  0.25544942  1
  V  V16  1  0.49376287  0.63087030  0.62496868  1
  V  V17  1  0.25045025  0.12331964  0.87715253  1
  V  V18  1  0.61802073  0.25095973  0.37231890  1
  V  V19  1  0.75134458  0.11782222  0.36436370  1
  V  V20  1  0.36559243  0.63073553  0.75353714  1
  V  V21  1  0.91519377  0.56829301  0.30139756  1
  V  V22  1  0.13398967  0.74819013  0.87841109  1
  V  V23  1  0.12128786  0.24895645  0.87711251  1
  V  V24  1  0.00227306  0.87470973  0.87816354  1
  V  V25  1  0.49513609  0.75065910  0.75085625  1
  V  V26  1  0.12385430  0.37335831  0.22509062  1
  V  V27  1  0.13273614  0.61848182  0.00054907  1
  V  V28  1  0.87178202  0.87626613  0.50046572  1
  V  V29  1  0.12917273  0.75292204  0.37929819  1
  V  V30  1  0.27055560  0.12650530  0.37378313  1
  V  V31  1  0.86481011  0.24874165  0.62648561  1
  V  V32  1  0.37181710  0.37421875  0.00370398  1
  V  V33  1  0.25128131  0.25079461  0.00657402  1
  V  V34  1  0.74790208  0.87284008  0.62553736  1
  V  V35  1  0.49589034  0.50091664  0.50020962  1
  V  V36  1  0.61759253  0.49477679  0.63601626  1
  V  V37  1  0.75151664  0.62466070  0.86360832  1
  V  V38  1  0.00106737  0.87491303  0.37549795  1
  V  V39  1  0.61726579  0.11401204  -0.00307533  1
  V  V40  1  0.50882905  0.75193668  0.25092489  1
  V  V41  1  0.87499327  0.74962706  0.63301009  1
  V  V42  1  0.25190860  0.62898457  0.37968597  1
  V  V43  1  0.88182359  0.37886496  -0.00910728  1
  V  V44  1  0.49759439  0.12637560  0.13546469  1
  V  V45  1  0.50484878  0.87336485  0.88012691  1
  V  V46  1  0.38045720  0.00116240  0.87734003  1
  V  V47  1  0.12626566  0.88235027  0.24726913  1
  V  V48  1  0.24765229  0.49474131  0.23492010  1
  V  V49  1  0.12668073  0.50113068  0.62243242  1
  V  V50  1  0.50808028  0.88380931  0.37000581  1
  V  V51  1  0.74734524  0.50175362  0.25775757  1
  V  V52  1  0.62185286  -0.00091972  0.62424862  1
  V  V53  1  0.74086808  0.74755012  -0.00360892  1
  V  V54  1  0.12618677  0.12091926  0.48955590  1
  V  V55  1  0.87343718  0.74128858  0.12763105  1
  V  V56  1  0.24711786  0.88373059  0.12453533  1
  V  V57  1  0.00356754  0.00105636  0.01449483  1
  V  V58  1  0.49944023  0.12494349  0.62457563  1
  V  V59  1  0.62406398  0.86698914  0.75295852  1
  V  V60  1  0.37943917  0.24993981  0.13592230  1
  V  V61  1  0.87716365  0.12223808  0.75397999  1
  V  V62  1  0.12705947  0.37793938  0.75707690  1
  V  V63  1  0.37566163  0.75270608  0.12529588  1
  V  V64  1  0.12554471  0.87700538  0.74731306  1
  V  V65  1  0.87914939  0.23549401  0.12426883  1
  V  V66  1  0.37267571  0.50128782  0.37506406  1
  V  V67  1  0.62529907  0.50074936  0.12352773  1
  V  V68  1  0.74897056  0.24858363  -0.00048304  1
  V  V69  1  0.12314004  0.62501278  0.50158154  1
  V  V70  1  0.37100679  0.25090327  0.62365102  1
  V  V71  1  -0.00536249  0.62395179  0.63058916  1
  V  V72  1  0.07053757  0.30716735  0.41900690  1
  V  V73  1  0.12335038  0.11949995  0.01519932  1
  V  V74  1  0.00578379  0.23807592  0.24170706  1
  V  V75  1  0.73628216  0.36692055  0.63538000  1
  V  V76  1  0.74919835  -0.00143682  0.75328714  1
  V  V77  1  0.49453054  0.37298536  0.36736336  1
  V  V78  1  0.62571716  -0.00233703  0.13922241  1
  V  V79  1  0.50171890  0.50216873  -0.00138530  1
  V  V80  1  0.75129114  0.37489812  0.12142483  1
  V  V81  1  0.50293114  0.37863927  0.86995625  1
  V  V82  1  0.80345410  0.30502765  0.45577820  1
  V  V83  1  0.00211267  0.12294091  0.62654463  1
  V  V84  1  0.63249113  0.12780798  0.50102477  1
  Zn  Zn85  1  0.50129746  0.62666292  0.12375665  1
  Zn  Zn86  1  0.49267324  0.00358324  0.49385891  1
  Zn  Zn87  1  0.25115270  -0.00046688  0.74676665  1
  Zn  Zn88  1  0.74909220  0.12433600  0.87641728  1
  Zn  Zn89  1  0.62425062  0.62822449  -0.00540760  1
  Zn  Zn90  1  0.12867125  -0.00009981  0.62353053  1
  Zn  Zn91  1  0.93799247  0.44927815  0.44648396  1
  Zn  Zn92  1  0.24778891  0.25214106  0.49705483  1
  Zn  Zn93  1  0.75024168  0.49901124  0.74723662  1
  Zn  Zn94  1  0.24971308  0.37570117  0.62385971  1
  Zn  Zn95  1  0.00487871  0.49586825  -0.00628809  1
  Zn  Zn96  1  -0.00218140  0.74780204  0.75594888  1
  Zn  Zn97  1  0.74791236  0.62842251  0.37432812  1
  Zn  Zn98  1  0.61883309  0.36954798  0.24530673  1
  Zn  Zn99  1  0.25285018  0.74996137  -0.00133563  1
  Zn  Zn100  1  0.88981446  0.50782117  0.84636078  1
  Zn  Zn101  1  0.62707153  0.74988838  0.37721257  1
  Zn  Zn102  1  0.74566165  0.74609837  0.49856694  1
  Zn  Zn103  1  0.37070241  0.37522936  0.50102316  1
  Zn  Zn104  1  0.24789501  0.50524464  0.75298269  1
  Zn  Zn105  1  0.62348992  0.62775417  0.49744630  1
  Zn  Zn106  1  0.87617933  -0.00024589  0.87896012  1
  Zn  Zn107  1  0.19361961  0.18834574  0.19272935  1
  Zn  Zn108  1  0.18725497  0.18554178  0.68725098  1
  Zn  Zn109  1  0.18780177  0.68996265  0.18664364  1
  Zn  Zn110  1  0.18460941  0.69226007  0.68905239  1
  Zn  Zn111  1  0.68526256  0.18739460  0.18602161  1
  Zn  Zn112  1  0.68568943  0.18541850  0.69220124  1
  Zn  Zn113  1  0.69034717  0.68136536  0.18741564  1
  Zn  Zn114  1  0.68241576  0.68641734  0.68212033  1
  Zn  Zn115  1  0.30492415  0.31402050  0.31455346  1
  Zn  Zn116  1  0.31139954  0.31312812  0.81599255  1
  Zn  Zn117  1  0.31501253  0.81319225  0.31072392  1
  Zn  Zn118  1  0.31283327  0.81539485  0.81124178  1
  Zn  Zn119  1  0.81380338  0.30912454  0.29318907  1
  Zn  Zn120  1  0.81017096  0.31459628  0.81170093  1
  Zn  Zn121  1  0.81299252  0.80777621  0.31288711  1
  Zn  Zn122  1  0.81154090  0.80910547  0.81646093  1
  Zn  Zn123  1  0.19352856  0.44429564  0.44078222  1
  Zn  Zn124  1  0.18658364  0.43381328  0.94128120  1
  Zn  Zn125  1  0.19343630  0.94020195  0.43788969  1
  Zn  Zn126  1  0.18901791  0.93890462  0.93849628  1
  Zn  Zn127  1  0.67581411  0.44253807  0.43845230  1
  Zn  Zn128  1  0.69105308  0.44112254  0.93348339  1
  Zn  Zn129  1  0.68612940  0.93880473  0.43722331  1
  Zn  Zn130  1  0.68836152  0.93579758  0.93928821  1
  Zn  Zn131  1  0.31380614  0.06249792  0.06518546  1
  Zn  Zn132  1  0.31127911  0.05586719  0.56089350  1
  Zn  Zn133  1  0.31480684  0.56606644  0.06037735  1
  Zn  Zn134  1  0.31089982  0.56807887  0.56478201  1
  Zn  Zn135  1  0.80648460  0.05843904  0.06051322  1
  Zn  Zn136  1  0.81053408  0.06155632  0.56261273  1
  Zn  Zn137  1  0.81133384  0.56222880  0.06012275  1
  Zn  Zn138  1  0.80555603  0.55632350  0.55442377  1
  Zn  Zn139  1  0.43482583  0.43818723  0.18585079  1
  Zn  Zn140  1  0.43296312  0.43943165  0.69007373  1
  Zn  Zn141  1  0.44328096  0.94144494  0.18698329  1
  Zn  Zn142  1  0.43496016  0.93782213  0.68687184  1
  Zn  Zn143  1  0.94013748  0.42686755  0.17871444  1
  Zn  Zn144  1  0.91359231  0.45627675  0.64529501  1
  Zn  Zn145  1  0.93707236  0.93055962  0.18562922  1
  Zn  Zn146  1  0.93940889  0.93626485  0.68876499  1
  Zn  Zn147  1  0.06523136  0.05832662  0.31250188  1
  Zn  Zn148  1  0.06207986  0.06077356  0.81867377  1
  Zn  Zn149  1  0.07860323  0.55547925  0.31344584  1
  Zn  Zn150  1  0.06276571  0.56297183  0.81542367  1
  Zn  Zn151  1  0.56159391  0.06592388  0.31288414  1
  Zn  Zn152  1  0.56079282  0.06076054  0.81214140  1
  Zn  Zn153  1  0.56225077  0.56424364  0.31109992  1
  Zn  Zn154  1  0.56396997  0.56889831  0.81527935  1
  Zn  Zn155  1  0.44217794  0.18943493  0.44131819  1
  Zn  Zn156  1  0.43999479  0.18796188  0.94195755  1
  Zn  Zn157  1  0.43778065  0.69445603  0.43831921  1
  Zn  Zn158  1  0.43842394  0.69055784  0.93576237  1
  Zn  Zn159  1  0.93845907  0.17620802  0.43210996  1
  Zn  Zn160  1  0.93854315  0.18536974  0.94105970  1
  Zn  Zn161  1  0.94031773  0.69180001  0.44650078  1
  Zn  Zn162  1  0.93681821  0.68371357  0.93747904  1
  Zn  Zn163  1  0.06009399  0.30659431  0.06019711  1
  Zn  Zn164  1  0.05798623  0.31326749  0.58229973  1
  Zn  Zn165  1  0.06262364  0.80785188  0.06381864  1
  Zn  Zn166  1  0.06434081  0.81052765  0.56368650  1
  Zn  Zn167  1  0.56097273  0.31186513  0.05899425  1
  Zn  Zn168  1  0.55876504  0.31187643  0.55568553  1
  Zn  Zn169  1  0.56175874  0.81709543  0.06502699  1
  Zn  Zn170  1  0.55637332  0.81224435  0.55970182  1
  O  O171  1  0.13281454  0.12797345  0.11345870  1
  O  O172  1  0.11977211  0.12557653  0.61285661  1
  O  O173  1  0.11717300  0.63356735  0.11215827  1
  O  O174  1  0.12170978  0.62352985  0.61845914  1
  O  O175  1  0.61953297  0.11837360  0.11711200  1
  O  O176  1  0.62082504  0.11997205  0.61966667  1
  O  O177  1  0.62302110  0.61145971  0.11989435  1
  O  O178  1  0.60877331  0.61534506  0.62542284  1
  O  O179  1  0.37761061  0.38247911  0.37578916  1
  O  O180  1  0.38200404  0.38134472  0.88470934  1
  O  O181  1  0.38017259  0.87433673  0.38333963  1
  O  O182  1  0.38096006  0.88204025  0.88169609  1
  O  O183  1  0.86027974  0.36221483  0.39370735  1
  O  O184  1  0.86829551  0.37398257  0.88971287  1
  O  O185  1  0.87924669  0.87990170  0.38355900  1
  O  O186  1  0.88206221  0.87284643  0.88653966  1
  O  O187  1  0.24840605  0.01437932  0.36889808  1
  O  O188  1  0.26230348  0.00473556  0.87333830  1
  O  O189  1  0.25409744  0.51263175  0.36663485  1
  O  O190  1  0.26283431  0.49596119  0.87646728  1
  O  O191  1  0.75782682  0.00537609  0.37591556  1
  O  O192  1  0.75233185  -0.00058857  0.86411147  1
  O  O193  1  0.74458793  0.49399996  0.36100162  1
  O  O194  1  0.75409198  0.51174483  0.86942661  1
  O  O195  1  0.25742523  0.50152982  0.13701942  1
  O  O196  1  0.23828285  0.50190247  0.62983457  1
  O  O197  1  0.25250622  0.98974751  0.13263440  1
  O  O198  1  0.24578860  0.98852219  0.62838053  1
  O  O199  1  0.74240670  0.49277187  0.12790635  1
  O  O200  1  0.73227660  0.48586405  0.62385079  1
  O  O201  1  0.73595840  0.99120085  0.12051710  1
  O  O202  1  0.74405686  0.99415683  0.63655716  1
  O  O203  1  0.01825112  0.36914762  0.24181410  1
  O  O204  1  0.01198302  0.36000822  0.74555583  1
  O  O205  1  0.00957321  0.86937250  0.25572596  1
  O  O206  1  0.00763732  0.87372462  0.75982255  1
  O  O207  1  0.49991193  0.38253653  0.26304203  1
  O  O208  1  0.49380370  0.37081186  0.76371369  1
  O  O209  1  0.49211520  0.86819225  0.26287238  1
  O  O210  1  0.50487396  0.86996271  0.75624137  1
  O  O211  1  0.50396736  0.12803312  0.23486989  1
  O  O212  1  0.49373339  0.13176468  0.74532822  1
  O  O213  1  0.48991486  0.63251569  0.24659920  1
  O  O214  1  0.49256163  0.63396499  0.74730804  1
  O  O215  1  1.01484667  0.13900695  0.25126697  1
  O  O216  1  0.99350334  0.12862560  0.74721816  1
  O  O217  1  0.99774068  0.62353656  0.24701314  1
  O  O218  1  1.00969848  0.63156660  0.73442657  1
  O  O219  1  0.36910565  0.25719699  0.00359448  1
  O  O220  1  0.37637773  0.25025701  0.51474978  1
  O  O221  1  0.37424401  0.76069902  0.00650568  1
  O  O222  1  0.38120875  0.77049166  0.50374148  1
  O  O223  1  0.86885583  0.25674060  0.00288303  1
  O  O224  1  0.86924709  0.24123035  0.50660022  1
  O  O225  1  0.86932741  0.75672852  0.00816342  1
  O  O226  1  0.87497155  0.76382153  0.51132179  1
  O  O227  1  0.11931531  0.24856387  0.49419999  1
  O  O228  1  0.13189502  0.24276180  0.99438856  1
  O  O229  1  0.12338748  0.74600076  0.48557381  1
  O  O230  1  0.12859882  0.74383210  0.99368307  1
  O  O231  1  0.62089797  0.23978378  0.48755593  1
  O  O232  1  0.62783313  0.24128376  0.99046543  1
  O  O233  1  0.62539772  0.74760108  0.49987209  1
  O  O234  1  0.63761103  0.75093574  1.00776636  1
  O  O235  1  0.49503011  0.23770997  0.11959179  1
  O  O236  1  0.49382239  0.24462693  0.63070212  1
  O  O237  1  0.48992612  0.75314532  0.13067844  1
  O  O238  1  0.50241917  0.74360067  0.63937994  1
  O  O239  1  0.99202871  0.24677345  0.12905944  1
  O  O240  1  0.98754759  0.24131067  0.63491068  1
  O  O241  1  0.99340172  0.73984953  0.13119315  1
  O  O242  1  0.99448661  0.74240809  0.62778927  1
  O  O243  1  0.00129911  0.25133095  0.36623420  1
  O  O244  1  0.00965179  0.24295462  0.86804895  1
  O  O245  1  0.00729258  0.75588225  0.37022746  1
  O  O246  1  0.00761877  0.76053788  0.87768528  1
  O  O247  1  0.50577953  0.25934003  0.37663220  1
  O  O248  1  0.50458925  0.25912968  0.87332875  1
  O  O249  1  0.50085100  0.76107665  0.36560564  1
  O  O250  1  0.49928103  0.76079280  0.86416977  1
  O  O251  1  0.24428759  0.12457134  0.48982692  1
  O  O252  1  0.24508204  0.12775170  0.99354668  1
  O  O253  1  0.24005457  0.62437114  0.49085814  1
  O  O254  1  0.23725787  0.63070024  1.00604118  1
  O  O255  1  0.73726014  0.11922572  0.49403731  1
  O  O256  1  0.73648782  0.13030322  0.99728436  1
  O  O257  1  0.74407471  0.62535525  0.49573491  1
  O  O258  1  0.74812353  0.63333351  0.99473977  1
  O  O259  1  0.25969427  0.36405721  -0.00274292  1
  O  O260  1  0.25218544  0.37063231  0.50375893  1
  O  O261  1  0.25756218  0.87478952  0.00893701  1
  O  O262  1  0.26062000  0.87697484  0.50820953  1
  O  O263  1  0.75473088  0.36988806  0.00723097  1
  O  O264  1  0.74127900  0.36841875  0.50699410  1
  O  O265  1  0.75727813  0.86745440  0.00431344  1
  O  O266  1  0.75738098  0.87740096  0.50881476  1
  O  O267  1  0.13752727  0.48826736  0.24498179  1
  O  O268  1  0.12874468  0.49222803  0.74834020  1
  O  O269  1  0.13348319  0.98565968  0.25462287  1
  O  O270  1  0.12618820  0.98735722  0.75273237  1
  O  O271  1  0.63026320  0.49564449  0.23961086  1
  O  O272  1  0.62227921  0.50145785  0.73875346  1
  O  O273  1  0.62725273  1.00509548  0.23761047  1
  O  O274  1  0.63177459  0.99334873  0.74500775  1
  O  O275  1  0.36327402  -0.00339449  0.24752625  1
  O  O276  1  0.37381565  0.00752867  0.75900845  1
  O  O277  1  0.36445287  0.50447084  0.25396407  1
  O  O278  1  0.37213328  0.50939589  0.76048451  1
  O  O279  1  0.87896747  -0.00591157  0.25943882  1
  O  O280  1  0.86797825  0.00547632  0.75155925  1
  O  O281  1  0.86568761  0.49470799  0.24327747  1
  O  O282  1  0.86386042  0.48586413  0.73981835  1
  O  O283  1  0.12897789  0.37247438  0.36857478  1
  O  O284  1  0.12905124  0.35990083  0.87137485  1
  O  O285  1  0.12410132  0.86871624  0.37062506  1
  O  O286  1  0.11930580  0.87005121  0.87119263  1
  O  O287  1  0.61379790  0.36727220  0.37480549  1
  O  O288  1  0.61572049  0.36670633  0.88160526  1
  O  O289  1  0.61092905  0.87433042  0.37599396  1
  O  O290  1  0.61429697  0.88322297  0.86719742  1
  O  O291  1  0.39117304  0.13111335  0.11767404  1
  O  O292  1  0.37906817  0.13046499  0.62991003  1
  O  O293  1  0.37712744  0.63664256  0.12846810  1
  O  O294  1  0.38621613  0.62020522  0.63695625  1
  O  O295  1  0.86705945  0.13673190  0.11641096  1
  O  O296  1  0.87674598  0.12982978  0.63572262  1
  O  O297  1  0.88280956  0.63510442  0.11793779  1
  O  O298  1  0.88980085  0.63403692  0.61843121  1
  O  O299  1  0.26168611  0.24008569  0.11201965  1
  O  O300  1  0.25852964  0.24932495  0.62208516  1
  O  O301  1  0.26308516  0.76239911  0.12830045  1
  O  O302  1  0.24389255  0.76608323  0.62355758  1
  O  O303  1  0.75340815  0.25676296  0.11949139  1
  O  O304  1  0.75112067  0.25095998  0.62557633  1
  O  O305  1  0.75703438  0.75331544  0.11963766  1
  O  O306  1  0.75770721  0.75551102  0.62445135  1
  O  O307  1  0.25370683  0.23255123  0.37807148  1
  O  O308  1  0.24587824  0.24233822  0.88585812  1
  O  O309  1  0.24350074  0.73771599  0.36562451  1
  O  O310  1  0.23769214  0.75853167  0.87790154  1
  O  O311  1  0.75004701  0.24934829  0.38275104  1
  O  O312  1  0.74041634  0.24770079  0.87981997  1
  O  O313  1  0.74579576  0.74971132  0.37826849  1
  O  O314  1  0.75285507  0.73947229  0.88471205  1
  O  O315  1  0.01036418  0.11300142  -0.00460111  1
  O  O316  1  0.00650882  0.11867876  0.50533918  1
  O  O317  1  0.01124246  0.62628701  0.00815266  1
  O  O318  1  0.01441195  0.63177154  0.51266504  1
  O  O319  1  0.51378744  0.12705577  0.00791475  1
  O  O320  1  0.51038317  0.12166467  0.50737237  1
  O  O321  1  0.50090840  0.61399293  -0.00022968  1
  O  O322  1  0.49442017  0.61973617  0.50962445  1
  O  O323  1  0.49333117  0.38439813  0.48869581  1
  O  O324  1  0.49418231  0.38481087  0.99052284  1
  O  O325  1  0.49212843  0.87822852  0.48551205  1
  O  O326  1  0.49312598  0.87135176  0.98924426  1
  O  O327  1  1.01436910  0.36406664  0.48395176  1
  O  O328  1  0.98544659  0.37416626  1.00394277  1
  O  O329  1  0.99405414  0.87823515  0.49488851  1
  O  O330  1  0.99388528  0.87768636  0.99654324  1
  O  O331  1  0.49202030  0.49634168  0.38165807  1
  O  O332  1  0.49429409  0.49513931  0.88058070  1
  O  O333  1  0.50181669  0.98826352  0.37252575  1
  O  O334  1  0.48781035  0.99135546  0.87072667  1
  O  O335  1  0.98399542  0.50777580  0.35988114  1
  O  O336  1  0.99568586  0.50514159  0.88120246  1
  O  O337  1  0.99203137  0.99352362  0.38034583  1
  O  O338  1  0.99813572  0.98612104  0.88305939  1
  O  O339  1  0.00038475  -0.00796699  0.11370146  1
  O  O340  1  0.00299634  0.00574836  0.61940422  1
  O  O341  1  -0.00464137  0.51263076  0.12107244  1
  O  O342  1  0.01637941  0.51559826  0.63142568  1
  O  O343  1  0.51291266  0.01135060  0.12617407  1
  O  O344  1  0.50768075  0.00790387  0.62938589  1
  O  O345  1  0.50668601  0.49955530  0.11578193  1
  O  O346  1  0.49989333  0.50428676  0.61907634  1
  O  O347  1  0.23974138  0.38689491  0.25044882  1
  O  O348  1  0.23707771  0.37416649  0.74982362  1
  O  O349  1  0.24541767  0.88177165  0.24553754  1
  O  O350  1  0.24413921  0.87573152  0.73939585  1
  O  O351  1  0.74667202  0.38077620  0.23484131  1
  O  O352  1  0.74009238  0.36830746  0.73813201  1
  O  O353  1  0.75490600  0.87131036  0.23477001  1
  O  O354  1  0.74222924  0.87923361  0.74816425  1
  O  O355  1  0.24791417  0.11757818  0.26518023  1
  O  O356  1  0.25613795  0.12465334  0.76012625  1
  O  O357  1  0.25210959  0.61496510  0.25393805  1
  O  O358  1  0.26186200  0.62854567  0.74721972  1
  O  O359  1  0.74765687  0.13272417  0.26574340  1
  O  O360  1  0.75758814  0.11499226  0.75270535  1
  O  O361  1  0.75482909  0.61044461  0.25064362  1
  O  O362  1  0.74544123  0.62831472  0.76042332  1
  O  O363  1  0.36911144  0.12303187  0.38091409  1
  O  O364  1  0.37247558  0.11845530  0.87440755  1
  O  O365  1  0.36820465  0.62354397  0.37053575  1
  O  O366  1  0.37952815  0.61706680  0.86789425  1
  O  O367  1  0.86410542  0.10998186  0.38014925  1
  O  O368  1  0.87351327  0.12264857  0.86446719  1
  O  O369  1  0.87359633  0.62911470  0.37437521  1
  O  O370  1  0.85915571  0.62326481  0.87891427  1
  O  O371  1  0.12872457  0.37464937  0.12640586  1
  O  O372  1  0.12615330  0.38512561  0.63600089  1
  O  O373  1  0.13581757  0.86515497  0.13541330  1
  O  O374  1  0.13110910  0.87572558  0.63278473  1
  O  O375  1  0.63066286  0.38183419  0.12274818  1
  O  O376  1  0.62470870  0.37997255  0.62087961  1
  O  O377  1  0.62957726  0.89020012  0.12209182  1
  O  O378  1  0.62686733  0.88145930  0.63290206  1
  O  O379  1  0.12394601  0.26531237  0.24305401  1
  O  O380  1  0.11854209  0.25256962  0.75778690  1
  O  O381  1  0.12046167  0.75612663  0.26067914  1
  O  O382  1  0.12277401  0.76170272  0.75978835  1
  O  O383  1  0.63223050  0.25210370  0.26661801  1
  O  O384  1  0.61640314  0.24147669  0.76644726  1
  O  O385  1  0.61084898  0.74517942  0.24376407  1
  O  O386  1  0.61896193  0.76302353  0.74674620  1
  O  O387  1  0.36742793  0.25895968  0.23422281  1
  O  O388  1  0.37963278  0.24518410  0.74399844  1
  O  O389  1  0.38191282  0.74613285  0.24209205  1
  O  O390  1  0.38289745  0.74354205  0.75595448  1
  O  O391  1  0.89134519  0.25263726  0.23679638  1
  O  O392  1  0.87949226  0.24235659  0.74688194  1
  O  O393  1  0.88581738  0.75595219  0.23840009  1
  O  O394  1  0.87798663  0.75807971  0.73710623  1
  O  O395  1  0.38160406  0.50167231  0.49581036  1
  O  O396  1  0.38122903  0.49486326  0.99567680  1
  O  O397  1  0.38037875  0.97978882  0.50977784  1
  O  O398  1  0.37311695  0.98915566  0.99412731  1
  O  O399  1  0.88741604  0.48556681  0.53599709  1
  O  O400  1  0.87418937  0.48217934  1.00530991  1
  O  O401  1  0.87975484  0.98891040  0.49983867  1
  O  O402  1  0.88061659  0.99018614  0.99967734  1
  O  O403  1  0.11705317  0.00792350  -0.00399806  1
  O  O404  1  0.11802779  0.00593655  0.49995050  1
  O  O405  1  0.12700330  0.51422734  -0.00209223  1
  O  O406  1  0.12608861  0.51092247  0.50867794  1
  O  O407  1  0.62755222  0.01222954  0.00394887  1
  O  O408  1  0.62042615  0.00617910  0.50915101  1
  O  O409  1  0.61663522  0.49845878  0.00564745  1
  O  O410  1  0.60688045  0.50249312  0.50877068  1
  O  O411  1  0.38467689  0.36666250  0.11063013  1
  O  O412  1  0.37203224  0.36515814  0.62699880  1
  O  O413  1  0.37242812  0.87310886  0.11769340  1
  O  O414  1  0.36299419  0.87288092  0.62441654  1
  O  O415  1  0.86595114  0.36368854  0.11460910  1
  O  O416  1  0.85838678  0.35269586  0.62398806  1
  O  O417  1  0.86844962  0.86622288  0.11538861  1
  O  O418  1  0.87016311  0.87033235  0.61985107  1
  O  O419  1  0.12507365  0.12482026  0.38762401  1
  O  O420  1  0.13285521  0.13331326  0.87921531  1
  O  O421  1  0.13154450  0.63091956  0.38199774  1
  O  O422  1  0.12210121  0.63560212  0.88941444  1
  O  O423  1  0.63013141  0.13026744  0.38196371  1
  O  O424  1  0.62227763  0.12851950  0.88511814  1
  O  O425  1  0.62590623  0.62804660  0.37696863  1
  O  O426  1  0.64152355  0.62233156  0.87959846  1
