# generated using pymatgen
data_V85Zn86O256
_symmetry_space_group_name_H-M   'P 1'
_cell_length_a   16.93296687
_cell_length_b   16.94972277
_cell_length_c   16.94329179
_cell_angle_alpha   90.03030680
_cell_angle_beta   90.03153060
_cell_angle_gamma   89.95846698
_symmetry_Int_Tables_number   1
_chemical_formula_structural   V85Zn86O256
_chemical_formula_sum   'V85 Zn86 O256'
_cell_volume   4862.87613290
_cell_formula_units_Z   1
loop_
 _symmetry_equiv_pos_site_id
 _symmetry_equiv_pos_as_xyz
  1  'x, y, z'
loop_
 _atom_site_type_symbol
 _atom_site_label
 _atom_site_symmetry_multiplicity
 _atom_site_fract_x
 _atom_site_fract_y
 _atom_site_fract_z
 _atom_site_occupancy
  V  V0  1  0.24860218  0.12280501  0.87781898  1
  V  V1  1  0.00027937  0.37332390  0.37625288  1
  V  V2  1  0.49873174  0.12879622  0.12338303  1
  V  V3  1  -0.00915321  0.38251079  0.87897487  1
  V  V4  1  0.62447272  0.87681747  0.24962570  1
  V  V5  1  0.75424608  0.25101804  0.01777674  1
  V  V6  1  0.25249976  0.74858815  0.00718112  1
  V  V7  1  0.62687548  0.50907500  0.10795252  1
  V  V8  1  0.87439096  0.75279209  0.12504803  1
  V  V9  1  0.87963583  0.87834976  0.49839890  1
  V  V10  1  0.25444631  0.49700524  0.75575317  1
  V  V11  1  0.12257198  0.87479197  0.25317346  1
  V  V12  1  0.49766681  0.50542430  0.51111231  1
  V  V13  1  0.49150311  0.87898167  0.37254555  1
  V  V14  1  0.11874509  0.37169433  0.75212535  1
  V  V15  1  0.37634471  0.12219189  0.25789371  1
  V  V16  1  0.87508298  0.37893283  0.01910295  1
  V  V17  1  0.24996379  0.37138639  0.62825468  1
  V  V18  1  0.74812830  0.38124838  0.62651147  1
  V  V19  1  0.11736339  0.62255340  -0.00192226  1
  V  V20  1  0.86963573  0.00020099  0.87021827  1
  V  V21  1  0.49940640  0.74997589  0.23784347  1
  V  V22  1  0.74661843  0.12425024  0.37869270  1
  V  V23  1  0.25014972  0.50143670  0.25696072  1
  V  V24  1  0.74975987  0.24644850  0.50359030  1
  V  V25  1  0.49305403  0.38013673  0.87831810  1
  V  V26  1  0.37785194  0.24736826  0.62589304  1
  V  V27  1  0.87438353  0.62610830  0.25436311  1
  V  V28  1  0.14422753  0.74966626  0.38148038  1
  V  V29  1  0.62835684  0.72923777  0.87855743  1
  V  V30  1  -0.00574929  0.24972562  0.23602905  1
  V  V31  1  0.25138582  0.24831211  0.49822100  1
  V  V32  1  0.36823681  0.63092620  0.24420149  1
  V  V33  1  0.37440939  -0.00567520  0.87728088  1
  V  V34  1  0.12552641  0.37355608  0.24929068  1
  V  V35  1  0.62682316  0.00245190  0.12168690  1
  V  V36  1  0.25696377  -0.00514250  0.25558484  1
  V  V37  1  0.50011677  0.00218031  -0.00163242  1
  V  V38  1  0.24908434  0.25004504  0.00222942  1
  V  V39  1  0.81970050  0.56179377  0.80775221  1
  V  V40  1  0.24912258  0.62176352  0.87503026  1
  V  V41  1  0.12505176  0.49880177  0.62775657  1
  V  V42  1  0.50006148  0.00465981  0.49389463  1
  V  V43  1  0.12682997  0.87473027  0.74871849  1
  V  V44  1  0.62471216  0.75211942  0.37311098  1
  V  V45  1  0.63188429  0.37891797  0.75943474  1
  V  V46  1  0.87512099  0.88066051  0.00142918  1
  V  V47  1  0.12411171  0.12369581  0.49764985  1
  V  V48  1  0.50305124  0.75196573  0.74577599  1
  V  V49  1  0.11328509  0.24587974  0.87130433  1
  V  V50  1  -0.00158732  0.62596846  0.62809425  1
  V  V51  1  0.12122491  0.49955156  0.12496914  1
  V  V52  1  0.87479077  0.37307101  0.50174029  1
  V  V53  1  0.74918272  0.88076464  0.63825110  1
  V  V54  1  0.63025614  0.38167316  0.24198601  1
  V  V55  1  0.12477283  0.24298297  0.37155876  1
  V  V56  1  0.25703938  0.86049103  0.61884195  1
  V  V57  1  0.61872186  0.62861894  0.50995057  1
  V  V58  1  0.10899957  0.11945086  0.00608356  1
  V  V59  1  0.13848834  0.62609072  0.49735673  1
  V  V60  1  0.74873677  0.75426394  0.50223023  1
  V  V61  1  0.49861424  0.25411349  0.24921236  1
  V  V62  1  0.50923427  0.12558409  0.62237364  1
  V  V63  1  0.62723407  -0.00371904  0.63299977  1
  V  V64  1  0.37965515  0.62651173  0.75044278  1
  V  V65  1  0.87288186  0.75032685  0.62918877  1
  V  V66  1  -0.00148984  0.75224171  0.26636704  1
  V  V67  1  0.87373651  0.13085984  0.23689079  1
  V  V68  1  0.74445886  0.13394767  0.86606219  1
  V  V69  1  -0.00260192  0.75407647  0.75165750  1
  V  V70  1  0.00118362  0.50143723  0.50135226  1
  V  V71  1  0.00038524  0.87920562  0.88347163  1
  V  V72  1  0.37636210  0.12419857  0.75049694  1
  V  V73  1  0.88187859  0.00020575  0.37444227  1
  V  V74  1  0.88438610  0.12826621  0.74927019  1
  V  V75  1  0.74829535  0.00217738  0.25129751  1
  V  V76  1  0.87371205  0.50047979  0.37738938  1
  V  V77  1  0.51511923  0.87611522  0.87179821  1
  V  V78  1  0.74710185  0.62426412  0.37803513  1
  V  V79  1  0.37599588  0.37498042  0.49986479  1
  V  V80  1  0.62505552  0.25203500  0.38069668  1
  V  V81  1  0.50006343  0.38264754  0.37438256  1
  V  V82  1  0.12748046  -0.00151116  0.62210413  1
  V  V83  1  -0.00271575  0.62387314  0.12372994  1
  V  V84  1  0.50819410  0.24865011  0.75968134  1
  Zn  Zn85  1  0.74838459  0.87408889  0.12306059  1
  Zn  Zn86  1  0.00454042  -0.00353780  0.49459900  1
  Zn  Zn87  1  0.74403766  0.74308019  -0.00236005  1
  Zn  Zn88  1  0.36991520  0.50454993  0.37582640  1
  Zn  Zn89  1  0.37050151  0.38095091  0.00074832  1
  Zn  Zn90  1  0.25237158  0.37805874  0.12280948  1
  Zn  Zn91  1  0.75143874  0.49794484  0.24619333  1
  Zn  Zn92  1  0.00425168  0.12840940  0.62776635  1
  Zn  Zn93  1  0.37519478  0.25311974  0.12262137  1
  Zn  Zn94  1  0.49972484  0.63077771  0.11348479  1
  Zn  Zn95  1  0.37981950  0.86589256  0.00333459  1
  Zn  Zn96  1  0.11685687  -0.00775259  0.11552381  1
  Zn  Zn97  1  0.88154349  0.25186805  0.63092780  1
  Zn  Zn98  1  0.42485707  0.69967040  0.58569818  1
  Zn  Zn99  1  0.62503760  0.13448771  -0.00715163  1
  Zn  Zn100  1  0.25638306  0.11878242  0.37681520  1
  Zn  Zn101  1  0.12202008  0.75006933  0.87740171  1
  Zn  Zn102  1  0.37437251  0.86826073  0.49991645  1
  Zn  Zn103  1  0.48712614  0.51478749  -0.00824365  1
  Zn  Zn104  1  0.25357662  0.87406326  0.12668620  1
  Zn  Zn105  1  0.25301540  -0.00372489  0.74857577  1
  Zn  Zn106  1  0.62524044  0.50504744  0.63079160  1
  Zn  Zn107  1  0.18783967  0.18255126  0.18637711  1
  Zn  Zn108  1  0.18717932  0.18547738  0.68862270  1
  Zn  Zn109  1  0.18522855  0.68711120  0.18935428  1
  Zn  Zn110  1  0.18498792  0.68559970  0.68926893  1
  Zn  Zn111  1  0.68373701  0.18899712  0.19091356  1
  Zn  Zn112  1  0.68957713  0.18899851  0.68947951  1
  Zn  Zn113  1  0.68886171  0.68470380  0.18673011  1
  Zn  Zn114  1  0.68933082  0.68908341  0.69520390  1
  Zn  Zn115  1  0.31282381  0.31288140  0.30978856  1
  Zn  Zn116  1  0.31156931  0.30672446  0.81488881  1
  Zn  Zn117  1  0.31492275  0.81088613  0.31000454  1
  Zn  Zn118  1  0.31335530  0.80802865  0.81409978  1
  Zn  Zn119  1  0.81214153  0.31225195  0.31187220  1
  Zn  Zn120  1  0.81292888  0.31079951  0.81333420  1
  Zn  Zn121  1  0.81083489  0.81587607  0.31345743  1
  Zn  Zn122  1  0.81107340  0.80971960  0.81445161  1
  Zn  Zn123  1  0.18637766  0.43504452  0.43793881  1
  Zn  Zn124  1  0.18194955  0.43820198  0.93787588  1
  Zn  Zn125  1  0.19168702  0.93535491  0.43381626  1
  Zn  Zn126  1  0.18623250  0.93705935  0.93730520  1
  Zn  Zn127  1  0.68508596  0.43925345  0.44062445  1
  Zn  Zn128  1  0.69973249  0.43610607  0.93318208  1
  Zn  Zn129  1  0.68396287  0.93983324  0.44374312  1
  Zn  Zn130  1  0.69293985  0.93997211  0.93952619  1
  Zn  Zn131  1  0.30940909  0.05735429  0.06820877  1
  Zn  Zn132  1  0.31450649  0.05699811  0.56192611  1
  Zn  Zn133  1  0.31187036  0.56022349  0.06411618  1
  Zn  Zn134  1  0.31167221  0.55713834  0.56640830  1
  Zn  Zn135  1  0.81243209  0.06341593  0.05587039  1
  Zn  Zn136  1  0.81151238  0.06308749  0.56360713  1
  Zn  Zn137  1  0.80492023  0.55714834  0.06250791  1
  Zn  Zn138  1  0.81215609  0.56466278  0.56685533  1
  Zn  Zn139  1  0.43712351  0.44200117  0.17932831  1
  Zn  Zn140  1  0.43698155  0.43539253  0.69268042  1
  Zn  Zn141  1  0.43528281  0.93666498  0.18191060  1
  Zn  Zn142  1  0.43889123  0.93649685  0.68827221  1
  Zn  Zn143  1  0.93833349  0.43916787  0.18990048  1
  Zn  Zn144  1  0.93870648  0.43339774  0.68984931  1
  Zn  Zn145  1  0.93907092  0.93717957  0.18731861  1
  Zn  Zn146  1  0.93806123  0.94303068  0.68765922  1
  Zn  Zn147  1  0.04473308  0.04797157  0.27443121  1
  Zn  Zn148  1  0.06108665  0.05638897  0.81511837  1
  Zn  Zn149  1  0.06357100  0.56549706  0.31406801  1
  Zn  Zn150  1  0.01717141  0.58354856  0.83607633  1
  Zn  Zn151  1  0.56301493  0.06575891  0.31262817  1
  Zn  Zn152  1  0.56378245  0.06128419  0.81135675  1
  Zn  Zn153  1  0.55854472  0.56585185  0.31217327  1
  Zn  Zn154  1  0.56243986  0.56028638  0.81189410  1
  Zn  Zn155  1  0.44163147  0.18875866  0.43838280  1
  Zn  Zn156  1  0.43473407  0.18907528  0.93805944  1
  Zn  Zn157  1  0.43426536  0.69046061  0.41992851  1
  Zn  Zn158  1  0.43514650  0.68490535  0.93293845  1
  Zn  Zn159  1  0.93757866  0.18578991  0.43529305  1
  Zn  Zn160  1  0.93170022  0.19076971  0.93807639  1
  Zn  Zn161  1  0.93751661  0.68667775  0.44510588  1
  Zn  Zn162  1  0.89762729  0.66212300  0.95690709  1
  Zn  Zn163  1  0.06352826  0.31200982  0.05757505  1
  Zn  Zn164  1  0.06080891  0.30816973  0.56415238  1
  Zn  Zn165  1  0.06265239  0.80795177  0.06717111  1
  Zn  Zn166  1  0.06387341  0.81266190  0.55925244  1
  Zn  Zn167  1  0.56945817  0.31234488  0.05916187  1
  Zn  Zn168  1  0.56453322  0.31496315  0.56496032  1
  Zn  Zn169  1  0.56484865  0.81530589  0.05630489  1
  Zn  Zn170  1  0.56431233  0.82052828  0.56030459  1
  O  O171  1  0.12499389  0.12704003  0.10695208  1
  O  O172  1  0.12815020  0.11677871  0.61596341  1
  O  O173  1  0.11533285  0.62071475  0.12219931  1
  O  O174  1  0.11983448  0.61966871  0.61728189  1
  O  O175  1  0.61352572  0.11993752  0.12684704  1
  O  O176  1  0.61537995  0.11787272  0.62799176  1
  O  O177  1  0.62470813  0.61276577  0.12404494  1
  O  O178  1  0.63226079  0.62592744  0.61334951  1
  O  O179  1  0.38442878  0.37690208  0.37995006  1
  O  O180  1  0.39075795  0.36903328  0.87214310  1
  O  O181  1  0.38890887  0.87427418  0.37271460  1
  O  O182  1  0.38024113  0.88259854  0.87866147  1
  O  O183  1  0.87921547  0.38100181  0.38164821  1
  O  O184  1  0.88908247  0.37225900  0.87201474  1
  O  O185  1  0.86453769  0.88823440  0.38550802  1
  O  O186  1  0.87951930  0.88003931  0.88144196  1
  O  O187  1  0.25502271  0.00070064  0.36289145  1
  O  O188  1  0.25738797  0.00508878  0.87332502  1
  O  O189  1  0.24780477  0.49545999  0.36162053  1
  O  O190  1  0.23851170  0.51210424  0.86799198  1
  O  O191  1  0.75020405  0.00994320  0.37365462  1
  O  O192  1  0.76339581  0.01303867  0.88343027  1
  O  O193  1  0.75659906  0.50796184  0.37891839  1
  O  O194  1  0.76124815  0.50452520  0.86789331  1
  O  O195  1  0.23488465  0.50243086  0.13711819  1
  O  O196  1  0.24386289  0.48924933  0.63308820  1
  O  O197  1  0.23856761  1.00073919  0.14066422  1
  O  O198  1  0.23979638  0.99448064  0.62836265  1
  O  O199  1  0.73298321  0.49985032  0.13028189  1
  O  O200  1  0.74597348  0.48498273  0.61477212  1
  O  O201  1  0.73795207  1.00349672  0.12827938  1
  O  O202  1  0.73489853  0.99589972  0.61728984  1
  O  O203  1  0.00509675  0.36748494  0.25768908  1
  O  O204  1  0.01051125  0.37617932  0.76065908  1
  O  O205  1  0.00926476  0.86194490  0.25159947  1
  O  O206  1  0.00710050  0.87129492  0.75241195  1
  O  O207  1  0.50713445  0.37396055  0.25819826  1
  O  O208  1  0.50770627  0.36753187  0.75903605  1
  O  O209  1  0.50594967  0.87378314  0.25436327  1
  O  O210  1  0.49428949  0.86154640  0.75836770  1
  O  O211  1  0.49549981  0.13223508  0.24379540  1
  O  O212  1  0.49799462  0.13242607  0.74384201  1
  O  O213  1  0.49546862  0.63568443  0.24297529  1
  O  O214  1  0.49155353  0.63474697  0.75660790  1
  O  O215  1  0.98441647  0.14313028  0.26409424  1
  O  O216  1  0.98806737  0.12108101  0.75168051  1
  O  O217  1  0.99503731  0.63290155  0.24455628  1
  O  O218  1  1.01161293  0.63867782  0.73446403  1
  O  O219  1  0.36284294  0.25347222  0.00001624  1
  O  O220  1  0.37157507  0.25451047  0.50563142  1
  O  O221  1  0.35544725  0.74848457  -0.00936589  1
  O  O222  1  0.38794522  0.75390680  0.49800081  1
  O  O223  1  0.86264641  0.25731130  -0.00212799  1
  O  O224  1  0.86572950  0.25699820  0.49707538  1
  O  O225  1  0.88544399  0.76612930  0.01329864  1
  O  O226  1  0.86964250  0.75877278  0.50941134  1
  O  O227  1  0.13191833  0.24312010  0.49242607  1
  O  O228  1  0.12948729  0.23846840  0.99030496  1
  O  O229  1  0.12307058  0.74241743  0.48868178  1
  O  O230  1  0.12941087  0.73717777  1.00041008  1
  O  O231  1  0.63150248  0.25669766  0.48810585  1
  O  O232  1  0.64606998  0.25054822  1.00183824  1
  O  O233  1  0.62748712  0.74597563  0.49466026  1
  O  O234  1  0.62667082  0.75367587  0.98310822  1
  O  O235  1  0.50258487  0.24371307  0.12984642  1
  O  O236  1  0.49754932  0.24204629  0.62954000  1
  O  O237  1  0.50610902  0.75530769  0.13501601  1
  O  O238  1  0.50983074  0.75532913  0.64031973  1
  O  O239  1  1.00649683  0.25182182  0.13801307  1
  O  O240  1  0.99426007  0.24150490  0.61997169  1
  O  O241  1  0.99075757  0.74351694  0.13769512  1
  O  O242  1  0.99380807  0.74690887  0.62997387  1
  O  O243  1  0.00877075  0.25725371  0.37359977  1
  O  O244  1  0.01060753  0.25488521  0.87534473  1
  O  O245  1  -0.00038949  0.74544439  0.36802537  1
  O  O246  1  -0.00015916  0.76093268  0.85858743  1
  O  O247  1  0.50793966  0.26074129  0.37226411  1
  O  O248  1  0.50003333  0.25307039  0.86370071  1
  O  O249  1  0.50861646  0.76113388  0.36013594  1
  O  O250  1  0.51105572  0.75846492  0.86905669  1
  O  O251  1  0.24244004  0.12768330  0.49774102  1
  O  O252  1  0.24685577  0.12886526  0.98948152  1
  O  O253  1  0.23762987  0.61596923  0.50217086  1
  O  O254  1  0.24016417  0.63149112  0.99381765  1
  O  O255  1  0.75274313  0.13809392  0.49454097  1
  O  O256  1  0.75264139  0.13712761  0.98984853  1
  O  O257  1  0.74309903  0.63360575  0.49534673  1
  O  O258  1  0.79076181  0.64026085  0.99233714  1
  O  O259  1  0.24454575  0.36351732  -0.00049697  1
  O  O260  1  0.25643953  0.36945322  0.50648156  1
  O  O261  1  0.24217981  0.85620108  -0.00286480  1
  O  O262  1  0.25333562  0.87818140  0.51475865  1
  O  O263  1  0.76396253  0.36198390  -0.00323860  1
  O  O264  1  0.75248324  0.36548870  0.50564544  1
  O  O265  1  0.76088052  0.86877835  0.00325818  1
  O  O266  1  0.75754161  0.87018883  0.50767203  1
  O  O267  1  0.12941392  0.49537609  0.24713195  1
  O  O268  1  0.13708325  0.48570388  0.74275499  1
  O  O269  1  0.13645479  0.97983506  0.26820233  1
  O  O270  1  0.12637413  0.98909869  0.74262185  1
  O  O271  1  0.62441377  0.48922999  0.25173478  1
  O  O272  1  0.61954593  0.48351151  0.74620568  1
  O  O273  1  0.62858534  0.99753567  0.24264486  1
  O  O274  1  0.61889228  0.99997542  0.73230531  1
  O  O275  1  0.36980133  0.01034293  0.24551688  1
  O  O276  1  0.37634226  0.00574969  0.76147446  1
  O  O277  1  0.36529868  0.50616887  0.24947304  1
  O  O278  1  0.36098107  0.50291348  0.74847778  1
  O  O279  1  0.86429127  0.00584607  0.25845730  1
  O  O280  1  0.87506037  0.01075979  0.75884374  1
  O  O281  1  0.87285239  0.50624764  0.25949692  1
  O  O282  1  0.86736450  0.50311118  0.74058130  1
  O  O283  1  0.12095906  0.36355116  0.37002691  1
  O  O284  1  0.11786055  0.36439765  0.87040062  1
  O  O285  1  0.12839593  0.85684505  0.37332332  1
  O  O286  1  0.11689018  0.87511842  0.86602173  1
  O  O287  1  0.61730860  0.37135011  0.36992633  1
  O  O288  1  0.62092693  0.37573513  0.86262511  1
  O  O289  1  0.61895674  0.87187671  0.36860702  1
  O  O290  1  0.61575337  0.88456404  0.87333939  1
  O  O291  1  0.38732824  0.12580453  0.13128693  1
  O  O292  1  0.38557298  0.12687738  0.63115634  1
  O  O293  1  0.37967895  0.62003654  0.14006766  1
  O  O294  1  0.36967613  0.62015223  0.64203097  1
  O  O295  1  0.87100429  0.11808721  0.13847037  1
  O  O296  1  0.87445254  0.12056044  0.64041307  1
  O  O297  1  0.88142808  0.63088152  0.13627758  1
  O  O298  1  0.88513672  0.63868180  0.61684272  1
  O  O299  1  0.24766509  0.24817723  0.11127018  1
  O  O300  1  0.25628867  0.25281390  0.61918327  1
  O  O301  1  0.24623410  0.74574018  0.10986965  1
  O  O302  1  0.24585692  0.76190924  0.62685770  1
  O  O303  1  0.75192619  0.24427322  0.11691451  1
  O  O304  1  0.75261418  0.25728645  0.61699159  1
  O  O305  1  0.76469617  0.75112540  0.12817512  1
  O  O306  1  0.75602512  0.75877493  0.62291035  1
  O  O307  1  0.24288231  0.24908852  0.38097886  1
  O  O308  1  0.24143446  0.24090603  0.88312995  1
  O  O309  1  0.24246224  0.74629392  0.37483117  1
  O  O310  1  0.24135016  0.73684845  0.87926847  1
  O  O311  1  0.74323941  0.24563879  0.38193015  1
  O  O312  1  0.75235687  0.23535491  0.87746334  1
  O  O313  1  0.74397382  0.74539551  0.38134876  1
  O  O314  1  0.73004400  0.75475044  0.87082656  1
  O  O315  1  0.01068858  0.12693919  -0.00606152  1
  O  O316  1  0.01527978  0.12135479  0.49596302  1
  O  O317  1  0.00097608  0.62993381  0.01608324  1
  O  O318  1  0.00771843  0.62036167  0.51165309  1
  O  O319  1  0.50331077  0.12278169  0.00646360  1
  O  O320  1  0.49802959  0.11548785  0.50739659  1
  O  O321  1  0.49953860  0.62711314  -0.00000133  1
  O  O322  1  0.50393201  0.62050387  0.50040886  1
  O  O323  1  0.49549554  0.38173035  0.49377899  1
  O  O324  1  0.50256117  0.36716567  0.98206730  1
  O  O325  1  0.50085938  0.88564427  0.48929629  1
  O  O326  1  0.49888933  0.88458517  0.98948703  1
  O  O327  1  0.99674703  0.38225463  0.49492864  1
  O  O328  1  0.98609986  0.36372481  0.98945450  1
  O  O329  1  0.98468585  0.87676624  0.50350584  1
  O  O330  1  0.99963131  0.86998536  0.98827679  1
  O  O331  1  0.50093377  0.49116018  0.38442945  1
  O  O332  1  0.50229154  0.48327684  0.87485984  1
  O  O333  1  0.50698133  0.99636713  0.38582413  1
  O  O334  1  0.49365714  0.99549658  0.87750031  1
  O  O335  1  0.99452354  0.49503241  0.38036414  1
  O  O336  1  1.01099823  0.47928850  0.88202406  1
  O  O337  1  0.98434020  1.00492393  0.37129686  1
  O  O338  1  0.98762726  0.98788085  0.87114157  1
  O  O339  1  0.01767653  0.01080933  0.16647803  1
  O  O340  1  0.01523075  0.00346918  0.62106225  1
  O  O341  1  0.01194290  0.51031132  0.13543572  1
  O  O342  1  0.00570942  0.50755320  0.62307001  1
  O  O343  1  0.50971141  0.00860798  0.12016654  1
  O  O344  1  0.50814213  0.00526948  0.61993129  1
  O  O345  1  0.51738622  0.50116823  0.12191501  1
  O  O346  1  0.50048244  0.49416569  0.61390266  1
  O  O347  1  0.24160152  0.38165358  0.24702180  1
  O  O348  1  0.24590891  0.37874414  0.74933690  1
  O  O349  1  0.24542932  0.87835913  0.24927753  1
  O  O350  1  0.24234169  0.87386897  0.74359914  1
  O  O351  1  0.73350705  0.37705674  0.25804222  1
  O  O352  1  0.73838134  0.36692162  0.74324600  1
  O  O353  1  0.74187976  0.88397201  0.24738318  1
  O  O354  1  0.75648693  0.87687454  0.73724546  1
  O  O355  1  0.25973458  0.11853393  0.25188712  1
  O  O356  1  0.25487228  0.12294640  0.76230586  1
  O  O357  1  0.26005709  0.61992278  0.24726497  1
  O  O358  1  0.25064550  0.61694936  0.75676507  1
  O  O359  1  0.75410626  0.12271492  0.25883489  1
  O  O360  1  0.75766474  0.12613134  0.76134206  1
  O  O361  1  0.75568474  0.62411837  0.26240309  1
  O  O362  1  0.76328197  0.62713292  0.75351203  1
  O  O363  1  0.37814148  0.13061953  0.36200766  1
  O  O364  1  0.36740678  0.11939370  0.86960445  1
  O  O365  1  0.38365513  0.61719716  0.35143453  1
  O  O366  1  0.36029547  0.62642426  0.86223579  1
  O  O367  1  0.86145830  0.11923911  0.37175247  1
  O  O368  1  0.87006969  0.11922436  0.86638876  1
  O  O369  1  0.86901351  0.62088543  0.37470089  1
  O  O370  1  0.90333640  0.61143736  0.85624102  1
  O  O371  1  0.12368154  0.38376412  0.12978887  1
  O  O372  1  0.12981710  0.37624125  0.63292355  1
  O  O373  1  0.12918806  0.87219296  0.13772691  1
  O  O374  1  0.13272340  0.87988310  0.62866598  1
  O  O375  1  0.62043689  0.38217988  0.13909512  1
  O  O376  1  0.63216001  0.37720135  0.63415854  1
  O  O377  1  0.62548058  0.88591364  0.13020168  1
  O  O378  1  0.63358492  0.88751316  0.62336104  1
  O  O379  1  0.11881651  0.25153494  0.25604819  1
  O  O380  1  0.13363238  0.25986556  0.75910675  1
  O  O381  1  0.12012364  0.75309299  0.26322210  1
  O  O382  1  0.11691144  0.76232764  0.74800244  1
  O  O383  1  0.61966718  0.26287031  0.25909851  1
  O  O384  1  0.61627783  0.26243259  0.74341556  1
  O  O385  1  0.62043891  0.75635499  0.25260830  1
  O  O386  1  0.61194017  0.74393165  0.76220528  1
  O  O387  1  0.38252750  0.24328199  0.24658196  1
  O  O388  1  0.38394620  0.24351350  0.74416526  1
  O  O389  1  0.38292813  0.73949920  0.25022567  1
  O  O390  1  0.38956662  0.74134833  0.75415049  1
  O  O391  1  0.88216926  0.24487432  0.25268359  1
  O  O392  1  0.87221041  0.23248561  0.75026274  1
  O  O393  1  0.88148009  0.74791566  0.24827012  1
  O  O394  1  0.88283866  0.75891352  0.73686622  1
  O  O395  1  0.38078838  0.49451244  0.49697999  1
  O  O396  1  0.37456543  0.49426800  1.00143114  1
  O  O397  1  0.39483725  0.99377025  0.50738749  1
  O  O398  1  0.38043856  1.00557433  0.98814402  1
  O  O399  1  0.88160092  0.49507353  0.49669315  1
  O  O400  1  0.87352749  0.47862733  1.00833543  1
  O  O401  1  0.87618266  0.99574615  0.49276854  1
  O  O402  1  0.87632262  0.98744871  0.99548728  1
  O  O403  1  0.12628556  0.01417314  -0.00147304  1
  O  O404  1  0.12645089  0.00587342  0.50321950  1
  O  O405  1  0.12763091  0.51332769  0.01091144  1
  O  O406  1  0.11920549  0.50457597  0.50546177  1
  O  O407  1  0.62034250  0.00594552  0.00788376  1
  O  O408  1  0.60895563  -0.00141897  0.51159009  1
  O  O409  1  0.62800196  0.49192362  0.00817884  1
  O  O410  1  0.61496917  0.51098633  0.50181768  1
  O  O411  1  0.37038684  0.37011742  0.12270713  1
  O  O412  1  0.37062641  0.36702057  0.62151139  1
  O  O413  1  0.36675627  0.88337909  0.11382380  1
  O  O414  1  0.35984633  0.87683337  0.62875569  1
  O  O415  1  0.88121063  0.37104174  0.11865770  1
  O  O416  1  0.86737263  0.37254483  0.61908919  1
  O  O417  1  0.87515269  0.87016647  0.12059129  1
  O  O418  1  0.86840348  0.87378314  0.61835258  1
  O  O419  1  0.12841352  0.13590671  0.37929518  1
  O  O420  1  0.13035842  0.12804632  0.87867622  1
  O  O421  1  0.11996900  0.63836338  0.38421159  1
  O  O422  1  0.11865614  0.62642755  0.88466444  1
  O  O423  1  0.63633096  0.13755936  0.36899096  1
  O  O424  1  0.64080843  0.11870100  0.87410916  1
  O  O425  1  0.62810037  0.63163119  0.38460813  1
  O  O426  1  0.62616547  0.63072598  0.87645342  1
