# generated using pymatgen
data_V85Zn86O256
_symmetry_space_group_name_H-M   'P 1'
_cell_length_a   16.93028473
_cell_length_b   16.93980773
_cell_length_c   16.93634608
_cell_angle_alpha   89.95287385
_cell_angle_beta   89.93068277
_cell_angle_gamma   89.96537083
_symmetry_Int_Tables_number   1
_chemical_formula_structural   V85Zn86O256
_chemical_formula_sum   'V85 Zn86 O256'
_cell_volume   4857.26630338
_cell_formula_units_Z   1
loop_
 _symmetry_equiv_pos_site_id
 _symmetry_equiv_pos_as_xyz
  1  'x, y, z'
loop_
 _atom_site_type_symbol
 _atom_site_label
 _atom_site_symmetry_multiplicity
 _atom_site_fract_x
 _atom_site_fract_y
 _atom_site_fract_z
 _atom_site_occupancy
  V  V0  1  0.38024047  0.24319973  0.63854055  1
  V  V1  1  0.26696070  0.62563934  0.87242929  1
  V  V2  1  0.87558875  0.50116276  0.37404722  1
  V  V3  1  0.13621847  0.37494401  0.24705097  1
  V  V4  1  0.25109142  0.88590542  0.12819617  1
  V  V5  1  0.24623372  0.11919685  0.37693511  1
  V  V6  1  0.12588268  0.37940208  0.74913180  1
  V  V7  1  0.74846227  0.50544171  0.75536195  1
  V  V8  1  0.25235793  0.74903490  0.01035280  1
  V  V9  1  -0.02154995  0.87652893  0.37513384  1
  V  V10  1  0.74693330  -0.00278428  0.74800990  1
  V  V11  1  0.36984622  0.12125432  0.25096633  1
  V  V12  1  0.87206388  0.62749218  0.75450187  1
  V  V13  1  0.26767908  0.50116885  0.75385562  1
  V  V14  1  0.62412041  0.75348074  0.36848310  1
  V  V15  1  0.62602559  0.36659464  0.75714374  1
  V  V16  1  0.49854860  0.50173603  -0.01104518  1
  V  V17  1  0.50225255  0.35740050  0.87542638  1
  V  V18  1  0.75164204  -0.00467827  0.25215999  1
  V  V19  1  0.49564482  0.62673337  0.12265727  1
  V  V20  1  0.88633847  0.62891862  0.23760783  1
  V  V21  1  0.37437765  0.00515446  0.87257011  1
  V  V22  1  0.49969509  0.75244255  0.24476431  1
  V  V23  1  0.00637329  0.75719779  0.75255125  1
  V  V24  1  0.24932341  0.62329578  0.37035896  1
  V  V25  1  0.50106763  0.87689373  0.37244689  1
  V  V26  1  0.63876474  0.62798307  -0.00273345  1
  V  V27  1  0.37229414  -0.00207865  0.37546484  1
  V  V28  1  -0.00047161  0.50092332  0.50028395  1
  V  V29  1  -0.01546285  0.00237174  0.49630250  1
  V  V30  1  0.62663953  0.12544244  -0.00039652  1
  V  V31  1  0.00194733  0.37515848  0.37512839  1
  V  V32  1  0.62334825  0.50020629  0.12487055  1
  V  V33  1  0.12395762  0.62513304  0.49857265  1
  V  V34  1  0.75048889  0.62479820  0.37296931  1
  V  V35  1  0.64090064  0.74702666  0.87783318  1
  V  V36  1  0.49497820  0.62261612  0.63008477  1
  V  V37  1  0.13232260  0.88343081  0.25746114  1
  V  V38  1  0.75388623  0.11693320  0.87681558  1
  V  V39  1  -0.00101546  0.37618929  0.87327297  1
  V  V40  1  0.49686191  0.49835133  0.49982025  1
  V  V41  1  0.00067585  0.50227087  0.00716902  1
  V  V42  1  0.00184952  0.24709142  0.74458286  1
  V  V43  1  0.75203486  0.75751923  0.49803420  1
  V  V44  1  0.37187240  0.25625427  0.12595833  1
  V  V45  1  0.37171966  0.62788618  0.24727746  1
  V  V46  1  0.25032754  0.75032526  0.49950067  1
  V  V47  1  0.62414555  0.62500462  0.49873944  1
  V  V48  1  0.12089763  0.62830949  -0.00534612  1
  V  V49  1  0.87424016  0.37384416  0.50018196  1
  V  V50  1  0.87674320  0.12054590  0.25361799  1
  V  V51  1  0.76319041  0.86439436  0.12263366  1
  V  V52  1  0.87253468  0.24581384  0.62380679  1
  V  V53  1  0.62400535  0.49919802  0.62724616  1
  V  V54  1  0.37447499  0.74965011  0.62855893  1
  V  V55  1  0.62530282  0.37051418  0.25181721  1
  V  V56  1  0.50249179  0.24804645  0.25542352  1
  V  V57  1  0.87603410  0.11949211  0.74920114  1
  V  V58  1  0.50048694  0.37157365  0.37716254  1
  V  V59  1  0.49624799  0.74453275  0.75475972  1
  V  V60  1  0.87498008  0.24785538  0.12425185  1
  V  V61  1  0.12002671  -0.01106551  0.62823729  1
  V  V62  1  0.62528478  0.87438609  0.73957233  1
  V  V63  1  0.74581614  0.12843543  0.37117717  1
  V  V64  1  0.00137396  0.00967603  -0.00776480  1
  V  V65  1  0.74730264  0.25014892  -0.00614608  1
  V  V66  1  0.87219326  0.75862933  0.62126497  1
  V  V67  1  0.00142266  0.25031766  0.24988272  1
  V  V68  1  0.87896864  0.86785421  -0.00987623  1
  V  V69  1  -0.00166642  0.62544597  0.62504681  1
  V  V70  1  0.37781553  0.87054315  0.00834418  1
  V  V71  1  0.74776264  0.37534533  0.62517057  1
  V  V72  1  0.12013900  0.12263006  0.51092302  1
  V  V73  1  0.75070479  0.49962046  0.24960065  1
  V  V74  1  0.36913947  0.38003500  -0.00089503  1
  V  V75  1  0.87445503  0.37426043  -0.00043462  1
  V  V76  1  0.50260304  0.12265322  0.12826972  1
  V  V77  1  0.73669549  0.25199839  0.49607388  1
  V  V78  1  0.62291369  0.11185134  0.50355445  1
  V  V79  1  0.50302656  0.87215902  0.87957982  1
  V  V80  1  0.62952173  -0.00903677  0.12890458  1
  V  V81  1  0.24651422  0.24291730  -0.00121890  1
  V  V82  1  0.13791057  0.49664853  0.11988910  1
  V  V83  1  0.87267617  0.50325402  0.87599717  1
  V  V84  1  0.12592396  0.24874455  0.37802283  1
  Zn  Zn85  1  0.00519207  0.88779442  0.86694175  1
  Zn  Zn86  1  0.37330309  0.87610084  0.50114039  1
  Zn  Zn87  1  0.13530272  0.75901074  0.86771805  1
  Zn  Zn88  1  0.01061129  0.12765305  0.11999915  1
  Zn  Zn89  1  0.12385147  0.24632337  0.87713312  1
  Zn  Zn90  1  0.25359039  0.24974251  0.50599842  1
  Zn  Zn91  1  0.48141100  0.11039394  0.65696375  1
  Zn  Zn92  1  0.50076785  -0.00404097  0.50953266  1
  Zn  Zn93  1  0.50330659  -0.00272982  0.00484880  1
  Zn  Zn94  1  0.24000566  0.12010566  0.87282018  1
  Zn  Zn95  1  0.74803547  0.88576918  0.61496805  1
  Zn  Zn96  1  0.12989115  0.50123311  0.62729306  1
  Zn  Zn97  1  0.74848930  0.37327230  0.12477163  1
  Zn  Zn98  1  -0.00662381  0.76263364  0.23065542  1
  Zn  Zn99  1  0.11870855  0.75166430  0.37373401  1
  Zn  Zn100  1  0.12603809  0.00906620  0.12315003  1
  Zn  Zn101  1  0.25223937  -0.00329918  0.74700921  1
  Zn  Zn102  1  0.37417556  0.49840335  0.37358897  1
  Zn  Zn103  1  0.25397216  0.37264269  0.62541372  1
  Zn  Zn104  1  0.25516824  0.49768100  0.24541893  1
  Zn  Zn105  1  0.24125318  0.86669409  0.63531322  1
  Zn  Zn106  1  0.37219496  0.36968108  0.50262397  1
  Zn  Zn107  1  0.19080898  0.18814568  0.18655927  1
  Zn  Zn108  1  0.19625233  0.18293093  0.69264894  1
  Zn  Zn109  1  0.14129049  0.70813612  0.16337079  1
  Zn  Zn110  1  0.18858401  0.68103949  0.68822704  1
  Zn  Zn111  1  0.68862704  0.18671008  0.18360688  1
  Zn  Zn112  1  0.64705210  0.16293791  0.71168671  1
  Zn  Zn113  1  0.68728983  0.68524860  0.18691449  1
  Zn  Zn114  1  0.68522679  0.68934900  0.68712882  1
  Zn  Zn115  1  0.31436792  0.30796139  0.31898494  1
  Zn  Zn116  1  0.31641152  0.31369155  0.81540126  1
  Zn  Zn117  1  0.31169720  0.80958906  0.31014072  1
  Zn  Zn118  1  0.31264482  0.81783453  0.81382885  1
  Zn  Zn119  1  0.81233655  0.31084540  0.31343366  1
  Zn  Zn120  1  0.80918686  0.31097810  0.81211593  1
  Zn  Zn121  1  0.81005683  0.80903270  0.30405180  1
  Zn  Zn122  1  0.81670826  0.81589567  0.81008631  1
  Zn  Zn123  1  0.18890381  0.43779523  0.43935238  1
  Zn  Zn124  1  0.18923480  0.43721435  0.93114768  1
  Zn  Zn125  1  0.18595397  0.93897757  0.44165416  1
  Zn  Zn126  1  0.18304703  0.93529920  0.93565145  1
  Zn  Zn127  1  0.68354605  0.43626805  0.43562509  1
  Zn  Zn128  1  0.68639025  0.43922973  0.93752612  1
  Zn  Zn129  1  0.68936792  0.93688339  0.42777221  1
  Zn  Zn130  1  0.69186999  0.93695521  0.93932278  1
  Zn  Zn131  1  0.31757041  0.06147882  0.05939310  1
  Zn  Zn132  1  0.30897140  0.06230770  0.56426822  1
  Zn  Zn133  1  0.31397213  0.56439999  0.06034693  1
  Zn  Zn134  1  0.31318542  0.56201179  0.56495592  1
  Zn  Zn135  1  0.82056069  0.05764356  0.06237094  1
  Zn  Zn136  1  0.80530177  0.06710438  0.56534881  1
  Zn  Zn137  1  0.81264116  0.56023220  0.06496353  1
  Zn  Zn138  1  0.81184616  0.56641746  0.56323739  1
  Zn  Zn139  1  0.43794065  0.43962795  0.18547223  1
  Zn  Zn140  1  0.44009626  0.42641116  0.69014618  1
  Zn  Zn141  1  0.43677844  0.93735031  0.18982966  1
  Zn  Zn142  1  0.43856481  0.93176128  0.68823294  1
  Zn  Zn143  1  0.94072924  0.43662888  0.18687353  1
  Zn  Zn144  1  0.93620423  0.43784545  0.68698570  1
  Zn  Zn145  1  0.94087513  0.94187260  0.18256104  1
  Zn  Zn146  1  0.93683762  0.94085329  0.68108175  1
  Zn  Zn147  1  0.05986366  0.05968764  0.31403160  1
  Zn  Zn148  1  0.06449167  0.06868298  0.81508544  1
  Zn  Zn149  1  0.06618524  0.56041378  0.30980732  1
  Zn  Zn150  1  0.06435444  0.56496989  0.81525698  1
  Zn  Zn151  1  0.56548670  0.06103403  0.31482340  1
  Zn  Zn152  1  0.56221187  0.05575916  0.81986109  1
  Zn  Zn153  1  0.56105660  0.56212773  0.31190929  1
  Zn  Zn154  1  0.56495994  0.56359376  0.81458528  1
  Zn  Zn155  1  0.43709263  0.18700732  0.44325982  1
  Zn  Zn156  1  0.43774419  0.18601014  0.94259591  1
  Zn  Zn157  1  0.43531740  0.68678627  0.43646120  1
  Zn  Zn158  1  0.43988815  0.69051443  0.94155451  1
  Zn  Zn159  1  0.93479593  0.18536921  0.43634798  1
  Zn  Zn160  1  0.93781099  0.18680054  0.93126660  1
  Zn  Zn161  1  0.93539750  0.69039961  0.43287648  1
  Zn  Zn162  1  0.93578143  0.68942678  0.93857644  1
  Zn  Zn163  1  0.06285127  0.31420589  0.06496009  1
  Zn  Zn164  1  0.06462554  0.31225276  0.56552667  1
  Zn  Zn165  1  0.06270594  0.82093826  0.05771803  1
  Zn  Zn166  1  0.05601702  0.81337205  0.55445010  1
  Zn  Zn167  1  0.56045944  0.31145084  0.06401455  1
  Zn  Zn168  1  0.55742009  0.30738835  0.56931526  1
  Zn  Zn169  1  0.57047839  0.81032235  0.06365378  1
  Zn  Zn170  1  0.55991510  0.81072188  0.55810847  1
  O  O171  1  0.12401298  0.12326623  0.13041810  1
  O  O172  1  0.12403312  0.11946621  0.61287449  1
  O  O173  1  0.13306269  0.61006445  0.10297451  1
  O  O174  1  0.11471478  0.62314980  0.61768535  1
  O  O175  1  0.62393052  0.11520749  0.11783811  1
  O  O176  1  0.63729338  0.12903706  0.60109181  1
  O  O177  1  0.61619582  0.62018939  0.11911907  1
  O  O178  1  0.61462265  0.62014258  0.61941758  1
  O  O179  1  0.38823716  0.37814824  0.37572919  1
  O  O180  1  0.39299384  0.37171521  0.88416436  1
  O  O181  1  0.37926420  0.88214644  0.37397947  1
  O  O182  1  0.38875964  0.87809464  0.88500585  1
  O  O183  1  0.88093528  0.38102755  0.38014870  1
  O  O184  1  0.87929178  0.38122994  0.88004008  1
  O  O185  1  0.88000655  0.87491416  0.37000366  1
  O  O186  1  0.87996497  0.87350593  0.88577758  1
  O  O187  1  0.25560788  0.01104568  0.37788101  1
  O  O188  1  0.26774236  -0.00149496  0.88574570  1
  O  O189  1  0.25133628  0.51259239  0.37369260  1
  O  O190  1  0.25047113  0.51167640  0.86437194  1
  O  O191  1  0.74940950  0.00740342  0.35963640  1
  O  O192  1  0.75152951  0.00620967  0.86532822  1
  O  O193  1  0.75421735  0.50396901  0.36935280  1
  O  O194  1  0.75761572  0.49801445  0.86595681  1
  O  O195  1  0.24186997  0.49687888  0.12273627  1
  O  O196  1  0.25034668  0.50205956  0.64148388  1
  O  O197  1  0.25093413  0.98890452  0.11948051  1
  O  O198  1  0.23129549  0.99387696  0.61914497  1
  O  O199  1  0.74153601  0.49502003  0.13185221  1
  O  O200  1  0.74381931  0.49542994  0.62986154  1
  O  O201  1  0.74719181  0.99490988  0.13332772  1
  O  O202  1  0.75052408  0.99990870  0.64021546  1
  O  O203  1  0.00874568  0.36985931  0.25629603  1
  O  O204  1  0.00569045  0.37247027  0.75456216  1
  O  O205  1  0.00379738  0.87939819  0.26251346  1
  O  O206  1  -0.00959166  0.85968510  0.74692112  1
  O  O207  1  0.50513548  0.36860507  0.25568935  1
  O  O208  1  0.51023352  0.37597951  0.76669739  1
  O  O209  1  0.49441474  0.86328174  0.25980724  1
  O  O210  1  0.50824828  0.86492819  0.75962407  1
  O  O211  1  0.49370994  0.13216638  0.24965409  1
  O  O212  1  0.54244374  0.13522962  0.74733278  1
  O  O213  1  0.49490944  0.63036541  0.24238070  1
  O  O214  1  0.50632930  0.63159740  0.74134543  1
  O  O215  1  0.99072274  0.13319923  0.25390738  1
  O  O216  1  0.98712772  0.13634433  0.75285506  1
  O  O217  1  0.98738658  0.62335919  0.25571989  1
  O  O218  1  0.99227243  0.63059688  0.74153566  1
  O  O219  1  0.37088811  0.25778751  0.00821257  1
  O  O220  1  0.37308220  0.25126082  0.50842323  1
  O  O221  1  0.36836978  0.76127822  -0.00133170  1
  O  O222  1  0.36696659  0.74776281  0.50821714  1
  O  O223  1  0.87008145  0.25422313  0.00648485  1
  O  O224  1  0.86991354  0.25488587  0.50643841  1
  O  O225  1  0.88113076  0.76684459  0.00059734  1
  O  O226  1  0.86278069  0.74057555  0.50830378  1
  O  O227  1  0.12046288  0.24037040  0.49387328  1
  O  O228  1  0.14515102  0.26283945  1.00303957  1
  O  O229  1  0.13063004  0.74172478  0.49701386  1
  O  O230  1  0.13581967  0.74191900  0.99280830  1
  O  O231  1  0.63460316  0.25084061  0.49940867  1
  O  O232  1  0.63626548  0.23999206  1.01171590  1
  O  O233  1  0.62944911  0.74327014  0.48911446  1
  O  O234  1  0.62299023  0.73977662  0.99020351  1
  O  O235  1  0.49215069  0.24342720  0.13510118  1
  O  O236  1  0.48585705  0.24001882  0.62399743  1
  O  O237  1  0.50888001  0.74282194  0.13692954  1
  O  O238  1  0.49549090  0.74158070  0.63146448  1
  O  O239  1  0.99228883  0.24933346  0.13102217  1
  O  O240  1  0.98819322  0.25883583  0.63693253  1
  O  O241  1  1.03343669  0.73989076  0.12780748  1
  O  O242  1  0.99199825  0.74212963  0.62798616  1
  O  O243  1  0.00524963  0.25582756  0.37004070  1
  O  O244  1  -0.00422857  0.26083508  0.86230283  1
  O  O245  1  -0.00177008  0.76778330  0.37595884  1
  O  O246  1  -0.00121021  0.74653861  0.85586289  1
  O  O247  1  0.49619231  0.25631782  0.36326076  1
  O  O248  1  0.50583588  0.25935025  0.88452534  1
  O  O249  1  0.50581784  0.75349106  0.36728140  1
  O  O250  1  0.50545363  0.75435825  0.86906780  1
  O  O251  1  0.23708400  0.12540725  0.49223221  1
  O  O252  1  0.25890084  0.14054746  0.99850036  1
  O  O253  1  0.24465838  0.63104357  0.49519881  1
  O  O254  1  0.24839333  0.63031880  0.98923056  1
  O  O255  1  0.74431682  0.13217465  0.48944111  1
  O  O256  1  0.74961636  0.12897276  0.99638265  1
  O  O257  1  0.74273367  0.63178141  0.49274810  1
  O  O258  1  0.73815038  0.62023279  1.00434920  1
  O  O259  1  0.26563057  0.37128687  -0.00814496  1
  O  O260  1  0.25163668  0.37240995  0.50496801  1
  O  O261  1  0.25797415  0.86771233  0.00818881  1
  O  O262  1  0.25006473  0.85885001  0.50114737  1
  O  O263  1  0.75530448  0.36780447  0.00057571  1
  O  O264  1  0.75369873  0.37014080  0.50159793  1
  O  O265  1  0.76573085  0.88207668  0.01182075  1
  O  O266  1  0.74364569  0.86211668  0.49814671  1
  O  O267  1  0.12802528  0.49336037  0.23830072  1
  O  O268  1  0.12840711  0.49264073  0.75009281  1
  O  O269  1  0.12155872  0.98698497  0.24924616  1
  O  O270  1  0.10785411  1.00377553  0.72757454  1
  O  O271  1  0.62870689  0.49367998  0.24419752  1
  O  O272  1  0.63306901  0.49538052  0.74696292  1
  O  O273  1  0.63693224  1.00586659  0.24019435  1
  O  O274  1  0.63382452  0.98247440  0.75957970  1
  O  O275  1  0.38012073  0.01047289  0.26210937  1
  O  O276  1  0.38125147  -0.00750203  0.77062603  1
  O  O277  1  0.37532959  0.51196666  0.24993510  1
  O  O278  1  0.36599370  0.49540552  0.75045603  1
  O  O279  1  0.86816120  0.01403005  0.24206351  1
  O  O280  1  0.87034354  0.01381386  0.74298657  1
  O  O281  1  0.87148161  0.50473522  0.25483415  1
  O  O282  1  0.86824787  0.50813135  0.75348377  1
  O  O283  1  0.11937146  0.37095806  0.36918872  1
  O  O284  1  0.11822314  0.37012425  0.86495258  1
  O  O285  1  0.12461223  0.87656017  0.36583218  1
  O  O286  1  0.11758722  0.86979888  0.87481591  1
  O  O287  1  0.61341392  0.37897464  0.36171555  1
  O  O288  1  0.61290929  0.38022326  0.87118631  1
  O  O289  1  0.61616822  0.86413996  0.37403913  1
  O  O290  1  0.61742740  0.86613411  0.87541667  1
  O  O291  1  0.38146031  0.12958404  0.13387611  1
  O  O292  1  0.37187885  0.13557890  0.62458031  1
  O  O293  1  0.38755808  0.62373662  0.12997169  1
  O  O294  1  0.38770497  0.63323787  0.62157570  1
  O  O295  1  0.87435025  0.13798366  0.13335702  1
  O  O296  1  0.86735144  0.13949468  0.63223043  1
  O  O297  1  0.87647033  0.61766824  0.13912424  1
  O  O298  1  0.88045142  0.63150821  0.63395718  1
  O  O299  1  0.26464556  0.25010508  0.11597719  1
  O  O300  1  0.26020434  0.25176016  0.62591725  1
  O  O301  1  0.24249706  0.75555370  0.11300651  1
  O  O302  1  0.25789106  0.74454100  0.61983478  1
  O  O303  1  0.75872953  0.25236252  0.11566781  1
  O  O304  1  0.75904235  0.26175192  0.61250649  1
  O  O305  1  0.74368396  0.76702276  0.12976176  1
  O  O306  1  0.75544951  0.74804272  0.61451666  1
  O  O307  1  0.24323123  0.23778638  0.37906999  1
  O  O308  1  0.25423571  0.25017486  0.89001955  1
  O  O309  1  0.25106550  0.73797839  0.38308130  1
  O  O310  1  0.25413098  0.73781447  0.87938436  1
  O  O311  1  0.75343452  0.24311264  0.38464696  1
  O  O312  1  0.75305029  0.24274061  0.88889373  1
  O  O313  1  0.74255775  0.74601068  0.37771192  1
  O  O314  1  0.73958816  0.75182007  0.86758562  1
  O  O315  1  -0.01132377  0.11442710  0.00162930  1
  O  O316  1  0.00608782  0.11109576  0.48901525  1
  O  O317  1  0.00856540  0.61371072  -0.01158205  1
  O  O318  1  0.00306053  0.62279171  0.50534368  1
  O  O319  1  0.51054389  0.12356492  0.01022524  1
  O  O320  1  0.51941584  0.12081944  0.48879637  1
  O  O321  1  0.50471907  0.61927802  0.00748068  1
  O  O322  1  0.50480562  0.61757532  0.50554926  1
  O  O323  1  0.50412778  0.38112267  0.49190257  1
  O  O324  1  0.49826202  0.38154617  0.99167341  1
  O  O325  1  0.49625365  0.87349616  0.48567560  1
  O  O326  1  0.49591901  0.87084130  0.99655497  1
  O  O327  1  0.99452016  0.38073851  0.49647475  1
  O  O328  1  0.99480366  0.38011208  0.99230862  1
  O  O329  1  0.99750042  0.88551823  0.48406606  1
  O  O330  1  0.98969369  0.88359546  0.99716414  1
  O  O331  1  0.50028854  0.49285853  0.38410598  1
  O  O332  1  0.50306950  0.49853797  0.88712395  1
  O  O333  1  0.49391315  0.99009757  0.37460730  1
  O  O334  1  0.49597267  0.98757773  0.88318423  1
  O  O335  1  0.99598524  0.49459415  0.38069616  1
  O  O336  1  0.99374279  0.49293250  0.88095321  1
  O  O337  1  0.99792997  0.98903409  0.38488989  1
  O  O338  1  0.99707853  1.00381755  0.88635802  1
  O  O339  1  0.00185950  0.00689533  0.11365767  1
  O  O340  1  0.00630644  -0.00690780  0.60576442  1
  O  O341  1  0.00886765  0.49392895  0.11076424  1
  O  O342  1  -0.00350530  0.51291009  0.61986334  1
  O  O343  1  0.51105896  0.00424078  0.12852020  1
  O  O344  1  0.49173625  0.00320032  0.62197447  1
  O  O345  1  0.50727634  0.50851436  0.11816076  1
  O  O346  1  0.50338130  0.50450989  0.62138532  1
  O  O347  1  0.23987896  0.37657148  0.25912999  1
  O  O348  1  0.24435389  0.38794744  0.75489184  1
  O  O349  1  0.24168720  0.87264306  0.24387170  1
  O  O350  1  0.25319287  0.88282371  0.74690118  1
  O  O351  1  0.74126856  0.37938454  0.25054973  1
  O  O352  1  0.74909385  0.38956181  0.74585323  1
  O  O353  1  0.75655499  0.88443201  0.23666917  1
  O  O354  1  0.74350704  0.88027370  0.74727050  1
  O  O355  1  0.26440165  0.13248623  0.25914905  1
  O  O356  1  0.24459209  0.10864811  0.75862288  1
  O  O357  1  0.25877787  0.62440353  0.25722518  1
  O  O358  1  0.25057247  0.61522869  0.76209494  1
  O  O359  1  0.75565383  0.12197021  0.25430226  1
  O  O360  1  0.74742779  0.11721711  0.75976268  1
  O  O361  1  0.75791963  0.61855432  0.25406301  1
  O  O362  1  0.75658331  0.61427494  0.74221370  1
  O  O363  1  0.36864724  0.11912308  0.37041960  1
  O  O364  1  0.38195182  0.10654995  0.88313027  1
  O  O365  1  0.36863825  0.62161932  0.36699717  1
  O  O366  1  0.36566582  0.62454978  0.88039825  1
  O  O367  1  0.86262659  0.13139355  0.36284816  1
  O  O368  1  0.86142038  0.13144159  0.86316562  1
  O  O369  1  0.86811732  0.61777526  0.36883105  1
  O  O370  1  0.87798402  0.62123799  0.86130845  1
  O  O371  1  0.12232531  0.38270045  0.13618323  1
  O  O372  1  0.12670007  0.37916895  0.63792867  1
  O  O373  1  0.13502844  0.88166487  0.13722723  1
  O  O374  1  0.12195270  0.88460957  0.61722510  1
  O  O375  1  0.62242583  0.38161004  0.13608754  1
  O  O376  1  0.62690049  0.38150868  0.63341722  1
  O  O377  1  0.63792991  0.88671920  0.11817146  1
  O  O378  1  0.62623256  0.86477538  0.63623268  1
  O  O379  1  0.12216924  0.25826764  0.25741021  1
  O  O380  1  0.11535367  0.25855377  0.74745099  1
  O  O381  1  0.12084771  0.76934600  0.25834534  1
  O  O382  1  0.10903961  0.74299903  0.74581299  1
  O  O383  1  0.61609477  0.25861152  0.24262984  1
  O  O384  1  0.65070740  0.27092967  0.75041730  1
  O  O385  1  0.61634353  0.74148300  0.26141300  1
  O  O386  1  0.61689587  0.75419871  0.75802158  1
  O  O387  1  0.38202666  0.24542988  0.24403937  1
  O  O388  1  0.37453520  0.25279656  0.73877081  1
  O  O389  1  0.38534766  0.73665347  0.25402609  1
  O  O390  1  0.38874600  0.75170007  0.74477608  1
  O  O391  1  0.87941237  0.24620016  0.24188923  1
  O  O392  1  0.87654271  0.24449822  0.74152289  1
  O  O393  1  0.87870513  0.73412453  0.25046469  1
  O  O394  1  0.88006681  0.74244066  0.74106950  1
  O  O395  1  0.38796308  0.49815166  0.50052592  1
  O  O396  1  0.38619202  0.49103912  1.00767599  1
  O  O397  1  0.37487204  0.99872579  0.48697754  1
  O  O398  1  0.38211805  0.98642402  0.99574280  1
  O  O399  1  0.87907915  0.49560643  0.49476616  1
  O  O400  1  0.88207903  0.49568492  0.99684730  1
  O  O401  1  0.88543333  1.00844832  0.50458196  1
  O  O402  1  0.88836880  0.98689774  1.00521174  1
  O  O403  1  0.10595985  -0.00672634  0.00328061  1
  O  O404  1  0.11463092  0.00662099  0.50472126  1
  O  O405  1  0.11979359  0.50077045  0.00203476  1
  O  O406  1  0.11683364  0.50790996  0.50301033  1
  O  O407  1  0.62659874  0.00630932  0.01022973  1
  O  O408  1  0.62737534  0.00819316  0.49588202  1
  O  O409  1  0.61829863  0.50628909  0.00643306  1
  O  O410  1  0.61495947  0.50362946  0.50559953  1
  O  O411  1  0.38521332  0.36568012  0.11468504  1
  O  O412  1  0.37620186  0.36217194  0.62330726  1
  O  O413  1  0.36839557  0.87643295  0.11977786  1
  O  O414  1  0.37524158  0.85835107  0.62139257  1
  O  O415  1  0.87465942  0.36480475  0.11949129  1
  O  O416  1  0.86842640  0.36993298  0.61919321  1
  O  O417  1  0.86756069  0.87285122  0.12066731  1
  O  O418  1  0.86950164  0.86172012  0.62572200  1
  O  O419  1  0.13125920  0.12814465  0.37857128  1
  O  O420  1  0.12515356  0.13396865  0.88016473  1
  O  O421  1  0.13160116  0.62704825  0.37987279  1
  O  O422  1  0.13578230  0.62742185  0.88336741  1
  O  O423  1  0.63861988  0.12371041  0.38156422  1
  O  O424  1  0.63769461  0.11838337  0.89358577  1
  O  O425  1  0.63002932  0.63022801  0.37904279  1
  O  O426  1  0.62218909  0.63431125  0.88538326  1
