# generated using pymatgen
data_V85Zn86O256
_symmetry_space_group_name_H-M   'P 1'
_cell_length_a   16.93519760
_cell_length_b   16.94802613
_cell_length_c   16.95235530
_cell_angle_alpha   89.94937019
_cell_angle_beta   89.99475194
_cell_angle_gamma   90.11350258
_symmetry_Int_Tables_number   1
_chemical_formula_structural   V85Zn86O256
_chemical_formula_sum   'V85 Zn86 O256'
_cell_volume   4865.62255278
_cell_formula_units_Z   1
loop_
 _symmetry_equiv_pos_site_id
 _symmetry_equiv_pos_as_xyz
  1  'x, y, z'
loop_
 _atom_site_type_symbol
 _atom_site_label
 _atom_site_symmetry_multiplicity
 _atom_site_fract_x
 _atom_site_fract_y
 _atom_site_fract_z
 _atom_site_occupancy
  V  V0  1  0.75563923  0.12506260  0.36583141  1
  V  V1  1  -0.00579871  0.37760786  0.87527508  1
  V  V2  1  0.75276528  0.37735439  0.61888641  1
  V  V3  1  0.37367760  0.37701697  0.00043726  1
  V  V4  1  0.49954593  0.24694253  0.75213595  1
  V  V5  1  -0.00786999  0.24086621  0.24999342  1
  V  V6  1  -0.00231416  0.49952970  -0.00139092  1
  V  V7  1  0.62900292  0.87048016  0.76181000  1
  V  V8  1  0.49379396  0.12534304  0.13073064  1
  V  V9  1  0.12632680  -0.00125084  0.62445217  1
  V  V10  1  0.37833433  0.51282471  0.87424447  1
  V  V11  1  0.62759206  0.37410677  0.75118887  1
  V  V12  1  0.37809037  0.25077182  0.61932565  1
  V  V13  1  0.24595744  -0.01266950  0.25160584  1
  V  V14  1  0.87114550  0.61876779  0.25056001  1
  V  V15  1  0.37197003  0.24607439  0.13116893  1
  V  V16  1  0.62194790  0.12066520  0.49826716  1
  V  V17  1  0.00156179  0.12522236  0.62541411  1
  V  V18  1  0.25684577  0.50369339  0.75142128  1
  V  V19  1  0.35668571  0.87025641  0.01726388  1
  V  V20  1  0.00184709  0.62378514  0.12680656  1
  V  V21  1  0.00201012  0.75170929  0.74699765  1
  V  V22  1  0.62527853  0.62406582  0.00175387  1
  V  V23  1  0.38458068  0.00673909  0.37516334  1
  V  V24  1  0.87271588  0.87625010  -0.00068318  1
  V  V25  1  0.13110271  0.12525351  0.50134482  1
  V  V26  1  0.25426332  0.87671188  0.62236381  1
  V  V27  1  0.75296132  0.75481852  0.49586005  1
  V  V28  1  0.62184802  0.38954792  0.24794434  1
  V  V29  1  0.87701635  0.25373666  0.62123876  1
  V  V30  1  0.87537717  -0.00164723  0.36469537  1
  V  V31  1  0.86674231  0.37391598  -0.00072345  1
  V  V32  1  0.87041853  0.49422337  0.38125378  1
  V  V33  1  0.50316860  0.50608371  0.01567616  1
  V  V34  1  0.61994666  -0.00287269  0.62019682  1
  V  V35  1  0.56911105  0.81815431  0.19722733  1
  V  V36  1  0.50006658  0.74183823  0.75969283  1
  V  V37  1  0.23363560  0.63124959  0.87453368  1
  V  V38  1  0.62273755  0.62471516  0.50283485  1
  V  V39  1  0.25530340  0.62303319  0.37687860  1
  V  V40  1  0.62062134  0.00114427  0.12924711  1
  V  V41  1  0.12823147  0.37303035  0.75294196  1
  V  V42  1  -0.00167844  0.87423873  0.37202447  1
  V  V43  1  0.75029037  0.87244479  0.13300641  1
  V  V44  1  0.74659985  0.61767812  0.37181831  1
  V  V45  1  0.38150773  0.48607394  0.37948045  1
  V  V46  1  0.75443189  0.25022871  0.49660418  1
  V  V47  1  0.48247814  0.88683256  0.86924942  1
  V  V48  1  0.38614906  0.63412275  0.23785679  1
  V  V49  1  0.75066600  0.00100829  0.74908088  1
  V  V50  1  0.39012734  0.87760555  0.49920528  1
  V  V51  1  0.12587067  0.75526750  0.37055234  1
  V  V52  1  0.86177847  0.24299666  0.12672927  1
  V  V53  1  0.74903371  0.13313421  0.87877723  1
  V  V54  1  0.62366593  0.13201386  0.00124633  1
  V  V55  1  0.24804742  0.37441829  0.12342493  1
  V  V56  1  0.49395312  0.62472069  0.62700864  1
  V  V57  1  0.25302287  0.12607854  0.36561769  1
  V  V58  1  0.49901843  0.37683535  0.87688177  1
  V  V59  1  0.25111673  0.11511018  0.87728304  1
  V  V60  1  0.61740239  0.75481618  0.37366590  1
  V  V61  1  0.00748652  0.01049577  0.00022563  1
  V  V62  1  0.87390172  0.74832245  0.12593787  1
  V  V63  1  0.74483008  0.39284186  0.12557937  1
  V  V64  1  0.12285207  0.25073529  0.37635666  1
  V  V65  1  0.87452463  0.00404944  0.87522838  1
  V  V66  1  0.87686996  0.62264703  0.75939215  1
  V  V67  1  0.12606725  0.50025192  0.62602504  1
  V  V68  1  -0.00139260  0.62504341  0.62405351  1
  V  V69  1  0.25095456  0.49929943  0.25005347  1
  V  V70  1  0.12796490  0.87139434  0.75096682  1
  V  V71  1  0.12151539  0.49920406  0.12237863  1
  V  V72  1  0.61729921  0.25193231  0.36976198  1
  V  V73  1  0.24216939  0.24403205  -0.00029426  1
  V  V74  1  0.75135306  0.74992121  -0.01235171  1
  V  V75  1  0.87521266  0.75213396  0.61873135  1
  V  V76  1  0.11667438  0.37471519  0.25288707  1
  V  V77  1  0.12414262  0.62382051  0.50030124  1
  V  V78  1  0.00504190  0.87447171  0.87565340  1
  V  V79  1  0.75633928  0.49786000  0.75791594  1
  V  V80  1  0.00180132  0.24897144  0.75031754  1
  V  V81  1  0.25351878  0.75180869  0.50046469  1
  V  V82  1  -0.00821964  -0.00413602  0.49946501  1
  V  V83  1  0.75440547  0.87589553  0.62272201  1
  V  V84  1  0.25679662  0.37463029  0.62006225  1
  Zn  Zn85  1  -0.00040060  0.12715216  0.12362070  1
  Zn  Zn86  1  0.00145424  0.75346714  0.24907472  1
  Zn  Zn87  1  0.25648822  0.25429478  0.49734043  1
  Zn  Zn88  1  0.62686166  0.25186743  0.88025773  1
  Zn  Zn89  1  0.48747147  0.48390700  0.50854525  1
  Zn  Zn90  1  0.49723630  0.11943133  0.62329515  1
  Zn  Zn91  1  -0.00714236  0.49272751  0.50335943  1
  Zn  Zn92  1  0.49628029  0.25473511  0.25134057  1
  Zn  Zn93  1  0.37779639  0.11843079  0.75436383  1
  Zn  Zn94  1  -0.01179418  0.37019338  0.38267132  1
  Zn  Zn95  1  0.37736589  0.74815524  0.62749234  1
  Zn  Zn96  1  0.74909008  -0.00076987  0.24838580  1
  Zn  Zn97  1  0.49175255  0.00291642  -0.00483090  1
  Zn  Zn98  1  0.17965333  0.70688247  0.01993905  1
  Zn  Zn99  1  0.12295934  0.24443514  0.88155457  1
  Zn  Zn100  1  0.23544230  0.84887398  0.13701911  1
  Zn  Zn101  1  0.87475178  0.12666230  0.74906203  1
  Zn  Zn102  1  0.50689253  0.88081153  0.37066308  1
  Zn  Zn103  1  0.62364511  0.50178736  0.62784583  1
  Zn  Zn104  1  0.26108265  -0.00573244  0.75691200  1
  Zn  Zn105  1  0.75213161  0.62310329  0.87451331  1
  Zn  Zn106  1  0.12831520  0.00199747  0.12871658  1
  Zn  Zn107  1  0.18084012  0.18277998  0.18405304  1
  Zn  Zn108  1  0.19283490  0.18670325  0.69211606  1
  Zn  Zn109  1  0.18724692  0.68164009  0.19442397  1
  Zn  Zn110  1  0.19048012  0.68864775  0.68953774  1
  Zn  Zn111  1  0.68442088  0.18820006  0.18810974  1
  Zn  Zn112  1  0.68712751  0.18645324  0.68780523  1
  Zn  Zn113  1  0.68930353  0.67728421  0.18210603  1
  Zn  Zn114  1  0.68670481  0.68779665  0.68965003  1
  Zn  Zn115  1  0.30824396  0.31182700  0.31066120  1
  Zn  Zn116  1  0.31504235  0.31005672  0.81461861  1
  Zn  Zn117  1  0.32011316  0.81221125  0.31686316  1
  Zn  Zn118  1  0.31426299  0.80561161  0.80953332  1
  Zn  Zn119  1  0.80336350  0.31538309  0.30646007  1
  Zn  Zn120  1  0.81480483  0.31163837  0.81036402  1
  Zn  Zn121  1  0.81541737  0.81062665  0.31389926  1
  Zn  Zn122  1  0.82053777  0.81402965  0.80808644  1
  Zn  Zn123  1  0.18559528  0.43812333  0.43769844  1
  Zn  Zn124  1  0.18633592  0.43913638  0.93680630  1
  Zn  Zn125  1  0.18897056  0.93889770  0.43711916  1
  Zn  Zn126  1  0.18635839  0.93395002  0.93965880  1
  Zn  Zn127  1  0.64944860  0.42096588  0.45180628  1
  Zn  Zn128  1  0.68658913  0.43849737  0.93854249  1
  Zn  Zn129  1  0.68952481  0.93580798  0.43540617  1
  Zn  Zn130  1  0.68671024  0.94405535  0.94358908  1
  Zn  Zn131  1  0.31349797  0.05837139  0.05992847  1
  Zn  Zn132  1  0.31706213  0.06161978  0.56273809  1
  Zn  Zn133  1  0.31100568  0.56731749  0.05970442  1
  Zn  Zn134  1  0.31447270  0.56097813  0.56175356  1
  Zn  Zn135  1  0.80932156  0.06244135  0.06109837  1
  Zn  Zn136  1  0.81133223  0.06569499  0.55936587  1
  Zn  Zn137  1  0.81686384  0.56295355  0.05687143  1
  Zn  Zn138  1  0.80884429  0.56506449  0.56327845  1
  Zn  Zn139  1  0.43498128  0.43773331  0.19218609  1
  Zn  Zn140  1  0.43865702  0.43683786  0.69014959  1
  Zn  Zn141  1  0.42487390  0.94333545  0.18509579  1
  Zn  Zn142  1  0.43885333  0.93612587  0.68877268  1
  Zn  Zn143  1  0.93061688  0.43530755  0.19111262  1
  Zn  Zn144  1  0.93747137  0.43687938  0.68576517  1
  Zn  Zn145  1  0.93999719  0.93637145  0.18752507  1
  Zn  Zn146  1  0.93722962  0.93823489  0.68723836  1
  Zn  Zn147  1  0.06400902  0.06408637  0.31261717  1
  Zn  Zn148  1  0.07063777  0.06239657  0.81316715  1
  Zn  Zn149  1  0.05840997  0.56164004  0.31441582  1
  Zn  Zn150  1  0.05934339  0.55788822  0.81031854  1
  Zn  Zn151  1  0.56448122  0.06699511  0.30832592  1
  Zn  Zn152  1  0.56631460  0.06210309  0.80928914  1
  Zn  Zn153  1  0.55848440  0.56545285  0.31417783  1
  Zn  Zn154  1  0.56933191  0.56256812  0.81754568  1
  Zn  Zn155  1  0.43945167  0.18760440  0.44084463  1
  Zn  Zn156  1  0.43290394  0.18812843  0.94179686  1
  Zn  Zn157  1  0.43791043  0.68460871  0.43768269  1
  Zn  Zn158  1  0.43607519  0.68963517  0.93847213  1
  Zn  Zn159  1  0.93768458  0.18418819  0.43769426  1
  Zn  Zn160  1  0.93257071  0.19368993  0.93889370  1
  Zn  Zn161  1  0.93735951  0.68490695  0.43690291  1
  Zn  Zn162  1  0.97847220  0.70633016  0.95618110  1
  Zn  Zn163  1  0.05734597  0.31157013  0.06567314  1
  Zn  Zn164  1  0.06505246  0.31452938  0.56143365  1
  Zn  Zn165  1  0.06319603  0.82378085  0.06746430  1
  Zn  Zn166  1  0.06349792  0.81407749  0.55753541  1
  Zn  Zn167  1  0.56158874  0.31503563  0.06547892  1
  Zn  Zn168  1  0.56439545  0.30872270  0.56455612  1
  Zn  Zn169  1  0.55304050  0.79953546  0.02893677  1
  Zn  Zn170  1  0.56679531  0.80884749  0.56772998  1
  O  O171  1  0.11303132  0.11492920  0.13025794  1
  O  O172  1  0.12388995  0.12017704  0.61918291  1
  O  O173  1  0.10892747  0.61577346  0.13017488  1
  O  O174  1  0.12128528  0.62215431  0.61887063  1
  O  O175  1  0.61853775  0.11972632  0.11854403  1
  O  O176  1  0.62890842  0.11476291  0.61654935  1
  O  O177  1  0.63444189  0.61919046  0.10378534  1
  O  O178  1  0.61574630  0.62758861  0.61881845  1
  O  O179  1  0.37107050  0.38738324  0.37022057  1
  O  O180  1  0.37870099  0.38328104  0.88337899  1
  O  O181  1  0.38277948  0.88519469  0.38225893  1
  O  O182  1  0.38234848  0.87714654  0.87163046  1
  O  O183  1  0.86605587  0.39184495  0.36913608  1
  O  O184  1  0.88242925  0.36696913  0.88498399  1
  O  O185  1  0.88248363  0.88419157  0.37720439  1
  O  O186  1  0.88154902  0.88713726  0.87650099  1
  O  O187  1  0.25747997  0.00672991  0.36928037  1
  O  O188  1  0.24662926  0.01149120  0.87785386  1
  O  O189  1  0.25539992  0.50477454  0.36936098  1
  O  O190  1  0.25594942  0.50550257  0.86790827  1
  O  O191  1  0.75888195  0.00564788  0.37344168  1
  O  O192  1  0.75776275  0.00729374  0.87036319  1
  O  O193  1  0.75671420  0.51510745  0.38110911  1
  O  O194  1  0.75401725  0.49488441  0.86124502  1
  O  O195  1  0.24253732  0.49641576  0.13230365  1
  O  O196  1  0.24856614  0.49447997  0.63370667  1
  O  O197  1  0.25448880  1.00777582  0.14832610  1
  O  O198  1  0.24529475  0.98722298  0.62099399  1
  O  O199  1  0.75336842  0.49098348  0.12393159  1
  O  O200  1  0.75086344  0.49028144  0.63318693  1
  O  O201  1  0.74189093  0.98975063  0.12396872  1
  O  O202  1  0.74876629  0.99399686  0.62943941  1
  O  O203  1  0.00379878  0.36785094  0.25561188  1
  O  O204  1  0.00609674  0.37147348  0.75673614  1
  O  O205  1  -0.00211804  0.87333235  0.26556340  1
  O  O206  1  0.00821385  0.87410149  0.75437870  1
  O  O207  1  0.51673773  0.37296173  0.24147157  1
  O  O208  1  0.50993133  0.36727525  0.75492177  1
  O  O209  1  0.50054608  0.87518662  0.24794562  1
  O  O210  1  0.50880393  0.86766685  0.75801271  1
  O  O211  1  0.50274611  0.13172551  0.23460000  1
  O  O212  1  0.50364367  0.13771112  0.74801511  1
  O  O213  1  0.48557041  0.62384398  0.25112213  1
  O  O214  1  0.51001759  0.63630060  0.74678073  1
  O  O215  1  0.99751921  0.13793758  0.25354462  1
  O  O216  1  1.00210392  0.13024067  0.74274320  1
  O  O217  1  0.99091123  0.62522057  0.24300446  1
  O  O218  1  0.99575568  0.63000046  0.74339411  1
  O  O219  1  0.36368433  0.25901582  0.00993664  1
  O  O220  1  0.37625495  0.25081540  0.51346784  1
  O  O221  1  0.39228825  0.77606513  -0.00183823  1
  O  O222  1  0.36961289  0.75879879  0.49888293  1
  O  O223  1  0.87868529  0.26293509  0.01546812  1
  O  O224  1  0.86347735  0.24604469  0.50536749  1
  O  O225  1  0.87525448  0.75821019  0.00763150  1
  O  O226  1  0.86844454  0.74470348  0.51024789  1
  O  O227  1  0.12900897  0.24036902  0.49486598  1
  O  O228  1  0.13832613  0.25886781  1.00310554  1
  O  O229  1  0.13157131  0.73892464  0.49435672  1
  O  O230  1  0.08375483  0.74899590  0.98658227  1
  O  O231  1  0.63843992  0.24076642  0.49322119  1
  O  O232  1  0.61922967  0.23691451  0.99978432  1
  O  O233  1  0.63224285  0.74297442  0.49336305  1
  O  O234  1  0.63946224  0.73937473  0.99515330  1
  O  O235  1  0.48851752  0.24415350  0.12222509  1
  O  O236  1  0.49529987  0.24920954  0.63361522  1
  O  O237  1  0.51792324  0.76302626  0.13301903  1
  O  O238  1  0.50062545  0.74236807  0.63605954  1
  O  O239  1  0.98713428  0.25060389  0.13388658  1
  O  O240  1  0.99439264  0.24584090  0.62815047  1
  O  O241  1  0.99143346  0.73994244  0.12849005  1
  O  O242  1  0.99335881  0.74754424  0.62622957  1
  O  O243  1  0.00255625  0.25118003  0.36897172  1
  O  O244  1  0.00282115  0.25995991  0.87115974  1
  O  O245  1  0.00730148  0.75767831  0.37943800  1
  O  O246  1  -0.01442084  0.76918135  0.85977506  1
  O  O247  1  0.51360160  0.24559577  0.37368861  1
  O  O248  1  0.49900718  0.25811765  0.86905199  1
  O  O249  1  0.51439848  0.74993141  0.37836044  1
  O  O250  1  0.49988803  0.76005446  0.86380442  1
  O  O251  1  0.24016309  0.12351327  0.49432277  1
  O  O252  1  0.25362022  0.13245945  0.99119386  1
  O  O253  1  0.24568073  0.63016410  0.49510694  1
  O  O254  1  0.24376386  0.61753546  0.98136420  1
  O  O255  1  0.74339966  0.13221237  0.49070648  1
  O  O256  1  0.73871249  0.11963385  0.98995665  1
  O  O257  1  0.74467547  0.63824499  0.49482148  1
  O  O258  1  0.75211585  0.63382712  0.99534830  1
  O  O259  1  0.25467903  0.37207457  0.00607901  1
  O  O260  1  0.24091815  0.37424388  0.51680603  1
  O  O261  1  0.25521602  0.86663698  -0.00076858  1
  O  O262  1  0.25686047  0.86999127  0.50591865  1
  O  O263  1  0.75335645  0.37798911  0.01159731  1
  O  O264  1  0.74094085  0.36671936  0.51267304  1
  O  O265  1  0.75359232  0.86915904  0.00771345  1
  O  O266  1  0.74740085  0.86157663  0.50583016  1
  O  O267  1  0.12901612  0.49330971  0.24698879  1
  O  O268  1  0.13260943  0.49198623  0.74431600  1
  O  O269  1  0.14328767  1.00079722  0.26069820  1
  O  O270  1  0.13017595  0.98795165  0.74085634  1
  O  O271  1  0.62276193  0.48834517  0.25702548  1
  O  O272  1  0.63487814  0.49095524  0.74826273  1
  O  O273  1  0.62814799  1.00447398  0.23468835  1
  O  O274  1  0.63340186  0.99262168  0.74060803  1
  O  O275  1  0.36371505  -0.00031287  0.26759029  1
  O  O276  1  0.37296584  0.00462721  0.74334541  1
  O  O277  1  0.36655375  0.50531473  0.26019364  1
  O  O278  1  0.36606883  0.49450477  0.76034719  1
  O  O279  1  0.87360184  -0.00108944  0.26089075  1
  O  O280  1  0.87157061  0.00303750  0.76045329  1
  O  O281  1  0.87512189  0.51147076  0.26131544  1
  O  O282  1  0.86899167  0.50987942  0.74287769  1
  O  O283  1  0.12762140  0.36993970  0.36346415  1
  O  O284  1  0.11929072  0.37380176  0.86381737  1
  O  O285  1  0.11815812  0.86372036  0.38402540  1
  O  O286  1  0.11556810  0.88100321  0.86393491  1
  O  O287  1  0.64247612  0.36297625  0.35419556  1
  O  O288  1  0.62138237  0.37271936  0.86604420  1
  O  O289  1  0.62342664  0.86537860  0.37502324  1
  O  O290  1  0.62671370  0.88289405  0.86301720  1
  O  O291  1  0.38152881  0.13436477  0.11757473  1
  O  O292  1  0.37853903  0.13465959  0.62660827  1
  O  O293  1  0.37085927  0.61981370  0.13925945  1
  O  O294  1  0.38898004  0.62639029  0.62112602  1
  O  O295  1  0.87452545  0.13963393  0.11935830  1
  O  O296  1  0.88088988  0.13634707  0.62483933  1
  O  O297  1  0.88101792  0.62619005  0.13295947  1
  O  O298  1  0.88087792  0.63270796  0.62951415  1
  O  O299  1  0.25337688  0.25330269  0.12090233  1
  O  O300  1  0.25967974  0.25819766  0.62643523  1
  O  O301  1  0.23361842  0.73798501  0.11288266  1
  O  O302  1  0.25411153  0.75978449  0.62067348  1
  O  O303  1  0.75998346  0.25356680  0.12708342  1
  O  O304  1  0.75793459  0.25411337  0.61856591  1
  O  O305  1  0.75590551  0.75574328  0.11622067  1
  O  O306  1  0.75678975  0.75408269  0.61805057  1
  O  O307  1  0.24492350  0.24327150  0.37822074  1
  O  O308  1  0.24698308  0.24691719  0.88549310  1
  O  O309  1  0.24423415  0.74234546  0.38060634  1
  O  O310  1  0.25050832  0.73057698  0.86649602  1
  O  O311  1  0.74816472  0.24289424  0.38048253  1
  O  O312  1  0.74890699  0.23689124  0.86974343  1
  O  O313  1  0.74384837  0.74427487  0.38135180  1
  O  O314  1  0.76148668  0.75279664  0.88548085  1
  O  O315  1  -0.00622382  0.11262075  -0.00550999  1
  O  O316  1  0.01208804  0.11886421  0.50538370  1
  O  O317  1  -0.01333646  0.60632444  0.01089477  1
  O  O318  1  0.00938292  0.62203078  0.50555761  1
  O  O319  1  0.50449678  0.12172752  0.00722672  1
  O  O320  1  0.51776381  0.12833813  0.50315098  1
  O  O321  1  0.50606957  0.61388919  -0.00442655  1
  O  O322  1  0.50762998  0.62285297  0.50916960  1
  O  O323  1  0.54419975  0.38868196  0.49187858  1
  O  O324  1  0.49475677  0.38554116  0.99649952  1
  O  O325  1  0.49237044  0.87091715  0.50129547  1
  O  O326  1  0.50535186  0.88323866  0.97485908  1
  O  O327  1  1.00911705  0.38105474  0.49368664  1
  O  O328  1  0.99224722  0.37974805  0.99376059  1
  O  O329  1  1.00421900  0.88652863  0.48989754  1
  O  O330  1  0.98993398  0.88917723  0.98964256  1
  O  O331  1  0.48331622  0.50379541  0.37828802  1
  O  O332  1  0.49147644  0.49409205  0.87474351  1
  O  O333  1  0.48845636  1.00380823  0.36997959  1
  O  O334  1  0.49951609  0.98925004  0.86867880  1
  O  O335  1  0.98225008  0.50065431  0.37753688  1
  O  O336  1  1.00286803  0.48632533  0.88230807  1
  O  O337  1  0.99446345  0.99558896  0.38022662  1
  O  O338  1  0.99399986  0.99652417  0.87972673  1
  O  O339  1  -0.00952273  0.00232160  0.10737936  1
  O  O340  1  0.00432240  0.00477045  0.61768434  1
  O  O341  1  0.00078895  0.50242843  0.12092077  1
  O  O342  1  0.00830533  0.50657815  0.62470201  1
  O  O343  1  0.50284923  0.00699776  0.12438160  1
  O  O344  1  0.51679572  -0.00177793  0.62642848  1
  O  O345  1  0.49478726  0.49913947  0.11321168  1
  O  O346  1  0.50283414  0.50793602  0.62592485  1
  O  O347  1  0.24127008  0.38426520  0.24460548  1
  O  O348  1  0.24389169  0.38201998  0.74620508  1
  O  O349  1  0.25276921  0.88426754  0.25485563  1
  O  O350  1  0.24459085  0.87258843  0.74204083  1
  O  O351  1  0.73957977  0.37587030  0.23262265  1
  O  O352  1  0.74723798  0.37867081  0.74251738  1
  O  O353  1  0.75403760  0.87385498  0.23662618  1
  O  O354  1  0.74587622  0.87948626  0.74437800  1
  O  O355  1  0.24836083  0.12521420  0.26409320  1
  O  O356  1  0.25298964  0.12196990  0.76349173  1
  O  O357  1  0.25146625  0.61083155  0.26005873  1
  O  O358  1  0.24651846  0.61179057  0.75693962  1
  O  O359  1  0.74693570  0.12330535  0.26248054  1
  O  O360  1  0.75058427  0.11698796  0.75744295  1
  O  O361  1  0.75737416  0.62947681  0.26023721  1
  O  O362  1  0.75775736  0.61622930  0.74948460  1
  O  O363  1  0.36775359  0.11504067  0.38509706  1
  O  O364  1  0.35788646  0.13405002  0.87371747  1
  O  O365  1  0.36335746  0.61841961  0.37262899  1
  O  O366  1  0.36878626  0.61509139  0.87844069  1
  O  O367  1  0.86636264  0.11356361  0.38096546  1
  O  O368  1  0.86745634  0.12068392  0.87403218  1
  O  O369  1  0.86730396  0.62099426  0.36837233  1
  O  O370  1  0.87688194  0.63090350  0.85906720  1
  O  O371  1  0.12679122  0.37817394  0.13784970  1
  O  O372  1  0.13246299  0.37913046  0.63748890  1
  O  O373  1  0.12800322  0.88826295  0.12768343  1
  O  O374  1  0.13329626  0.87893215  0.62766284  1
  O  O375  1  0.63636856  0.37372581  0.13232445  1
  O  O376  1  0.63616809  0.37289928  0.63950572  1
  O  O377  1  0.62779219  0.87870924  0.12853015  1
  O  O378  1  0.63519699  0.88024947  0.63173714  1
  O  O379  1  0.11473830  0.25745056  0.25547755  1
  O  O380  1  0.11905218  0.25883282  0.74915532  1
  O  O381  1  0.12045106  0.74052286  0.26796805  1
  O  O382  1  0.11805086  0.76345739  0.74187260  1
  O  O383  1  0.62248408  0.25582568  0.25640330  1
  O  O384  1  0.61892980  0.25678049  0.75286120  1
  O  O385  1  0.62747724  0.75194824  0.25375535  1
  O  O386  1  0.61554903  0.75995793  0.74673840  1
  O  O387  1  0.37522849  0.25680291  0.23567949  1
  O  O388  1  0.38548066  0.24975789  0.74150130  1
  O  O389  1  0.36851177  0.73232465  0.25442458  1
  O  O390  1  0.39550787  0.75276695  0.74619013  1
  O  O391  1  0.87844752  0.25720948  0.23660890  1
  O  O392  1  0.88398315  0.24806448  0.74037496  1
  O  O393  1  0.87691663  0.73873617  0.24432503  1
  O  O394  1  0.88001172  0.74290131  0.73582992  1
  O  O395  1  0.37226673  0.49794221  0.48556106  1
  O  O396  1  0.38450520  0.49759417  0.99382340  1
  O  O397  1  0.37105797  0.99087328  0.48629443  1
  O  O398  1  0.37630612  0.97736335  1.00495113  1
  O  O399  1  0.87313351  0.50822187  0.48547677  1
  O  O400  1  0.88281812  0.48329083  1.00364647  1
  O  O401  1  0.88830778  1.00578505  0.49486221  1
  O  O402  1  0.87712953  0.99680250  0.98812843  1
  O  O403  1  0.10851296  -0.00083453  -0.00379630  1
  O  O404  1  0.11753521  0.00709090  0.50435536  1
  O  O405  1  0.11128491  0.48900408  0.01041728  1
  O  O406  1  0.12911642  0.51288956  0.50696364  1
  O  O407  1  0.62013294  0.00974552  0.01222156  1
  O  O408  1  0.63599854  0.00772263  0.50828409  1
  O  O409  1  0.60804403  0.50093310  -0.00282231  1
  O  O410  1  0.63708437  0.52059914  0.50710472  1
  O  O411  1  0.36657785  0.37135283  0.11989950  1
  O  O412  1  0.36682493  0.36778840  0.63089455  1
  O  O413  1  0.35890431  0.87126824  0.12131444  1
  O  O414  1  0.36963736  0.87348939  0.61598768  1
  O  O415  1  0.86089149  0.36948909  0.12129673  1
  O  O416  1  0.86837062  0.36243890  0.62719749  1
  O  O417  1  0.86773879  0.87033868  0.12040289  1
  O  O418  1  0.86723366  0.86515823  0.63013360  1
  O  O419  1  0.13207620  0.13074359  0.38329893  1
  O  O420  1  0.14162178  0.12989017  0.87244409  1
  O  O421  1  0.13468716  0.62623615  0.38311866  1
  O  O422  1  0.13382352  0.62171831  0.86905242  1
  O  O423  1  0.63341139  0.13065812  0.37997997  1
  O  O424  1  0.63147274  0.12456354  0.88307618  1
  O  O425  1  0.63044344  0.63169102  0.38101686  1
  O  O426  1  0.63610129  0.61590217  0.89112415  1
