# generated using pymatgen
data_V85Zn86O256
_symmetry_space_group_name_H-M   'P 1'
_cell_length_a   16.93376084
_cell_length_b   16.94086019
_cell_length_c   16.95526777
_cell_angle_alpha   89.96048002
_cell_angle_beta   90.04014067
_cell_angle_gamma   90.01085145
_symmetry_Int_Tables_number   1
_chemical_formula_structural   V85Zn86O256
_chemical_formula_sum   'V85 Zn86 O256'
_cell_volume   4863.99718844
_cell_formula_units_Z   1
loop_
 _symmetry_equiv_pos_site_id
 _symmetry_equiv_pos_as_xyz
  1  'x, y, z'
loop_
 _atom_site_type_symbol
 _atom_site_label
 _atom_site_symmetry_multiplicity
 _atom_site_fract_x
 _atom_site_fract_y
 _atom_site_fract_z
 _atom_site_occupancy
  V  V0  1  0.12640604  0.75300350  0.87819291  1
  V  V1  1  0.00245863  0.24440418  0.24798771  1
  V  V2  1  0.87291750  0.87799280  0.49894330  1
  V  V3  1  0.37558860  0.24598432  0.62788070  1
  V  V4  1  0.12620772  0.37725283  0.75045401  1
  V  V5  1  0.12815223  0.25076240  0.87585007  1
  V  V6  1  0.87710988  0.00146359  0.87519423  1
  V  V7  1  0.62166717  0.87484467  0.74796335  1
  V  V8  1  0.87244416  0.74936771  0.63133136  1
  V  V9  1  0.87749666  0.11866844  0.24873984  1
  V  V10  1  0.88177424  0.24385273  0.62475173  1
  V  V11  1  0.25008474  0.87163172  0.11477783  1
  V  V12  1  0.12092806  0.25287186  0.37834058  1
  V  V13  1  0.50706817  0.74813500  0.25409244  1
  V  V14  1  0.62295717  0.88631616  0.24864387  1
  V  V15  1  0.24770966  0.24451525  0.50025787  1
  V  V16  1  0.62521393  0.49447341  0.13423446  1
  V  V17  1  0.75488332  0.11689818  0.37420623  1
  V  V18  1  0.13066587  0.87705922  0.74664239  1
  V  V19  1  -0.00886452  0.62205019  0.63364479  1
  V  V20  1  0.00256461  0.61930797  0.12496874  1
  V  V21  1  0.74815784  0.87101498  0.61971400  1
  V  V22  1  0.12910305  0.00408734  0.12957635  1
  V  V23  1  0.50155643  0.49924583  0.50204799  1
  V  V24  1  0.36948892  0.74321070  0.62492950  1
  V  V25  1  0.12108494  0.12538584  0.00570697  1
  V  V26  1  -0.00430304  0.38027052  0.87116180  1
  V  V27  1  -0.00021904  0.75512644  0.24815881  1
  V  V28  1  0.49992601  0.62353806  0.12340147  1
  V  V29  1  0.88171081  0.12348077  0.74796852  1
  V  V30  1  0.50722024  0.37189520  0.36908687  1
  V  V31  1  0.25104996  0.62711904  0.87522442  1
  V  V32  1  0.49753601  0.00053509  0.49693913  1
  V  V33  1  0.62458661  0.74468275  0.86930379  1
  V  V34  1  0.74977777  0.25313793  0.49692199  1
  V  V35  1  0.37478721  0.62675129  0.25007753  1
  V  V36  1  0.10786412  0.62376980  0.50024345  1
  V  V37  1  -0.00681727  0.88428288  0.37657242  1
  V  V38  1  0.76835934  0.49811055  0.75132316  1
  V  V39  1  0.74341558  0.36994136  0.62985090  1
  V  V40  1  0.24487350  0.50232361  0.24576044  1
  V  V41  1  0.24744252  0.37795444  0.12584828  1
  V  V42  1  0.25178013  0.25101697  0.00605516  1
  V  V43  1  0.62733772  0.25241888  0.86994287  1
  V  V44  1  0.36931100  -0.00106142  0.36605517  1
  V  V45  1  0.37290867  0.49971959  0.37447606  1
  V  V46  1  0.11726775  0.38152755  0.25238861  1
  V  V47  1  0.37361321  0.13969161  0.24610184  1
  V  V48  1  0.13431159  0.88110962  0.25366806  1
  V  V49  1  0.75129917  0.25271736  -0.00273768  1
  V  V50  1  0.76583964  0.62041208  0.86974467  1
  V  V51  1  0.87420306  0.38236264  -0.00186060  1
  V  V52  1  0.00496835  0.49947229  -0.00032837  1
  V  V53  1  0.62512211  0.49733693  0.63492430  1
  V  V54  1  0.62401244  0.11539603  0.00660582  1
  V  V55  1  0.37803263  0.37262166  0.00371546  1
  V  V56  1  0.74785495  0.88207925  0.12343704  1
  V  V57  1  0.62470155  0.61992782  0.00031687  1
  V  V58  1  0.24636592  0.62330569  0.37574876  1
  V  V59  1  0.37648379  0.50709996  0.87158408  1
  V  V60  1  0.12015425  0.49652722  0.61456649  1
  V  V61  1  0.25266969  0.50458400  0.74795035  1
  V  V62  1  -0.00022316  0.01490238  0.50468551  1
  V  V63  1  0.11867558  0.75248216  0.37702284  1
  V  V64  1  0.37179867  0.37349169  0.50015223  1
  V  V65  1  0.13041253  0.62474551  0.00292924  1
  V  V66  1  0.88173397  0.24532578  0.12217400  1
  V  V67  1  0.50127021  0.24983589  0.74935594  1
  V  V68  1  0.63187439  0.63546019  0.49675614  1
  V  V69  1  0.24407268  0.12044081  0.37411483  1
  V  V70  1  0.49638777  0.62261086  0.62966248  1
  V  V71  1  0.37131454  0.75360521  0.11671747  1
  V  V72  1  0.00278439  0.00243027  0.00495246  1
  V  V73  1  0.50392453  0.87010868  0.37578279  1
  V  V74  1  0.75032096  0.11882203  0.87378901  1
  V  V75  1  0.12670460  0.01701601  0.62635076  1
  V  V76  1  0.62406930  0.12515013  0.49785408  1
  V  V77  1  0.24596660  0.74884149  0.50118578  1
  V  V78  1  0.49310382  0.74750261  0.75325038  1
  V  V79  1  0.25657244  0.11113653  0.87370244  1
  V  V80  1  0.00216006  0.87586888  0.87318764  1
  V  V81  1  0.75154272  0.75006648  -0.00072347  1
  V  V82  1  0.74795461  0.37354369  0.13507332  1
  V  V83  1  0.50345177  0.37583720  0.87239675  1
  V  V84  1  0.87620503  0.74994486  0.12518660  1
  Zn  Zn85  1  0.88368150  0.49280247  0.37880337  1
  Zn  Zn86  1  0.87420380  0.87694019  -0.00189471  1
  Zn  Zn87  1  0.42822173  -0.04718977  0.83974352  1
  Zn  Zn88  1  0.47356923  0.98625877  0.01088609  1
  Zn  Zn89  1  0.50585161  0.26014172  0.23141998  1
  Zn  Zn90  1  0.49995234  0.12417986  0.12559296  1
  Zn  Zn91  1  0.74849884  -0.00106762  0.74642211  1
  Zn  Zn92  1  0.88961476  0.37657289  0.49960065  1
  Zn  Zn93  1  0.25190701  0.37473884  0.62639260  1
  Zn  Zn94  1  0.37026299  0.87370128  0.49607754  1
  Zn  Zn95  1  0.75547313  0.62835742  0.37375589  1
  Zn  Zn96  1  0.62829031  0.25285058  0.36615548  1
  Zn  Zn97  1  0.62529578  -0.00111663  0.62271262  1
  Zn  Zn98  1  0.50029509  0.12187933  0.62688299  1
  Zn  Zn99  1  0.00314439  0.24440173  0.75008810  1
  Zn  Zn100  1  0.24808732  0.88086877  0.62523366  1
  Zn  Zn101  1  0.74947676  0.50001993  0.25885962  1
  Zn  Zn102  1  0.75144563  0.00104287  0.24942360  1
  Zn  Zn103  1  0.87083839  0.61708530  0.25062976  1
  Zn  Zn104  1  0.50070728  0.49967878  -0.00105753  1
  Zn  Zn105  1  -0.00479903  0.74603378  0.75457450  1
  Zn  Zn106  1  0.37342546  0.11068933  0.75205681  1
  Zn  Zn107  1  0.19083024  0.18826625  0.18989976  1
  Zn  Zn108  1  0.19274116  0.18811779  0.69271767  1
  Zn  Zn109  1  0.18489637  0.69099098  0.18760356  1
  Zn  Zn110  1  0.18085099  0.68556895  0.68953451  1
  Zn  Zn111  1  0.68770937  0.19259264  0.18952131  1
  Zn  Zn112  1  0.68760477  0.18422801  0.68726148  1
  Zn  Zn113  1  0.68733267  0.68813243  0.18967257  1
  Zn  Zn114  1  0.69022770  0.68296820  0.68373667  1
  Zn  Zn115  1  0.30841992  0.31515939  0.31623852  1
  Zn  Zn116  1  0.31476716  0.31366536  0.81465622  1
  Zn  Zn117  1  0.31419313  0.81007432  0.31163128  1
  Zn  Zn118  1  0.30777560  0.80532472  0.80555622  1
  Zn  Zn119  1  0.81775632  0.31188887  0.31539172  1
  Zn  Zn120  1  0.81326105  0.31375727  0.80939073  1
  Zn  Zn121  1  0.80606016  0.81016170  0.31141025  1
  Zn  Zn122  1  0.80922639  0.81535251  0.81154784  1
  Zn  Zn123  1  0.04839523  0.42846259  0.43902966  1
  Zn  Zn124  1  0.18716671  0.43997425  0.93756141  1
  Zn  Zn125  1  0.18140628  0.94032347  0.44369678  1
  Zn  Zn126  1  0.29250874  0.93052731  0.94173971  1
  Zn  Zn127  1  0.69280301  0.44414247  0.44260787  1
  Zn  Zn128  1  0.68917390  0.43836582  0.93435016  1
  Zn  Zn129  1  0.68615326  0.93583602  0.43556965  1
  Zn  Zn130  1  0.60309413  0.92765718  0.93932600  1
  Zn  Zn131  1  0.30777987  0.06279181  0.06741846  1
  Zn  Zn132  1  0.31239664  0.06246697  0.56079110  1
  Zn  Zn133  1  0.31501650  0.56173291  0.06087856  1
  Zn  Zn134  1  0.30797782  0.56253563  0.56080579  1
  Zn  Zn135  1  0.81131276  0.06425247  0.06021824  1
  Zn  Zn136  1  0.81142072  0.05915283  0.56271517  1
  Zn  Zn137  1  0.81303930  0.56140561  0.06581660  1
  Zn  Zn138  1  0.81538291  0.55881415  0.55710085  1
  Zn  Zn139  1  0.43446977  0.43826013  0.18597061  1
  Zn  Zn140  1  0.43694445  0.43352045  0.68998014  1
  Zn  Zn141  1  0.43566021  0.94239160  0.18430719  1
  Zn  Zn142  1  0.43567566  0.93115421  0.67371207  1
  Zn  Zn143  1  0.93692708  0.43669302  0.19069284  1
  Zn  Zn144  1  0.94024016  0.42899898  0.67099573  1
  Zn  Zn145  1  0.93917779  0.93615771  0.18429197  1
  Zn  Zn146  1  0.94015262  0.94030448  0.68610480  1
  Zn  Zn147  1  0.06075054  0.06504915  0.31503679  1
  Zn  Zn148  1  0.06849920  0.06034948  0.81436572  1
  Zn  Zn149  1  0.05626355  0.56739205  0.31175939  1
  Zn  Zn150  1  0.06250655  0.56048228  0.81161553  1
  Zn  Zn151  1  0.55926476  0.06628611  0.31325672  1
  Zn  Zn152  1  0.56373936  0.06502031  0.81386222  1
  Zn  Zn153  1  0.56491944  0.56110866  0.31597870  1
  Zn  Zn154  1  0.56389682  0.56430873  0.81193163  1
  Zn  Zn155  1  0.43526742  0.18673165  0.43472004  1
  Zn  Zn156  1  0.43869972  0.18653129  0.94155875  1
  Zn  Zn157  1  0.43867121  0.68540810  0.44030968  1
  Zn  Zn158  1  0.44498462  0.80056069  0.94127336  1
  Zn  Zn159  1  0.93426683  0.19432090  0.43260494  1
  Zn  Zn160  1  0.93993281  0.19022983  0.93570280  1
  Zn  Zn161  1  0.89908137  0.70730882  0.42368563  1
  Zn  Zn162  1  0.93975081  0.68845089  0.93942515  1
  Zn  Zn163  1  0.06432111  0.31533230  0.06638974  1
  Zn  Zn164  1  0.06842665  0.29755266  0.57088323  1
  Zn  Zn165  1  0.06670562  0.81463190  0.05943145  1
  Zn  Zn166  1  0.05550544  0.81296165  0.56454081  1
  Zn  Zn167  1  0.56288132  0.30561126  0.06205946  1
  Zn  Zn168  1  0.56296522  0.31210651  0.56006834  1
  Zn  Zn169  1  0.56832431  0.80462294  0.07163559  1
  Zn  Zn170  1  0.55821596  0.81143778  0.56336256  1
  O  O171  1  0.13274543  0.11781498  0.11793346  1
  O  O172  1  0.12512125  0.11617437  0.63274993  1
  O  O173  1  0.11755159  0.63399933  0.11172683  1
  O  O174  1  0.11808261  0.61614556  0.61848504  1
  O  O175  1  0.63330538  0.12898783  0.10776612  1
  O  O176  1  0.62332325  0.12238450  0.61142874  1
  O  O177  1  0.62212914  0.61709478  0.11745658  1
  O  O178  1  0.61557857  0.61716231  0.61969094  1
  O  O179  1  0.38020863  0.38119049  0.38299574  1
  O  O180  1  0.38441759  0.38265268  0.88124448  1
  O  O181  1  0.38179019  0.88189443  0.37469678  1
  O  O182  1  0.36872320  0.86457429  0.88132511  1
  O  O183  1  0.87409463  0.37297865  0.38610308  1
  O  O184  1  0.88562396  0.36721662  0.88465224  1
  O  O185  1  0.88641284  0.87807610  0.38201415  1
  O  O186  1  0.88141423  0.88224872  0.87666730  1
  O  O187  1  0.25466445  0.00966743  0.38493220  1
  O  O188  1  0.24126617  0.01344872  0.87642681  1
  O  O189  1  0.25864440  0.50838174  0.36092478  1
  O  O190  1  0.25422405  0.50510933  0.86730021  1
  O  O191  1  0.74929965  0.01275920  0.37356520  1
  O  O192  1  0.75799918  0.01398247  0.87241538  1
  O  O193  1  0.75063204  0.50900653  0.37509490  1
  O  O194  1  0.74932269  0.50430650  0.85974133  1
  O  O195  1  0.25458906  0.49539275  0.13739829  1
  O  O196  1  0.24184637  0.49815294  0.63163022  1
  O  O197  1  0.23574139  0.98880839  0.12563329  1
  O  O198  1  0.23216106  0.99887887  0.61479812  1
  O  O199  1  0.74207706  0.48958787  0.12303628  1
  O  O200  1  0.74429369  0.49227606  0.63531904  1
  O  O201  1  0.75779308  0.98484313  0.12542704  1
  O  O202  1  0.74630007  0.98632870  0.62655318  1
  O  O203  1  0.01362806  0.36248814  0.23524955  1
  O  O204  1  0.00742013  0.37295771  0.75603253  1
  O  O205  1  0.00569452  0.87337768  0.25767270  1
  O  O206  1  0.00615153  0.87702346  0.76220738  1
  O  O207  1  0.49179832  0.37644468  0.26576691  1
  O  O208  1  0.49626022  0.36131639  0.75946667  1
  O  O209  1  0.50498858  0.86892058  0.25540706  1
  O  O210  1  0.51099511  0.86176613  0.74232247  1
  O  O211  1  0.48219315  0.12760266  0.25462365  1
  O  O212  1  0.49788679  0.13717895  0.74994291  1
  O  O213  1  0.49743879  0.63068519  0.24622011  1
  O  O214  1  0.50278803  0.63121654  0.73725214  1
  O  O215  1  0.99426441  0.13629074  0.25048306  1
  O  O216  1  0.98611438  0.12584836  0.76278606  1
  O  O217  1  1.00541838  0.63799928  0.23597566  1
  O  O218  1  1.00402297  0.62620669  0.73841185  1
  O  O219  1  0.36542918  0.26391343  -0.00784047  1
  O  O220  1  0.37273363  0.25453563  0.50796919  1
  O  O221  1  0.37966405  0.74573934  0.01803974  1
  O  O222  1  0.36235124  0.74712394  0.50459692  1
  O  O223  1  0.87279730  0.25747085  0.00490711  1
  O  O224  1  0.86508190  0.24647448  0.51001241  1
  O  O225  1  0.86939509  0.75108296  0.00862765  1
  O  O226  1  0.88814257  0.77182646  0.51797064  1
  O  O227  1  0.13635200  0.25089114  0.49210224  1
  O  O228  1  0.12997288  0.24657503  0.99537273  1
  O  O229  1  0.12670689  0.74308881  0.49672287  1
  O  O230  1  0.11998055  0.74006403  0.98599129  1
  O  O231  1  0.63166171  0.24167654  0.49605680  1
  O  O232  1  0.63355068  0.24450500  0.98619801  1
  O  O233  1  0.61706569  0.73358137  0.50523807  1
  O  O234  1  0.63311957  0.73659769  0.99333169  1
  O  O235  1  0.49589127  0.23952790  0.12010991  1
  O  O236  1  0.49457814  0.24958949  0.63284629  1
  O  O237  1  0.49285412  0.74253559  0.13589697  1
  O  O238  1  0.48998990  0.74101740  0.62999054  1
  O  O239  1  0.99152791  0.25071807  0.12940953  1
  O  O240  1  0.98575326  0.24376412  0.63128579  1
  O  O241  1  0.99374785  0.74626350  0.12458234  1
  O  O242  1  0.99287472  0.74100827  0.63178011  1
  O  O243  1  0.01042696  0.24663100  0.36436448  1
  O  O244  1  0.01362316  0.26149143  0.87623752  1
  O  O245  1  0.00179941  0.76241391  0.36947566  1
  O  O246  1  0.00522634  0.75786789  0.87449382  1
  O  O247  1  0.49904985  0.26725389  0.37993804  1
  O  O248  1  0.50669449  0.25615006  0.87019667  1
  O  O249  1  0.49139565  0.75950603  0.36781172  1
  O  O250  1  0.50982191  0.74254437  0.86288518  1
  O  O251  1  0.25788575  0.13780345  0.49009453  1
  O  O252  1  0.24069284  0.13532538  0.99259505  1
  O  O253  1  0.23857532  0.63269881  0.49496368  1
  O  O254  1  0.23903211  0.61497914  0.99085604  1
  O  O255  1  0.74473005  0.13070963  0.49446658  1
  O  O256  1  0.74736769  0.13491288  0.99096254  1
  O  O257  1  0.73287890  0.62361930  0.50931306  1
  O  O258  1  0.74705376  0.63123718  0.99421616  1
  O  O259  1  0.25310695  0.37214310  0.00702170  1
  O  O260  1  0.26587886  0.36193079  0.50201082  1
  O  O261  1  0.23609079  0.86600827  0.01611583  1
  O  O262  1  0.24513149  0.85905935  0.50032195  1
  O  O263  1  0.76009128  0.37132774  0.00049318  1
  O  O264  1  0.74386841  0.36097750  0.50957880  1
  O  O265  1  0.74760277  0.85716671  0.00758548  1
  O  O266  1  0.75984029  0.88182625  0.50620302  1
  O  O267  1  0.13412410  0.49208205  0.25219583  1
  O  O268  1  0.13190339  0.49246461  0.74359498  1
  O  O269  1  0.11524456  0.99338064  0.24088973  1
  O  O270  1  0.11751816  0.99279530  0.73470855  1
  O  O271  1  0.62528001  0.50021270  0.23701487  1
  O  O272  1  0.62739750  0.50242961  0.73782450  1
  O  O273  1  0.62506865  0.98965179  0.25358751  1
  O  O274  1  0.62404539  0.98852552  0.74634644  1
  O  O275  1  0.37397454  0.00725113  0.26401296  1
  O  O276  1  0.38609816  -0.00253497  0.74817165  1
  O  O277  1  0.36929251  0.50845788  0.25411621  1
  O  O278  1  0.36424005  0.49334414  0.75751481  1
  O  O279  1  0.87858678  0.01526470  0.24185725  1
  O  O280  1  0.87348362  0.00610995  0.75670906  1
  O  O281  1  0.86719661  0.49869765  0.24767879  1
  O  O282  1  0.86614578  0.49447518  0.74270735  1
  O  O283  1  0.12712954  0.36089740  0.36447759  1
  O  O284  1  0.12045538  0.37129718  0.86706911  1
  O  O285  1  0.11625757  0.87318274  0.37027436  1
  O  O286  1  0.11710450  0.86492473  0.86722217  1
  O  O287  1  0.60865391  0.37824052  0.38399662  1
  O  O288  1  0.61208332  0.36887752  0.88068711  1
  O  O289  1  0.61226543  0.87578308  0.36736117  1
  O  O290  1  0.63615285  0.85348011  0.86154432  1
  O  O291  1  0.36359741  0.12490314  0.14547258  1
  O  O292  1  0.37717012  0.13531783  0.62687308  1
  O  O293  1  0.37974701  0.62964129  0.13165956  1
  O  O294  1  0.38100042  0.63336406  0.61886502  1
  O  O295  1  0.86750610  0.13844076  0.13037660  1
  O  O296  1  0.86437049  0.13149005  0.63696259  1
  O  O297  1  0.88561677  0.63272227  0.12416142  1
  O  O298  1  0.88168110  0.63527794  0.61965064  1
  O  O299  1  0.24677690  0.25824922  0.11235993  1
  O  O300  1  0.25721348  0.25051727  0.61878678  1
  O  O301  1  0.25935829  0.75872419  0.13345912  1
  O  O302  1  0.25355201  0.74431771  0.61831787  1
  O  O303  1  0.75728157  0.25772364  0.11547845  1
  O  O304  1  0.75252825  0.25488002  0.62064067  1
  O  O305  1  0.75829039  0.75317681  0.11806879  1
  O  O306  1  0.75642477  0.76084591  0.62739065  1
  O  O307  1  0.24325172  0.24464649  0.38287620  1
  O  O308  1  0.23944084  0.25407670  0.88605505  1
  O  O309  1  0.24126598  0.74378124  0.38140189  1
  O  O310  1  0.24188214  0.73415610  0.87010597  1
  O  O311  1  0.74831940  0.24010739  0.38384587  1
  O  O312  1  0.74418497  0.24576440  0.87688231  1
  O  O313  1  0.78699597  0.73817473  0.39105327  1
  O  O314  1  0.74710735  0.74024179  0.88025423  1
  O  O315  1  0.01277342  0.11948780  -0.00656709  1
  O  O316  1  -0.00828403  0.11311928  0.49538400  1
  O  O317  1  0.00739373  0.61757461  0.00363153  1
  O  O318  1  0.00811562  0.63064293  0.51213155  1
  O  O319  1  0.51817069  0.12509481  -0.00362786  1
  O  O320  1  0.50659376  0.11773525  0.49703480  1
  O  O321  1  0.51355205  0.62110193  0.00975719  1
  O  O322  1  0.50365646  0.61739357  0.51144981  1
  O  O323  1  0.48962020  0.38017664  0.49505192  1
  O  O324  1  0.49203742  0.37669414  0.99230087  1
  O  O325  1  0.49743386  0.88040996  0.49114401  1
  O  O326  1  0.51610507  0.87230484  0.99798653  1
  O  O327  1  1.00372108  0.37359126  0.52267152  1
  O  O328  1  0.99723716  0.38258497  0.99511785  1
  O  O329  1  0.99577473  0.88473016  0.49261184  1
  O  O330  1  1.00158307  0.88341013  0.98862287  1
  O  O331  1  0.49290472  0.49152159  0.38075618  1
  O  O332  1  0.49383376  0.49383015  0.87298034  1
  O  O333  1  0.49145473  0.99275715  0.38134567  1
  O  O334  1  0.51750519  0.99445048  0.89111192  1
  O  O335  1  1.00282494  0.48510439  0.35794150  1
  O  O336  1  1.00363932  0.48780978  0.88150170  1
  O  O337  1  1.00848572  0.99454995  0.39042353  1
  O  O338  1  0.99946834  0.99416531  0.88475323  1
  O  O339  1  0.00949862  -0.00715296  0.11107559  1
  O  O340  1  0.00950752  0.00017341  0.61373051  1
  O  O341  1  -0.00099204  0.51246261  0.11722803  1
  O  O342  1  0.01036898  0.50889542  0.63210651  1
  O  O343  1  0.49541425  0.01002119  0.12033822  1
  O  O344  1  0.50197178  -0.00027613  0.60728037  1
  O  O345  1  0.50731857  0.50393848  0.12240955  1
  O  O346  1  0.50353401  0.50429858  0.62446562  1
  O  O347  1  0.24362442  0.38204869  0.24458329  1
  O  O348  1  0.24261619  0.38382462  0.75140911  1
  O  O349  1  0.23652279  0.87239734  0.24996718  1
  O  O350  1  0.23483819  0.87189123  0.74660769  1
  O  O351  1  0.75084535  0.36956427  0.23656839  1
  O  O352  1  0.75031762  0.38697420  0.74452202  1
  O  O353  1  0.74224212  0.87695751  0.24405645  1
  O  O354  1  0.73756366  0.87469905  0.74086712  1
  O  O355  1  0.26036003  0.13113385  0.26325837  1
  O  O356  1  0.25268172  0.12995372  0.76986927  1
  O  O357  1  0.25149283  0.62000556  0.25388486  1
  O  O358  1  0.24228725  0.61220833  0.75871927  1
  O  O359  1  0.75850139  0.12336981  0.25628507  1
  O  O360  1  0.75785705  0.12325036  0.75860608  1
  O  O361  1  0.75082358  0.62264379  0.25218435  1
  O  O362  1  0.74867469  0.60968829  0.75591323  1
  O  O363  1  0.36572184  0.11905609  0.36915171  1
  O  O364  1  0.35994303  0.13012315  0.87740842  1
  O  O365  1  0.36925710  0.62006735  0.37006884  1
  O  O366  1  0.36434469  0.60869648  0.87941687  1
  O  O367  1  0.86674995  0.13170243  0.36173160  1
  O  O368  1  0.86857926  0.12311482  0.87070986  1
  O  O369  1  0.88645059  0.61330718  0.36614074  1
  O  O370  1  0.86500901  0.62646888  0.87851236  1
  O  O371  1  0.13915670  0.37429473  0.13367440  1
  O  O372  1  0.12919670  0.37892261  0.63733393  1
  O  O373  1  0.12981949  0.87921289  0.13491579  1
  O  O374  1  0.12280906  0.87759060  0.63416961  1
  O  O375  1  0.63588573  0.38407841  0.11139355  1
  O  O376  1  0.63508813  0.38013931  0.62341488  1
  O  O377  1  0.63679263  0.86890883  0.13660409  1
  O  O378  1  0.63089614  0.87258221  0.62955624  1
  O  O379  1  0.11910927  0.25524255  0.25469527  1
  O  O380  1  0.12546715  0.25843276  0.75832642  1
  O  O381  1  0.11795380  0.76026785  0.25691124  1
  O  O382  1  0.12031546  0.75599329  0.76056438  1
  O  O383  1  0.61719928  0.24702952  0.25451829  1
  O  O384  1  0.61905987  0.24534171  0.76196379  1
  O  O385  1  0.61126664  0.75774526  0.24707511  1
  O  O386  1  0.61784486  0.74883680  0.75375837  1
  O  O387  1  0.37675412  0.24184995  0.25726372  1
  O  O388  1  0.38116211  0.24911177  0.74267301  1
  O  O389  1  0.38415954  0.74256983  0.24588473  1
  O  O390  1  0.38420862  0.74894686  0.74039534  1
  O  O391  1  0.88389570  0.24421913  0.24087971  1
  O  O392  1  0.87552426  0.24146472  0.74324076  1
  O  O393  1  0.88228187  0.75296903  0.23486184  1
  O  O394  1  0.87636966  0.75743466  0.73677815  1
  O  O395  1  0.37828817  0.49228839  0.49643150  1
  O  O396  1  0.37561242  0.48849272  0.99105568  1
  O  O397  1  0.38122679  0.99779821  0.49058594  1
  O  O398  1  0.36309120  1.00122850  0.99440204  1
  O  O399  1  0.87686243  0.49079167  0.49940987  1
  O  O400  1  0.88572202  0.48885911  1.00471394  1
  O  O401  1  0.88885360  0.99031934  0.50886678  1
  O  O402  1  0.88452167  1.00129962  0.99381147  1
  O  O403  1  0.11806108  0.01209890  0.01043444  1
  O  O404  1  0.11157377  0.00076373  0.51404708  1
  O  O405  1  0.11336960  0.50763597  -0.00290915  1
  O  O406  1  0.12537919  0.50646531  0.51027593  1
  O  O407  1  0.64349663  0.01767050  -0.00204137  1
  O  O408  1  0.61585968  0.00662458  0.49746948  1
  O  O409  1  0.62756872  0.51015962  0.00315220  1
  O  O410  1  0.61707658  0.50417230  0.51496804  1
  O  O411  1  0.36215510  0.38024183  0.11587250  1
  O  O412  1  0.37487854  0.36356273  0.61869971  1
  O  O413  1  0.36084927  0.86721915  0.13484924  1
  O  O414  1  0.36807747  0.85772247  0.61625894  1
  O  O415  1  0.86863859  0.36573374  0.11539252  1
  O  O416  1  0.86095588  0.36005382  0.62476134  1
  O  O417  1  0.86893867  0.86685233  0.12008706  1
  O  O418  1  0.86725964  0.87223118  0.62179507  1
  O  O419  1  0.13612151  0.13597443  0.36870742  1
  O  O420  1  0.13339530  0.13431594  0.88173764  1
  O  O421  1  0.12539327  0.63205044  0.38295798  1
  O  O422  1  0.13012749  0.62910643  0.88205108  1
  O  O423  1  0.63126437  0.12538597  0.38541419  1
  O  O424  1  0.63523130  0.13376340  0.88031860  1
  O  O425  1  0.62198379  0.62212041  0.39350524  1
  O  O426  1  0.63406478  0.63023369  0.88045805  1
