# generated using pymatgen
data_V85Zn86O256
_symmetry_space_group_name_H-M   'P 1'
_cell_length_a   16.95108318
_cell_length_b   16.95919386
_cell_length_c   16.96434660
_cell_angle_alpha   90.00190519
_cell_angle_beta   89.94887498
_cell_angle_gamma   89.97738371
_symmetry_Int_Tables_number   1
_chemical_formula_structural   V85Zn86O256
_chemical_formula_sum   'V85 Zn86 O256'
_cell_volume   4876.85215368
_cell_formula_units_Z   1
loop_
 _symmetry_equiv_pos_site_id
 _symmetry_equiv_pos_as_xyz
  1  'x, y, z'
loop_
 _atom_site_type_symbol
 _atom_site_label
 _atom_site_symmetry_multiplicity
 _atom_site_fract_x
 _atom_site_fract_y
 _atom_site_fract_z
 _atom_site_occupancy
  V  V0  1  -0.00120777  0.00043734  0.49783193  1
  V  V1  1  0.12585854  0.87581413  0.75113858  1
  V  V2  1  0.11863889  0.25104593  0.37399196  1
  V  V3  1  0.69264492  0.56848720  0.43345860  1
  V  V4  1  0.86051979  0.00477640  0.36824023  1
  V  V5  1  0.62504539  0.74622652  0.37023781  1
  V  V6  1  0.12963231  0.62522438  0.00313002  1
  V  V7  1  -0.00025930  0.87523067  0.87531471  1
  V  V8  1  0.38118829  0.88166483  0.00300463  1
  V  V9  1  0.62714435  0.88305590  0.25389326  1
  V  V10  1  0.37151217  0.12422267  0.23954097  1
  V  V11  1  0.51946729  0.61437779  0.62745271  1
  V  V12  1  0.38241547  0.63657998  0.25229586  1
  V  V13  1  0.74327970  0.74809115  0.49650818  1
  V  V14  1  0.23573176  -0.00491547  0.24728460  1
  V  V15  1  0.38335476  0.75526550  0.12648232  1
  V  V16  1  0.87522714  0.50582135  0.38341296  1
  V  V17  1  0.87549493  0.24818981  0.12196661  1
  V  V18  1  0.25787817  0.26764399  0.49592245  1
  V  V19  1  0.12591608  -0.00036352  0.62319508  1
  V  V20  1  -0.00670222  0.37629462  0.37918856  1
  V  V21  1  0.51360743  0.36447935  0.87908749  1
  V  V22  1  0.75003395  0.50413009  0.24843919  1
  V  V23  1  0.23752810  0.87666965  0.12826125  1
  V  V24  1  0.00018278  0.75247965  0.75008187  1
  V  V25  1  0.74357937  0.24876551  -0.01092406  1
  V  V26  1  0.11518397  0.38284840  0.24587534  1
  V  V27  1  0.12104126  0.13648744  0.00034081  1
  V  V28  1  0.50254491  0.23320722  0.74795404  1
  V  V29  1  0.24751012  0.12284378  0.37236039  1
  V  V30  1  0.62953123  0.13329991  0.51150982  1
  V  V31  1  0.62275298  0.11519964  -0.00798645  1
  V  V32  1  0.25400645  0.74926185  0.00181368  1
  V  V33  1  0.25625126  0.62524037  0.36897038  1
  V  V34  1  -0.00081048  0.11702914  0.12893575  1
  V  V35  1  0.50593028  0.63088746  0.12428267  1
  V  V36  1  0.50036929  0.00918111  0.50595179  1
  V  V37  1  0.37530765  0.00195923  0.37505313  1
  V  V38  1  0.25302696  0.35957535  0.11980945  1
  V  V39  1  0.13390038  0.49746930  0.64252649  1
  V  V40  1  0.67303138  0.21483080  0.33310735  1
  V  V41  1  -0.00677913  0.24717756  0.25035838  1
  V  V42  1  -0.00090775  0.49259675  0.50611817  1
  V  V43  1  0.75159160  0.37677179  0.11998740  1
  V  V44  1  0.12679683  0.62405076  0.49963767  1
  V  V45  1  0.25519937  0.75017640  0.49995239  1
  V  V46  1  0.00401007  0.75069046  0.24873588  1
  V  V47  1  0.75434153  0.25897402  0.49984706  1
  V  V48  1  0.50320016  0.87408409  0.87892422  1
  V  V49  1  0.17757638  0.30337418  0.81057900  1
  V  V50  1  0.87312649  0.87634764  0.49820955  1
  V  V51  1  0.49901767  0.50259438  0.00021699  1
  V  V52  1  0.00260930  0.50049868  0.00134314  1
  V  V53  1  0.49691931  0.12102904  0.11885453  1
  V  V54  1  0.61882111  0.87297181  0.75126691  1
  V  V55  1  0.38469591  0.74445709  0.63192164  1
  V  V56  1  0.87732073  0.37361115  -0.00490196  1
  V  V57  1  0.74665258  0.74007127  -0.00238323  1
  V  V58  1  0.74980665  0.88200216  0.12914193  1
  V  V59  1  0.87459347  0.75169817  0.62487832  1
  V  V60  1  0.25196617  0.87257835  0.62565969  1
  V  V61  1  0.62421333  0.73643320  0.87523569  1
  V  V62  1  0.00872902  -0.00324393  0.00480350  1
  V  V63  1  0.24200403  0.11882011  0.88209143  1
  V  V64  1  0.37925740  0.49843988  0.86758673  1
  V  V65  1  0.00213037  0.87598372  0.36968823  1
  V  V66  1  0.74619417  0.87832524  0.62676731  1
  V  V67  1  0.25641935  0.00285141  0.74910519  1
  V  V68  1  0.12523254  0.12785171  0.49942913  1
  V  V69  1  0.00154738  0.62619984  0.62760929  1
  V  V70  1  0.28249522  0.47513740  0.26037844  1
  V  V71  1  0.87068795  0.62708383  0.25119512  1
  V  V72  1  0.87862568  0.26175886  0.62461214  1
  V  V73  1  0.74439463  0.51067732  0.75303345  1
  V  V74  1  0.62188001  0.36957051  0.24683348  1
  V  V75  1  0.87144800  0.87651074  0.00019615  1
  V  V76  1  0.49893686  0.86855845  0.37352458  1
  V  V77  1  0.12603920  0.75357687  0.37330506  1
  V  V78  1  0.87507488  0.12565836  0.74748546  1
  V  V79  1  0.49421509  0.24824207  0.25261672  1
  V  V80  1  0.62662193  0.50492911  0.11916637  1
  V  V81  1  0.00340960  0.37047368  0.86559257  1
  V  V82  1  0.37990451  0.00489649  0.87447642  1
  V  V83  1  0.62861007  0.37088325  0.74232328  1
  V  V84  1  0.25466025  0.62132544  0.86982266  1
  Zn  Zn85  1  0.74901545  0.38505682  0.61692658  1
  Zn  Zn86  1  0.13475514  0.50204763  0.12781048  1
  Zn  Zn87  1  0.74966908  0.00099306  0.75221716  1
  Zn  Zn88  1  0.87452972  0.00293587  0.87299134  1
  Zn  Zn89  1  0.12974909  0.75023847  0.87589966  1
  Zn  Zn90  1  0.87398036  0.74957317  0.12591658  1
  Zn  Zn91  1  0.87003260  0.50970179  0.87757783  1
  Zn  Zn92  1  0.74931086  0.12520572  0.87011096  1
  Zn  Zn93  1  0.62174613  -0.00301299  0.12489254  1
  Zn  Zn94  1  0.25834023  0.38226598  0.64569496  1
  Zn  Zn95  1  0.84933677  0.12575798  0.25349400  1
  Zn  Zn96  1  0.40740996  0.44652127  0.39565411  1
  Zn  Zn97  1  0.38069995  0.36153996  0.00994861  1
  Zn  Zn98  1  0.37783126  0.87764123  0.50194550  1
  Zn  Zn99  1  0.61745909  0.00406477  0.62947530  1
  Zn  Zn100  1  0.86862660  0.62960594  0.75798671  1
  Zn  Zn101  1  0.38132374  0.62613472  0.75029769  1
  Zn  Zn102  1  0.38076906  0.25013419  0.63095327  1
  Zn  Zn103  1  0.00210464  0.62484210  0.12637224  1
  Zn  Zn104  1  0.00823785  0.24773305  0.74926353  1
  Zn  Zn105  1  0.00167097  0.12861332  0.62539368  1
  Zn  Zn106  1  0.48789827  0.49283216  0.51708649  1
  Zn  Zn107  1  0.17891523  0.18479725  0.18653742  1
  Zn  Zn108  1  0.21743065  0.17772204  0.67109135  1
  Zn  Zn109  1  0.19010152  0.69098416  0.18713667  1
  Zn  Zn110  1  0.18845999  0.68617298  0.68830712  1
  Zn  Zn111  1  0.68468987  0.18709913  0.16387665  1
  Zn  Zn112  1  0.69026092  0.19348558  0.68836164  1
  Zn  Zn113  1  0.68820644  0.69294509  0.18764146  1
  Zn  Zn114  1  0.68629830  0.69276276  0.68992730  1
  Zn  Zn115  1  0.30411254  0.30029821  0.30251637  1
  Zn  Zn116  1  0.34238327  0.28833762  0.85332977  1
  Zn  Zn117  1  0.31397433  0.81504042  0.31128121  1
  Zn  Zn118  1  0.31414746  0.81282278  0.81488126  1
  Zn  Zn119  1  0.81481267  0.32154774  0.31259106  1
  Zn  Zn120  1  0.81493678  0.31450349  0.81009637  1
  Zn  Zn121  1  0.81139015  0.81274683  0.31402081  1
  Zn  Zn122  1  0.80960268  0.81196157  0.81411544  1
  Zn  Zn123  1  0.18102489  0.44327234  0.43164747  1
  Zn  Zn124  1  0.19047079  0.44146331  0.93885644  1
  Zn  Zn125  1  0.18763991  0.93623520  0.43656392  1
  Zn  Zn126  1  0.18871507  0.93609531  0.94091789  1
  Zn  Zn127  1  0.58993712  0.40376590  0.42110585  1
  Zn  Zn128  1  0.68810075  0.44406956  0.93573254  1
  Zn  Zn129  1  0.68260429  0.93750382  0.44204545  1
  Zn  Zn130  1  0.69169670  0.93845173  0.93451797  1
  Zn  Zn131  1  0.30796077  0.05907910  0.06181662  1
  Zn  Zn132  1  0.31642062  0.07156820  0.56338712  1
  Zn  Zn133  1  0.31601876  0.55771838  0.06940590  1
  Zn  Zn134  1  0.31523659  0.55763428  0.55823109  1
  Zn  Zn135  1  0.81350429  0.06095229  0.06053863  1
  Zn  Zn136  1  0.81068159  0.06678150  0.56261210  1
  Zn  Zn137  1  0.81813401  0.56384125  0.06339266  1
  Zn  Zn138  1  0.81572144  0.56076443  0.57447623  1
  Zn  Zn139  1  0.43771897  0.43539334  0.18913580  1
  Zn  Zn140  1  0.43763700  0.42986590  0.68986259  1
  Zn  Zn141  1  0.43852507  0.93978433  0.19170740  1
  Zn  Zn142  1  0.43789913  0.93301544  0.68897758  1
  Zn  Zn143  1  0.93562989  0.44089259  0.18502575  1
  Zn  Zn144  1  0.93269851  0.44222148  0.69101102  1
  Zn  Zn145  1  0.93235119  0.93748518  0.19050747  1
  Zn  Zn146  1  0.93685488  0.94089284  0.68547682  1
  Zn  Zn147  1  0.05630749  0.06241093  0.31342264  1
  Zn  Zn148  1  0.06058657  0.06216680  0.81149646  1
  Zn  Zn149  1  0.05966455  0.56721847  0.31585501  1
  Zn  Zn150  1  0.05706439  0.56642645  0.81969865  1
  Zn  Zn151  1  0.55824808  0.06242843  0.31321344  1
  Zn  Zn152  1  0.56703131  0.05458386  0.81713305  1
  Zn  Zn153  1  0.55427276  0.55846615  0.30511157  1
  Zn  Zn154  1  0.55962932  0.56055494  0.80384216  1
  Zn  Zn155  1  0.43981268  0.18850067  0.43514698  1
  Zn  Zn156  1  0.44247681  0.18486622  0.94125455  1
  Zn  Zn157  1  0.44218370  0.67957309  0.44548989  1
  Zn  Zn158  1  0.44146099  0.68768615  0.94022714  1
  Zn  Zn159  1  0.93176662  0.18490705  0.43879531  1
  Zn  Zn160  1  0.94067721  0.18903788  0.93257556  1
  Zn  Zn161  1  0.93595454  0.68674718  0.43942165  1
  Zn  Zn162  1  0.93822131  0.69035512  0.93975829  1
  Zn  Zn163  1  0.06132846  0.31380998  0.06380326  1
  Zn  Zn164  1  0.06974935  0.31458922  0.56906391  1
  Zn  Zn165  1  0.06179682  0.80890235  0.06243418  1
  Zn  Zn166  1  0.06433914  0.81356160  0.55938024  1
  Zn  Zn167  1  0.56168363  0.30580677  0.06557292  1
  Zn  Zn168  1  0.55713477  0.30999190  0.56835254  1
  Zn  Zn169  1  0.56610045  0.81437855  0.06022397  1
  Zn  Zn170  1  0.56160547  0.81283666  0.55789563  1
  O  O171  1  0.10768165  0.12514944  0.11874593  1
  O  O172  1  0.12832439  0.11761730  0.61386821  1
  O  O173  1  0.12711937  0.62358419  0.11593325  1
  O  O174  1  0.12128233  0.61810004  0.61936821  1
  O  O175  1  0.61648749  0.11574140  0.11240864  1
  O  O176  1  0.62802138  0.12336566  0.61431796  1
  O  O177  1  0.61874232  0.61704509  0.13242591  1
  O  O178  1  0.61756218  0.62956034  0.62491355  1
  O  O179  1  0.35527354  0.40094441  0.30829567  1
  O  O180  1  0.39922664  0.38808583  0.87621721  1
  O  O181  1  0.38152932  0.88346098  0.37776727  1
  O  O182  1  0.38325413  0.87774141  0.88331818  1
  O  O183  1  0.88045596  0.39512463  0.37174737  1
  O  O184  1  0.88459926  0.37626847  0.88451885  1
  O  O185  1  0.88070900  0.88356122  0.38009326  1
  O  O186  1  0.88302464  0.87461171  0.88274156  1
  O  O187  1  0.25778719  0.00260216  0.36991378  1
  O  O188  1  0.25694821  0.00072396  0.87037721  1
  O  O189  1  0.24175427  0.51028672  0.35526594  1
  O  O190  1  0.26657464  0.50930504  0.88575435  1
  O  O191  1  0.76281472  -0.00608111  0.38124460  1
  O  O192  1  0.75744883  0.00464169  0.87139352  1
  O  O193  1  0.75613338  0.51098092  0.37115290  1
  O  O194  1  0.75302577  0.49769627  0.86078386  1
  O  O195  1  0.25286009  0.49163785  0.14852895  1
  O  O196  1  0.23829182  0.50250329  0.62711135  1
  O  O197  1  0.25272632  0.98875246  0.13561741  1
  O  O198  1  0.24783079  0.99160558  0.63248108  1
  O  O199  1  0.74416689  0.49736500  0.12590621  1
  O  O200  1  0.75427102  0.49622104  0.64320338  1
  O  O201  1  0.74804516  0.98602666  0.12155733  1
  O  O202  1  0.74730893  0.98549010  0.62113362  1
  O  O203  1  -0.00131343  0.36733246  0.25337505  1
  O  O204  1  -0.00208003  0.37739592  0.76300195  1
  O  O205  1  -0.00677117  0.86721503  0.26205293  1
  O  O206  1  0.00470618  0.87305008  0.75686391  1
  O  O207  1  0.51248436  0.36233813  0.23515273  1
  O  O208  1  0.51560857  0.37370794  0.76239799  1
  O  O209  1  0.50656398  0.87804114  0.26605182  1
  O  O210  1  0.51169106  0.87322022  0.75740523  1
  O  O211  1  0.48993195  0.12785406  0.24350047  1
  O  O212  1  0.51207415  0.13512195  0.75793836  1
  O  O213  1  0.49543433  0.62875329  0.23641393  1
  O  O214  1  0.49904592  0.62985699  0.73380357  1
  O  O215  1  0.99738746  0.13235876  0.24331272  1
  O  O216  1  0.99331138  0.12663690  0.74545949  1
  O  O217  1  0.99067123  0.63297292  0.24988767  1
  O  O218  1  1.00714725  0.63456298  0.73856253  1
  O  O219  1  0.36583497  0.25957951  -0.03618859  1
  O  O220  1  0.35876280  0.24455902  0.49615691  1
  O  O221  1  0.37236932  0.76004370  0.00750939  1
  O  O222  1  0.36490149  0.74951242  0.50767490  1
  O  O223  1  0.87199076  0.25656791  0.00304220  1
  O  O224  1  0.86293908  0.24268003  0.50986136  1
  O  O225  1  0.86649054  0.76098882  0.00100191  1
  O  O226  1  0.86434205  0.75454347  0.50353993  1
  O  O227  1  0.12631976  0.24475684  0.48998978  1
  O  O228  1  0.11678734  0.23567807  1.00168312  1
  O  O229  1  0.13718227  0.74425199  0.49642270  1
  O  O230  1  0.13380266  0.74175498  0.99942361  1
  O  O231  1  0.63525827  0.24069866  0.50302522  1
  O  O232  1  0.63504178  0.23617326  1.00737983  1
  O  O233  1  0.63611739  0.75288941  0.49038352  1
  O  O234  1  0.63813311  0.75355138  0.99039567  1
  O  O235  1  0.49998771  0.23117559  0.13125579  1
  O  O236  1  0.50058592  0.24413346  0.64274261  1
  O  O237  1  0.49270847  0.74533346  0.11857007  1
  O  O238  1  0.48708713  0.74428838  0.61681985  1
  O  O239  1  0.99324630  0.24311294  0.13258864  1
  O  O240  1  0.99346358  0.24992559  0.62553486  1
  O  O241  1  0.99680043  0.74952457  0.13590910  1
  O  O242  1  0.99691776  0.74499474  0.62705997  1
  O  O243  1  -0.00329023  0.25564581  0.36916181  1
  O  O244  1  0.00369110  0.26173485  0.87014250  1
  O  O245  1  0.00388140  0.75666142  0.37093940  1
  O  O246  1  0.00592606  0.76314795  0.87230014  1
  O  O247  1  0.49245964  0.24966111  0.35390567  1
  O  O248  1  0.51154770  0.26194586  0.87145119  1
  O  O249  1  0.51021402  0.75710630  0.38614873  1
  O  O250  1  0.51502391  0.75956196  0.88404376  1
  O  O251  1  0.23653550  0.12994656  0.48936595  1
  O  O252  1  0.23611011  0.11508334  0.99117631  1
  O  O253  1  0.24789256  0.63097046  0.48653079  1
  O  O254  1  0.24783659  0.62878682  0.99917524  1
  O  O255  1  0.73542904  0.13107335  0.49937107  1
  O  O256  1  0.74131639  0.13176453  1.00056377  1
  O  O257  1  0.74947698  0.62701962  0.49960014  1
  O  O258  1  0.75660299  0.64173038  1.00444688  1
  O  O259  1  0.24768187  0.38109471  0.01905161  1
  O  O260  1  0.25216618  0.36566951  0.47535060  1
  O  O261  1  0.25829343  0.86911772  0.00827799  1
  O  O262  1  0.25309972  0.86633153  0.50479423  1
  O  O263  1  0.75743022  0.37007461  0.00044999  1
  O  O264  1  0.74393722  0.35756011  0.49967659  1
  O  O265  1  0.75741780  0.86946027  0.00538705  1
  O  O266  1  0.75263913  0.86630950  0.50629924  1
  O  O267  1  0.11124949  0.48781402  0.24859066  1
  O  O268  1  0.12232893  0.50851176  0.74004906  1
  O  O269  1  0.13686994  1.00220002  0.25818811  1
  O  O270  1  0.12936728  0.99096075  0.74327767  1
  O  O271  1  0.63129219  0.48900170  0.23867581  1
  O  O272  1  0.63671845  0.48825202  0.75541066  1
  O  O273  1  0.62462863  0.98661028  0.25538753  1
  O  O274  1  0.62853749  0.98875808  0.74579651  1
  O  O275  1  0.36769989  0.00747174  0.25957051  1
  O  O276  1  0.36614089  -0.00920989  0.75979363  1
  O  O277  1  0.37865007  0.52572155  0.23762666  1
  O  O278  1  0.38243598  0.50489145  0.76479698  1
  O  O279  1  0.87060271  0.00372800  0.26320036  1
  O  O280  1  0.87284296  0.01048623  0.74807111  1
  O  O281  1  0.86963921  0.50816625  0.25618979  1
  O  O282  1  0.86119294  0.50285281  0.75519669  1
  O  O283  1  0.11294604  0.37085601  0.36496209  1
  O  O284  1  0.12333120  0.37026897  0.87339431  1
  O  O285  1  0.11360539  0.86716633  0.38089392  1
  O  O286  1  0.11859201  0.87515072  0.86898418  1
  O  O287  1  0.64582458  0.33894780  0.34689541  1
  O  O288  1  0.61640123  0.38017221  0.87085072  1
  O  O289  1  0.61915715  0.86732169  0.37152241  1
  O  O290  1  0.61836466  0.87246353  0.87024037  1
  O  O291  1  0.37971896  0.11680259  0.12986670  1
  O  O292  1  0.32703476  0.14951704  0.63997852  1
  O  O293  1  0.38192165  0.63873595  0.12906177  1
  O  O294  1  0.36894178  0.63836277  0.62803429  1
  O  O295  1  0.88030678  0.12919809  0.13075649  1
  O  O296  1  0.87693322  0.13291072  0.63293860  1
  O  O297  1  0.88052094  0.62850378  0.13567134  1
  O  O298  1  0.88596271  0.63390646  0.63153198  1
  O  O299  1  0.24337264  0.26066217  0.12830753  1
  O  O300  1  0.23049697  0.27173183  0.59731654  1
  O  O301  1  0.26255002  0.75768272  0.12138703  1
  O  O302  1  0.25484039  0.75381745  0.61727104  1
  O  O303  1  0.75920784  0.25804165  0.11095128  1
  O  O304  1  0.75877400  0.25419164  0.61478836  1
  O  O305  1  0.74874548  0.76054992  0.11242663  1
  O  O306  1  0.75346906  0.75906430  0.61815471  1
  O  O307  1  0.24004442  0.24179293  0.37826809  1
  O  O308  1  0.23528114  0.23461603  0.86448232  1
  O  O309  1  0.24741052  0.74646860  0.38115069  1
  O  O310  1  0.25241035  0.74301484  0.88568315  1
  O  O311  1  0.76438921  0.24723750  0.38848133  1
  O  O312  1  0.75610948  0.24847533  0.88653349  1
  O  O313  1  0.74237070  0.75115930  0.38508322  1
  O  O314  1  0.73934895  0.75448793  0.88822671  1
  O  O315  1  0.00140874  0.11517804  0.00647724  1
  O  O316  1  0.01125763  0.12023913  0.49898444  1
  O  O317  1  0.01172678  0.61900427  0.00223616  1
  O  O318  1  0.00529744  0.62123883  0.51211299  1
  O  O319  1  0.51297643  0.12401030  0.00354612  1
  O  O320  1  0.51442559  0.12170105  0.49376078  1
  O  O321  1  0.49736818  0.61694062  0.01453813  1
  O  O322  1  0.49752984  0.61683100  0.52168205  1
  O  O323  1  0.51036449  0.37984718  0.49656363  1
  O  O324  1  0.50459259  0.37923668  0.99310305  1
  O  O325  1  0.49972580  0.88537304  0.48861036  1
  O  O326  1  0.49275236  0.87434912  0.99319161  1
  O  O327  1  1.00583486  0.38750657  0.49764779  1
  O  O328  1  0.99449761  0.38028243  0.99460132  1
  O  O329  1  0.99320772  0.87835929  0.49032583  1
  O  O330  1  0.99394099  0.87764519  0.99522995  1
  O  O331  1  0.51519506  0.48122444  0.37355151  1
  O  O332  1  0.49900487  0.49939462  0.88510928  1
  O  O333  1  0.49050319  0.99593196  0.38347483  1
  O  O334  1  0.49135654  0.98592771  0.87151033  1
  O  O335  1  0.99389318  0.49834469  0.38664786  1
  O  O336  1  1.00528391  0.48961371  0.88894306  1
  O  O337  1  0.99301264  0.99109778  0.37940863  1
  O  O338  1  0.99739737  0.98807431  0.88295007  1
  O  O339  1  -0.00761964  0.00671826  0.11963732  1
  O  O340  1  0.00825773  -0.00001540  0.61404627  1
  O  O341  1  0.00256602  0.50054740  0.11184520  1
  O  O342  1  0.00633839  0.50783490  0.62232830  1
  O  O343  1  0.50224182  0.01366364  0.13210429  1
  O  O344  1  0.49639280  -0.00482236  0.60974098  1
  O  O345  1  0.50803687  0.50630037  0.12006331  1
  O  O346  1  0.50432115  0.51011875  0.63297799  1
  O  O347  1  0.23057754  0.37224154  0.24041894  1
  O  O348  1  0.24858830  0.35810559  0.76654881  1
  O  O349  1  0.25385303  0.88316215  0.24104565  1
  O  O350  1  0.24392196  0.88186628  0.74795584  1
  O  O351  1  0.74855206  0.38357312  0.23768331  1
  O  O352  1  0.73816454  0.37754570  0.75125052  1
  O  O353  1  0.74096906  0.86788040  0.24119156  1
  O  O354  1  0.74117470  0.87422491  0.74173343  1
  O  O355  1  0.25283091  0.11846161  0.25202122  1
  O  O356  1  0.23567572  0.10522127  0.76647474  1
  O  O357  1  0.25974120  0.63072069  0.25944633  1
  O  O358  1  0.25218756  0.63130465  0.76763562  1
  O  O359  1  0.73707096  0.16017382  0.26260391  1
  O  O360  1  0.75868993  0.12463775  0.74927999  1
  O  O361  1  0.76222258  0.62148262  0.24471941  1
  O  O362  1  0.74765300  0.61487686  0.74834454  1
  O  O363  1  0.36846632  0.11658305  0.36688518  1
  O  O364  1  0.36565607  0.10811957  0.88224653  1
  O  O365  1  0.36976158  0.63460740  0.36502875  1
  O  O366  1  0.37209072  0.61970886  0.87624802  1
  O  O367  1  0.87775670  0.10854387  0.37203402  1
  O  O368  1  0.87682266  0.12574111  0.86015810  1
  O  O369  1  0.88137992  0.61455967  0.36716456  1
  O  O370  1  0.89237911  0.62130024  0.86805967  1
  O  O371  1  0.12971017  0.37750332  0.13131789  1
  O  O372  1  0.12919829  0.39510210  0.62661810  1
  O  O373  1  0.13856726  0.86876075  0.12230816  1
  O  O374  1  0.13205615  0.87974063  0.62938953  1
  O  O375  1  0.63299244  0.37933957  0.12924718  1
  O  O376  1  0.62720516  0.37387091  0.64012809  1
  O  O377  1  0.62934981  0.87584665  0.13587077  1
  O  O378  1  0.62959739  0.87226707  0.63287613  1
  O  O379  1  0.10925182  0.25735050  0.25377557  1
  O  O380  1  0.13033949  0.24871889  0.73864899  1
  O  O381  1  0.11190141  0.74416834  0.25636410  1
  O  O382  1  0.11998237  0.75971382  0.75092094  1
  O  O383  1  0.61486127  0.24918167  0.23881061  1
  O  O384  1  0.61998260  0.26265021  0.75141720  1
  O  O385  1  0.62892852  0.75783801  0.26517449  1
  O  O386  1  0.63293602  0.75809935  0.76844306  1
  O  O387  1  0.37704422  0.23168303  0.24706286  1
  O  O388  1  0.40124487  0.24815142  0.76264470  1
  O  O389  1  0.37576847  0.74618758  0.24046797  1
  O  O390  1  0.37155599  0.75107876  0.73480063  1
  O  O391  1  0.88266261  0.24985889  0.24531483  1
  O  O392  1  0.87772271  0.24431282  0.74028530  1
  O  O393  1  0.88351824  0.74271464  0.25322569  1
  O  O394  1  0.88193633  0.75300146  0.74278260  1
  O  O395  1  0.37571419  0.49964011  0.48726317  1
  O  O396  1  0.38967889  0.49456225  1.00056686  1
  O  O397  1  0.37905591  1.00543832  0.49195718  1
  O  O398  1  0.36943265  0.98679493  0.99189250  1
  O  O399  1  0.88615355  0.50922206  0.49561175  1
  O  O400  1  0.88320444  0.49164095  0.99858874  1
  O  O401  1  0.88050061  0.99670298  0.49338193  1
  O  O402  1  0.88418414  0.98843849  0.99930452  1
  O  O403  1  0.11116519  -0.00034952  0.00157161  1
  O  O404  1  0.12015883  0.00750774  0.50139809  1
  O  O405  1  0.12094216  0.50788325  0.00515162  1
  O  O406  1  0.11676843  0.50816806  0.50365112  1
  O  O407  1  0.62979364  0.01202243  0.00141303  1
  O  O408  1  0.61745129  0.01317477  0.50059038  1
  O  O409  1  0.61750707  0.49671610  0.01250225  1
  O  O410  1  0.64296677  0.50128142  0.48483825  1
  O  O411  1  0.35925683  0.37256261  0.12733614  1
  O  O412  1  0.36862021  0.36437605  0.63378401  1
  O  O413  1  0.37531337  0.87082166  0.11985350  1
  O  O414  1  0.37066405  0.86221493  0.62218958  1
  O  O415  1  0.87249787  0.37090129  0.11245353  1
  O  O416  1  0.87321365  0.36513629  0.62747441  1
  O  O417  1  0.86741284  0.87166804  0.11881658  1
  O  O418  1  0.86797175  0.87056802  0.61800135  1
  O  O419  1  0.12581662  0.13130978  0.37919288  1
  O  O420  1  0.12973441  0.11314745  0.88837648  1
  O  O421  1  0.13318533  0.63267199  0.37946200  1
  O  O422  1  0.13521882  0.62505869  0.88780805  1
  O  O423  1  0.62231189  0.13837438  0.37871103  1
  O  O424  1  0.62814639  0.12210853  0.88841643  1
  O  O425  1  0.62740185  0.62649888  0.37416393  1
  O  O426  1  0.61774313  0.63852193  0.87274461  1
