# generated using pymatgen
data_V85Zn86O256
_symmetry_space_group_name_H-M   'P 1'
_cell_length_a   16.93965453
_cell_length_b   16.93931902
_cell_length_c   16.94529253
_cell_angle_alpha   89.99771694
_cell_angle_beta   89.92590871
_cell_angle_gamma   89.98580172
_symmetry_Int_Tables_number   1
_chemical_formula_structural   V85Zn86O256
_chemical_formula_sum   'V85 Zn86 O256'
_cell_volume   4862.38328733
_cell_formula_units_Z   1
loop_
 _symmetry_equiv_pos_site_id
 _symmetry_equiv_pos_as_xyz
  1  'x, y, z'
loop_
 _atom_site_type_symbol
 _atom_site_label
 _atom_site_symmetry_multiplicity
 _atom_site_fract_x
 _atom_site_fract_y
 _atom_site_fract_z
 _atom_site_occupancy
  V  V0  1  0.36517326  0.50429706  0.87533405  1
  V  V1  1  0.50243733  0.50826340  0.49907868  1
  V  V2  1  0.12132252  0.00383251  0.63000154  1
  V  V3  1  -0.00256703  0.87090439  0.37434729  1
  V  V4  1  0.25014932  0.73758064  -0.00610300  1
  V  V5  1  0.50622238  0.24258354  0.74456715  1
  V  V6  1  0.87768656  0.62052332  0.25621896  1
  V  V7  1  0.37517476  0.75154517  0.12476995  1
  V  V8  1  0.12811890  -0.00023922  0.12931028  1
  V  V9  1  0.37518060  0.37465106  -0.00039038  1
  V  V10  1  0.75305849  0.74649819  0.50423940  1
  V  V11  1  0.24702147  0.87621780  0.62916191  1
  V  V12  1  0.18089227  0.08337650  -0.05651373  1
  V  V13  1  0.62617832  0.51043578  0.62143377  1
  V  V14  1  0.87557525  0.74517127  0.62903637  1
  V  V15  1  0.74632287  0.37486779  0.62250361  1
  V  V16  1  0.01124146  0.75408870  0.25346813  1
  V  V17  1  0.35726931  0.11545931  0.25698141  1
  V  V18  1  0.74890176  0.24382136  0.49382179  1
  V  V19  1  0.62787092  0.50536452  0.12317350  1
  V  V20  1  0.87555048  0.25120010  0.62403299  1
  V  V21  1  -0.00209963  0.00209395  0.49683617  1
  V  V22  1  0.36618879  0.12369827  0.76077265  1
  V  V23  1  0.63871452  0.88418596  0.74081816  1
  V  V24  1  0.87349437  0.12864063  0.25028670  1
  V  V25  1  0.50428613  0.62605169  0.12362103  1
  V  V26  1  0.62472310  0.37557188  0.24981160  1
  V  V27  1  0.12931621  0.26035321  0.87135452  1
  V  V28  1  0.00155017  0.62397039  0.62750338  1
  V  V29  1  -0.00811101  0.87084499  0.87626710  1
  V  V30  1  0.24992733  0.24972595  -0.00402509  1
  V  V31  1  0.62967393  0.87500271  0.24952233  1
  V  V32  1  0.50104433  0.88484219  0.37708964  1
  V  V33  1  0.24602869  0.75100385  0.49709929  1
  V  V34  1  0.85999031  0.00138422  0.87671463  1
  V  V35  1  0.36320072  0.62555188  0.75170505  1
  V  V36  1  0.25123031  0.50229886  0.25291716  1
  V  V37  1  0.50147016  0.75082518  0.25262078  1
  V  V38  1  0.86045437  0.12784511  0.75744872  1
  V  V39  1  0.87737281  0.37601116  0.48351410  1
  V  V40  1  0.13193082  0.24712076  0.37274114  1
  V  V41  1  0.75671840  0.87738635  0.12067643  1
  V  V42  1  0.37230192  0.37462252  0.49971327  1
  V  V43  1  0.62858660  0.74471919  0.37948593  1
  V  V44  1  0.73953811  0.24806631  -0.01297687  1
  V  V45  1  0.62722788  0.24056299  0.37290917  1
  V  V46  1  -0.00304872  0.49564148  0.48639918  1
  V  V47  1  0.50469754  0.37447115  0.86976061  1
  V  V48  1  0.75132082  0.74889461  0.00162333  1
  V  V49  1  0.12194106  0.37819633  0.25684358  1
  V  V50  1  0.75268841  0.61704577  0.37907530  1
  V  V51  1  0.50399213  0.50502123  -0.00260222  1
  V  V52  1  0.87761103  0.62490173  0.75542075  1
  V  V53  1  -0.00378644  0.00193582  -0.00508534  1
  V  V54  1  0.74340915  0.62167135  0.88070131  1
  V  V55  1  0.62325067  0.74799223  0.88157497  1
  V  V56  1  -0.00162804  0.25487457  0.25493055  1
  V  V57  1  0.00497068  0.62639682  0.12242726  1
  V  V58  1  0.11219181  0.87208361  0.74958988  1
  V  V59  1  0.75447794  0.37646800  0.11949126  1
  V  V60  1  0.00347472  0.25657171  0.74977265  1
  V  V61  1  0.00553277  0.12718479  0.11873053  1
  V  V62  1  0.75046541  0.00601439  0.24701401  1
  V  V63  1  0.87116073  0.00044676  0.36928412  1
  V  V64  1  -0.00377192  0.49019694  0.00181629  1
  V  V65  1  0.61920183  0.11325416  0.50645240  1
  V  V66  1  0.12248070  0.62781105  0.49383458  1
  V  V67  1  0.50031133  0.37562778  0.37583082  1
  V  V68  1  0.24593402  0.87489198  0.12527697  1
  V  V69  1  0.37419910  0.87872417  -0.00540022  1
  V  V70  1  0.49629399  0.24539805  0.24820518  1
  V  V71  1  0.24952289  0.37239063  0.63479011  1
  V  V72  1  0.37485489  0.74867787  0.62083842  1
  V  V73  1  0.12373131  0.49354240  0.62877224  1
  V  V74  1  0.87621006  0.25459045  0.11240864  1
  V  V75  1  0.49806719  0.88094946  0.87485571  1
  V  V76  1  0.87809408  0.75219755  0.12268466  1
  V  V77  1  0.50237883  0.74655659  0.75036111  1
  V  V78  1  0.25273558  0.37383014  0.12735995  1
  V  V79  1  0.85624563  0.89820745  0.53315561  1
  V  V80  1  0.42985511  0.92991241  0.54532979  1
  V  V81  1  0.37552711  0.62932738  0.25301703  1
  V  V82  1  0.74882022  0.49943296  0.75067899  1
  V  V83  1  0.12311097  0.74285802  0.86984040  1
  V  V84  1  0.13080964  0.12544555  0.49498108  1
  Zn  Zn85  1  0.24573779  0.00510083  0.76836458  1
  Zn  Zn86  1  0.24179808  0.49871148  0.75529649  1
  Zn  Zn87  1  0.37535694  0.24519448  0.62167487  1
  Zn  Zn88  1  0.35119510  -0.00168503  0.37688470  1
  Zn  Zn89  1  0.86969294  0.49385319  0.88488076  1
  Zn  Zn90  1  0.75566590  0.49707310  0.25394642  1
  Zn  Zn91  1  0.16396497  0.90971116  0.28857727  1
  Zn  Zn92  1  0.25450836  0.24651498  0.49616276  1
  Zn  Zn93  1  0.62516362  0.11961141  -0.00488310  1
  Zn  Zn94  1  0.24617264  0.63264659  0.37305943  1
  Zn  Zn95  1  0.37504199  0.50317960  0.37702074  1
  Zn  Zn96  1  0.62433717  0.00083356  0.11926969  1
  Zn  Zn97  1  0.50132327  0.62579826  0.62212502  1
  Zn  Zn98  1  0.12585964  0.62080360  -0.00821431  1
  Zn  Zn99  1  0.49547436  0.10759705  0.62152601  1
  Zn  Zn100  1  0.62600477  0.37207803  0.75225958  1
  Zn  Zn101  1  -0.00197780  0.12731467  0.62580049  1
  Zn  Zn102  1  -0.00443331  0.37539417  0.87244943  1
  Zn  Zn103  1  0.12722691  0.50189508  0.12392389  1
  Zn  Zn104  1  0.50115964  0.11457743  0.12930789  1
  Zn  Zn105  1  0.37654571  0.24221531  0.12235915  1
  Zn  Zn106  1  0.49953050  0.00197833  0.00161166  1
  Zn  Zn107  1  0.18693843  0.18824359  0.18485085  1
  Zn  Zn108  1  0.18826378  0.19006161  0.68654402  1
  Zn  Zn109  1  0.18828828  0.69222473  0.18682998  1
  Zn  Zn110  1  0.18293765  0.68770950  0.68513185  1
  Zn  Zn111  1  0.68524881  0.18736638  0.17894097  1
  Zn  Zn112  1  0.68345222  0.18677529  0.68231349  1
  Zn  Zn113  1  0.69063182  0.68630879  0.19149472  1
  Zn  Zn114  1  0.68996376  0.69014736  0.69151226  1
  Zn  Zn115  1  0.31492737  0.31161525  0.31364877  1
  Zn  Zn116  1  0.32121776  0.30816005  0.81344299  1
  Zn  Zn117  1  0.30971259  0.82892818  0.32188545  1
  Zn  Zn118  1  0.30850731  0.81193066  0.81067146  1
  Zn  Zn119  1  0.80865274  0.31055593  0.30737519  1
  Zn  Zn120  1  0.81648164  0.31824371  0.81258446  1
  Zn  Zn121  1  0.81704292  0.81147896  0.31178417  1
  Zn  Zn122  1  0.81312066  0.81094317  0.81338150  1
  Zn  Zn123  1  0.18627421  0.43928332  0.43797161  1
  Zn  Zn124  1  0.18280502  0.43646736  0.93982731  1
  Zn  Zn125  1  0.18654043  0.93605083  0.45006237  1
  Zn  Zn126  1  0.18019309  0.91769495  0.94386737  1
  Zn  Zn127  1  0.68571936  0.43401746  0.43912396  1
  Zn  Zn128  1  0.68714576  0.43433258  0.94132328  1
  Zn  Zn129  1  0.69068319  0.93633253  0.43332645  1
  Zn  Zn130  1  0.68342735  0.93106505  0.93803341  1
  Zn  Zn131  1  0.32335620  0.06045379  0.06895062  1
  Zn  Zn132  1  0.30695651  0.06752182  0.57206129  1
  Zn  Zn133  1  0.31499274  0.56203690  0.06576088  1
  Zn  Zn134  1  0.31104674  0.56173874  0.56384363  1
  Zn  Zn135  1  0.81218629  0.06882021  0.05914448  1
  Zn  Zn136  1  0.80928117  0.06762759  0.56487310  1
  Zn  Zn137  1  0.81541360  0.56652511  0.06507837  1
  Zn  Zn138  1  0.81550155  0.56052234  0.55995890  1
  Zn  Zn139  1  0.43810679  0.43853041  0.18845094  1
  Zn  Zn140  1  0.43609571  0.43811698  0.68621008  1
  Zn  Zn141  1  0.43470825  0.93772192  0.19022459  1
  Zn  Zn142  1  0.43459337  0.93969810  0.71266546  1
  Zn  Zn143  1  0.93837317  0.43906765  0.18606358  1
  Zn  Zn144  1  0.93438184  0.43835202  0.68394397  1
  Zn  Zn145  1  0.94109104  0.93716082  0.18525339  1
  Zn  Zn146  1  0.92324403  0.94624624  0.68770182  1
  Zn  Zn147  1  0.05860963  0.06686133  0.31081055  1
  Zn  Zn148  1  0.05092548  0.06610854  0.80725776  1
  Zn  Zn149  1  0.06311638  0.56538153  0.31201627  1
  Zn  Zn150  1  0.05882288  0.55775389  0.81139472  1
  Zn  Zn151  1  0.56491445  0.06409383  0.31004308  1
  Zn  Zn152  1  0.57549181  0.06207271  0.81305635  1
  Zn  Zn153  1  0.56579869  0.56263294  0.31288835  1
  Zn  Zn154  1  0.56170996  0.56184493  0.81009121  1
  Zn  Zn155  1  0.43753245  0.18295463  0.43366816  1
  Zn  Zn156  1  0.47775214  0.16919203  0.91766981  1
  Zn  Zn157  1  0.43686620  0.69154315  0.43738630  1
  Zn  Zn158  1  0.43603473  0.68645932  0.93649722  1
  Zn  Zn159  1  0.93950280  0.18721950  0.43423894  1
  Zn  Zn160  1  0.93857249  0.18872915  0.93387293  1
  Zn  Zn161  1  0.93515515  0.68920780  0.44081818  1
  Zn  Zn162  1  0.93621877  0.68463972  0.93912778  1
  Zn  Zn163  1  0.07082337  0.31091214  0.06487288  1
  Zn  Zn164  1  0.06145580  0.31374010  0.55967402  1
  Zn  Zn165  1  0.06166662  0.81362029  0.05661618  1
  Zn  Zn166  1  0.05577593  0.81347729  0.56181091  1
  Zn  Zn167  1  0.56171507  0.31573062  0.06375285  1
  Zn  Zn168  1  0.56189830  0.31338048  0.56139169  1
  Zn  Zn169  1  0.56486221  0.81649972  0.06278737  1
  Zn  Zn170  1  0.57119873  0.80676347  0.56551588  1
  O  O171  1  0.11341787  0.11931523  0.12752359  1
  O  O172  1  0.12071261  0.11849592  0.61821054  1
  O  O173  1  0.11310148  0.62685286  0.12606409  1
  O  O174  1  0.11812094  0.61670704  0.61708234  1
  O  O175  1  0.62054409  0.12081989  0.11723729  1
  O  O176  1  0.61862905  0.12254341  0.61162299  1
  O  O177  1  0.62134228  0.61329059  0.13251183  1
  O  O178  1  0.62498094  0.61408293  0.62855656  1
  O  O179  1  0.38238174  0.37899519  0.38115622  1
  O  O180  1  0.38392435  0.38542047  0.87986859  1
  O  O181  1  0.39829670  0.87526826  0.37882883  1
  O  O182  1  0.38412076  0.86244371  0.88233938  1
  O  O183  1  0.87019104  0.36946296  0.38431564  1
  O  O184  1  0.88226096  0.38265629  0.87338835  1
  O  O185  1  0.88136508  0.88666328  0.37501023  1
  O  O186  1  0.88102813  0.88968776  0.86638907  1
  O  O187  1  0.25246408  -0.06023472  0.36030369  1
  O  O188  1  0.22905528  0.00828977  0.88730043  1
  O  O189  1  0.25144855  0.50408269  0.36301859  1
  O  O190  1  0.26061089  0.49415640  0.87443834  1
  O  O191  1  0.76284262  -0.00267026  0.36266910  1
  O  O192  1  0.76175315  -0.00449375  0.88035855  1
  O  O193  1  0.74189276  0.51326828  0.37574434  1
  O  O194  1  0.74797057  0.50697037  0.87336062  1
  O  O195  1  0.24964416  0.49486422  0.13669971  1
  O  O196  1  0.24055488  0.49189108  0.62581008  1
  O  O197  1  0.23996883  0.98921076  0.11805788  1
  O  O198  1  0.23339630  0.99245988  0.62545392  1
  O  O199  1  0.74442652  0.49557306  0.12459252  1
  O  O200  1  0.74419926  0.49396242  0.62625553  1
  O  O201  1  0.75450334  0.99181857  0.12852037  1
  O  O202  1  0.82244433  0.96601634  0.61200999  1
  O  O203  1  0.01025038  0.36737521  0.24161240  1
  O  O204  1  -0.00539272  0.36066382  0.74429112  1
  O  O205  1  -0.00550201  0.86661183  0.25908210  1
  O  O206  1  0.00719335  0.88353143  0.75862410  1
  O  O207  1  0.50432291  0.37045139  0.25709024  1
  O  O208  1  0.50056459  0.36999679  0.75450996  1
  O  O209  1  0.50725700  0.86897380  0.26112449  1
  O  O210  1  0.50296528  0.86055879  0.75829074  1
  O  O211  1  0.49588497  0.13347191  0.25004774  1
  O  O212  1  0.49510992  0.13347594  0.74276167  1
  O  O213  1  0.49409550  0.63065320  0.24595272  1
  O  O214  1  0.49257798  0.63594787  0.74883571  1
  O  O215  1  0.99299513  0.13434403  0.23953631  1
  O  O216  1  0.98614577  0.13864071  0.74572119  1
  O  O217  1  0.99560997  0.63285819  0.24512974  1
  O  O218  1  0.98929276  0.61780924  0.74128712  1
  O  O219  1  0.36180142  0.26177406  0.00254759  1
  O  O220  1  0.37517898  0.25833969  0.49888465  1
  O  O221  1  0.36806246  0.75284089  0.00502529  1
  O  O222  1  0.36701384  0.74451486  0.51420091  1
  O  O223  1  0.86971120  0.24660269  0.00989746  1
  O  O224  1  0.86914317  0.25203068  0.50430699  1
  O  O225  1  0.86904852  0.74546519  0.01451434  1
  O  O226  1  0.86683862  0.75748890  0.51016044  1
  O  O227  1  0.12032559  0.24164525  0.48896624  1
  O  O228  1  0.13925326  0.25097982  0.99262741  1
  O  O229  1  0.13241275  0.74011301  0.51083536  1
  O  O230  1  0.13237045  0.74721767  0.98974842  1
  O  O231  1  0.63152169  0.24542128  0.49254705  1
  O  O232  1  0.63791652  0.25537334  1.00373379  1
  O  O233  1  0.64171805  0.75313148  0.49306211  1
  O  O234  1  0.63142730  0.75190977  0.98876607  1
  O  O235  1  0.49653552  0.25750120  0.14035840  1
  O  O236  1  0.49682290  0.25537408  0.63719543  1
  O  O237  1  0.49704733  0.74623826  0.13099327  1
  O  O238  1  0.49338410  0.74797250  0.63171658  1
  O  O239  1  0.99609925  0.24452828  0.12883703  1
  O  O240  1  0.99060675  0.24982526  0.62788734  1
  O  O241  1  0.99515008  0.74771320  0.12910893  1
  O  O242  1  0.99580403  0.72987603  0.61754451  1
  O  O243  1  0.00699266  0.24752303  0.35960702  1
  O  O244  1  0.00825178  0.25218465  0.86763070  1
  O  O245  1  -0.01058226  0.75897890  0.36624039  1
  O  O246  1  0.00168895  0.76398967  0.88343954  1
  O  O247  1  0.50681749  0.25526313  0.36559338  1
  O  O248  1  0.48967464  0.26475911  0.85444983  1
  O  O249  1  0.51090373  0.75576231  0.37340502  1
  O  O250  1  0.50793296  0.75072045  0.86957076  1
  O  O251  1  0.23481514  0.12499477  0.50108132  1
  O  O252  1  0.25371745  0.13197459  1.00365523  1
  O  O253  1  0.24077427  0.63249093  0.50144984  1
  O  O254  1  0.24844517  0.63328378  1.00297067  1
  O  O255  1  0.74031067  0.13711659  0.50602338  1
  O  O256  1  0.74778270  0.14374211  1.00143602  1
  O  O257  1  0.75857400  0.63370064  0.49110280  1
  O  O258  1  0.75326016  0.63597036  0.99389603  1
  O  O259  1  0.25303173  0.37175994  0.00945710  1
  O  O260  1  0.26283325  0.37763841  0.50197812  1
  O  O261  1  0.25668548  0.86043825  0.00664006  1
  O  O262  1  0.24042060  0.86405786  0.52165276  1
  O  O263  1  0.74866502  0.36741458  0.01294918  1
  O  O264  1  0.75613528  0.36542214  0.50446621  1
  O  O265  1  0.74889539  0.85971845  0.00740846  1
  O  O266  1  0.76207349  0.86811573  0.49502812  1
  O  O267  1  0.13211010  0.49478996  0.24867080  1
  O  O268  1  0.12432736  0.50237135  0.73477527  1
  O  O269  1  0.11539932  0.99901596  0.23512228  1
  O  O270  1  0.12362435  0.99632068  0.74421855  1
  O  O271  1  0.62725984  0.49250559  0.24243672  1
  O  O272  1  0.63060612  0.49695166  0.73992146  1
  O  O273  1  0.63735417  0.99424575  0.24967328  1
  O  O274  1  0.62127515  0.98420038  0.74868702  1
  O  O275  1  0.37244618  0.01067996  0.25547863  1
  O  O276  1  0.36397384  0.01502020  0.75419642  1
  O  O277  1  0.36894642  0.51074555  0.25125341  1
  O  O278  1  0.37422038  0.50958838  0.75794069  1
  O  O279  1  0.87222620  0.00873716  0.25063417  1
  O  O280  1  0.87808623  0.01848515  0.76432752  1
  O  O281  1  0.87571861  0.51564912  0.24570627  1
  O  O282  1  0.86578869  0.51054028  0.74696828  1
  O  O283  1  0.12768157  0.36948145  0.36274880  1
  O  O284  1  0.11815450  0.36436665  0.87550322  1
  O  O285  1  0.10158586  0.88094069  0.38424378  1
  O  O286  1  0.11276014  0.86499755  0.86779861  1
  O  O287  1  0.61967045  0.36524576  0.37012712  1
  O  O288  1  0.60887548  0.38381567  0.87324791  1
  O  O289  1  0.62186810  0.86460619  0.37070408  1
  O  O290  1  0.61664064  0.86378672  0.86701420  1
  O  O291  1  0.37631067  0.12600895  0.14481613  1
  O  O292  1  0.37939537  0.12680188  0.63372330  1
  O  O293  1  0.38202971  0.63059409  0.13607338  1
  O  O294  1  0.37723407  0.63211928  0.63311109  1
  O  O295  1  0.88444123  0.13269581  0.13212445  1
  O  O296  1  0.87355879  0.13861815  0.63293422  1
  O  O297  1  0.88707443  0.63291717  0.13228206  1
  O  O298  1  0.88181508  0.62835847  0.63094733  1
  O  O299  1  0.25147076  0.25847587  0.11864764  1
  O  O300  1  0.24977369  0.25974512  0.61668779  1
  O  O301  1  0.25511843  0.75184292  0.11282275  1
  O  O302  1  0.25772843  0.75678951  0.62421280  1
  O  O303  1  0.75967044  0.25917485  0.12202039  1
  O  O304  1  0.75414457  0.25761067  0.61652231  1
  O  O305  1  0.75760278  0.75286532  0.12054781  1
  O  O306  1  0.76108020  0.74163398  0.61669354  1
  O  O307  1  0.23581302  0.25439066  0.37665975  1
  O  O308  1  0.24339541  0.25648366  0.88254218  1
  O  O309  1  0.25501091  0.75334045  0.39362328  1
  O  O310  1  0.23690509  0.75535622  0.88188981  1
  O  O311  1  0.74074883  0.25250483  0.38215125  1
  O  O312  1  0.75091627  0.25995987  0.88933401  1
  O  O313  1  0.74673098  0.74348960  0.38083345  1
  O  O314  1  0.74517579  0.74357742  0.88364503  1
  O  O315  1  -0.00458999  0.11630700  0.00717888  1
  O  O316  1  0.00502822  0.11492447  0.50051443  1
  O  O317  1  0.00328414  0.61904382  0.00869166  1
  O  O318  1  0.00404873  0.61716103  0.50508904  1
  O  O319  1  0.48042642  0.11705101  0.01528240  1
  O  O320  1  0.51434371  0.12657076  0.50107043  1
  O  O321  1  0.49403739  0.61292158  0.00729638  1
  O  O322  1  0.49569015  0.61242972  0.49999779  1
  O  O323  1  0.49030448  0.38280704  0.49618671  1
  O  O324  1  0.49339511  0.38375706  0.99404604  1
  O  O325  1  0.50348550  0.87142851  0.49360253  1
  O  O326  1  0.49075190  0.86936710  0.99057778  1
  O  O327  1  0.98902705  0.38260768  0.50204088  1
  O  O328  1  1.00542641  0.38855749  1.00820520  1
  O  O329  1  0.98345195  0.88876176  0.49886061  1
  O  O330  1  1.00285527  0.89112901  0.99076995  1
  O  O331  1  0.50170462  0.49447844  0.38227931  1
  O  O332  1  0.49229573  0.49797508  0.88191848  1
  O  O333  1  0.50853249  0.98495846  0.37435381  1
  O  O334  1  0.49884596  0.98234953  0.87216472  1
  O  O335  1  1.00372303  0.50218031  0.38693742  1
  O  O336  1  1.00134217  0.49904637  0.89140025  1
  O  O337  1  0.99006234  0.99744979  0.37887029  1
  O  O338  1  0.99351605  0.99448576  0.88051571  1
  O  O339  1  0.00483129  0.00620693  0.11502939  1
  O  O340  1  0.00664401  0.00189995  0.61709209  1
  O  O341  1  0.00326144  0.50916252  0.11803292  1
  O  O342  1  0.00524518  0.50611193  0.61674039  1
  O  O343  1  0.50561536  -0.00802672  0.12387253  1
  O  O344  1  0.48302719  -0.01420456  0.61524069  1
  O  O345  1  0.50720616  0.50403482  0.11820340  1
  O  O346  1  0.50879817  0.50112232  0.61773089  1
  O  O347  1  0.24748644  0.38292120  0.24587969  1
  O  O348  1  0.25743196  0.37587025  0.73746505  1
  O  O349  1  0.24485995  0.85286917  0.22797699  1
  O  O350  1  0.23944704  0.88035114  0.74296805  1
  O  O351  1  0.74336307  0.37767235  0.23920398  1
  O  O352  1  0.74763375  0.38091409  0.73962378  1
  O  O353  1  0.75039944  0.88425485  0.24288703  1
  O  O354  1  0.73745218  0.87163476  0.75509227  1
  O  O355  1  0.25838793  0.12715588  0.25204379  1
  O  O356  1  0.26056098  0.12584252  0.74950846  1
  O  O357  1  0.25681828  0.62140899  0.25053950  1
  O  O358  1  0.26005274  0.62323866  0.74547636  1
  O  O359  1  0.75848554  0.11444996  0.24020568  1
  O  O360  1  0.76136186  0.13119771  0.74574770  1
  O  O361  1  0.76039025  0.62387257  0.25961242  1
  O  O362  1  0.75474902  0.61856876  0.76041629  1
  O  O363  1  0.37443703  0.11678917  0.36414947  1
  O  O364  1  0.38041041  0.13271837  0.85849585  1
  O  O365  1  0.37325570  0.62653348  0.36328293  1
  O  O366  1  0.37764742  0.61643344  0.86553032  1
  O  O367  1  0.88052836  0.12010477  0.35782136  1
  O  O368  1  0.87342039  0.11926776  0.86526766  1
  O  O369  1  0.86636619  0.63087023  0.36727683  1
  O  O370  1  0.86523543  0.62050239  0.86999015  1
  O  O371  1  0.13832127  0.37565398  0.13736336  1
  O  O372  1  0.13577705  0.38320744  0.61474982  1
  O  O373  1  0.13199946  0.88648900  0.11314866  1
  O  O374  1  0.12472861  0.88065915  0.63324513  1
  O  O375  1  0.63124975  0.38606717  0.13035507  1
  O  O376  1  0.63715272  0.38142752  0.62218383  1
  O  O377  1  0.64122518  0.87159346  0.13272820  1
  O  O378  1  0.62657681  0.86676458  0.64230761  1
  O  O379  1  0.11866276  0.25634745  0.25454936  1
  O  O380  1  0.11606904  0.24494964  0.75830294  1
  O  O381  1  0.11156254  0.75078776  0.24997755  1
  O  O382  1  0.12630302  0.76083823  0.75500853  1
  O  O383  1  0.61977858  0.25424684  0.25571306  1
  O  O384  1  0.61077149  0.25255557  0.74445508  1
  O  O385  1  0.62227307  0.75599330  0.25777556  1
  O  O386  1  0.61774609  0.75195478  0.76009861  1
  O  O387  1  0.38146448  0.23944290  0.25271746  1
  O  O388  1  0.38308959  0.24043169  0.74354044  1
  O  O389  1  0.38079936  0.74604551  0.24698137  1
  O  O390  1  0.37966770  0.74534936  0.74106566  1
  O  O391  1  0.88114531  0.24517997  0.24194512  1
  O  O392  1  0.87747174  0.24369267  0.74315434  1
  O  O393  1  0.88072523  0.74106306  0.23898174  1
  O  O394  1  0.86846417  0.73363322  0.74543830  1
  O  O395  1  0.38289790  0.49451820  0.49857440  1
  O  O396  1  0.38051874  0.49578390  0.99407547  1
  O  O397  1  0.36544089  0.99576485  0.49714851  1
  O  O398  1  0.37158002  0.98091973  1.00036135  1
  O  O399  1  0.88396514  0.48779516  0.50321958  1
  O  O400  1  0.89186975  0.50582817  1.00397245  1
  O  O401  1  0.88025549  1.00515744  0.48452238  1
  O  O402  1  0.88080081  1.00723613  0.98501542  1
  O  O403  1  0.11980490  0.00987859  0.00280810  1
  O  O404  1  0.11577396  0.00626816  0.50689926  1
  O  O405  1  0.11566363  0.50397897  0.00470781  1
  O  O406  1  0.11788354  0.50629774  0.50736013  1
  O  O407  1  0.62033249  -0.00149107  0.00052278  1
  O  O408  1  0.63542047  0.01576966  0.49345813  1
  O  O409  1  0.61519633  0.49729352  0.00994606  1
  O  O410  1  0.61521933  0.49414027  0.50906855  1
  O  O411  1  0.36446845  0.37634223  0.12142868  1
  O  O412  1  0.36638575  0.37537528  0.61592151  1
  O  O413  1  0.36740571  0.86755635  0.11828939  1
  O  O414  1  0.36950667  0.87254233  0.62305774  1
  O  O415  1  0.86680762  0.36656657  0.13106409  1
  O  O416  1  0.86400717  0.36527825  0.61874324  1
  O  O417  1  0.86542088  0.86729751  0.12926424  1
  O  O418  1  0.90014594  0.84792672  0.62985740  1
  O  O419  1  0.11934871  0.13321496  0.38178580  1
  O  O420  1  0.11964333  0.13442462  0.87707803  1
  O  O421  1  0.12641677  0.62467543  0.38918130  1
  O  O422  1  0.11624719  0.63900752  0.87041380  1
  O  O423  1  0.62210128  0.13622026  0.38274106  1
  O  O424  1  0.58853892  0.13853626  0.88831060  1
  O  O425  1  0.63421691  0.63838294  0.36919355  1
  O  O426  1  0.63573988  0.63131237  0.87081160  1
