# generated using pymatgen
data_V85Zn86O256
_symmetry_space_group_name_H-M   'P 1'
_cell_length_a   16.93722170
_cell_length_b   16.94680104
_cell_length_c   16.95690538
_cell_angle_alpha   89.96582007
_cell_angle_beta   90.02470899
_cell_angle_gamma   90.01029630
_symmetry_Int_Tables_number   1
_chemical_formula_structural   V85Zn86O256
_chemical_formula_sum   'V85 Zn86 O256'
_cell_volume   4867.16842786
_cell_formula_units_Z   1
loop_
 _symmetry_equiv_pos_site_id
 _symmetry_equiv_pos_as_xyz
  1  'x, y, z'
loop_
 _atom_site_type_symbol
 _atom_site_label
 _atom_site_symmetry_multiplicity
 _atom_site_fract_x
 _atom_site_fract_y
 _atom_site_fract_z
 _atom_site_occupancy
  V  V0  1  0.38894188  -0.00384450  0.37426095  1
  V  V1  1  0.75259657  -0.00143070  0.75103509  1
  V  V2  1  0.75549097  0.87303211  0.62211690  1
  V  V3  1  0.00727854  0.25212249  0.74216841  1
  V  V4  1  0.62218606  0.75613285  0.37598623  1
  V  V5  1  0.12366430  0.13075035  0.01229667  1
  V  V6  1  0.49743259  0.37115021  0.88496181  1
  V  V7  1  0.37300872  0.49558584  0.87689792  1
  V  V8  1  0.49802667  0.75906723  0.25415178  1
  V  V9  1  0.88255899  0.00033006  0.87551565  1
  V  V10  1  0.06512959  0.31801274  0.20231226  1
  V  V11  1  -0.00192747  0.50076902  0.00207784  1
  V  V12  1  0.49992805  0.12046584  0.62209177  1
  V  V13  1  0.00857439  0.36824161  0.87309684  1
  V  V14  1  0.62619785  0.12282491  -0.00369652  1
  V  V15  1  0.11574846  0.87633679  0.24554505  1
  V  V16  1  0.24891619  0.75353582  0.50052066  1
  V  V17  1  0.74272773  0.48775756  0.24781012  1
  V  V18  1  0.11580885  0.75102327  0.37216484  1
  V  V19  1  0.38794398  0.87650629  0.49584043  1
  V  V20  1  0.37141484  0.75226862  0.12321042  1
  V  V21  1  0.62423142  -0.00317908  0.12572233  1
  V  V22  1  0.50081990  0.25900661  0.74631358  1
  V  V23  1  0.86752345  0.36966373  0.01153676  1
  V  V24  1  0.75463924  0.12439564  0.37202138  1
  V  V25  1  0.12219458  0.87673253  0.75096472  1
  V  V26  1  0.00071576  0.37098782  0.37893035  1
  V  V27  1  0.37538800  0.63084040  0.75116690  1
  V  V28  1  0.74629228  0.74088686  0.00055225  1
  V  V29  1  0.62849944  0.25418479  0.86699777  1
  V  V30  1  -0.00074094  0.75354485  0.76051763  1
  V  V31  1  0.62236755  0.74344411  0.87677183  1
  V  V32  1  0.12463872  0.25106042  0.37830217  1
  V  V33  1  0.24874926  0.12204587  0.37761460  1
  V  V34  1  0.37689806  0.50018273  0.37360947  1
  V  V35  1  0.74569966  0.49170388  0.75153131  1
  V  V36  1  0.62615888  0.62317422  0.50202188  1
  V  V37  1  0.24888266  -0.00269849  0.24462328  1
  V  V38  1  0.62492296  -0.00287345  0.62275484  1
  V  V39  1  0.37595505  0.62307924  0.24652127  1
  V  V40  1  0.62248064  0.11775126  0.49877983  1
  V  V41  1  0.37646643  0.11816709  0.74935973  1
  V  V42  1  0.23377350  0.38211070  0.62683122  1
  V  V43  1  0.75735943  0.24703866  0.50696109  1
  V  V44  1  0.62262999  0.86697295  0.74861527  1
  V  V45  1  0.62334389  0.25108507  0.37533703  1
  V  V46  1  0.23877685  0.12321970  0.87419930  1
  V  V47  1  0.88938150  0.13459753  0.24025703  1
  V  V48  1  0.51058408  0.63022576  0.11763410  1
  V  V49  1  0.24718159  0.87563563  0.62703235  1
  V  V50  1  0.19091261  0.04749181  0.68949105  1
  V  V51  1  0.00774845  -0.00004326  0.01313456  1
  V  V52  1  0.26683557  0.37011360  0.12554029  1
  V  V53  1  0.75024288  0.62317774  0.37469194  1
  V  V54  1  0.87636276  0.13533522  0.73746685  1
  V  V55  1  0.50171264  0.63082422  0.63072663  1
  V  V56  1  0.87782927  0.62801021  0.25323042  1
  V  V57  1  0.50159317  0.12868804  0.12837827  1
  V  V58  1  0.87635620  0.37270918  0.50918997  1
  V  V59  1  0.37926787  0.13382539  0.25162120  1
  V  V60  1  0.00002291  0.62816803  0.13042284  1
  V  V61  1  0.74895633  0.87450226  0.12552249  1
  V  V62  1  0.75424191  0.74974777  0.50124625  1
  V  V63  1  0.87922115  0.75075366  0.62191655  1
  V  V64  1  0.00616396  -0.00108108  0.51257433  1
  V  V65  1  0.62505400  0.48835951  0.62785893  1
  V  V66  1  0.00516971  0.61824527  0.62822036  1
  V  V67  1  0.50691483  0.50627524  -0.00314138  1
  V  V68  1  0.88035987  -0.00501006  0.37801321  1
  V  V69  1  0.87867813  0.75169531  0.12988880  1
  V  V70  1  0.37374080  0.37497266  0.50550948  1
  V  V71  1  0.87856740  0.87520978  -0.00554842  1
  V  V72  1  0.50090523  0.50127690  0.50093880  1
  V  V73  1  0.37168279  0.87815076  -0.00116682  1
  V  V74  1  0.87303306  0.49746601  0.87710027  1
  V  V75  1  0.75233760  0.12722238  0.87650383  1
  V  V76  1  0.12728270  0.61887886  0.50500718  1
  V  V77  1  0.50043957  0.37031170  0.37470435  1
  V  V78  1  0.49904981  -0.00007701  -0.00337293  1
  V  V79  1  0.12689061  0.62860183  0.00013459  1
  V  V80  1  0.87365553  0.62351955  0.75183253  1
  V  V81  1  0.23787231  0.49889604  0.74997175  1
  V  V82  1  0.12717561  0.50147554  0.13352648  1
  V  V83  1  0.25090737  0.62582781  0.37464499  1
  V  V84  1  0.49760390  0.87154168  0.86804749  1
  Zn  Zn85  1  0.24984262  0.24897158  0.50233577  1
  Zn  Zn86  1  0.38595767  0.25189984  0.11393354  1
  Zn  Zn87  1  0.24860907  0.75182951  -0.00305368  1
  Zn  Zn88  1  0.12407106  0.75860050  0.87981503  1
  Zn  Zn89  1  0.76121183  0.24500395  0.02316446  1
  Zn  Zn90  1  0.56170217  0.30803544  0.21355965  1
  Zn  Zn91  1  0.36977249  -0.00252145  0.86797777  1
  Zn  Zn92  1  0.74353855  0.61990371  0.87911514  1
  Zn  Zn93  1  0.75181705  0.36687262  0.63162891  1
  Zn  Zn94  1  0.24928829  0.62668750  0.87532761  1
  Zn  Zn95  1  0.62161604  0.87888599  0.25688159  1
  Zn  Zn96  1  0.12107944  0.12174873  0.51233418  1
  Zn  Zn97  1  0.25547094  0.26005958  -0.01514725  1
  Zn  Zn98  1  0.24352124  0.88181264  0.12060022  1
  Zn  Zn99  1  0.87726530  0.49772016  0.37771524  1
  Zn  Zn100  1  0.00340004  0.49620047  0.50533032  1
  Zn  Zn101  1  -0.00472588  0.87093924  0.37995217  1
  Zn  Zn102  1  0.25031269  0.49556099  0.25041071  1
  Zn  Zn103  1  0.37985301  0.75282951  0.62810494  1
  Zn  Zn104  1  0.62601035  0.49042238  0.12593858  1
  Zn  Zn105  1  0.37534018  0.25115549  0.62375965  1
  Zn  Zn106  1  0.75342908  0.00016760  0.24927651  1
  Zn  Zn107  1  0.19568375  0.18540401  0.18818771  1
  Zn  Zn108  1  0.18946034  0.21203760  0.69503420  1
  Zn  Zn109  1  0.18909846  0.69202938  0.18799843  1
  Zn  Zn110  1  0.18817705  0.68979345  0.68956767  1
  Zn  Zn111  1  0.69538699  0.18587529  0.18660012  1
  Zn  Zn112  1  0.68758693  0.18511453  0.68796029  1
  Zn  Zn113  1  0.68876425  0.68755049  0.19133444  1
  Zn  Zn114  1  0.68908132  0.68254164  0.69047565  1
  Zn  Zn115  1  0.31018061  0.31331003  0.31134039  1
  Zn  Zn116  1  0.31417281  0.31015247  0.80818997  1
  Zn  Zn117  1  0.30882805  0.81444388  0.31374581  1
  Zn  Zn118  1  0.30693319  0.81012085  0.81247969  1
  Zn  Zn119  1  0.81714255  0.30926237  0.31913733  1
  Zn  Zn120  1  0.81653997  0.31310316  0.81735233  1
  Zn  Zn121  1  0.81069573  0.81275934  0.31149016  1
  Zn  Zn122  1  0.81100757  0.81093894  0.81291100  1
  Zn  Zn123  1  0.18924266  0.43696424  0.43581354  1
  Zn  Zn124  1  0.18838686  0.44257162  0.94345128  1
  Zn  Zn125  1  0.18612575  0.93899139  0.43575600  1
  Zn  Zn126  1  0.18776370  0.94415705  0.93182671  1
  Zn  Zn127  1  0.68908560  0.43472252  0.43775945  1
  Zn  Zn128  1  0.68503073  0.43339489  0.93642849  1
  Zn  Zn129  1  0.69288399  0.93769067  0.43904958  1
  Zn  Zn130  1  0.68960548  0.93424217  0.93674854  1
  Zn  Zn131  1  0.31319071  0.06769168  0.06013279  1
  Zn  Zn132  1  0.32115546  0.06176430  0.55478530  1
  Zn  Zn133  1  0.31463459  0.55950031  0.06042221  1
  Zn  Zn134  1  0.31304333  0.56179941  0.56494401  1
  Zn  Zn135  1  0.81499638  0.06149803  0.06346706  1
  Zn  Zn136  1  0.81529722  0.05843603  0.55815154  1
  Zn  Zn137  1  0.80977651  0.55893803  0.06781036  1
  Zn  Zn138  1  0.81502926  0.55838611  0.56435610  1
  Zn  Zn139  1  0.45097159  0.43701265  0.18007855  1
  Zn  Zn140  1  0.43471010  0.44304639  0.69105209  1
  Zn  Zn141  1  0.43473965  0.94092263  0.18675983  1
  Zn  Zn142  1  0.43826764  0.93634746  0.68250610  1
  Zn  Zn143  1  0.93052171  0.44595531  0.18953104  1
  Zn  Zn144  1  0.93789754  0.43530953  0.69023208  1
  Zn  Zn145  1  0.93539641  0.94186104  0.19165768  1
  Zn  Zn146  1  0.93789790  0.93711971  0.68956025  1
  Zn  Zn147  1  0.06206918  0.06219777  0.31180621  1
  Zn  Zn148  1  0.05415099  0.06809706  0.81623094  1
  Zn  Zn149  1  0.06141467  0.56094559  0.31696907  1
  Zn  Zn150  1  0.05906538  0.56268987  0.81594701  1
  Zn  Zn151  1  0.56587448  0.06330053  0.31042222  1
  Zn  Zn152  1  0.56220645  0.05934135  0.80796388  1
  Zn  Zn153  1  0.56177088  0.56646544  0.31171340  1
  Zn  Zn154  1  0.56106726  0.55959668  0.80990668  1
  Zn  Zn155  1  0.43633853  0.18687577  0.43954663  1
  Zn  Zn156  1  0.43397655  0.18694616  0.93436600  1
  Zn  Zn157  1  0.43763900  0.68928400  0.43860194  1
  Zn  Zn158  1  0.43593977  0.68849861  0.93553170  1
  Zn  Zn159  1  0.94034336  0.18350600  0.43850115  1
  Zn  Zn160  1  0.93950687  0.18753620  0.94110869  1
  Zn  Zn161  1  0.93877299  0.68450510  0.44170935  1
  Zn  Zn162  1  0.93584640  0.68511822  0.94071145  1
  Zn  Zn163  1  0.06944872  0.31551312  0.04011622  1
  Zn  Zn164  1  0.06290105  0.30681654  0.55975607  1
  Zn  Zn165  1  0.05904231  0.81529408  0.06352260  1
  Zn  Zn166  1  0.06149918  0.81605471  0.56328896  1
  Zn  Zn167  1  0.59511698  0.31054256  0.06007941  1
  Zn  Zn168  1  0.56327034  0.30768293  0.55744983  1
  Zn  Zn169  1  0.55984496  0.81277716  0.05893630  1
  Zn  Zn170  1  0.56585611  0.80931333  0.56244265  1
  O  O171  1  0.13321942  0.12564605  0.11072346  1
  O  O172  1  0.14405366  0.12064331  0.63222662  1
  O  O173  1  0.12199258  0.62211086  0.11957944  1
  O  O174  1  0.11702009  0.63347493  0.61677837  1
  O  O175  1  0.62029438  0.11001428  0.12063467  1
  O  O176  1  0.62083976  0.11797002  0.61849206  1
  O  O177  1  0.61211842  0.62484766  0.13016126  1
  O  O178  1  0.61955719  0.61726455  0.62130360  1
  O  O179  1  0.37640871  0.37931598  0.38797245  1
  O  O180  1  0.38353067  0.38365243  0.86656770  1
  O  O181  1  0.37156071  0.87996355  0.38753235  1
  O  O182  1  0.38111642  0.87570282  0.87799002  1
  O  O183  1  0.88479475  0.37526445  0.38646818  1
  O  O184  1  0.88081817  0.38556194  0.88359773  1
  O  O185  1  0.87411328  0.88953943  0.36823140  1
  O  O186  1  0.86672233  0.88323933  0.88681678  1
  O  O187  1  0.25772113  0.00613451  0.36720631  1
  O  O188  1  0.25351545  0.01616811  0.87011779  1
  O  O189  1  0.25775785  0.50716074  0.37140269  1
  O  O190  1  0.25667146  0.50060004  0.86968244  1
  O  O191  1  0.76120445  0.00645607  0.37561519  1
  O  O192  1  0.75841093  0.00629279  0.87116119  1
  O  O193  1  0.74846671  0.51192477  0.37037878  1
  O  O194  1  0.75383218  0.50044980  0.87010546  1
  O  O195  1  0.24397064  0.48947021  0.12507927  1
  O  O196  1  0.25367132  0.48940121  0.63327764  1
  O  O197  1  0.25693235  1.00144296  0.14045018  1
  O  O198  1  0.25381679  0.99368076  0.62375830  1
  O  O199  1  0.74430122  0.49958881  0.14112591  1
  O  O200  1  0.74154006  0.49784034  0.63323693  1
  O  O201  1  0.74234220  0.99069538  0.12337688  1
  O  O202  1  0.74752470  0.99037366  0.62921647  1
  O  O203  1  -0.00245551  0.37611829  0.25722867  1
  O  O204  1  -0.00799352  0.36443726  0.76286125  1
  O  O205  1  0.01254352  0.87890797  0.25384433  1
  O  O206  1  0.00805060  0.86508654  0.74447345  1
  O  O207  1  0.48342865  0.37340386  0.27200736  1
  O  O208  1  0.49492788  0.36205662  0.75207001  1
  O  O209  1  0.50043705  0.86257925  0.24446846  1
  O  O210  1  0.50933131  0.87762663  0.75543626  1
  O  O211  1  0.49189220  0.11657472  0.23999202  1
  O  O212  1  0.49445073  0.13164959  0.74339665  1
  O  O213  1  0.49100801  0.63578675  0.24272177  1
  O  O214  1  0.49022688  0.61858356  0.74076134  1
  O  O215  1  0.98911660  0.12329623  0.24862468  1
  O  O216  1  0.98516522  0.13875329  0.75641984  1
  O  O217  1  0.98575036  0.61968870  0.24806307  1
  O  O218  1  0.99494047  0.63233253  0.74565275  1
  O  O219  1  0.36628160  0.23969462  0.00330790  1
  O  O220  1  0.37106466  0.26002148  0.50284886  1
  O  O221  1  0.37460612  0.75957046  0.00717224  1
  O  O222  1  0.36709185  0.76021014  0.49960984  1
  O  O223  1  0.87471249  0.26317234  0.00129976  1
  O  O224  1  0.86736944  0.25548240  0.49568559  1
  O  O225  1  0.86878199  0.75838201  0.00545073  1
  O  O226  1  0.87079029  0.74470605  0.51384826  1
  O  O227  1  0.12970622  0.24006333  0.49375450  1
  O  O228  1  0.13266684  0.23411698  0.99489258  1
  O  O229  1  0.13242578  0.74392144  0.49345829  1
  O  O230  1  0.12412407  0.74402542  1.00073521  1
  O  O231  1  0.63254767  0.23665104  0.49320677  1
  O  O232  1  0.61534355  0.23589021  0.97618037  1
  O  O233  1  0.63248056  0.74243610  0.49446928  1
  O  O234  1  0.63473001  0.75766156  0.99021856  1
  O  O235  1  0.50750552  0.23449759  0.12617646  1
  O  O236  1  0.50314594  0.23938597  0.63085193  1
  O  O237  1  0.49027306  0.74712905  0.12923575  1
  O  O238  1  0.50072678  0.73522321  0.62183269  1
  O  O239  1  1.01598433  0.26588401  0.13516875  1
  O  O240  1  1.00231237  0.25604568  0.64244090  1
  O  O241  1  0.98524891  0.74532830  0.12164795  1
  O  O242  1  0.99313713  0.74221875  0.63185822  1
  O  O243  1  0.00875042  0.26052409  0.37949747  1
  O  O244  1  -0.00781428  0.26453668  0.87150340  1
  O  O245  1  0.01190414  0.74971871  0.38041932  1
  O  O246  1  -0.00147907  0.74659185  0.86389384  1
  O  O247  1  0.50911260  0.25793032  0.38510152  1
  O  O248  1  0.50332752  0.25506691  0.86458372  1
  O  O249  1  0.50956307  0.74387256  0.36612359  1
  O  O250  1  0.50737402  0.76358003  0.88002570  1
  O  O251  1  0.25057943  0.12357384  0.48691011  1
  O  O252  1  0.23760431  0.12027318  0.98886670  1
  O  O253  1  0.24663532  0.63360723  0.49775946  1
  O  O254  1  0.24006121  0.62584627  1.00102899  1
  O  O255  1  0.74683845  0.12863625  0.49117664  1
  O  O256  1  0.74587361  0.12777925  0.99311418  1
  O  O257  1  0.74703589  0.62834623  0.49373888  1
  O  O258  1  0.75450696  0.63713331  1.00049449  1
  O  O259  1  0.23767176  0.37344850  0.02023111  1
  O  O260  1  0.25670377  0.37870215  0.51196551  1
  O  O261  1  0.26017589  0.87892498  -0.00023966  1
  O  O262  1  0.25359825  0.86968383  0.50793503  1
  O  O263  1  0.76464308  0.37399419  -0.00409824  1
  O  O264  1  0.75885752  0.36455653  0.50002949  1
  O  O265  1  0.75771260  0.86793280  0.00949778  1
  O  O266  1  0.74648440  0.86672286  0.51454250  1
  O  O267  1  0.12870443  0.51058378  0.23728777  1
  O  O268  1  0.13846314  0.50624488  0.75618330  1
  O  O269  1  0.13336997  0.98546746  0.25818689  1
  O  O270  1  0.11728169  0.99725358  0.74612196  1
  O  O271  1  0.63863881  0.50514334  0.25196606  1
  O  O272  1  0.63382529  0.50266611  0.74086373  1
  O  O273  1  0.62972617  0.99589138  0.24061143  1
  O  O274  1  0.63374279  0.98900929  0.74419593  1
  O  O275  1  0.36840247  0.00407559  0.25833345  1
  O  O276  1  0.38132767  0.01327737  0.74672270  1
  O  O277  1  0.37975928  0.51029614  0.25403309  1
  O  O278  1  0.36800259  0.50923140  0.75947405  1
  O  O279  1  0.87282060  0.00955996  0.26079458  1
  O  O280  1  0.87266617  0.00879730  0.75841195  1
  O  O281  1  0.86138361  0.50947813  0.25590389  1
  O  O282  1  0.86941625  0.50347551  0.75914027  1
  O  O283  1  0.12156262  0.36108474  0.38059973  1
  O  O284  1  0.10697393  0.38130614  0.88389986  1
  O  O285  1  0.12480644  0.86585667  0.36673435  1
  O  O286  1  0.13250071  0.87722570  0.85626168  1
  O  O287  1  0.61461561  0.36414844  0.38346353  1
  O  O288  1  0.61537901  0.36425731  0.87354211  1
  O  O289  1  0.63358727  0.86070484  0.37601779  1
  O  O290  1  0.61965755  0.86791608  0.86697660  1
  O  O291  1  0.38541575  0.12328251  0.13376057  1
  O  O292  1  0.38407254  0.12660221  0.62725823  1
  O  O293  1  0.37925629  0.63464043  0.13025991  1
  O  O294  1  0.38450300  0.62484514  0.63166513  1
  O  O295  1  0.86596993  0.12503652  0.14124181  1
  O  O296  1  0.86800778  0.12186214  0.64000470  1
  O  O297  1  0.87717908  0.63225836  0.13377388  1
  O  O298  1  0.88129148  0.63150203  0.63216903  1
  O  O299  1  0.25352207  0.26423067  0.12671854  1
  O  O300  1  0.25537957  0.26945618  0.62394247  1
  O  O301  1  0.26278851  0.75524432  0.12255323  1
  O  O302  1  0.25312805  0.75632890  0.61385844  1
  O  O303  1  0.69571810  0.26629536  0.11153791  1
  O  O304  1  0.74282240  0.24973334  0.61178928  1
  O  O305  1  0.75566036  0.75469508  0.11884871  1
  O  O306  1  0.75794699  0.75347920  0.62341893  1
  O  O307  1  0.24392673  0.24217012  0.37634363  1
  O  O308  1  0.25432804  0.23060159  0.86720212  1
  O  O309  1  0.24399745  0.74553104  0.38546564  1
  O  O310  1  0.24299303  0.74436108  0.87909750  1
  O  O311  1  0.74414007  0.24190671  0.38615013  1
  O  O312  1  0.74313503  0.24217154  0.87373757  1
  O  O313  1  0.74599713  0.74031144  0.37930395  1
  O  O314  1  0.74220634  0.74808695  0.88371462  1
  O  O315  1  0.01386793  0.11622604  -0.00347431  1
  O  O316  1  0.00320919  0.10778826  0.49616371  1
  O  O317  1  0.00400231  0.61950802  0.01004891  1
  O  O318  1  0.00954542  0.62278769  0.50993128  1
  O  O319  1  0.50613190  0.11614724  0.00429828  1
  O  O320  1  0.50992841  0.12811715  0.50941658  1
  O  O321  1  0.49954815  0.62095946  0.00526828  1
  O  O322  1  0.50543389  0.61917391  0.50642213  1
  O  O323  1  0.49307932  0.38085825  0.49430522  1
  O  O324  1  0.50066086  0.38128227  0.98608704  1
  O  O325  1  0.48656837  0.86833071  0.50352092  1
  O  O326  1  0.48935141  0.88019741  0.99215636  1
  O  O327  1  0.99483669  0.37547151  0.49637258  1
  O  O328  1  0.99007947  0.38142835  0.98983679  1
  O  O329  1  1.00350377  0.88908155  0.49653640  1
  O  O330  1  0.99197655  0.88793486  1.00152869  1
  O  O331  1  0.49680728  0.49566712  0.38187408  1
  O  O332  1  0.49558569  0.49234993  0.87788635  1
  O  O333  1  0.48852742  1.00095485  0.36957721  1
  O  O334  1  0.50035215  0.98763459  0.87859321  1
  O  O335  1  1.00294534  0.48495893  0.37952192  1
  O  O336  1  0.99040619  0.49185770  0.87913984  1
  O  O337  1  0.98911962  0.99733895  0.37818071  1
  O  O338  1  0.98598995  1.00358506  0.88444008  1
  O  O339  1  -0.00484601  0.00017702  0.11106980  1
  O  O340  1  -0.00763412  -0.00119959  0.61118024  1
  O  O341  1  0.00680851  0.50763441  0.12321269  1
  O  O342  1  -0.00299026  0.51419986  0.62857442  1
  O  O343  1  0.50686851  0.00450579  0.11788063  1
  O  O344  1  0.50938357  0.01208236  0.62902986  1
  O  O345  1  0.49019073  0.51918381  0.11086950  1
  O  O346  1  0.50781947  0.50701089  0.62103665  1
  O  O347  1  0.25544123  0.37939896  0.23356795  1
  O  O348  1  0.25469565  0.38277480  0.73556485  1
  O  O349  1  0.24260049  0.88263552  0.24842158  1
  O  O350  1  0.24579041  0.87206219  0.73471552  1
  O  O351  1  0.75320879  0.39004505  0.26329196  1
  O  O352  1  0.75699385  0.38674616  0.74934204  1
  O  O353  1  0.74653312  0.87431805  0.23527824  1
  O  O354  1  0.74443591  0.87864757  0.74189867  1
  O  O355  1  0.25851188  0.11765875  0.25940037  1
  O  O356  1  0.25191067  0.12064094  0.74971989  1
  O  O357  1  0.26322444  0.62597874  0.25303136  1
  O  O358  1  0.25728684  0.61649336  0.74915512  1
  O  O359  1  0.75115754  0.12223892  0.26346038  1
  O  O360  1  0.75993543  0.12052567  0.75669371  1
  O  O361  1  0.75813528  0.62136009  0.25862063  1
  O  O362  1  0.75747993  0.61291620  0.75391399  1
  O  O363  1  0.37121317  0.11754240  0.37002156  1
  O  O364  1  0.36751256  0.12001190  0.86288489  1
  O  O365  1  0.37110311  0.62208448  0.36719975  1
  O  O366  1  0.37488219  0.61834502  0.86620274  1
  O  O367  1  0.86972761  0.11564887  0.36931168  1
  O  O368  1  0.86594192  0.12000536  0.87279418  1
  O  O369  1  0.86816518  0.62460309  0.37029466  1
  O  O370  1  0.87378975  0.61222560  0.87252590  1
  O  O371  1  0.12058609  0.38070823  0.13503865  1
  O  O372  1  0.13543892  0.37776190  0.62000033  1
  O  O373  1  0.12631108  0.86930639  0.14082556  1
  O  O374  1  0.13466207  0.87228793  0.63501809  1
  O  O375  1  0.56872905  0.38954124  0.13698697  1
  O  O376  1  0.62606652  0.38565260  0.61809588  1
  O  O377  1  0.62998730  0.88343146  0.12216484  1
  O  O378  1  0.63080575  0.87597944  0.63172320  1
  O  O379  1  0.12658626  0.25300813  0.25568042  1
  O  O380  1  0.10572733  0.24788507  0.76046875  1
  O  O381  1  0.13178303  0.76290625  0.26010634  1
  O  O382  1  0.11523423  0.75717370  0.75206572  1
  O  O383  1  0.62650971  0.23763004  0.27045561  1
  O  O384  1  0.61620344  0.24164290  0.75873861  1
  O  O385  1  0.61677480  0.75144475  0.25828329  1
  O  O386  1  0.63246679  0.76106664  0.75705935  1
  O  O387  1  0.37337934  0.23584451  0.24819715  1
  O  O388  1  0.38436567  0.23783593  0.74415789  1
  O  O389  1  0.37988319  0.74660223  0.24462232  1
  O  O390  1  0.37037528  0.73561542  0.74741267  1
  O  O391  1  0.87195104  0.23347783  0.25654478  1
  O  O392  1  0.87775513  0.23930849  0.75196920  1
  O  O393  1  0.86831949  0.74187089  0.24087418  1
  O  O394  1  0.88006046  0.74446920  0.74445254  1
  O  O395  1  0.38083120  0.49576666  0.49353658  1
  O  O396  1  0.38487304  0.50568070  0.98369537  1
  O  O397  1  0.37563265  0.98469948  0.49046426  1
  O  O398  1  0.38105604  0.99388467  0.99637947  1
  O  O399  1  0.87836196  0.49014544  0.49713137  1
  O  O400  1  0.87817663  0.49514193  0.99527926  1
  O  O401  1  0.88337114  1.00216799  0.48523108  1
  O  O402  1  0.88207991  0.99441140  0.99518053  1
  O  O403  1  0.11275581  0.00463746  -0.00175164  1
  O  O404  1  0.11286384  0.00321219  0.49766171  1
  O  O405  1  0.11766362  0.50756962  0.01381506  1
  O  O406  1  0.12770551  0.51585966  0.49591204  1
  O  O407  1  0.62069908  0.00258226  0.00425812  1
  O  O408  1  0.63111994  0.01009238  0.50538773  1
  O  O409  1  0.61213175  0.49632755  0.00226649  1
  O  O410  1  0.62218883  0.50550379  0.50694440  1
  O  O411  1  0.36961078  0.37378212  0.12288653  1
  O  O412  1  0.37749021  0.37856585  0.61301147  1
  O  O413  1  0.37472906  0.86976470  0.11495989  1
  O  O414  1  0.36944463  0.87339646  0.61360448  1
  O  O415  1  0.87882872  0.38218470  0.10946004  1
  O  O416  1  0.87306124  0.37824932  0.61345043  1
  O  O417  1  0.86862168  0.86963101  0.11951265  1
  O  O418  1  0.86585893  0.86382969  0.63330646  1
  O  O419  1  0.13379819  0.13484459  0.37067421  1
  O  O420  1  0.13498259  0.11929894  0.87997160  1
  O  O421  1  0.13191904  0.63269321  0.37988953  1
  O  O422  1  0.12094910  0.62373039  0.89245655  1
  O  O423  1  0.63246766  0.12587447  0.38342353  1
  O  O424  1  0.63768459  0.12459967  0.87355132  1
  O  O425  1  0.63214524  0.63422027  0.38024117  1
  O  O426  1  0.62277659  0.63986659  0.86783473  1
