# generated using pymatgen
data_V85Zn86O256
_symmetry_space_group_name_H-M   'P 1'
_cell_length_a   16.92811218
_cell_length_b   16.94584563
_cell_length_c   16.93773030
_cell_angle_alpha   90.02204448
_cell_angle_beta   90.02842448
_cell_angle_gamma   89.92284986
_symmetry_Int_Tables_number   1
_chemical_formula_structural   V85Zn86O256
_chemical_formula_sum   'V85 Zn86 O256'
_cell_volume   4858.77186752
_cell_formula_units_Z   1
loop_
 _symmetry_equiv_pos_site_id
 _symmetry_equiv_pos_as_xyz
  1  'x, y, z'
loop_
 _atom_site_type_symbol
 _atom_site_label
 _atom_site_symmetry_multiplicity
 _atom_site_fract_x
 _atom_site_fract_y
 _atom_site_fract_z
 _atom_site_occupancy
  V  V0  1  0.62956185  -0.00207321  0.12245327  1
  V  V1  1  0.74639008  0.12877743  0.88539664  1
  V  V2  1  0.13073434  0.13005416  -0.00969352  1
  V  V3  1  0.74436600  0.37398944  0.63169470  1
  V  V4  1  0.87516645  0.62869997  0.25198565  1
  V  V5  1  0.26174883  0.37510497  0.63182602  1
  V  V6  1  0.25530365  0.25369002  0.49431092  1
  V  V7  1  0.75390517  0.26181717  0.00500222  1
  V  V8  1  0.37175962  0.88249043  -0.00472240  1
  V  V9  1  0.25311173  -0.00824384  0.75193538  1
  V  V10  1  0.62344398  0.37548094  0.24572905  1
  V  V11  1  0.37197330  0.00413531  0.37522965  1
  V  V12  1  0.12580452  -0.00155398  0.12370372  1
  V  V13  1  0.61903750  0.12825088  0.50311587  1
  V  V14  1  0.12567609  0.87565119  0.25207464  1
  V  V15  1  0.13057578  0.12765404  0.50405003  1
  V  V16  1  -0.00078133  0.00962641  0.50818898  1
  V  V17  1  0.00193796  0.62097544  0.62721202  1
  V  V18  1  -0.00288141  0.49314912  0.00347291  1
  V  V19  1  0.61888819  0.25020631  0.86649495  1
  V  V20  1  0.12991175  0.36543501  0.24769795  1
  V  V21  1  0.74121584  0.49727236  0.75377085  1
  V  V22  1  0.24902747  0.87488770  0.12421154  1
  V  V23  1  0.49580827  0.61925616  0.11549253  1
  V  V24  1  0.12776365  0.61831818  0.50208630  1
  V  V25  1  0.37388161  0.75242807  0.62733495  1
  V  V26  1  0.00656650  0.37013349  0.87645599  1
  V  V27  1  0.48493901  0.38011325  0.37869987  1
  V  V28  1  0.74428086  0.62209130  0.38015403  1
  V  V29  1  0.74750777  0.87398566  0.62657284  1
  V  V30  1  0.74919110  0.00317011  0.74934359  1
  V  V31  1  0.38600148  0.24209688  0.62504545  1
  V  V32  1  -0.00120389  0.87439987  0.37918267  1
  V  V33  1  0.13109602  -0.01314656  0.62727912  1
  V  V34  1  0.24911310  0.75522231  0.50580707  1
  V  V35  1  0.74725295  0.49900683  0.25032274  1
  V  V36  1  0.36438153  0.25227872  0.11772992  1
  V  V37  1  0.37227337  0.61580378  0.25521777  1
  V  V38  1  0.50045834  0.00375387  -0.00241671  1
  V  V39  1  0.50990844  0.62628599  0.62346869  1
  V  V40  1  0.00267789  0.62564971  0.12628724  1
  V  V41  1  0.87584248  0.49916043  0.38007962  1
  V  V42  1  0.37729561  0.75184076  0.12823812  1
  V  V43  1  0.49862086  0.25165409  0.24631594  1
  V  V44  1  0.62383413  0.87219275  0.75473605  1
  V  V45  1  0.62234260  0.25141131  0.37413242  1
  V  V46  1  -0.00148390  0.12903314  0.12860395  1
  V  V47  1  0.50445494  0.12714161  0.12008335  1
  V  V48  1  0.49461188  0.50707511  0.49527925  1
  V  V49  1  0.13831280  0.49432936  0.12587719  1
  V  V50  1  0.50495743  0.38271919  0.86096516  1
  V  V51  1  0.87486654  0.12947064  0.24883493  1
  V  V52  1  0.87814503  0.12521202  0.74751563  1
  V  V53  1  0.87390331  0.49300261  0.87984527  1
  V  V54  1  0.87498984  0.74915663  0.62658844  1
  V  V55  1  0.49972178  0.74873897  0.75929561  1
  V  V56  1  0.87570826  0.62263748  0.75241873  1
  V  V57  1  0.87558471  0.37411471  0.50160431  1
  V  V58  1  0.74876765  0.25000409  0.50157350  1
  V  V59  1  -0.00121744  0.00037471  -0.00082479  1
  V  V60  1  0.88137699  0.24659074  0.62557611  1
  V  V61  1  0.12687154  0.74571689  0.37507879  1
  V  V62  1  0.37161741  0.87647382  0.50042670  1
  V  V63  1  0.37170839  0.12767521  0.25254622  1
  V  V64  1  0.61825079  0.00612264  0.62653159  1
  V  V65  1  0.12493190  0.75129622  0.88440963  1
  V  V66  1  0.00533010  0.87806201  0.86834322  1
  V  V67  1  0.25479289  0.61668082  0.86886014  1
  V  V68  1  0.24840975  0.00517256  0.25613079  1
  V  V69  1  0.87431526  -0.00075161  0.87495534  1
  V  V70  1  0.62115969  0.49740919  0.11510355  1
  V  V71  1  0.49815696  0.00432845  0.50030909  1
  V  V72  1  0.62125447  0.74551070  0.38128000  1
  V  V73  1  0.13016581  0.49440910  0.63639977  1
  V  V74  1  0.63296567  0.87350654  0.24551770  1
  V  V75  1  0.00932465  0.24737381  0.75166188  1
  V  V76  1  0.00289029  0.36502348  0.37340338  1
  V  V77  1  0.38576581  0.12340496  0.75184963  1
  V  V78  1  0.74588898  0.63697471  0.88271046  1
  V  V79  1  0.87180787  0.00026758  0.37669233  1
  V  V80  1  0.38127890  0.38446490  0.00010812  1
  V  V81  1  0.49100629  0.88873569  0.86940231  1
  V  V82  1  0.00871867  0.75328120  0.74873321  1
  V  V83  1  0.74583681  0.74395281  0.50409377  1
  V  V84  1  0.49974374  0.87645046  0.37307599  1
  Zn  Zn85  1  0.24869400  0.25892586  -0.01533973  1
  Zn  Zn86  1  0.75167480  -0.00092652  0.24402275  1
  Zn  Zn87  1  -0.00230335  0.75000423  0.25306500  1
  Zn  Zn88  1  0.77146262  0.37521898  0.12416011  1
  Zn  Zn89  1  0.87273441  0.87549360  0.50191466  1
  Zn  Zn90  1  0.25674725  0.61693531  0.38083452  1
  Zn  Zn91  1  0.25389662  0.49134434  0.26022146  1
  Zn  Zn92  1  -0.05825734  0.29385490  0.19137987  1
  Zn  Zn93  1  0.62848251  0.62995149  -0.00035821  1
  Zn  Zn94  1  0.36980506  0.61901360  0.74484084  1
  Zn  Zn95  1  0.49731972  0.74759415  0.25209795  1
  Zn  Zn96  1  0.62455244  0.49851209  0.62034566  1
  Zn  Zn97  1  0.12588297  0.23772657  0.36826930  1
  Zn  Zn98  1  0.13470795  0.36841263  0.75687942  1
  Zn  Zn99  1  0.84956354  0.75239144  0.11892683  1
  Zn  Zn100  1  0.37832005  0.50032589  0.86983987  1
  Zn  Zn101  1  0.25644958  0.74822312  -0.00336604  1
  Zn  Zn102  1  0.85346065  0.87000581  0.00599507  1
  Zn  Zn103  1  0.25125749  0.12986298  0.86395831  1
  Zn  Zn104  1  0.74641010  0.12392427  0.37274328  1
  Zn  Zn105  1  0.12764394  0.62228175  -0.00004973  1
  Zn  Zn106  1  0.00310904  0.49511582  0.50240645  1
  Zn  Zn107  1  0.18561453  0.18624887  0.18380039  1
  Zn  Zn108  1  0.19298081  0.18173575  0.68087364  1
  Zn  Zn109  1  0.18976491  0.68570763  0.18578488  1
  Zn  Zn110  1  0.18734307  0.69018123  0.68806762  1
  Zn  Zn111  1  0.68893074  0.18561179  0.18484830  1
  Zn  Zn112  1  0.68858982  0.18824305  0.68939895  1
  Zn  Zn113  1  0.68006543  0.68264221  0.19334221  1
  Zn  Zn114  1  0.68619563  0.68612420  0.69525756  1
  Zn  Zn115  1  0.30837292  0.31008619  0.30988289  1
  Zn  Zn116  1  0.31916305  0.30657865  0.81357819  1
  Zn  Zn117  1  0.31025020  0.80986172  0.31419041  1
  Zn  Zn118  1  0.31151466  0.81023008  0.81325909  1
  Zn  Zn119  1  0.80707564  0.31410870  0.31545585  1
  Zn  Zn120  1  0.81463083  0.31173197  0.81501362  1
  Zn  Zn121  1  0.81010796  0.81057357  0.31451886  1
  Zn  Zn122  1  0.81833787  0.81464235  0.81360903  1
  Zn  Zn123  1  0.19051318  0.43390119  0.43862308  1
  Zn  Zn124  1  0.19084673  0.43531535  0.94030079  1
  Zn  Zn125  1  0.18602261  0.93845565  0.43949099  1
  Zn  Zn126  1  0.18628460  0.93897419  0.93246515  1
  Zn  Zn127  1  0.68085857  0.43699606  0.43952286  1
  Zn  Zn128  1  0.68549284  0.43411873  0.93625470  1
  Zn  Zn129  1  0.68674883  0.93475237  0.43953400  1
  Zn  Zn130  1  0.68169999  0.94217780  0.93393128  1
  Zn  Zn131  1  0.31301489  0.06452585  0.06483957  1
  Zn  Zn132  1  0.30837981  0.06599366  0.56574473  1
  Zn  Zn133  1  0.31338115  0.56538473  0.05565207  1
  Zn  Zn134  1  0.31613512  0.56131862  0.56485953  1
  Zn  Zn135  1  0.81382125  0.06399289  0.06166208  1
  Zn  Zn136  1  0.80839962  0.06444161  0.56215655  1
  Zn  Zn137  1  0.81291608  0.56125936  0.06443092  1
  Zn  Zn138  1  0.81120270  0.56158987  0.56540428  1
  Zn  Zn139  1  0.43731651  0.43578024  0.18306190  1
  Zn  Zn140  1  0.43589343  0.44097947  0.68808909  1
  Zn  Zn141  1  0.43977957  0.93819603  0.18617354  1
  Zn  Zn142  1  0.43349538  0.93930269  0.68454823  1
  Zn  Zn143  1  0.94320045  0.45254361  0.19514322  1
  Zn  Zn144  1  0.93768729  0.43459567  0.69103498  1
  Zn  Zn145  1  0.93642629  0.93934757  0.19024655  1
  Zn  Zn146  1  0.93830969  0.93780305  0.68479110  1
  Zn  Zn147  1  0.05955269  0.06420566  0.31633066  1
  Zn  Zn148  1  0.06439961  0.06131757  0.80546464  1
  Zn  Zn149  1  0.06553886  0.55542869  0.31430753  1
  Zn  Zn150  1  0.06485184  0.56287964  0.81588362  1
  Zn  Zn151  1  0.56196263  0.06342063  0.30993394  1
  Zn  Zn152  1  0.56302653  0.06733018  0.81317325  1
  Zn  Zn153  1  0.55761120  0.56224723  0.30927117  1
  Zn  Zn154  1  0.56191699  0.56384132  0.81261117  1
  Zn  Zn155  1  0.43640600  0.19065280  0.43686337  1
  Zn  Zn156  1  0.43729046  0.18984127  0.93357824  1
  Zn  Zn157  1  0.43708991  0.68586918  0.43959452  1
  Zn  Zn158  1  0.49420908  0.74310437  0.97878138  1
  Zn  Zn159  1  0.93747843  0.18510663  0.43730917  1
  Zn  Zn160  1  0.93633875  0.18780544  0.93740274  1
  Zn  Zn161  1  0.93778542  0.68630380  0.44120295  1
  Zn  Zn162  1  0.93671543  0.68199392  0.93795527  1
  Zn  Zn163  1  0.06616484  0.31419293  0.05854043  1
  Zn  Zn164  1  0.06583574  0.31237119  0.56464066  1
  Zn  Zn165  1  -0.00075940  0.80935911  0.06096854  1
  Zn  Zn166  1  0.06122886  0.81263544  0.56074539  1
  Zn  Zn167  1  0.56462598  0.30847261  0.05264292  1
  Zn  Zn168  1  0.56082318  0.32004327  0.55976218  1
  Zn  Zn169  1  0.67497830  0.80697926  0.05573401  1
  Zn  Zn170  1  0.55975498  0.81477954  0.56464183  1
  O  O171  1  0.11948273  0.11345553  0.11815575  1
  O  O172  1  0.12548833  0.11278525  0.61056071  1
  O  O173  1  0.12218248  0.61053015  0.12618261  1
  O  O174  1  0.12316014  0.61713533  0.62017704  1
  O  O175  1  0.61026467  0.11681437  0.13174689  1
  O  O176  1  0.62957969  0.11761600  0.61749178  1
  O  O177  1  0.61249663  0.61310764  0.12937767  1
  O  O178  1  0.61331992  0.62657585  0.62734564  1
  O  O179  1  0.38720815  0.37311852  0.36717763  1
  O  O180  1  0.39022242  0.37360195  0.87998799  1
  O  O181  1  0.38145778  0.88088090  0.37898749  1
  O  O182  1  0.37876597  0.87795251  0.88215651  1
  O  O183  1  0.87998605  0.37948475  0.38089625  1
  O  O184  1  0.88651524  0.38759016  0.86983191  1
  O  O185  1  0.88226766  0.87994909  0.37752211  1
  O  O186  1  0.88667807  0.88286124  0.87732276  1
  O  O187  1  0.25440089  -0.00451313  0.36331711  1
  O  O188  1  0.24124827  0.00675697  0.85558382  1
  O  O189  1  0.24298748  0.50542487  0.37315183  1
  O  O190  1  0.24664181  0.51422189  0.87677111  1
  O  O191  1  0.76335952  -0.00056943  0.38060184  1
  O  O192  1  0.75186722  0.01013294  0.86712929  1
  O  O193  1  0.75389541  0.50248052  0.37245887  1
  O  O194  1  0.75747465  0.50096964  0.86990241  1
  O  O195  1  0.23924511  0.50177645  0.12517756  1
  O  O196  1  0.24664045  0.48283327  0.61738312  1
  O  O197  1  0.24388723  0.99611994  0.13524991  1
  O  O198  1  0.23811659  0.99830088  0.62899944  1
  O  O199  1  0.74227590  0.49800884  0.13413008  1
  O  O200  1  0.75019242  0.49188748  0.63393539  1
  O  O201  1  0.73346026  1.00719525  0.12250649  1
  O  O202  1  0.74018045  0.99445290  0.62931226  1
  O  O203  1  0.00912552  0.37263327  0.25777574  1
  O  O204  1  0.00315279  0.36428889  0.75784550  1
  O  O205  1  0.00756879  0.87571678  0.26514135  1
  O  O206  1  -0.00602488  0.86588024  0.75654496  1
  O  O207  1  0.50419864  0.37149163  0.25790937  1
  O  O208  1  0.49931752  0.37379710  0.76202252  1
  O  O209  1  0.50488141  0.87532746  0.26251778  1
  O  O210  1  0.50324040  0.87365557  0.75260063  1
  O  O211  1  0.49215610  0.13212584  0.24277941  1
  O  O212  1  0.48486806  0.11248531  0.74296399  1
  O  O213  1  0.48675122  0.62626325  0.24276056  1
  O  O214  1  0.50046229  0.63573730  0.74428169  1
  O  O215  1  0.99161831  0.11836023  0.24026759  1
  O  O216  1  0.98633057  0.13113247  0.75589980  1
  O  O217  1  0.99070001  0.62036252  0.24703360  1
  O  O218  1  0.99514024  0.63132271  0.74620542  1
  O  O219  1  0.37368689  0.25421237  0.00547975  1
  O  O220  1  0.36273476  0.24389652  0.50797251  1
  O  O221  1  0.38009084  0.76813338  0.00933497  1
  O  O222  1  0.36659381  0.75393147  0.50451831  1
  O  O223  1  0.85343595  0.24268203  -0.00613445  1
  O  O224  1  0.86978757  0.25166843  0.50791968  1
  O  O225  1  0.90023076  0.75811417  0.01077421  1
  O  O226  1  0.86636390  0.75101161  0.50853025  1
  O  O227  1  0.13434274  0.24179012  0.50202096  1
  O  O228  1  0.12988909  0.23334750  1.00657499  1
  O  O229  1  0.13070944  0.74403551  0.49407984  1
  O  O230  1  0.11745495  0.75058185  0.98684492  1
  O  O231  1  0.62657544  0.24468667  0.49659406  1
  O  O232  1  0.64042705  0.25222755  0.98393691  1
  O  O233  1  0.63039534  0.75602306  0.49057058  1
  O  O234  1  0.60381151  0.74079085  1.00185945  1
  O  O235  1  0.49568629  0.24254090  0.12715351  1
  O  O236  1  0.48371693  0.25610450  0.61405217  1
  O  O237  1  0.48340188  0.74084018  0.13137770  1
  O  O238  1  0.49461519  0.74513779  0.63179429  1
  O  O239  1  1.00598525  0.23363214  0.11848517  1
  O  O240  1  0.98684665  0.25607598  0.63242847  1
  O  O241  1  1.02047464  0.72940456  0.13794423  1
  O  O242  1  0.99699665  0.74432774  0.63073563  1
  O  O243  1  0.00157996  0.26117420  0.38087454  1
  O  O244  1  -0.00560892  0.25898209  0.86664868  1
  O  O245  1  0.00727457  0.75717952  0.37705500  1
  O  O246  1  0.00453986  0.75664726  0.86650018  1
  O  O247  1  0.50298823  0.26192234  0.36971955  1
  O  O248  1  0.51407705  0.25450923  0.87518428  1
  O  O249  1  0.50534376  0.75840617  0.37740644  1
  O  O250  1  0.49381949  0.76748131  0.86184744  1
  O  O251  1  0.24270540  0.13894686  0.50329194  1
  O  O252  1  0.23695544  0.11898261  0.99705287  1
  O  O253  1  0.24043031  0.63280449  0.50329881  1
  O  O254  1  0.24571219  0.63072183  0.98902761  1
  O  O255  1  0.73736178  0.13212148  0.49756369  1
  O  O256  1  0.74960905  0.12690063  0.98786508  1
  O  O257  1  0.75115592  0.63621676  0.49784726  1
  O  O258  1  0.75292549  0.62393533  0.98664759  1
  O  O259  1  0.27178950  0.37314911  -0.00866464  1
  O  O260  1  0.24426246  0.35902607  0.51143143  1
  O  O261  1  0.25515656  0.87693466  0.00517685  1
  O  O262  1  0.25551919  0.86333601  0.49410376  1
  O  O263  1  0.75238849  0.36690539  0.00347445  1
  O  O264  1  0.75639156  0.36858470  0.50616368  1
  O  O265  1  0.74270389  0.87743965  -0.00183345  1
  O  O266  1  0.74976838  0.86241733  0.50762056  1
  O  O267  1  0.12582761  0.49131252  0.23818420  1
  O  O268  1  0.12288171  0.49800029  0.73874034  1
  O  O269  1  0.13141532  0.99908814  0.24598988  1
  O  O270  1  0.13486768  1.00392911  0.73471907  1
  O  O271  1  0.62850057  0.49177486  0.24524676  1
  O  O272  1  0.63875515  0.50360349  0.74539451  1
  O  O273  1  0.62475302  0.99207161  0.24278611  1
  O  O274  1  0.62920381  0.99764944  0.74161571  1
  O  O275  1  0.36818498  0.00776909  0.25301360  1
  O  O276  1  0.36234179  0.01119805  0.73654325  1
  O  O277  1  0.37263946  0.51225088  0.24293781  1
  O  O278  1  0.37784948  0.50707452  0.75509534  1
  O  O279  1  0.87279206  0.00646093  0.25998413  1
  O  O280  1  0.86989238  0.00655523  0.75288669  1
  O  O281  1  0.86810712  0.51205464  0.26181293  1
  O  O282  1  0.87025547  0.50666133  0.75784061  1
  O  O283  1  0.11672331  0.37128305  0.36636935  1
  O  O284  1  0.11206783  0.38191911  0.87262619  1
  O  O285  1  0.11852069  0.86729004  0.37330241  1
  O  O286  1  0.11358039  0.86892821  0.87214434  1
  O  O287  1  0.61766792  0.36958884  0.36265509  1
  O  O288  1  0.61332910  0.36646850  0.87743722  1
  O  O289  1  0.61626398  0.87033357  0.37108345  1
  O  O290  1  0.61172352  0.88568463  0.85894877  1
  O  O291  1  0.38334222  0.13079437  0.13372319  1
  O  O292  1  0.37575846  0.13639363  0.62780232  1
  O  O293  1  0.37632160  0.63107247  0.13136564  1
  O  O294  1  0.38524457  0.63780224  0.62376608  1
  O  O295  1  0.88467961  0.11829057  0.13533623  1
  O  O296  1  0.86818014  0.13427682  0.63426398  1
  O  O297  1  0.88330462  0.62651107  0.13547341  1
  O  O298  1  0.88129161  0.62923102  0.63173185  1
  O  O299  1  0.26278546  0.24346554  0.11831311  1
  O  O300  1  0.25875285  0.25840213  0.61720375  1
  O  O301  1  0.25795851  0.75656705  0.12073571  1
  O  O302  1  0.25820830  0.74762440  0.61663911  1
  O  O303  1  0.74245661  0.25302208  0.10971742  1
  O  O304  1  0.75953575  0.25614901  0.62218438  1
  O  O305  1  0.73972984  0.75340986  0.13359791  1
  O  O306  1  0.75202371  0.75207095  0.62140509  1
  O  O307  1  0.24818722  0.25359954  0.39038107  1
  O  O308  1  0.24882888  0.24313617  0.87223070  1
  O  O309  1  0.24219596  0.74357442  0.38536052  1
  O  O310  1  0.23970169  0.74740609  0.87729068  1
  O  O311  1  0.73958844  0.24969651  0.38446908  1
  O  O312  1  0.74485500  0.24591706  0.88036811  1
  O  O313  1  0.74169879  0.74474126  0.38528316  1
  O  O314  1  0.75689312  0.73493005  0.86914278  1
  O  O315  1  0.00784253  0.11661498  0.00338415  1
  O  O316  1  0.00352781  0.11337479  0.50134262  1
  O  O317  1  0.00500813  0.61164267  0.00861725  1
  O  O318  1  0.01242515  0.62418166  0.50848125  1
  O  O319  1  0.49038497  0.11627258  0.00842099  1
  O  O320  1  0.51120781  0.12070030  0.49475117  1
  O  O321  1  0.49283595  0.62478448  0.01440325  1
  O  O322  1  0.50010880  0.61610000  0.50544883  1
  O  O323  1  0.49872139  0.38209190  0.48390008  1
  O  O324  1  0.48740616  0.36749373  0.98905825  1
  O  O325  1  0.49504799  0.88230005  0.48912610  1
  O  O326  1  0.48977545  0.88477140  0.98412487  1
  O  O327  1  0.99293739  0.37447947  0.49518368  1
  O  O328  1  1.00256813  0.38455842  0.99329984  1
  O  O329  1  0.99851593  0.88316026  0.49087842  1
  O  O330  1  1.01088385  0.89436441  0.98702527  1
  O  O331  1  0.50147345  0.49045902  0.38163443  1
  O  O332  1  0.50438139  0.48670300  0.87402897  1
  O  O333  1  0.49352901  0.99418303  0.37946828  1
  O  O334  1  0.50015047  0.99677203  0.88120937  1
  O  O335  1  0.99298612  0.48772407  0.37861377  1
  O  O336  1  0.99416086  0.49615394  0.88420959  1
  O  O337  1  0.98978819  0.99321435  0.38438737  1
  O  O338  1  0.99694889  0.99506377  0.87636633  1
  O  O339  1  0.00764413  0.00721959  0.11644580  1
  O  O340  1  0.01160170  -0.00497868  0.61770373  1
  O  O341  1  0.00892723  0.50952037  0.11996691  1
  O  O342  1  0.00814663  0.50387210  0.62502302  1
  O  O343  1  0.50583058  0.00690907  0.11877772  1
  O  O344  1  0.51201907  -0.00600533  0.61635955  1
  O  O345  1  0.50887321  0.50694462  0.12912618  1
  O  O346  1  0.50249151  0.50835346  0.61642865  1
  O  O347  1  0.23618313  0.37465415  0.24994593  1
  O  O348  1  0.25117333  0.36771906  0.73545907  1
  O  O349  1  0.24401264  0.88189311  0.24532812  1
  O  O350  1  0.25939984  0.89195149  0.74973600  1
  O  O351  1  0.73945156  0.37998644  0.24772361  1
  O  O352  1  0.76001025  0.38481550  0.74265517  1
  O  O353  1  0.73675575  0.88014779  0.25973009  1
  O  O354  1  0.74201119  0.88037761  0.74804764  1
  O  O355  1  0.25851174  0.11664771  0.24459174  1
  O  O356  1  0.26058999  0.11451119  0.74390888  1
  O  O357  1  0.26418202  0.62383445  0.25055829  1
  O  O358  1  0.24920724  0.63245949  0.76404765  1
  O  O359  1  0.75749875  0.11967441  0.25256699  1
  O  O360  1  0.76063951  0.12192398  0.75715207  1
  O  O361  1  0.75578249  0.61789421  0.25976737  1
  O  O362  1  0.75707198  0.61687775  0.75864580  1
  O  O363  1  0.38057799  0.12128311  0.36054652  1
  O  O364  1  0.37702367  0.12747511  0.85593087  1
  O  O365  1  0.37631025  0.63022415  0.35887831  1
  O  O366  1  0.35678669  0.62600892  0.87472806  1
  O  O367  1  0.87414471  0.11530360  0.36979122  1
  O  O368  1  0.86723883  0.11819331  0.86810908  1
  O  O369  1  0.86888021  0.61925958  0.37301599  1
  O  O370  1  0.86843131  0.61435426  0.87086794  1
  O  O371  1  0.11910359  0.38577109  0.13251522  1
  O  O372  1  0.13559275  0.38001795  0.62976171  1
  O  O373  1  0.12655414  0.88876074  0.13286800  1
  O  O374  1  0.12541820  0.88750152  0.61922320  1
  O  O375  1  0.61800900  0.38006537  0.13528671  1
  O  O376  1  0.64075918  0.37265000  0.62297147  1
  O  O377  1  0.61730614  0.88470825  0.13819293  1
  O  O378  1  0.62857720  0.88323138  0.63370703  1
  O  O379  1  0.12651735  0.25570861  0.25105924  1
  O  O380  1  0.11137704  0.24400453  0.73925583  1
  O  O381  1  0.12844986  0.75306515  0.26408050  1
  O  O382  1  0.11245669  0.74755089  0.75611006  1
  O  O383  1  0.61885886  0.25642053  0.25250734  1
  O  O384  1  0.63524742  0.25243724  0.76683040  1
  O  O385  1  0.61915510  0.75845764  0.26460957  1
  O  O386  1  0.61459953  0.76208334  0.74534497  1
  O  O387  1  0.37824940  0.24473725  0.24140231  1
  O  O388  1  0.37585963  0.23578559  0.73463300  1
  O  O389  1  0.37361041  0.74302750  0.24362408  1
  O  O390  1  0.38207819  0.74874372  0.74159100  1
  O  O391  1  0.87210908  0.23439759  0.26073054  1
  O  O392  1  0.88095778  0.24279327  0.74400133  1
  O  O393  1  0.87638700  0.73759530  0.25394044  1
  O  O394  1  0.88440492  0.74295261  0.74491275  1
  O  O395  1  0.39334534  0.50133046  0.50353769  1
  O  O396  1  0.37632948  0.48789345  0.99525907  1
  O  O397  1  0.37677908  0.99828621  0.49542142  1
  O  O398  1  0.38317861  0.98985150  1.01039239  1
  O  O399  1  0.87604948  0.49438378  0.49457851  1
  O  O400  1  0.88459998  0.50345227  0.99259639  1
  O  O401  1  0.88210917  0.99933668  0.49749515  1
  O  O402  1  0.88405548  0.99967467  0.99298468  1
  O  O403  1  0.12135206  0.00803941  0.00732991  1
  O  O404  1  0.11967480  0.00367565  0.50819465  1
  O  O405  1  0.11952986  0.49700335  0.01290678  1
  O  O406  1  0.12423237  0.50631375  0.51117325  1
  O  O407  1  0.60823655  -0.00213214  0.00784012  1
  O  O408  1  0.62127197  0.00805808  0.50617794  1
  O  O409  1  0.63153740  0.50375089  0.01282615  1
  O  O410  1  0.60685230  0.49318392  0.50391322  1
  O  O411  1  0.38220245  0.36579635  0.11068436  1
  O  O412  1  0.36607458  0.36476766  0.62681671  1
  O  O413  1  0.36937157  0.86964407  0.12299956  1
  O  O414  1  0.38316167  0.86118998  0.61432573  1
  O  O415  1  0.88263742  0.37522720  0.14189349  1
  O  O416  1  0.86744078  0.36821047  0.61964142  1
  O  O417  1  0.90232382  0.86200507  0.11804712  1
  O  O418  1  0.86558060  0.86753956  0.62545790  1
  O  O419  1  0.11803350  0.12255599  0.39440872  1
  O  O420  1  0.12054198  0.11991839  0.88945597  1
  O  O421  1  0.12133322  0.63156673  0.38486144  1
  O  O422  1  0.13106425  0.63418155  0.87676787  1
  O  O423  1  0.62389671  0.13303366  0.38122413  1
  O  O424  1  0.63363691  0.13689630  0.87010894  1
  O  O425  1  0.62920365  0.63526364  0.36927888  1
  O  O426  1  0.64268409  0.62053380  0.87539942  1
