# generated using pymatgen
data_V85Zn86O256
_symmetry_space_group_name_H-M   'P 1'
_cell_length_a   16.93943291
_cell_length_b   16.93227878
_cell_length_c   16.93715825
_cell_angle_alpha   90.10625461
_cell_angle_beta   90.05387850
_cell_angle_gamma   90.00862036
_symmetry_Int_Tables_number   1
_chemical_formula_structural   V85Zn86O256
_chemical_formula_sum   'V85 Zn86 O256'
_cell_volume   4857.95937817
_cell_formula_units_Z   1
loop_
 _symmetry_equiv_pos_site_id
 _symmetry_equiv_pos_as_xyz
  1  'x, y, z'
loop_
 _atom_site_type_symbol
 _atom_site_label
 _atom_site_symmetry_multiplicity
 _atom_site_fract_x
 _atom_site_fract_y
 _atom_site_fract_z
 _atom_site_occupancy
  V  V0  1  0.36969370  0.75050953  0.12477870  1
  V  V1  1  0.88195226  0.49722130  0.37301964  1
  V  V2  1  0.49370920  0.24857736  0.25086824  1
  V  V3  1  0.13201541  0.49991569  0.12858336  1
  V  V4  1  0.62269965  0.62851599  -0.00180906  1
  V  V5  1  0.62360733  0.50070744  0.12482560  1
  V  V6  1  0.87662444  0.12287061  0.73439375  1
  V  V7  1  0.11656473  -0.00004587  0.62807952  1
  V  V8  1  0.75033843  0.87512603  0.12542564  1
  V  V9  1  0.75303953  0.87583718  0.63110793  1
  V  V10  1  0.37369170  0.00996188  0.87658591  1
  V  V11  1  0.49856750  0.37298973  0.37605078  1
  V  V12  1  0.12718784  0.62496908  0.50128089  1
  V  V13  1  0.24810645  0.11909595  0.36868743  1
  V  V14  1  0.49679622  0.12629461  0.12354599  1
  V  V15  1  0.62539501  0.37597948  0.25062084  1
  V  V16  1  0.25277343  0.74708120  0.50237730  1
  V  V17  1  0.36419221  0.87210863  -0.00286832  1
  V  V18  1  0.25052961  0.87896886  0.13849666  1
  V  V19  1  0.50112288  0.24396474  0.73172152  1
  V  V20  1  0.49889962  0.63119997  0.13227227  1
  V  V21  1  0.00452811  0.75322782  0.76263834  1
  V  V22  1  0.88492380  0.37142197  0.49841419  1
  V  V23  1  0.12007214  0.12507715  0.50295400  1
  V  V24  1  -0.00102066  -0.00196628  0.49449008  1
  V  V25  1  0.25215036  0.37058633  0.62515148  1
  V  V26  1  0.87618082  0.49851796  0.87473466  1
  V  V27  1  0.00025369  0.49806894  0.00182174  1
  V  V28  1  0.25580108  0.24556867  0.50212443  1
  V  V29  1  0.87879170  0.75135955  0.62386049  1
  V  V30  1  -0.00121019  0.36346421  0.87292478  1
  V  V31  1  0.36683315  0.62521849  0.24916392  1
  V  V32  1  0.38646261  0.63372718  0.74680147  1
  V  V33  1  -0.00828793  0.24978531  0.73420237  1
  V  V34  1  0.62360444  0.62411787  0.49939311  1
  V  V35  1  0.12640568  0.63679345  -0.00137852  1
  V  V36  1  0.49791701  0.50253603  0.50493534  1
  V  V37  1  0.50131149  0.00141984  -0.00162585  1
  V  V38  1  0.56953630  0.81862972  0.70370720  1
  V  V39  1  -0.00619638  0.12489342  0.12361827  1
  V  V40  1  0.62528030  0.37318993  0.74692182  1
  V  V41  1  0.24665966  0.00711725  0.75583845  1
  V  V42  1  -0.00900362  0.25203366  0.25460884  1
  V  V43  1  0.36435238  0.37244537  -0.00053721  1
  V  V44  1  -0.00083592  0.75634992  0.25457560  1
  V  V45  1  0.37769706  0.12489929  0.73474361  1
  V  V46  1  0.24825803  0.87461128  0.62858174  1
  V  V47  1  0.12083224  0.75604134  0.37677560  1
  V  V48  1  0.24690836  0.64394026  0.87783073  1
  V  V49  1  0.12241412  0.87442144  0.76952696  1
  V  V50  1  0.17024079  0.31890094  0.80587676  1
  V  V51  1  0.37424702  0.50383010  0.87458336  1
  V  V52  1  0.00070751  0.62415839  0.62633196  1
  V  V53  1  0.75210000  0.49806428  0.74822820  1
  V  V54  1  0.49921124  0.00655417  0.50158008  1
  V  V55  1  0.74566556  0.62732807  0.87432219  1
  V  V56  1  0.50165799  0.37066082  0.87530806  1
  V  V57  1  0.75233240  0.37035714  0.11808220  1
  V  V58  1  0.49817674  0.87289916  0.37000505  1
  V  V59  1  0.74389826  0.75400311  -0.00393479  1
  V  V60  1  0.75705255  0.36798651  0.62162960  1
  V  V61  1  0.36871404  0.49920904  0.37080114  1
  V  V62  1  0.62449675  0.50367696  0.62362197  1
  V  V63  1  0.62567078  0.00025434  0.12543474  1
  V  V64  1  0.62550721  0.74668407  0.36724207  1
  V  V65  1  0.87626118  0.74852072  0.12587777  1
  V  V66  1  0.36492923  0.24938733  0.12080972  1
  V  V67  1  0.49831489  0.50096398  -0.00011529  1
  V  V68  1  0.24582601  0.50643883  0.75309948  1
  V  V69  1  0.37576929  0.37191011  0.50384198  1
  V  V70  1  0.12657716  0.37900273  0.25979431  1
  V  V71  1  0.75084056  0.01379491  0.25440418  1
  V  V72  1  0.13072720  0.00655673  0.13207381  1
  V  V73  1  0.62935264  0.12358705  0.49113070  1
  V  V74  1  0.88517527  0.87663628  -0.00871587  1
  V  V75  1  0.12515510  0.49670409  0.62856264  1
  V  V76  1  0.37477048  0.87483067  0.50021623  1
  V  V77  1  0.51274168  0.86534315  0.88016570  1
  V  V78  1  0.63402626  0.13363093  -0.00148286  1
  V  V79  1  0.87720845  0.87388528  0.48938124  1
  V  V80  1  0.62231979  0.01230870  0.63243652  1
  V  V81  1  0.13822378  0.13978986  -0.00871653  1
  V  V82  1  0.75574755  0.24605824  0.49018919  1
  V  V83  1  0.87409917  0.01424540  0.36916256  1
  V  V84  1  0.62309278  0.87264900  0.24908677  1
  Zn  Zn85  1  0.86918717  0.24165894  0.12120074  1
  Zn  Zn86  1  0.87651118  0.62624224  0.75023759  1
  Zn  Zn87  1  0.12287472  0.88367206  0.25766739  1
  Zn  Zn88  1  0.00109179  0.62417649  0.12739716  1
  Zn  Zn89  1  0.63079840  0.25077938  0.87536542  1
  Zn  Zn90  1  0.00942453  0.00013621  -0.00854980  1
  Zn  Zn91  1  0.38859517  0.74987201  0.62784671  1
  Zn  Zn92  1  0.24607948  0.62160869  0.37067069  1
  Zn  Zn93  1  0.76302767  0.13218820  0.87736529  1
  Zn  Zn94  1  0.00479611  0.49461105  0.49686524  1
  Zn  Zn95  1  0.87393884  0.62568779  0.25197273  1
  Zn  Zn96  1  0.36428693  0.11921715  0.24483041  1
  Zn  Zn97  1  0.74727037  0.00079598  0.75687889  1
  Zn  Zn98  1  0.75335629  0.50100442  0.24978850  1
  Zn  Zn99  1  0.75045796  0.62179951  0.37270443  1
  Zn  Zn100  1  0.36897476  -0.00490091  0.36686772  1
  Zn  Zn101  1  0.75187707  0.74830471  0.49839014  1
  Zn  Zn102  1  0.62803876  0.24400757  0.37056025  1
  Zn  Zn103  1  0.24619829  0.37402924  0.12815740  1
  Zn  Zn104  1  0.88178636  0.00300830  0.87012010  1
  Zn  Zn105  1  0.11967643  0.25305714  0.37756815  1
  Zn  Zn106  1  0.86718553  0.36426259  -0.00658235  1
  Zn  Zn107  1  0.17869004  0.19291691  0.18705540  1
  Zn  Zn108  1  0.18907115  0.18164710  0.68391793  1
  Zn  Zn109  1  0.18664584  0.69019515  0.18581226  1
  Zn  Zn110  1  0.18705326  0.68990668  0.69132111  1
  Zn  Zn111  1  0.68314255  0.19085139  0.18533727  1
  Zn  Zn112  1  0.69097177  0.18768924  0.68480925  1
  Zn  Zn113  1  0.69053849  0.68589283  0.18763885  1
  Zn  Zn114  1  0.69318444  0.68295625  0.68358889  1
  Zn  Zn115  1  0.30697755  0.30940949  0.31409655  1
  Zn  Zn116  1  0.33218584  0.31094520  0.80782613  1
  Zn  Zn117  1  0.31406738  0.80460061  0.31248967  1
  Zn  Zn118  1  0.31722783  0.81868859  0.81266577  1
  Zn  Zn119  1  0.81344539  0.31617299  0.31193493  1
  Zn  Zn120  1  0.81263844  0.30568773  0.81258221  1
  Zn  Zn121  1  0.80782402  0.81305943  0.31091930  1
  Zn  Zn122  1  0.81222433  0.80949262  0.81074973  1
  Zn  Zn123  1  0.18799521  0.43725492  0.43921426  1
  Zn  Zn124  1  0.18733719  0.44841734  0.94195982  1
  Zn  Zn125  1  0.18736384  0.93726044  0.43954115  1
  Zn  Zn126  1  0.18782644  0.94837139  0.94363058  1
  Zn  Zn127  1  0.69254340  0.43575436  0.43452078  1
  Zn  Zn128  1  0.68556450  0.43859550  0.93684313  1
  Zn  Zn129  1  0.69175815  0.93768536  0.43910135  1
  Zn  Zn130  1  0.69417079  0.94535667  0.93605789  1
  Zn  Zn131  1  0.30854007  0.06189074  0.06214905  1
  Zn  Zn132  1  0.30895992  0.05781373  0.55957656  1
  Zn  Zn133  1  0.30901797  0.56392739  0.06045117  1
  Zn  Zn134  1  0.31526111  0.56336833  0.56737444  1
  Zn  Zn135  1  0.81378992  0.05863792  0.06426461  1
  Zn  Zn136  1  0.81098584  0.06177942  0.56159693  1
  Zn  Zn137  1  0.81089375  0.56032305  0.06195232  1
  Zn  Zn138  1  0.81292311  0.55987275  0.55792385  1
  Zn  Zn139  1  0.43530725  0.43791692  0.18677508  1
  Zn  Zn140  1  0.43612621  0.43963776  0.68821540  1
  Zn  Zn141  1  0.43609136  0.93815211  0.18775833  1
  Zn  Zn142  1  0.43439230  0.94357217  0.68578372  1
  Zn  Zn143  1  0.94103043  0.43460338  0.18866992  1
  Zn  Zn144  1  0.93893863  0.43388154  0.68916897  1
  Zn  Zn145  1  0.93953948  0.93864368  0.18640865  1
  Zn  Zn146  1  0.93978203  0.93605997  0.68979781  1
  Zn  Zn147  1  0.05833817  0.06625343  0.31196118  1
  Zn  Zn148  1  0.05400327  0.06864672  0.81816569  1
  Zn  Zn149  1  0.05890734  0.56797593  0.31151082  1
  Zn  Zn150  1  0.06280278  0.56483508  0.81543165  1
  Zn  Zn151  1  0.55666514  0.05940046  0.31140263  1
  Zn  Zn152  1  0.56100943  0.06409369  0.81503625  1
  Zn  Zn153  1  0.55649071  0.56051495  0.31320588  1
  Zn  Zn154  1  0.56430752  0.56095280  0.81282903  1
  Zn  Zn155  1  0.43474551  0.18520826  0.43785885  1
  Zn  Zn156  1  0.43816850  0.18898990  0.93592050  1
  Zn  Zn157  1  0.43965092  0.68733532  0.43593114  1
  Zn  Zn158  1  0.43409422  0.68983354  0.93899913  1
  Zn  Zn159  1  0.93869075  0.18636876  0.44028322  1
  Zn  Zn160  1  0.93684181  0.18511821  0.93875064  1
  Zn  Zn161  1  0.94002196  0.68300207  0.43749425  1
  Zn  Zn162  1  0.93335783  0.68429640  0.94176110  1
  Zn  Zn163  1  0.05951469  0.31168406  0.06422997  1
  Zn  Zn164  1  0.06866993  0.31349490  0.56260967  1
  Zn  Zn165  1  0.06419949  0.81483201  0.06993586  1
  Zn  Zn166  1  0.06205590  0.81497650  0.56429568  1
  Zn  Zn167  1  0.55743291  0.31341976  0.06489368  1
  Zn  Zn168  1  0.56996144  0.31319974  0.55773196  1
  Zn  Zn169  1  0.55889089  0.81178470  0.06257396  1
  Zn  Zn170  1  0.56671393  0.81685820  0.54231896  1
  O  O171  1  0.11912822  0.12072076  0.12095257  1
  O  O172  1  0.13077118  0.11362992  0.61180357  1
  O  O173  1  0.12383671  0.61799767  0.11945115  1
  O  O174  1  0.12132828  0.61676402  0.62255632  1
  O  O175  1  0.61686090  0.12159797  0.11578415  1
  O  O176  1  0.62723216  0.11812560  0.61135535  1
  O  O177  1  0.61560493  0.62224252  0.12041256  1
  O  O178  1  0.62813243  0.61200054  0.61754278  1
  O  O179  1  0.37827931  0.38081413  0.38038698  1
  O  O180  1  0.38299204  0.38183669  0.88123030  1
  O  O181  1  0.38285764  0.87208459  0.37884427  1
  O  O182  1  0.38424050  0.88546286  0.88170374  1
  O  O183  1  0.87367156  0.38689989  0.38339133  1
  O  O184  1  0.88227885  0.38179778  0.87370682  1
  O  O185  1  0.86935956  0.87645212  0.38765191  1
  O  O186  1  0.87016701  0.87193476  0.88989184  1
  O  O187  1  0.24941718  0.01449348  0.38151235  1
  O  O188  1  0.26077654  -0.00395329  0.86611595  1
  O  O189  1  0.26488288  0.50320839  0.38372001  1
  O  O190  1  0.25660729  0.50529363  0.86701184  1
  O  O191  1  0.76311477  -0.00459286  0.36811531  1
  O  O192  1  0.75995455  0.01038605  0.87257551  1
  O  O193  1  0.76327568  0.50024706  0.37215751  1
  O  O194  1  0.75711495  0.50297997  0.86908504  1
  O  O195  1  0.23591063  0.49798021  0.12224450  1
  O  O196  1  0.24491790  0.49521723  0.63408126  1
  O  O197  1  0.24434249  0.99203136  0.12787145  1
  O  O198  1  0.24109963  0.99204886  0.63198754  1
  O  O199  1  0.73934526  0.49304159  0.12660562  1
  O  O200  1  0.74379216  0.49376005  0.62913537  1
  O  O201  1  0.74487270  0.99322959  0.13311544  1
  O  O202  1  0.73816947  0.99141441  0.62377965  1
  O  O203  1  0.00963684  0.36068092  0.24481279  1
  O  O204  1  -0.00053008  0.36183315  0.75575376  1
  O  O205  1  0.00316162  0.86152673  0.24489613  1
  O  O206  1  0.01118660  0.86541898  0.74592886  1
  O  O207  1  0.50310470  0.36520105  0.25293063  1
  O  O208  1  0.50173820  0.36631171  0.75462314  1
  O  O209  1  0.51386573  0.87848179  0.25585571  1
  O  O210  1  0.50479201  0.87865210  0.76105570  1
  O  O211  1  0.50333185  0.13805019  0.24321392  1
  O  O212  1  0.49619721  0.13749588  0.75027091  1
  O  O213  1  0.49115809  0.62002365  0.23658405  1
  O  O214  1  0.48476185  0.62152287  0.75767135  1
  O  O215  1  1.00791367  0.13960733  0.23716515  1
  O  O216  1  0.99309836  0.14052532  0.74833736  1
  O  O217  1  0.99400429  0.63885814  0.24674136  1
  O  O218  1  1.00094409  0.63078054  0.73941703  1
  O  O219  1  0.38138482  0.26069052  0.00706801  1
  O  O220  1  0.36435581  0.25501203  0.49898239  1
  O  O221  1  0.37658476  0.76114773  0.00874681  1
  O  O222  1  0.37051725  0.75350298  0.50621061  1
  O  O223  1  0.88520404  0.25491632  0.00929000  1
  O  O224  1  0.86879616  0.25774870  0.49532616  1
  O  O225  1  0.86652003  0.75822076  0.00602794  1
  O  O226  1  0.87825405  0.75621530  0.50822490  1
  O  O227  1  0.13107402  0.24085112  0.49851747  1
  O  O228  1  0.12522709  0.23964331  1.00493577  1
  O  O229  1  0.13162216  0.74573900  0.49708195  1
  O  O230  1  0.11735318  0.73569822  1.00651930  1
  O  O231  1  0.63236593  0.24068746  0.49467192  1
  O  O232  1  0.61586257  0.23581149  1.00163159  1
  O  O233  1  0.62813784  0.73952819  0.48986344  1
  O  O234  1  0.63655359  0.74557106  1.00534541  1
  O  O235  1  0.48818796  0.24784187  0.13272586  1
  O  O236  1  0.50384313  0.25562557  0.63375039  1
  O  O237  1  0.48763446  0.74048421  0.11957547  1
  O  O238  1  0.51043938  0.76753048  0.63588320  1
  O  O239  1  0.99967677  0.23995901  0.13502585  1
  O  O240  1  1.00397632  0.25511440  0.63649428  1
  O  O241  1  0.99110460  0.74782754  0.13215751  1
  O  O242  1  0.99553416  0.74281384  0.62991213  1
  O  O243  1  0.00102195  0.24153410  0.35918588  1
  O  O244  1  0.00051632  0.26155587  0.86660377  1
  O  O245  1  0.00907316  0.74669417  0.36992971  1
  O  O246  1  -0.00844176  0.74066030  0.86054653  1
  O  O247  1  0.49924650  0.25448296  0.36718324  1
  O  O248  1  0.50220494  0.26204697  0.86765731  1
  O  O249  1  0.51086692  0.76343286  0.38089783  1
  O  O250  1  0.49904800  0.76614143  0.88052008  1
  O  O251  1  0.24377050  0.13031437  0.49493892  1
  O  O252  1  0.23864746  0.12621372  1.00154891  1
  O  O253  1  0.24594330  0.63265304  0.50326792  1
  O  O254  1  0.24058401  0.62224831  0.98909345  1
  O  O255  1  0.74338441  0.13433692  0.50231973  1
  O  O256  1  0.73595901  0.12203341  1.00612022  1
  O  O257  1  0.73587250  0.62433217  0.49748242  1
  O  O258  1  0.74422026  0.63207223  0.99365752  1
  O  O259  1  0.26191102  0.38024339  -0.00052762  1
  O  O260  1  0.25438465  0.36687394  0.50725080  1
  O  O261  1  0.26234464  0.88254266  0.00915088  1
  O  O262  1  0.25583681  0.86897030  0.50823282  1
  O  O263  1  0.74635253  0.37948420  0.01428882  1
  O  O264  1  0.75868809  0.36819333  0.50472399  1
  O  O265  1  0.75492407  0.86855713  0.00544305  1
  O  O266  1  0.75796215  0.87246597  0.51203712  1
  O  O267  1  0.11355273  0.48828565  0.24378322  1
  O  O268  1  0.13736621  0.50662562  0.74420701  1
  O  O269  1  0.11908254  1.00001976  0.23900528  1
  O  O270  1  0.13019072  0.99723371  0.74516246  1
  O  O271  1  0.61858126  0.48824804  0.24424344  1
  O  O272  1  0.62874654  0.49408223  0.74055171  1
  O  O273  1  0.63008066  0.99380102  0.24503454  1
  O  O274  1  0.62658495  1.00958106  0.73785455  1
  O  O275  1  0.38598721  0.00878257  0.25550527  1
  O  O276  1  0.36882552  0.00560294  0.75725241  1
  O  O277  1  0.38045460  0.50759326  0.26021448  1
  O  O278  1  0.36519690  0.50914911  0.75357583  1
  O  O279  1  0.86755469  -0.00662755  0.26240357  1
  O  O280  1  0.87579050  0.01215300  0.74564597  1
  O  O281  1  0.87789163  0.49919634  0.26164116  1
  O  O282  1  0.87235312  0.50207323  0.76007301  1
  O  O283  1  0.12345555  0.37747304  0.36462629  1
  O  O284  1  0.11866688  0.38155314  0.87124696  1
  O  O285  1  0.13142865  0.86098514  0.37581039  1
  O  O286  1  0.13264213  0.87947137  0.86797491  1
  O  O287  1  0.61708841  0.37474302  0.36627332  1
  O  O288  1  0.61691106  0.37686957  0.86573702  1
  O  O289  1  0.62119774  0.86852547  0.36907623  1
  O  O290  1  0.61169672  0.87991123  0.88411888  1
  O  O291  1  0.37984002  0.13275808  0.12365530  1
  O  O292  1  0.37579230  0.11332937  0.63552718  1
  O  O293  1  0.37805588  0.63007220  0.12896458  1
  O  O294  1  0.37522259  0.62868138  0.64138824  1
  O  O295  1  0.88944776  0.12114411  0.12508724  1
  O  O296  1  0.87802674  0.12229085  0.63426393  1
  O  O297  1  0.87440200  0.63845764  0.12134007  1
  O  O298  1  0.88343429  0.63140258  0.62370770  1
  O  O299  1  0.26203985  0.25179856  0.13046635  1
  O  O300  1  0.24353072  0.25900256  0.61670340  1
  O  O301  1  0.26180199  0.75879027  0.12664541  1
  O  O302  1  0.24902450  0.75748967  0.61635206  1
  O  O303  1  0.74957270  0.26629878  0.12982512  1
  O  O304  1  0.74309608  0.26346487  0.61261579  1
  O  O305  1  0.75586333  0.75555769  0.11721586  1
  O  O306  1  0.76126610  0.75510040  0.62221912  1
  O  O307  1  0.24401735  0.24094732  0.38642502  1
  O  O308  1  0.23623489  0.26772049  0.85816708  1
  O  O309  1  0.24614905  0.74594235  0.38933862  1
  O  O310  1  0.25428525  0.74291598  0.87261715  1
  O  O311  1  0.74680776  0.25607088  0.38532556  1
  O  O312  1  0.74340626  0.24531068  0.87333061  1
  O  O313  1  0.73798274  0.74760068  0.37759768  1
  O  O314  1  0.75465541  0.73974689  0.88340337  1
  O  O315  1  0.00939410  0.12447758  0.01457270  1
  O  O316  1  0.00729684  0.11168989  0.49726620  1
  O  O317  1  0.00554692  0.61284237  -0.00109899  1
  O  O318  1  0.00839585  0.62330277  0.51380778  1
  O  O319  1  0.50449401  0.11745424  0.00446651  1
  O  O320  1  0.50479259  0.11195390  0.49490502  1
  O  O321  1  0.50280846  0.62051755  0.00602005  1
  O  O322  1  0.51146617  0.61625283  0.49706443  1
  O  O323  1  0.49508678  0.38004051  0.49577211  1
  O  O324  1  0.49448212  0.38102842  0.99162630  1
  O  O325  1  0.49346087  0.88465423  0.49082076  1
  O  O326  1  0.49298956  0.88249465  0.99377437  1
  O  O327  1  0.98931976  0.37435207  0.50565443  1
  O  O328  1  1.00231283  0.38628383  0.99043448  1
  O  O329  1  0.99190749  0.88767522  0.50484767  1
  O  O330  1  0.98667008  0.87238072  1.00599015  1
  O  O331  1  0.49064940  0.49382975  0.38626839  1
  O  O332  1  0.49429002  0.48991776  0.87722329  1
  O  O333  1  0.50151864  0.98624716  0.38301526  1
  O  O334  1  0.49538904  0.99421654  0.88448734  1
  O  O335  1  0.98741276  0.50486517  0.37916172  1
  O  O336  1  0.99260035  0.49365126  0.87787898  1
  O  O337  1  0.98633577  1.00054291  0.37966603  1
  O  O338  1  0.99613121  0.99574403  0.87889977  1
  O  O339  1  0.00676905  0.01163149  0.12455035  1
  O  O340  1  0.01256546  -0.00467807  0.61885619  1
  O  O341  1  0.00539127  0.50121277  0.11625448  1
  O  O342  1  0.00958528  0.50580294  0.62713107  1
  O  O343  1  0.50491095  0.00283953  0.11321350  1
  O  O344  1  0.51194922  -0.00915354  0.61446476  1
  O  O345  1  0.50415914  0.50690248  0.11880506  1
  O  O346  1  0.50772088  0.49357705  0.61311515  1
  O  O347  1  0.23205008  0.37255378  0.25014419  1
  O  O348  1  0.24362674  0.37796551  0.74768579  1
  O  O349  1  0.24967632  0.87070212  0.24153302  1
  O  O350  1  0.24485865  0.88420642  0.74488386  1
  O  O351  1  0.73942933  0.37859674  0.24154187  1
  O  O352  1  0.74674540  0.37870496  0.73997823  1
  O  O353  1  0.73801805  0.88153256  0.24514602  1
  O  O354  1  0.75728056  0.87831360  0.73624329  1
  O  O355  1  0.24370156  0.13312503  0.26653365  1
  O  O356  1  0.25843353  0.11429817  0.74677404  1
  O  O357  1  0.26209760  0.62697179  0.25065879  1
  O  O358  1  0.25644303  0.62097008  0.75782457  1
  O  O359  1  0.74182340  0.11297040  0.24523898  1
  O  O360  1  0.76612206  0.12584874  0.74523113  1
  O  O361  1  0.75469548  0.61953344  0.25255489  1
  O  O362  1  0.75306439  0.61715243  0.75716968  1
  O  O363  1  0.35729401  0.12506996  0.37540770  1
  O  O364  1  0.38300103  0.11387999  0.86623042  1
  O  O365  1  0.37690236  0.61853265  0.36584677  1
  O  O366  1  0.36778895  0.62230731  0.86843947  1
  O  O367  1  0.87341198  0.11247316  0.37516582  1
  O  O368  1  0.88023745  0.12519133  0.85926741  1
  O  O369  1  0.87197798  0.61178034  0.37836220  1
  O  O370  1  0.86308478  0.61595899  0.87542092  1
  O  O371  1  0.12531908  0.38288500  0.13339917  1
  O  O372  1  0.13657569  0.38852886  0.62152778  1
  O  O373  1  0.13604428  0.88363359  0.12777684  1
  O  O374  1  0.13570928  0.88177347  0.62915462  1
  O  O375  1  0.62998993  0.37929376  0.13059133  1
  O  O376  1  0.63350651  0.38592113  0.62671438  1
  O  O377  1  0.62745072  0.87928092  0.13125699  1
  O  O378  1  0.62926351  0.87414400  0.63230761  1
  O  O379  1  0.11617887  0.26370465  0.25398822  1
  O  O380  1  0.11770556  0.24976034  0.74893840  1
  O  O381  1  0.11823107  0.75040056  0.26003803  1
  O  O382  1  0.11740352  0.76176408  0.74794874  1
  O  O383  1  0.61542455  0.26107636  0.24996524  1
  O  O384  1  0.61468370  0.25436236  0.74814362  1
  O  O385  1  0.62732209  0.75730477  0.25720012  1
  O  O386  1  0.62739003  0.75333502  0.75053042  1
  O  O387  1  0.37960712  0.24710605  0.24328453  1
  O  O388  1  0.38993630  0.23996466  0.74561226  1
  O  O389  1  0.37735157  0.73882861  0.24046694  1
  O  O390  1  0.37426961  0.73878460  0.74846165  1
  O  O391  1  0.88708574  0.25714536  0.24388240  1
  O  O392  1  0.88535118  0.24316555  0.74350488  1
  O  O393  1  0.87909859  0.75173487  0.24286770  1
  O  O394  1  0.88298798  0.74914123  0.73765852  1
  O  O395  1  0.38267170  0.49572549  0.49737183  1
  O  O396  1  0.38010095  0.49457968  0.99495283  1
  O  O397  1  0.38236249  0.99284903  0.49596750  1
  O  O398  1  0.38256485  0.99600793  0.99427781  1
  O  O399  1  0.87841443  0.49129271  0.49119897  1
  O  O400  1  0.88049602  0.49631474  0.98920149  1
  O  O401  1  0.87960422  0.99537248  0.48990656  1
  O  O402  1  0.87602195  0.98271671  1.00370259  1
  O  O403  1  0.12499079  0.00861263  0.01619309  1
  O  O404  1  0.11705158  0.00291839  0.50564761  1
  O  O405  1  0.11650933  0.50705383  0.00960489  1
  O  O406  1  0.12551719  0.50655162  0.50915867  1
  O  O407  1  0.61848889  0.00840127  0.00622587  1
  O  O408  1  0.62004156  0.00468842  0.50583291  1
  O  O409  1  0.61778040  0.50744940  0.00519763  1
  O  O410  1  0.61898935  0.50339523  0.50365175  1
  O  O411  1  0.37229013  0.36959722  0.11643462  1
  O  O412  1  0.36010175  0.38184004  0.62164711  1
  O  O413  1  0.37086012  0.86862051  0.11952644  1
  O  O414  1  0.36383767  0.87285784  0.62340796  1
  O  O415  1  0.85703192  0.38218569  0.12466627  1
  O  O416  1  0.86493372  0.38433034  0.61461632  1
  O  O417  1  0.86953953  0.86505475  0.11853171  1
  O  O418  1  0.87052705  0.86929483  0.61701690  1
  O  O419  1  0.13232789  0.12388551  0.38685381  1
  O  O420  1  0.12273307  0.12345881  0.89238098  1
  O  O421  1  0.12734337  0.63312267  0.38319478  1
  O  O422  1  0.13550227  0.62103758  0.88467672  1
  O  O423  1  0.62117974  0.12250518  0.38606829  1
  O  O424  1  0.62250465  0.12527596  0.89168505  1
  O  O425  1  0.62208056  0.63109797  0.37895870  1
  O  O426  1  0.63767227  0.61772610  0.88097142  1
