# generated using pymatgen
data_V85Zn86O256
_symmetry_space_group_name_H-M   'P 1'
_cell_length_a   16.94203249
_cell_length_b   16.93991776
_cell_length_c   16.94917778
_cell_angle_alpha   90.01226020
_cell_angle_beta   90.04137564
_cell_angle_gamma   90.04587095
_symmetry_Int_Tables_number   1
_chemical_formula_structural   V85Zn86O256
_chemical_formula_sum   'V85 Zn86 O256'
_cell_volume   4864.35408219
_cell_formula_units_Z   1
loop_
 _symmetry_equiv_pos_site_id
 _symmetry_equiv_pos_as_xyz
  1  'x, y, z'
loop_
 _atom_site_type_symbol
 _atom_site_label
 _atom_site_symmetry_multiplicity
 _atom_site_fract_x
 _atom_site_fract_y
 _atom_site_fract_z
 _atom_site_occupancy
  V  V0  1  0.00010292  0.62596492  0.12607711  1
  V  V1  1  0.38797252  0.24917595  0.62639841  1
  V  V2  1  0.87474314  0.48999821  0.87629186  1
  V  V3  1  0.63214315  0.87469684  0.23704341  1
  V  V4  1  0.49984272  0.75475900  0.75008768  1
  V  V5  1  -0.00078231  0.37044260  0.37188275  1
  V  V6  1  0.50404014  0.87713712  0.87599232  1
  V  V7  1  0.62382735  0.74947112  0.87119694  1
  V  V8  1  0.12560917  0.49971207  0.12723907  1
  V  V9  1  -0.00159783  0.74872859  0.25142427  1
  V  V10  1  0.74556108  0.49894694  0.74538820  1
  V  V11  1  0.74708988  0.37080000  0.62744110  1
  V  V12  1  0.24734081  0.62026121  0.38088096  1
  V  V13  1  0.25178378  0.37413414  0.62308306  1
  V  V14  1  0.87557188  0.37255920  0.50332405  1
  V  V15  1  -0.06517493  0.18881333  0.67895010  1
  V  V16  1  0.88925590  0.13126331  0.23893072  1
  V  V17  1  0.49840069  0.61803805  0.12655425  1
  V  V18  1  0.63877801  0.38741718  0.25155405  1
  V  V19  1  0.25451529  0.25035853  0.49824524  1
  V  V20  1  0.25134475  0.25204515  -0.00053224  1
  V  V21  1  0.12212920  0.24930622  0.37248240  1
  V  V22  1  0.87077893  0.87712701  0.50356256  1
  V  V23  1  0.50503907  0.00300447  0.00804940  1
  V  V24  1  0.37604756  0.62681113  0.75008691  1
  V  V25  1  0.37643264  0.49351806  0.87964965  1
  V  V26  1  0.75049846  0.24678925  0.49794099  1
  V  V27  1  0.12709965  0.50254249  0.61583403  1
  V  V28  1  0.38165687  0.13022608  0.75276795  1
  V  V29  1  0.62182825  0.24540133  0.36290806  1
  V  V30  1  0.12514433  0.87448667  0.25010725  1
  V  V31  1  0.87792298  0.27030041  0.11945351  1
  V  V32  1  0.37377382  0.00259011  0.87778058  1
  V  V33  1  0.50001558  0.75196541  0.24835790  1
  V  V34  1  0.24986848  0.49696610  0.74870202  1
  V  V35  1  0.12212646  0.36953613  0.24675387  1
  V  V36  1  0.61768316  0.49541976  0.62328890  1
  V  V37  1  0.12546230  0.62560121  0.00094044  1
  V  V38  1  0.37607908  0.75351784  0.61705817  1
  V  V39  1  0.12402048  0.74517884  0.38346646  1
  V  V40  1  0.25626498  0.37541936  0.12292573  1
  V  V41  1  0.38065658  -0.00986014  0.38223766  1
  V  V42  1  -0.00573558  0.87504519  0.87707720  1
  V  V43  1  0.38568108  0.38123257  0.49844750  1
  V  V44  1  0.23925998  0.13094771  0.87412950  1
  V  V45  1  0.00120772  0.74840738  0.75110150  1
  V  V46  1  0.74765307  0.75706020  0.00280843  1
  V  V47  1  0.87118451  0.62332712  0.25106374  1
  V  V48  1  -0.00192625  0.00217151  0.00473856  1
  V  V49  1  0.63382470  0.24900929  0.86381531  1
  V  V50  1  0.24857409  -0.00092113  0.75194103  1
  V  V51  1  0.63515551  0.12812158  0.00135310  1
  V  V52  1  0.25414317  0.87598093  0.61662756  1
  V  V53  1  0.74929735  -0.00026299  0.23051278  1
  V  V54  1  0.49970610  0.37639062  0.36570042  1
  V  V55  1  0.74079806  0.00783370  0.75438600  1
  V  V56  1  0.11986248  0.12926154  0.00882381  1
  V  V57  1  0.86917932  0.00320387  0.37374132  1
  V  V58  1  0.86879367  0.75589784  0.12565369  1
  V  V59  1  -0.00504324  0.00539249  0.50750561  1
  V  V60  1  -0.00603384  0.49233979  -0.00024906  1
  V  V61  1  -0.00288067  0.87461880  0.37737631  1
  V  V62  1  0.49612970  0.36260655  0.86053076  1
  V  V63  1  0.74748689  0.62029206  0.37179073  1
  V  V64  1  0.25525690  0.12493036  0.37373027  1
  V  V65  1  0.25300466  -0.00012445  0.24756813  1
  V  V66  1  0.87612912  0.62328398  0.75033131  1
  V  V67  1  0.62084119  0.11731013  0.50377242  1
  V  V68  1  0.00580480  0.62618006  0.61948497  1
  V  V69  1  0.50433679  0.12717955  0.13036103  1
  V  V70  1  0.74761714  0.74927408  0.50068741  1
  V  V71  1  0.87096987  0.49687761  0.37137596  1
  V  V72  1  0.12220945  0.12607025  0.50131716  1
  V  V73  1  0.62429336  0.62437447  0.00327390  1
  V  V74  1  0.61620409  0.61985983  0.49920293  1
  V  V75  1  0.49695453  0.48676789  0.00367755  1
  V  V76  1  0.37855647  0.25095188  0.13094109  1
  V  V77  1  0.68173550  0.44489661  0.07862660  1
  V  V78  1  0.73532769  0.87748694  0.63617893  1
  V  V79  1  0.87485418  0.01556264  0.86976116  1
  V  V80  1  0.12502348  0.00195334  0.62494345  1
  V  V81  1  0.24760733  0.62590886  0.87743581  1
  V  V82  1  0.12511601  0.87551747  0.75194373  1
  V  V83  1  0.37330775  0.87508516  0.00397769  1
  V  V84  1  0.87403474  0.75125952  0.62742395  1
  Zn  Zn85  1  0.38355038  0.50601471  0.37656777  1
  Zn  Zn86  1  0.49727098  0.62149557  0.62079979  1
  Zn  Zn87  1  0.50568013  0.87372457  0.37702013  1
  Zn  Zn88  1  0.37340548  0.62457676  0.25148925  1
  Zn  Zn89  1  0.74957722  0.12379116  0.37114883  1
  Zn  Zn90  1  0.51161872  0.12115733  0.63732538  1
  Zn  Zn91  1  0.24701061  0.87441778  0.12289857  1
  Zn  Zn92  1  0.24876746  0.74910602  0.50094816  1
  Zn  Zn93  1  0.62571645  0.75176173  0.37294071  1
  Zn  Zn94  1  0.37114975  0.74855470  0.12568667  1
  Zn  Zn95  1  0.00565247  0.35433151  0.87251005  1
  Zn  Zn96  1  0.75066930  0.26253241  0.00542279  1
  Zn  Zn97  1  0.11580388  0.00435083  0.13085908  1
  Zn  Zn98  1  0.25058899  0.75158476  0.00234535  1
  Zn  Zn99  1  0.38649618  0.12610086  0.25419008  1
  Zn  Zn100  1  0.00266886  0.50408474  0.49676037  1
  Zn  Zn101  1  0.11547969  0.34896609  0.74844368  1
  Zn  Zn102  1  0.50055367  -0.01420629  0.51667332  1
  Zn  Zn103  1  0.12600990  0.75078896  0.87582685  1
  Zn  Zn104  1  0.74889467  0.62526299  0.87351693  1
  Zn  Zn105  1  0.25471505  0.50050961  0.25100800  1
  Zn  Zn106  1  0.86898301  0.87833468  0.00205495  1
  Zn  Zn107  1  0.18788506  0.18838921  0.18746835  1
  Zn  Zn108  1  0.19492250  0.18569586  0.68197860  1
  Zn  Zn109  1  0.19056576  0.68940226  0.19075563  1
  Zn  Zn110  1  0.18694523  0.68667889  0.68761103  1
  Zn  Zn111  1  0.69368746  0.18842773  0.18472286  1
  Zn  Zn112  1  0.69690674  0.18706959  0.68487112  1
  Zn  Zn113  1  0.68488491  0.68340072  0.18623754  1
  Zn  Zn114  1  0.68536136  0.68545610  0.68590561  1
  Zn  Zn115  1  0.31311687  0.31311575  0.30865370  1
  Zn  Zn116  1  0.30981246  0.31159677  0.81178343  1
  Zn  Zn117  1  0.31145918  0.80893978  0.31133226  1
  Zn  Zn118  1  0.31405933  0.81295390  0.81464078  1
  Zn  Zn119  1  0.81237139  0.30702427  0.31016335  1
  Zn  Zn120  1  0.81646702  0.30844327  0.80847888  1
  Zn  Zn121  1  0.80826470  0.81396017  0.31294633  1
  Zn  Zn122  1  0.81076335  0.81274688  0.81352141  1
  Zn  Zn123  1  0.18928683  0.43531660  0.43727918  1
  Zn  Zn124  1  0.18668244  0.43499657  0.94070784  1
  Zn  Zn125  1  0.18725009  0.93857880  0.43508820  1
  Zn  Zn126  1  0.18268574  0.94147307  0.93806694  1
  Zn  Zn127  1  0.68601697  0.43669485  0.43818227  1
  Zn  Zn128  1  0.68278939  0.43249737  0.91242444  1
  Zn  Zn129  1  0.68441482  0.93322415  0.43414985  1
  Zn  Zn130  1  0.68649729  0.94090410  0.93508139  1
  Zn  Zn131  1  0.31361786  0.06531598  0.06427246  1
  Zn  Zn132  1  0.31770482  0.06359328  0.56346423  1
  Zn  Zn133  1  0.31483735  0.56022125  0.06302271  1
  Zn  Zn134  1  0.31361014  0.56420186  0.55857536  1
  Zn  Zn135  1  0.81717398  0.06619355  0.05951829  1
  Zn  Zn136  1  0.80590698  0.06294203  0.56885223  1
  Zn  Zn137  1  0.81567862  0.57175345  0.05824777  1
  Zn  Zn138  1  0.81182833  0.56040882  0.56007423  1
  Zn  Zn139  1  0.43779058  0.43705303  0.19257394  1
  Zn  Zn140  1  0.43593943  0.43711982  0.68742316  1
  Zn  Zn141  1  0.43951731  0.93898208  0.18941349  1
  Zn  Zn142  1  0.43885761  0.93895813  0.68906241  1
  Zn  Zn143  1  0.93843126  0.43843578  0.19082237  1
  Zn  Zn144  1  0.93639143  0.43400295  0.68413059  1
  Zn  Zn145  1  0.93475431  0.93673190  0.18828405  1
  Zn  Zn146  1  0.93508419  0.94225341  0.69069989  1
  Zn  Zn147  1  0.06188275  0.05976067  0.31810788  1
  Zn  Zn148  1  0.05845377  0.17837625  0.81088057  1
  Zn  Zn149  1  0.06337474  0.55909231  0.31336343  1
  Zn  Zn150  1  0.06501249  0.49751454  0.81125110  1
  Zn  Zn151  1  0.56800529  0.05752854  0.31219887  1
  Zn  Zn152  1  0.56459941  0.06507945  0.81902511  1
  Zn  Zn153  1  0.56185402  0.56009093  0.31288054  1
  Zn  Zn154  1  0.56104317  0.56091064  0.81233497  1
  Zn  Zn155  1  0.44215217  0.18953460  0.43667195  1
  Zn  Zn156  1  0.43413884  0.18817749  0.94336878  1
  Zn  Zn157  1  0.43684711  0.69105235  0.43392065  1
  Zn  Zn158  1  0.43717626  0.68518492  0.94019713  1
  Zn  Zn159  1  0.93435442  0.18675922  0.43838488  1
  Zn  Zn160  1  0.93309033  0.19011111  0.94914615  1
  Zn  Zn161  1  0.93372445  0.68736612  0.43854159  1
  Zn  Zn162  1  0.93742066  0.68436352  0.93600163  1
  Zn  Zn163  1  0.05947130  0.30797670  0.06305646  1
  Zn  Zn164  1  0.06276910  0.31387321  0.56255973  1
  Zn  Zn165  1  0.06115537  0.81252814  0.06327610  1
  Zn  Zn166  1  0.06149295  0.81687313  0.56467498  1
  Zn  Zn167  1  0.56048244  0.30543618  0.06042606  1
  Zn  Zn168  1  0.56619283  0.30941473  0.55699074  1
  Zn  Zn169  1  0.55980109  0.81048791  0.06298534  1
  Zn  Zn170  1  0.56095512  0.81080779  0.56056603  1
  O  O171  1  0.13022599  0.12133610  0.11411485  1
  O  O172  1  0.13743096  0.11666627  0.60751186  1
  O  O173  1  0.12141127  0.62052262  0.12044763  1
  O  O174  1  0.11645214  0.62066735  0.62368357  1
  O  O175  1  0.61874376  0.13359167  0.11073070  1
  O  O176  1  0.62661391  0.13312451  0.60760507  1
  O  O177  1  0.61349749  0.62762098  0.11202370  1
  O  O178  1  0.62308773  0.61682055  0.61591565  1
  O  O179  1  0.38729544  0.37109469  0.37861266  1
  O  O180  1  0.38395702  0.38176548  0.87254094  1
  O  O181  1  0.37413480  0.88821705  0.37098850  1
  O  O182  1  0.38399628  0.88002687  0.88531585  1
  O  O183  1  0.88060921  0.37945412  0.37756328  1
  O  O184  1  0.87811016  0.38782409  0.86993385  1
  O  O185  1  0.87759154  0.88105059  0.38244259  1
  O  O186  1  0.88623886  0.87010450  0.87880532  1
  O  O187  1  0.25921736  0.00545379  0.36861371  1
  O  O188  1  0.25286037  0.00728603  0.86873680  1
  O  O189  1  0.24779313  0.51177165  0.37475457  1
  O  O190  1  0.26020812  0.50439845  0.86834507  1
  O  O191  1  0.76247352  -0.00179836  0.37255223  1
  O  O192  1  0.76402217  -0.01017857  0.86477523  1
  O  O193  1  0.75817212  0.50848831  0.38015736  1
  O  O194  1  0.75570066  0.50320120  0.86386562  1
  O  O195  1  0.24463444  0.49203713  0.12509933  1
  O  O196  1  0.24901436  0.49581223  0.62907425  1
  O  O197  1  0.25002712  0.99890251  0.13942256  1
  O  O198  1  0.25019929  0.99325807  0.63147462  1
  O  O199  1  0.74433130  0.50646027  0.12442075  1
  O  O200  1  0.74196668  0.49386278  0.62872060  1
  O  O201  1  0.75635565  0.99693079  0.13267862  1
  O  O202  1  0.75311815  0.98595658  0.63873840  1
  O  O203  1  0.00986625  0.37849179  0.26001469  1
  O  O204  1  0.01012109  0.40084043  0.75930290  1
  O  O205  1  0.00440143  0.87054976  0.25828090  1
  O  O206  1  0.00488977  0.87038745  0.75631659  1
  O  O207  1  0.50993834  0.37308876  0.26123662  1
  O  O208  1  0.49495823  0.37224855  0.76206255  1
  O  O209  1  0.51129156  0.86924907  0.24994961  1
  O  O210  1  0.49287030  0.86248014  0.76132710  1
  O  O211  1  0.50636709  0.11637687  0.23447552  1
  O  O212  1  0.48540282  0.12177600  0.75639931  1
  O  O213  1  0.50279524  0.63049694  0.24125464  1
  O  O214  1  0.48790947  0.63244365  0.75300423  1
  O  O215  1  0.98707829  0.11769156  0.25364329  1
  O  O216  1  0.99247249  0.12498872  0.73490847  1
  O  O217  1  0.99399962  0.63004008  0.24684442  1
  O  O218  1  0.98976706  0.63105302  0.73642331  1
  O  O219  1  0.36029619  0.24402412  0.01452655  1
  O  O220  1  0.37286173  0.25623106  0.50592744  1
  O  O221  1  0.37568641  0.76083889  0.00142957  1
  O  O222  1  0.37447926  0.74704421  0.51410072  1
  O  O223  1  0.86687471  0.25599219  0.01293316  1
  O  O224  1  0.86119079  0.26013380  0.48935522  1
  O  O225  1  0.86456270  0.74637455  0.00738084  1
  O  O226  1  0.86314446  0.75432893  0.50603020  1
  O  O227  1  0.13170857  0.24360642  0.49403620  1
  O  O228  1  0.13809485  0.24208267  1.00729492  1
  O  O229  1  0.12267633  0.75751333  0.48617730  1
  O  O230  1  0.12445452  0.73663583  0.99860470  1
  O  O231  1  0.63409584  0.24285315  0.48694617  1
  O  O232  1  0.63028281  0.24253504  0.99359161  1
  O  O233  1  0.63655469  0.74009358  0.50060776  1
  O  O234  1  0.62651019  0.74231569  0.99247210  1
  O  O235  1  0.48968848  0.24142955  0.12041855  1
  O  O236  1  0.49105791  0.24521149  0.62132476  1
  O  O237  1  0.49863861  0.74039771  0.13342408  1
  O  O238  1  0.49379573  0.74742839  0.63511607  1
  O  O239  1  0.98006285  0.25360825  0.12255014  1
  O  O240  1  0.99761044  0.25513944  0.63139882  1
  O  O241  1  0.99322670  0.74422244  0.13213939  1
  O  O242  1  0.99482295  0.74621939  0.63011578  1
  O  O243  1  0.00590584  0.26243856  0.38130764  1
  O  O244  1  0.00069794  0.24440355  0.88089993  1
  O  O245  1  0.00360913  0.75310596  0.37089301  1
  O  O246  1  0.00261684  0.75466625  0.86850065  1
  O  O247  1  0.51095967  0.26093769  0.37593294  1
  O  O248  1  0.50127797  0.26001017  0.88039026  1
  O  O249  1  0.50362656  0.74856255  0.35959064  1
  O  O250  1  0.50410098  0.75536593  0.87113407  1
  O  O251  1  0.24629944  0.12778591  0.48850748  1
  O  O252  1  0.24409212  0.13039496  0.99413837  1
  O  O253  1  0.24947249  0.62898088  0.48673448  1
  O  O254  1  0.24416694  0.62406148  0.99397098  1
  O  O255  1  0.74138434  0.13144179  0.49724814  1
  O  O256  1  0.73639238  0.12333981  1.00054074  1
  O  O257  1  0.74537942  0.63197452  0.49235137  1
  O  O258  1  0.73919063  0.63446377  0.99559537  1
  O  O259  1  0.24487678  0.36772072  0.01292724  1
  O  O260  1  0.25973655  0.36814335  0.50243920  1
  O  O261  1  0.25837473  0.87708342  -0.00056613  1
  O  O262  1  0.24494014  0.87470715  0.51327932  1
  O  O263  1  0.73352448  0.38911735  0.01086848  1
  O  O264  1  0.75583214  0.36782442  0.50353803  1
  O  O265  1  0.74749352  0.86103367  -0.00462193  1
  O  O266  1  0.75122757  0.86867602  0.51028806  1
  O  O267  1  0.12699636  0.48915893  0.24312222  1
  O  O268  1  0.14581763  0.51623905  0.73406261  1
  O  O269  1  0.13135910  0.99221325  0.25277947  1
  O  O270  1  0.14001117  0.99633877  0.74203606  1
  O  O271  1  0.62601868  0.48670526  0.25087257  1
  O  O272  1  0.63761595  0.50700438  0.74292964  1
  O  O273  1  0.64155351  0.99078346  0.25003444  1
  O  O274  1  0.64091071  0.99911450  0.76469779  1
  O  O275  1  0.36766447  0.00346041  0.25880946  1
  O  O276  1  0.36412651  0.00483461  0.75860230  1
  O  O277  1  0.37319413  0.50434811  0.25774528  1
  O  O278  1  0.36848782  0.50731933  0.75595769  1
  O  O279  1  0.86590141  0.00320987  0.25490651  1
  O  O280  1  0.86844644  -0.00425229  0.76517765  1
  O  O281  1  0.87959472  0.50745681  0.26372553  1
  O  O282  1  0.86529849  0.50762262  0.75311015  1
  O  O283  1  0.11880382  0.37103391  0.36850083  1
  O  O284  1  0.11806328  0.40099605  0.86105796  1
  O  O285  1  0.11893914  0.86992128  0.36694033  1
  O  O286  1  0.11294049  0.87574697  0.86926127  1
  O  O287  1  0.61913281  0.37030856  0.36632224  1
  O  O288  1  0.60839588  0.36033939  0.87139027  1
  O  O289  1  0.62658487  0.87075647  0.35881193  1
  O  O290  1  0.61105715  0.86525284  0.88195492  1
  O  O291  1  0.38471724  0.13104718  0.12855201  1
  O  O292  1  0.37292631  0.13473133  0.63515180  1
  O  O293  1  0.38759831  0.62590369  0.12434791  1
  O  O294  1  0.37609311  0.63130810  0.63357018  1
  O  O295  1  0.87880052  0.12249996  0.13774351  1
  O  O296  1  0.88369812  0.13178710  0.61035381  1
  O  O297  1  0.88047187  0.63363657  0.13263719  1
  O  O298  1  0.87722501  0.62998448  0.63256825  1
  O  O299  1  0.25607885  0.25701997  0.12098811  1
  O  O300  1  0.26112732  0.25619902  0.61501166  1
  O  O301  1  0.25265805  0.75542019  0.12184441  1
  O  O302  1  0.25689948  0.75755529  0.62482587  1
  O  O303  1  0.76821774  0.24560596  0.12320192  1
  O  O304  1  0.74420026  0.26250070  0.61332633  1
  O  O305  1  0.75725519  0.74123422  0.11571711  1
  O  O306  1  0.75344864  0.75828475  0.62148462  1
  O  O307  1  0.24576935  0.24256070  0.37827011  1
  O  O308  1  0.25784024  0.24236355  0.88711318  1
  O  O309  1  0.24138607  0.74221629  0.37758066  1
  O  O310  1  0.24857495  0.73998678  0.87831495  1
  O  O311  1  0.74142438  0.24690864  0.38064859  1
  O  O312  1  0.73616005  0.26475523  0.88140272  1
  O  O313  1  0.75040799  0.74242356  0.38566306  1
  O  O314  1  0.73850944  0.74751167  0.87917552  1
  O  O315  1  0.00940227  0.11488455  -0.00191692  1
  O  O316  1  0.01016442  0.11614647  0.49068002  1
  O  O317  1  0.00781741  0.62136606  0.00747423  1
  O  O318  1  -0.00952903  0.62416444  0.51460629  1
  O  O319  1  0.50586107  0.11937613  0.00810263  1
  O  O320  1  0.51544738  0.12353510  0.49833093  1
  O  O321  1  0.50630555  0.61252748  0.00371792  1
  O  O322  1  0.51249627  0.63007466  0.49910209  1
  O  O323  1  0.49388376  0.36893863  0.48720871  1
  O  O324  1  0.50560829  0.38457246  0.99256759  1
  O  O325  1  0.50754853  0.87601125  0.49059211  1
  O  O326  1  0.49519573  0.88298529  0.99578046  1
  O  O327  1  0.99065410  0.37768356  0.49359112  1
  O  O328  1  1.00818728  0.39080282  0.99626650  1
  O  O329  1  0.99145280  0.88243460  0.49551523  1
  O  O330  1  0.99926749  0.87944762  0.99164075  1
  O  O331  1  0.50201722  0.48238954  0.37580346  1
  O  O332  1  0.49454715  0.48897130  0.87899365  1
  O  O333  1  0.48582548  0.99989106  0.37141231  1
  O  O334  1  0.49500327  0.99274039  0.88344818  1
  O  O335  1  0.99430946  0.48970731  0.37846833  1
  O  O336  1  0.98519012  0.51636626  0.88836296  1
  O  O337  1  0.98816205  0.99409404  0.38426761  1
  O  O338  1  0.98428021  0.99011118  0.88525394  1
  O  O339  1  -0.00330632  -0.00845584  0.10978260  1
  O  O340  1  0.00567170  -0.00766988  0.61258911  1
  O  O341  1  0.00382309  0.50674021  0.11904052  1
  O  O342  1  0.01047350  0.50895522  0.62215313  1
  O  O343  1  0.49744422  0.00654361  0.11302972  1
  O  O344  1  0.49378041  0.00952405  0.62641020  1
  O  O345  1  0.49596222  0.50432637  0.11570219  1
  O  O346  1  0.51322281  0.50173098  0.63271677  1
  O  O347  1  0.24198006  0.37693109  0.24031328  1
  O  O348  1  0.25320256  0.38514525  0.74133796  1
  O  O349  1  0.24096224  0.88264307  0.25185229  1
  O  O350  1  0.24551924  0.88139730  0.74708444  1
  O  O351  1  0.73775311  0.37784539  0.25691572  1
  O  O352  1  0.75558759  0.38448821  0.73718800  1
  O  O353  1  0.74320144  0.88473293  0.24831919  1
  O  O354  1  0.75149346  0.87765570  0.73957012  1
  O  O355  1  0.24677461  0.11730734  0.26237345  1
  O  O356  1  0.25919909  0.11642186  0.75821307  1
  O  O357  1  0.25079415  0.62400411  0.26426334  1
  O  O358  1  0.26117749  0.62242370  0.75728329  1
  O  O359  1  0.75588961  0.10930718  0.24976840  1
  O  O360  1  0.75168315  0.10648658  0.74358506  1
  O  O361  1  0.75338585  0.63089735  0.26450495  1
  O  O362  1  0.75812702  0.61818206  0.74783112  1
  O  O363  1  0.36943099  0.11975251  0.37305501  1
  O  O364  1  0.36637317  0.12102445  0.87179040  1
  O  O365  1  0.36193880  0.62513173  0.37604015  1
  O  O366  1  0.36756687  0.61757125  0.87033050  1
  O  O367  1  0.87247527  0.11789558  0.36405219  1
  O  O368  1  0.87288389  0.11298066  0.87992589  1
  O  O369  1  0.86766099  0.61693360  0.37235454  1
  O  O370  1  0.87120864  0.62218227  0.86093489  1
  O  O371  1  0.12969990  0.37841339  0.13157189  1
  O  O372  1  0.13396341  0.38368033  0.62803834  1
  O  O373  1  0.12324076  0.87658724  0.13986843  1
  O  O374  1  0.13308324  0.88167402  0.63217730  1
  O  O375  1  0.62419204  0.37580466  0.13548451  1
  O  O376  1  0.63391752  0.38283412  0.61710182  1
  O  O377  1  0.62275839  0.87265394  0.13722395  1
  O  O378  1  0.63750986  0.86800050  0.62849194  1
  O  O379  1  0.12898240  0.26109634  0.25621059  1
  O  O380  1  0.13892378  0.24062079  0.75842119  1
  O  O381  1  0.11855205  0.75724658  0.26022813  1
  O  O382  1  0.11904716  0.75623524  0.75208265  1
  O  O383  1  0.63236395  0.25666214  0.25977650  1
  O  O384  1  0.63018179  0.23902500  0.76514223  1
  O  O385  1  0.62178726  0.75950262  0.24829807  1
  O  O386  1  0.61476173  0.74027476  0.76246872  1
  O  O387  1  0.36901933  0.24304981  0.23679290  1
  O  O388  1  0.36820435  0.24127538  0.73963707  1
  O  O389  1  0.38491237  0.74812744  0.24648487  1
  O  O390  1  0.38074493  0.74294346  0.74566412  1
  O  O391  1  0.87320443  0.23638460  0.24301988  1
  O  O392  1  0.86938124  0.24114333  0.73837383  1
  O  O393  1  0.87745217  0.74496707  0.24512065  1
  O  O394  1  0.87874028  0.74297286  0.74541930  1
  O  O395  1  0.37267712  0.48560573  0.49688841  1
  O  O396  1  0.38324895  0.50267768  0.98731913  1
  O  O397  1  0.37597007  1.00343573  0.48488277  1
  O  O398  1  0.38208013  0.99622882  0.99497248  1
  O  O399  1  0.87546145  0.49166827  0.48793212  1
  O  O400  1  0.88143543  0.50776516  0.98982763  1
  O  O401  1  0.87825712  0.99827175  0.49424416  1
  O  O402  1  0.87775178  0.99691010  0.98994154  1
  O  O403  1  0.11531113  0.00764608  0.00408962  1
  O  O404  1  0.11611019  0.00618933  0.50130481  1
  O  O405  1  0.11890731  0.51150181  0.00785010  1
  O  O406  1  0.12599799  0.49678189  0.51194010  1
  O  O407  1  0.61688587  0.01507477  -0.00924029  1
  O  O408  1  0.62755545  0.01506931  0.49299582  1
  O  O409  1  0.62315596  0.50169906  0.00476648  1
  O  O410  1  0.63084862  0.50895648  0.50978767  1
  O  O411  1  0.36611608  0.36741581  0.13036653  1
  O  O412  1  0.37409699  0.36887729  0.61669905  1
  O  O413  1  0.37578387  0.87758922  0.11255647  1
  O  O414  1  0.36437371  0.86494021  0.63535659  1
  O  O415  1  0.87159897  0.36985530  0.13196893  1
  O  O416  1  0.86460642  0.38540636  0.60962011  1
  O  O417  1  0.87781607  0.85946170  0.12273648  1
  O  O418  1  0.86913804  0.86873334  0.62010918  1
  O  O419  1  0.13293772  0.12752349  0.38330563  1
  O  O420  1  0.13729958  0.12187270  0.88740821  1
  O  O421  1  0.13368877  0.63255140  0.37226989  1
  O  O422  1  0.13973422  0.62016468  0.88305669  1
  O  O423  1  0.62716982  0.13116979  0.38003095  1
  O  O424  1  0.61636895  0.14163031  0.88870051  1
  O  O425  1  0.63191882  0.62493357  0.38139614  1
  O  O426  1  0.62172030  0.63033878  0.88659820  1
