# generated using pymatgen
data_V85Zn86O256
_symmetry_space_group_name_H-M   'P 1'
_cell_length_a   16.94314336
_cell_length_b   16.91933137
_cell_length_c   16.94533952
_cell_angle_alpha   90.01626642
_cell_angle_beta   89.99647790
_cell_angle_gamma   90.05886221
_symmetry_Int_Tables_number   1
_chemical_formula_structural   V85Zn86O256
_chemical_formula_sum   'V85 Zn86 O256'
_cell_volume   4857.66106313
_cell_formula_units_Z   1
loop_
 _symmetry_equiv_pos_site_id
 _symmetry_equiv_pos_as_xyz
  1  'x, y, z'
loop_
 _atom_site_type_symbol
 _atom_site_label
 _atom_site_symmetry_multiplicity
 _atom_site_fract_x
 _atom_site_fract_y
 _atom_site_fract_z
 _atom_site_occupancy
  V  V0  1  0.61388588  0.01016361  0.62505336  1
  V  V1  1  0.75045225  0.12883683  0.87445612  1
  V  V2  1  0.87917773  0.00212664  0.88021603  1
  V  V3  1  0.38120225  0.49725888  0.87296812  1
  V  V4  1  0.12926492  0.37173210  0.74239401  1
  V  V5  1  0.87148140  0.12229586  0.26390377  1
  V  V6  1  0.13006151  0.37999674  0.24984795  1
  V  V7  1  0.24193507  0.10505233  0.36996960  1
  V  V8  1  0.24650917  0.12380466  0.88026229  1
  V  V9  1  0.36685822  0.49126621  0.38304287  1
  V  V10  1  0.61916930  0.12241950  -0.00110812  1
  V  V11  1  0.37320571  0.75659974  0.61601706  1
  V  V12  1  0.63232743  0.11943132  0.48905325  1
  V  V13  1  0.87904634  0.38693562  0.00266628  1
  V  V14  1  0.38063930  0.13203863  0.75694531  1
  V  V15  1  -0.00087920  0.25038391  0.24956335  1
  V  V16  1  0.25079202  0.49743224  0.73771638  1
  V  V17  1  0.37328850  0.61311523  0.24854960  1
  V  V18  1  0.87356662  0.74757856  0.12869070  1
  V  V19  1  -0.00608746  0.88647013  0.37554870  1
  V  V20  1  0.24863850  0.89043163  0.62154414  1
  V  V21  1  0.74324175  0.74821628  0.50071317  1
  V  V22  1  0.74898964  0.37896539  0.12695508  1
  V  V23  1  0.12031829  -0.00467551  0.12161468  1
  V  V24  1  0.61520221  0.74746573  0.37619720  1
  V  V25  1  0.75158656  0.36806918  0.62666593  1
  V  V26  1  0.50259677  0.62740485  0.61222802  1
  V  V27  1  0.61540396  0.25704604  0.87505517  1
  V  V28  1  -0.00556178  0.74568241  0.25449053  1
  V  V29  1  0.37756197  0.62812054  0.74596784  1
  V  V30  1  0.12488151  0.74927495  0.87214659  1
  V  V31  1  0.12754230  0.87655144  0.25345236  1
  V  V32  1  0.12292544  0.61018168  0.51083634  1
  V  V33  1  0.87751553  0.38206547  0.50157279  1
  V  V34  1  0.75264260  0.00220376  0.74697298  1
  V  V35  1  0.24896880  0.25108717  0.00296025  1
  V  V36  1  0.38134977  0.37478155  -0.00160649  1
  V  V37  1  0.37990805  0.87566217  0.00227203  1
  V  V38  1  0.38249480  0.74423339  0.12925370  1
  V  V39  1  -0.00313726  0.00224240  0.51979407  1
  V  V40  1  0.62553374  0.50289741  0.61601103  1
  V  V41  1  -0.00601363  0.11650842  0.12205958  1
  V  V42  1  0.49853335  0.36370636  0.38004909  1
  V  V43  1  0.61754067  0.37937225  0.75224664  1
  V  V44  1  0.74886425  0.25327761  0.00065323  1
  V  V45  1  0.12155943  0.12657720  0.51356588  1
  V  V46  1  0.49808414  0.12216725  0.12578908  1
  V  V47  1  0.88017507  0.51209558  0.37276350  1
  V  V48  1  0.12116686  0.62176701  -0.00356324  1
  V  V49  1  0.00096269  0.87672970  0.87974486  1
  V  V50  1  0.25114019  0.74874532  0.00023365  1
  V  V51  1  0.75230627  0.75327792  -0.00040257  1
  V  V52  1  0.25031339  0.62402590  0.87296563  1
  V  V53  1  0.12344637  0.88269167  0.74412403  1
  V  V54  1  0.75210025  0.50744831  0.24969731  1
  V  V55  1  0.61685331  0.50491935  0.12960810  1
  V  V56  1  0.87878346  0.50465428  0.86729019  1
  V  V57  1  0.49996903  0.50171477  -0.00002369  1
  V  V58  1  0.25256832  0.38100072  0.12756641  1
  V  V59  1  0.62304573  0.75238133  0.87162078  1
  V  V60  1  0.50005272  0.88184852  0.87317825  1
  V  V61  1  0.00113907  0.38155610  0.37749038  1
  V  V62  1  0.13540580  0.24925443  0.37427618  1
  V  V63  1  0.26020623  0.35718865  0.61416459  1
  V  V64  1  0.37415171  -0.00045801  0.88081640  1
  V  V65  1  0.12365599  0.74844782  0.38204784  1
  V  V66  1  0.75261524  0.00001127  0.26255822  1
  V  V67  1  0.87448000  0.25010814  0.12508449  1
  V  V68  1  -0.00288537  0.73968395  0.74652880  1
  V  V69  1  0.88255842  0.14152450  0.74618633  1
  V  V70  1  0.61858699  0.62731545  0.00271536  1
  V  V71  1  0.49252258  0.89673452  0.37908009  1
  V  V72  1  0.00538256  0.38181477  0.88062241  1
  V  V73  1  0.36425953  0.11283854  0.24739661  1
  V  V74  1  0.11688764  0.25013909  0.87671215  1
  V  V75  1  0.12570572  0.50332017  0.12534975  1
  V  V76  1  0.62710640  -0.00211483  0.12145703  1
  V  V77  1  0.25253292  0.87787407  0.13036859  1
  V  V78  1  0.87161099  0.87925579  0.49973489  1
  V  V79  1  0.76181997  0.24496954  0.49005952  1
  V  V80  1  0.87471427  0.74084298  0.62761170  1
  V  V81  1  -0.00286349  0.62176894  0.12609959  1
  V  V82  1  0.11992292  0.12039133  0.00251170  1
  V  V83  1  0.74180626  0.62474594  0.37771926  1
  V  V84  1  0.75397670  0.62645996  0.86777327  1
  Zn  Zn85  1  -0.00435139  0.16790659  0.63033169  1
  Zn  Zn86  1  0.75133002  0.50406005  0.74568320  1
  Zn  Zn87  1  0.24554742  0.62082452  0.37263829  1
  Zn  Zn88  1  0.98306752  0.57950052  0.60503933  1
  Zn  Zn89  1  0.62314734  0.87416290  0.25042609  1
  Zn  Zn90  1  0.74558953  0.87562343  0.62525346  1
  Zn  Zn91  1  0.75057480  0.87520518  0.12721073  1
  Zn  Zn92  1  0.49897755  0.24683372  0.25044140  1
  Zn  Zn93  1  0.47311714  0.13699460  0.59608163  1
  Zn  Zn94  1  0.49939105  0.75612415  0.74431620  1
  Zn  Zn95  1  0.41146322  0.28650263  0.54912891  1
  Zn  Zn96  1  0.24715648  0.75342621  0.49987422  1
  Zn  Zn97  1  0.88004962  0.87980626  0.00302242  1
  Zn  Zn98  1  0.62325805  0.88012130  0.74605958  1
  Zn  Zn99  1  0.62207034  0.37269309  0.25175954  1
  Zn  Zn100  1  0.37615180  0.25006290  0.12681613  1
  Zn  Zn101  1  0.63214165  0.24640977  0.36958845  1
  Zn  Zn102  1  0.36993161  0.90601431  0.49321151  1
  Zn  Zn103  1  0.24695328  0.00439331  0.74945055  1
  Zn  Zn104  1  0.49610020  0.48964548  0.50138521  1
  Zn  Zn105  1  0.49715285  0.25462342  0.74040070  1
  Zn  Zn106  1  0.49961647  0.74695074  0.25094371  1
  Zn  Zn107  1  0.18598775  0.18919261  0.18729214  1
  Zn  Zn108  1  0.19176632  0.18924123  0.69343064  1
  Zn  Zn109  1  0.19166861  0.69017483  0.19198805  1
  Zn  Zn110  1  0.18806775  0.69229187  0.68465411  1
  Zn  Zn111  1  0.68789131  0.18609329  0.19012854  1
  Zn  Zn112  1  0.68873971  0.18980473  0.68677712  1
  Zn  Zn113  1  0.68575380  0.68681212  0.19073579  1
  Zn  Zn114  1  0.68491487  0.68827719  0.68678188  1
  Zn  Zn115  1  0.31752408  0.30650505  0.30974847  1
  Zn  Zn116  1  0.30889724  0.31315554  0.81736651  1
  Zn  Zn117  1  0.31329746  0.81183740  0.31440914  1
  Zn  Zn118  1  0.31098903  0.81349419  0.80747023  1
  Zn  Zn119  1  0.81554518  0.31943641  0.31031736  1
  Zn  Zn120  1  0.80853624  0.31952809  0.81628869  1
  Zn  Zn121  1  0.81034995  0.81334886  0.31365866  1
  Zn  Zn122  1  0.81334037  0.81533726  0.81017939  1
  Zn  Zn123  1  0.18988556  0.43632330  0.44015454  1
  Zn  Zn124  1  0.19186293  0.44165293  0.93812173  1
  Zn  Zn125  1  0.17844238  0.93935057  0.44485108  1
  Zn  Zn126  1  0.18751512  0.93535620  0.93963505  1
  Zn  Zn127  1  0.68723163  0.43483240  0.43698193  1
  Zn  Zn128  1  0.68872503  0.44041537  0.93803384  1
  Zn  Zn129  1  0.68318121  0.93289491  0.43715780  1
  Zn  Zn130  1  0.69008411  0.93939300  0.93616080  1
  Zn  Zn131  1  0.31039516  0.05819854  0.06442795  1
  Zn  Zn132  1  0.31284004  0.09402349  0.55654505  1
  Zn  Zn133  1  0.31150682  0.56221117  0.06386358  1
  Zn  Zn134  1  0.30824637  0.56659929  0.55946502  1
  Zn  Zn135  1  0.80783124  0.06312182  0.06364261  1
  Zn  Zn136  1  0.81638548  0.06455688  0.56666903  1
  Zn  Zn137  1  0.80857863  0.56747929  0.06009891  1
  Zn  Zn138  1  0.80723457  0.56102293  0.55874766  1
  Zn  Zn139  1  0.43931974  0.43659098  0.19179391  1
  Zn  Zn140  1  0.43675043  0.43653342  0.68298985  1
  Zn  Zn141  1  0.44368886  0.93602949  0.19020338  1
  Zn  Zn142  1  0.43424758  0.94512981  0.68668276  1
  Zn  Zn143  1  0.93850205  0.44158168  0.19153631  1
  Zn  Zn144  1  0.96078632  0.38060895  0.67009097  1
  Zn  Zn145  1  0.93455372  0.93469243  0.18971729  1
  Zn  Zn146  1  0.93043160  0.92995796  0.69272456  1
  Zn  Zn147  1  0.05939602  0.06010555  0.30827821  1
  Zn  Zn148  1  0.05782334  0.06307174  0.81013720  1
  Zn  Zn149  1  0.06555413  0.56506675  0.31143234  1
  Zn  Zn150  1  0.03419097  0.52831139  0.76404053  1
  Zn  Zn151  1  0.56843408  0.06686714  0.30695948  1
  Zn  Zn152  1  0.56285543  0.06243089  0.81487382  1
  Zn  Zn153  1  0.55437346  0.56023032  0.31642306  1
  Zn  Zn154  1  0.56206421  0.56411481  0.80824944  1
  Zn  Zn155  1  0.43011673  0.09287281  0.43943105  1
  Zn  Zn156  1  0.43855326  0.18876580  0.93946776  1
  Zn  Zn157  1  0.43125073  0.68235642  0.43519734  1
  Zn  Zn158  1  0.43876567  0.69007627  0.93534742  1
  Zn  Zn159  1  0.94501054  0.19305678  0.44064497  1
  Zn  Zn160  1  0.93561979  0.18912238  0.94012902  1
  Zn  Zn161  1  0.93840447  0.68855037  0.44398448  1
  Zn  Zn162  1  0.93933587  0.68826660  0.93786067  1
  Zn  Zn163  1  0.06090682  0.31200131  0.06287818  1
  Zn  Zn164  1  0.07239283  0.31868032  0.55440048  1
  Zn  Zn165  1  0.06199214  0.80852107  0.06251066  1
  Zn  Zn166  1  0.05973722  0.81390350  0.56423545  1
  Zn  Zn167  1  0.56245670  0.31233194  0.06577274  1
  Zn  Zn168  1  0.57653065  0.30680711  0.56053136  1
  Zn  Zn169  1  0.56165768  0.81473713  0.06108628  1
  Zn  Zn170  1  0.56051315  0.82053271  0.55870119  1
  O  O171  1  0.11648723  0.11380098  0.12496795  1
  O  O172  1  0.12201489  0.13741125  0.61611810  1
  O  O173  1  0.12212244  0.62070664  0.12153469  1
  O  O174  1  0.12691633  0.62641003  0.61221405  1
  O  O175  1  0.61949426  0.11944507  0.11760449  1
  O  O176  1  0.63532509  0.12019381  0.61250453  1
  O  O177  1  0.62987796  0.61792593  0.11473665  1
  O  O178  1  0.61396000  0.61652319  0.63193935  1
  O  O179  1  0.38159685  0.38318343  0.36986646  1
  O  O180  1  0.36980547  0.38569599  0.88583581  1
  O  O181  1  0.38821820  0.87443779  0.37654721  1
  O  O182  1  0.37938124  0.87911602  0.88105442  1
  O  O183  1  0.88423838  0.38652394  0.37781675  1
  O  O184  1  0.88310044  0.38258055  0.88404472  1
  O  O185  1  0.88324149  0.86680996  0.38691352  1
  O  O186  1  0.88321524  0.88343790  0.87578202  1
  O  O187  1  0.23427446  0.00668878  0.36635257  1
  O  O188  1  0.25622673  0.00599689  0.87741158  1
  O  O189  1  0.26275153  0.49559812  0.37392655  1
  O  O190  1  0.26364807  0.50715851  0.86988455  1
  O  O191  1  0.74739990  -0.00449437  0.36100679  1
  O  O192  1  0.75433978  0.00864866  0.86528420  1
  O  O193  1  0.75327162  0.50702464  0.36938143  1
  O  O194  1  0.75660153  0.51180341  0.87761038  1
  O  O195  1  0.24230977  0.48842692  0.12243690  1
  O  O196  1  0.25935388  0.49223473  0.63536236  1
  O  O197  1  0.24041415  0.98423845  0.12155182  1
  O  O198  1  0.25205393  0.99208584  0.62829876  1
  O  O199  1  0.74285033  0.50071882  0.13215906  1
  O  O200  1  0.74121420  0.49494172  0.62566497  1
  O  O201  1  0.73968595  0.99761079  0.12970970  1
  O  O202  1  0.74991289  1.00165900  0.63887341  1
  O  O203  1  0.01036936  0.37240852  0.25564473  1
  O  O204  1  0.01801152  0.37147042  0.77246469  1
  O  O205  1  0.00328158  0.86562206  0.25790016  1
  O  O206  1  0.00648956  0.86765572  0.75941429  1
  O  O207  1  0.50131518  0.37154276  0.26209643  1
  O  O208  1  0.51328238  0.37561962  0.74671609  1
  O  O209  1  0.50111040  0.87104408  0.26508184  1
  O  O210  1  0.50086037  0.87633265  0.75818602  1
  O  O211  1  0.48864465  0.12403578  0.24289350  1
  O  O212  1  0.48583255  0.12978562  0.76319959  1
  O  O213  1  0.47981459  0.62746691  0.25520988  1
  O  O214  1  0.48737080  0.62820571  0.74267603  1
  O  O215  1  0.99208135  0.12785056  0.23871508  1
  O  O216  1  0.98743821  0.12894916  0.74826110  1
  O  O217  1  1.00502785  0.63842433  0.24214025  1
  O  O218  1  1.00637477  0.63988938  0.74924251  1
  O  O219  1  0.36869121  0.25859995  0.00262466  1
  O  O220  1  0.38691480  0.18270460  0.51483617  1
  O  O221  1  0.36941411  0.75342627  0.00674631  1
  O  O222  1  0.37160014  0.74807496  0.51073881  1
  O  O223  1  0.86837355  0.26097979  0.00574673  1
  O  O224  1  0.86883468  0.26452926  0.49441507  1
  O  O225  1  0.86646622  0.75158405  0.00632513  1
  O  O226  1  0.86502466  0.75731230  0.50586685  1
  O  O227  1  0.11656282  0.23843698  0.48428292  1
  O  O228  1  0.13009651  0.24237493  0.99785440  1
  O  O229  1  0.12125607  0.74854225  0.49041061  1
  O  O230  1  0.13274140  0.74380021  0.99458967  1
  O  O231  1  0.64419847  0.23844857  0.49352978  1
  O  O232  1  0.63070443  0.24668523  0.99491636  1
  O  O233  1  0.63683589  0.75651165  0.49438367  1
  O  O234  1  0.62891434  0.74606347  0.99113374  1
  O  O235  1  0.49990803  0.23484498  0.12514235  1
  O  O236  1  0.50233902  0.24776919  0.62454239  1
  O  O237  1  0.48550636  0.75431009  0.12487685  1
  O  O238  1  0.49475815  0.74605506  0.62396581  1
  O  O239  1  0.99383610  0.24302027  0.13106231  1
  O  O240  1  0.99922354  0.28022336  0.62902900  1
  O  O241  1  0.99411893  0.74288734  0.13286963  1
  O  O242  1  0.98817242  0.75643518  0.63381842  1
  O  O243  1  0.00753176  0.26101822  0.36649252  1
  O  O244  1  0.01257248  0.25680599  0.88570468  1
  O  O245  1  0.00428893  0.75544665  0.36961790  1
  O  O246  1  0.00446120  0.75561124  0.86713349  1
  O  O247  1  0.49826408  0.26178595  0.37310411  1
  O  O248  1  0.51375549  0.25174188  0.87742793  1
  O  O249  1  0.51022298  0.74555176  0.37961230  1
  O  O250  1  0.50682763  0.76145585  0.87216547  1
  O  O251  1  0.23020339  0.11892143  0.47866584  1
  O  O252  1  0.24145544  0.13019115  0.99969467  1
  O  O253  1  0.23601204  0.62962374  0.49521025  1
  O  O254  1  0.24198580  0.62963013  0.99668551  1
  O  O255  1  0.75693717  0.14081998  0.50235789  1
  O  O256  1  0.74072114  0.13397744  0.99578690  1
  O  O257  1  0.75118445  0.63310589  0.48657000  1
  O  O258  1  0.73880004  0.63666483  0.99180192  1
  O  O259  1  0.25977409  0.37213094  0.00759002  1
  O  O260  1  0.24412689  0.37067782  0.51594523  1
  O  O261  1  0.26045526  0.86782933  0.00596975  1
  O  O262  1  0.25166885  0.87679017  0.50679310  1
  O  O263  1  0.75753076  0.37266822  0.00711140  1
  O  O264  1  0.75741780  0.36778494  0.50420848  1
  O  O265  1  0.75042311  0.86233229  0.00041191  1
  O  O266  1  0.75682233  0.86725120  0.49937112  1
  O  O267  1  0.12307835  0.49401742  0.23713983  1
  O  O268  1  0.14364468  0.48351255  0.76471144  1
  O  O269  1  0.11647954  0.98348838  0.23912749  1
  O  O270  1  0.12523585  0.98686468  0.75592617  1
  O  O271  1  0.62957515  0.50201880  0.24266214  1
  O  O272  1  0.62795632  0.49456656  0.74276334  1
  O  O273  1  0.63775402  1.00074927  0.24154140  1
  O  O274  1  0.63399818  1.00614151  0.74254709  1
  O  O275  1  0.37233910  0.01351897  0.23721862  1
  O  O276  1  0.37250485  0.00664323  0.76832629  1
  O  O277  1  0.37501909  0.50783593  0.25741234  1
  O  O278  1  0.37137905  0.50567338  0.75584325  1
  O  O279  1  0.86190430  0.00671619  0.24562182  1
  O  O280  1  0.86913251  0.00733930  0.76061981  1
  O  O281  1  0.86411343  0.49829434  0.25931013  1
  O  O282  1  0.86824638  0.49768106  0.76802756  1
  O  O283  1  0.12119302  0.37162834  0.36806827  1
  O  O284  1  0.12213524  0.36836063  0.88058381  1
  O  O285  1  0.11535681  0.86880584  0.37000679  1
  O  O286  1  0.11988517  0.86869161  0.86968060  1
  O  O287  1  0.61010493  0.37440221  0.37588543  1
  O  O288  1  0.63306517  0.36924296  0.86597218  1
  O  O289  1  0.61056637  0.86860133  0.37392583  1
  O  O290  1  0.61627948  0.87038010  0.87602720  1
  O  O291  1  0.38087402  0.12411250  0.12790538  1
  O  O292  1  0.37079021  0.11585474  0.65697792  1
  O  O293  1  0.36890282  0.63022647  0.13679792  1
  O  O294  1  0.37976432  0.63261448  0.62939486  1
  O  O295  1  0.88013321  0.12952997  0.12850905  1
  O  O296  1  0.87719650  0.12952287  0.64256923  1
  O  O297  1  0.88405164  0.63586248  0.11729093  1
  O  O298  1  0.87728739  0.63494493  0.61558173  1
  O  O299  1  0.24709501  0.26282284  0.11823332  1
  O  O300  1  0.25557145  0.25749327  0.62577317  1
  O  O301  1  0.25828071  0.75972362  0.12048458  1
  O  O302  1  0.25863876  0.76183184  0.62275307  1
  O  O303  1  0.75517478  0.25725060  0.12053358  1
  O  O304  1  0.74774186  0.26327436  0.61377480  1
  O  O305  1  0.75690545  0.74872785  0.11862933  1
  O  O306  1  0.75361524  0.74966975  0.61707601  1
  O  O307  1  0.23736181  0.24491561  0.36721621  1
  O  O308  1  0.24030122  0.24496985  0.88731878  1
  O  O309  1  0.23602887  0.75117080  0.37759145  1
  O  O310  1  0.24645811  0.74413539  0.87846280  1
  O  O311  1  0.75320076  0.25911384  0.38729950  1
  O  O312  1  0.74296911  0.24708142  0.88329039  1
  O  O313  1  0.73976192  0.74357868  0.37949812  1
  O  O314  1  0.74420101  0.74716013  0.88074552  1
  O  O315  1  0.00340454  0.12891258  0.01434719  1
  O  O316  1  0.00131099  0.12098443  0.51199493  1
  O  O317  1  0.01477985  0.63378100  0.01003557  1
  O  O318  1  0.01435349  0.62595301  0.50403620  1
  O  O319  1  0.51215163  0.12734314  0.00574939  1
  O  O320  1  0.53082327  0.12183354  0.49366047  1
  O  O321  1  0.51211479  0.62260663  -0.00477215  1
  O  O322  1  0.49620899  0.62137956  0.51057215  1
  O  O323  1  0.49419760  0.36581401  0.49208024  1
  O  O324  1  0.48729018  0.38039714  1.00592329  1
  O  O325  1  0.49578223  0.87771851  0.48217427  1
  O  O326  1  0.48572497  0.86988536  0.99244567  1
  O  O327  1  0.99424829  0.37791466  0.48463543  1
  O  O328  1  0.99219880  0.37414319  0.99276123  1
  O  O329  1  0.99291259  0.88319091  0.49467821  1
  O  O330  1  1.00025063  0.86692439  0.98460325  1
  O  O331  1  0.48797651  0.48829223  0.38035952  1
  O  O332  1  0.48801311  0.50721346  0.88014490  1
  O  O333  1  0.49888220  0.99868939  0.37219326  1
  O  O334  1  0.49391782  0.98884438  0.87692290  1
  O  O335  1  0.99131457  0.49430025  0.36389374  1
  O  O336  1  0.99294042  0.49408342  0.87161102  1
  O  O337  1  1.00001511  0.98876445  0.37849515  1
  O  O338  1  0.99079827  0.99124233  0.87245360  1
  O  O339  1  0.00493464  0.00496904  0.12722412  1
  O  O340  1  -0.00442386  -0.00703759  0.61921913  1
  O  O341  1  0.00522586  0.51524324  0.12958154  1
  O  O342  1  0.00279828  0.48825338  0.66088714  1
  O  O343  1  0.51414327  0.01027591  0.12882439  1
  O  O344  1  0.51184666  0.01483095  0.63215288  1
  O  O345  1  0.51094069  0.49740994  0.11966817  1
  O  O346  1  0.50524509  0.50796926  0.62189654  1
  O  O347  1  0.23771998  0.36919861  0.24227293  1
  O  O348  1  0.25035536  0.37954287  0.74296784  1
  O  O349  1  0.23987467  0.86790727  0.24205248  1
  O  O350  1  0.24061490  0.87816234  0.74247098  1
  O  O351  1  0.74668529  0.38865799  0.24485259  1
  O  O352  1  0.74190749  0.37745614  0.74112825  1
  O  O353  1  0.74850447  0.88651007  0.24751739  1
  O  O354  1  0.74568624  0.88718971  0.74979905  1
  O  O355  1  0.25440376  0.12345422  0.25279238  1
  O  O356  1  0.25686618  0.12420321  0.76497249  1
  O  O357  1  0.26544991  0.62972823  0.25507386  1
  O  O358  1  0.25999266  0.61802363  0.74976444  1
  O  O359  1  0.75899899  0.11199130  0.24596532  1
  O  O360  1  0.75952195  0.12256982  0.75654030  1
  O  O361  1  0.74868298  0.61547558  0.26022016  1
  O  O362  1  0.74670626  0.62696967  0.76446494  1
  O  O363  1  0.35261593  0.11999778  0.35748201  1
  O  O364  1  0.36858582  0.11710287  0.87821782  1
  O  O365  1  0.36971678  0.61062663  0.36795505  1
  O  O366  1  0.37064209  0.62243958  0.86551763  1
  O  O367  1  0.88529530  0.13087911  0.36205205  1
  O  O368  1  0.87195401  0.12040435  0.86965185  1
  O  O369  1  0.86921130  0.61610291  0.38051189  1
  O  O370  1  0.86598714  0.61713011  0.88623358  1
  O  O371  1  0.12818741  0.38354080  0.12986256  1
  O  O372  1  0.14193001  0.37128452  0.63842239  1
  O  O373  1  0.12999737  0.87640048  0.13088019  1
  O  O374  1  0.13411475  0.87024273  0.63356657  1
  O  O375  1  0.63234397  0.38646837  0.12471573  1
  O  O376  1  0.63327026  0.38269143  0.63184402  1
  O  O377  1  0.62541223  0.88351934  0.12647530  1
  O  O378  1  0.62559107  0.89165089  0.62444271  1
  O  O379  1  0.11735337  0.25900264  0.25310967  1
  O  O380  1  0.13618824  0.26033477  0.76625232  1
  O  O381  1  0.11640571  0.75871993  0.25745145  1
  O  O382  1  0.11967327  0.75871545  0.75521916  1
  O  O383  1  0.62172145  0.25181337  0.25367127  1
  O  O384  1  0.62509613  0.25836258  0.75884850  1
  O  O385  1  0.62124833  0.75230628  0.25953155  1
  O  O386  1  0.62338990  0.75451039  0.76193793  1
  O  O387  1  0.37604885  0.23387670  0.24327994  1
  O  O388  1  0.37832952  0.23694659  0.76760174  1
  O  O389  1  0.37634933  0.74167170  0.24355838  1
  O  O390  1  0.37512171  0.74344395  0.73782088  1
  O  O391  1  0.87806237  0.24465414  0.24352713  1
  O  O392  1  0.87183380  0.23968813  0.76083096  1
  O  O393  1  0.88185797  0.75290089  0.24203216  1
  O  O394  1  0.88223433  0.75412780  0.73984694  1
  O  O395  1  0.37353695  0.50226400  0.48595652  1
  O  O396  1  0.38039669  0.49632889  0.99416552  1
  O  O397  1  0.38093900  1.01635594  0.50866134  1
  O  O398  1  0.37060129  0.99006216  0.99099657  1
  O  O399  1  0.87032534  0.49063113  0.48811516  1
  O  O400  1  0.86965241  0.49030584  0.99675223  1
  O  O401  1  0.87935470  0.98893172  0.50510931  1
  O  O402  1  0.86522950  0.99951590  0.98506809  1
  O  O403  1  0.12583813  0.00257387  0.01307420  1
  O  O404  1  0.10792134  0.01423975  0.49689281  1
  O  O405  1  0.12922366  0.50892172  0.01274175  1
  O  O406  1  0.12494423  0.51082827  0.49929857  1
  O  O407  1  0.63243857  0.01156720  0.00640187  1
  O  O408  1  0.64575489  0.01362906  0.51048330  1
  O  O409  1  0.61982984  0.50847297  0.00526569  1
  O  O410  1  0.62128329  0.49403680  0.51279971  1
  O  O411  1  0.36701251  0.37612789  0.12015478  1
  O  O412  1  0.36704717  0.36935134  0.62023520  1
  O  O413  1  0.37037842  0.87072605  0.12010179  1
  O  O414  1  0.36811105  0.87210565  0.62311760  1
  O  O415  1  0.87179865  0.37331186  0.12016912  1
  O  O416  1  0.86175030  0.38673448  0.61212302  1
  O  O417  1  0.87493272  0.86222567  0.12085503  1
  O  O418  1  0.86853999  0.86396708  0.61649310  1
  O  O419  1  0.12960668  0.13160919  0.36781433  1
  O  O420  1  0.12544983  0.13051668  0.88123034  1
  O  O421  1  0.12438278  0.63243007  0.38348557  1
  O  O422  1  0.13326671  0.63109303  0.88483534  1
  O  O423  1  0.63626536  0.12381618  0.38442085  1
  O  O424  1  0.62987550  0.13283263  0.88233693  1
  O  O425  1  0.63146712  0.63145282  0.37172418  1
  O  O426  1  0.62986591  0.63408072  0.87988180  1
