# generated using pymatgen
data_V85Zn86O256
_symmetry_space_group_name_H-M   'P 1'
_cell_length_a   16.93379719
_cell_length_b   16.93651879
_cell_length_c   16.92105932
_cell_angle_alpha   89.98619480
_cell_angle_beta   90.04426361
_cell_angle_gamma   90.02355247
_symmetry_Int_Tables_number   1
_chemical_formula_structural   V85Zn86O256
_chemical_formula_sum   'V85 Zn86 O256'
_cell_volume   4852.95061268
_cell_formula_units_Z   1
loop_
 _symmetry_equiv_pos_site_id
 _symmetry_equiv_pos_as_xyz
  1  'x, y, z'
loop_
 _atom_site_type_symbol
 _atom_site_label
 _atom_site_symmetry_multiplicity
 _atom_site_fract_x
 _atom_site_fract_y
 _atom_site_fract_z
 _atom_site_occupancy
  V  V0  1  0.37512919  0.49799504  0.37979478  1
  V  V1  1  0.00488141  0.25656442  0.24367159  1
  V  V2  1  0.75075064  0.12841503  0.87076728  1
  V  V3  1  0.74987224  0.75102913  -0.00017165  1
  V  V4  1  0.87655067  0.00492637  0.87498242  1
  V  V5  1  0.86782503  0.24273988  0.62421290  1
  V  V6  1  0.24969956  0.00039537  0.24957302  1
  V  V7  1  0.37028446  0.63257981  0.74867705  1
  V  V8  1  0.37800673  0.74634659  0.12660168  1
  V  V9  1  0.12371477  0.26124053  0.37349625  1
  V  V10  1  0.49833890  0.24491666  0.75267086  1
  V  V11  1  0.87549791  0.74740781  0.12805305  1
  V  V12  1  0.24460664  0.37240636  0.13261821  1
  V  V13  1  0.00151797  0.37333213  0.87177765  1
  V  V14  1  -0.00904803  0.00368518  0.49710364  1
  V  V15  1  0.87918918  0.88004337  0.00182635  1
  V  V16  1  0.10616888  0.62262488  0.50562121  1
  V  V17  1  0.63119495  0.12864702  0.00041254  1
  V  V18  1  0.62738410  0.25229887  0.36024300  1
  V  V19  1  0.25999678  0.12446285  0.86897031  1
  V  V20  1  0.61990196  0.62870674  0.00021465  1
  V  V21  1  0.87177281  0.86556343  0.50430083  1
  V  V22  1  0.24908452  0.24525070  0.00019022  1
  V  V23  1  0.62414563  0.37825012  0.74879136  1
  V  V24  1  -0.01036739  0.88036073  0.37486995  1
  V  V25  1  0.25477893  0.86231545  0.61855332  1
  V  V26  1  0.12438636  0.49530334  0.12744660  1
  V  V27  1  0.00059072  0.87288759  0.87772993  1
  V  V28  1  0.75456557  0.12576894  0.37932139  1
  V  V29  1  0.88264332  0.12092064  0.25695764  1
  V  V30  1  0.52708755  0.60203394  0.15559250  1
  V  V31  1  0.49821780  0.50342371  -0.00023320  1
  V  V32  1  0.25737578  0.00262511  0.74580674  1
  V  V33  1  0.74512717  0.61377679  0.35909793  1
  V  V34  1  0.50709894  0.49603918  0.50736920  1
  V  V35  1  0.12579651  0.00057346  0.62594938  1
  V  V36  1  0.63136115  0.75949980  0.38391795  1
  V  V37  1  0.88353124  0.38370291  0.49673397  1
  V  V38  1  0.12578346  0.87586992  0.74877972  1
  V  V39  1  0.86954525  0.36464952  -0.00318568  1
  V  V40  1  0.37931193  0.12597041  0.25357955  1
  V  V41  1  0.91904255  0.56485796  0.30379698  1
  V  V42  1  0.74880664  0.87703774  0.12855930  1
  V  V43  1  0.37445366  0.37517797  -0.00064542  1
  V  V44  1  0.36890465  0.62825351  0.25272637  1
  V  V45  1  0.37555163  0.87585481  0.00009979  1
  V  V46  1  0.37877938  0.86395704  0.49692141  1
  V  V47  1  0.49977620  -0.00070436  0.49095491  1
  V  V48  1  0.12496509  0.87529950  0.25124251  1
  V  V49  1  -0.00117945  0.12382674  0.63831278  1
  V  V50  1  0.12767882  0.24987020  0.87153536  1
  V  V51  1  0.50355513  0.37011197  0.36367048  1
  V  V52  1  0.74581796  0.37256456  0.61590005  1
  V  V53  1  0.00057527  0.49872336  -0.00462148  1
  V  V54  1  0.50113512  0.87537190  0.87329607  1
  V  V55  1  0.49966847  0.75108153  0.74394566  1
  V  V56  1  0.36931479  0.50549964  0.87397595  1
  V  V57  1  0.12819492  0.75291993  0.38085714  1
  V  V58  1  0.50150955  0.12941111  0.12579196  1
  V  V59  1  0.62787496  0.13509489  0.50291025  1
  V  V60  1  0.24769408  0.50325349  0.74860801  1
  V  V61  1  0.87226758  0.49867381  0.87507666  1
  V  V62  1  0.37308041  0.24798451  0.62825018  1
  V  V63  1  0.75159087  0.86196691  0.62291795  1
  V  V64  1  0.62941674  0.25692632  0.88080882  1
  V  V65  1  -0.00750485  0.75054550  0.73508847  1
  V  V66  1  0.62504227  0.00033554  0.12687351  1
  V  V67  1  0.11450052  0.00169048  0.11777473  1
  V  V68  1  0.24883039  0.37712543  0.62333384  1
  V  V69  1  0.25099744  0.74273159  -0.00565542  1
  V  V70  1  0.50039004  0.76189482  0.25717148  1
  V  V71  1  0.49513751  0.12183260  0.62723967  1
  V  V72  1  0.12538940  0.73804247  0.87158845  1
  V  V73  1  0.75135051  0.62460236  0.87657993  1
  V  V74  1  0.25340093  0.63008635  0.39214282  1
  V  V75  1  0.12416778  0.12636658  0.49724782  1
  V  V76  1  0.87281046  0.62992755  0.73560575  1
  V  V77  1  0.63627376  0.62382696  0.50581958  1
  V  V78  1  0.50016532  0.62410107  0.62454280  1
  V  V79  1  0.74458907  0.49974883  0.74478294  1
  V  V80  1  -0.00366737  0.74906104  0.25186839  1
  V  V81  1  0.87363826  0.23670203  0.12103069  1
  V  V82  1  0.75188129  0.00183605  0.74629993  1
  V  V83  1  -0.00335005  0.62263183  0.12030790  1
  V  V84  1  0.37645656  0.24886307  0.12975189  1
  Zn  Zn85  1  0.62565783  0.75351256  0.87315487  1
  Zn  Zn86  1  0.37853985  0.37134266  0.50047758  1
  Zn  Zn87  1  0.24867896  0.49609379  0.25409345  1
  Zn  Zn88  1  0.37561509  -0.00174356  0.37563458  1
  Zn  Zn89  1  0.49923892  0.00032341  -0.00182684  1
  Zn  Zn90  1  0.50125690  0.37668420  0.87589002  1
  Zn  Zn91  1  0.11279069  0.12131691  0.00255936  1
  Zn  Zn92  1  0.74942134  0.36264419  0.12566168  1
  Zn  Zn93  1  0.25031921  0.24994158  0.49950171  1
  Zn  Zn94  1  0.09926533  0.49120811  0.60688333  1
  Zn  Zn95  1  -0.00522342  0.24651888  0.75205662  1
  Zn  Zn96  1  0.62613615  0.00012918  0.62428906  1
  Zn  Zn97  1  0.66578163  0.45692864  0.19341572  1
  Zn  Zn98  1  0.12890878  0.62157640  -0.00551865  1
  Zn  Zn99  1  0.37928624  0.00447883  0.87055275  1
  Zn  Zn100  1  0.25022907  0.12762056  0.37516375  1
  Zn  Zn101  1  0.75580386  0.00047240  0.25512977  1
  Zn  Zn102  1  0.62264588  0.88180919  0.25842264  1
  Zn  Zn103  1  0.62515598  0.87614677  0.74753867  1
  Zn  Zn104  1  -0.00329628  0.38397888  0.37406647  1
  Zn  Zn105  1  0.12313422  0.37563359  0.74476249  1
  Zn  Zn106  1  0.24938233  0.87234747  0.12448622  1
  Zn  Zn107  1  0.18473535  0.18218151  0.18725649  1
  Zn  Zn108  1  0.18736007  0.18608220  0.68940204  1
  Zn  Zn109  1  0.18703886  0.68753057  0.18709032  1
  Zn  Zn110  1  0.18354047  0.68625049  0.68574264  1
  Zn  Zn111  1  0.69322181  0.18860849  0.19006685  1
  Zn  Zn112  1  0.68550852  0.18894060  0.69025396  1
  Zn  Zn113  1  0.68664201  0.69393430  0.19198196  1
  Zn  Zn114  1  0.68249635  0.68767856  0.68851865  1
  Zn  Zn115  1  0.31347108  0.31028547  0.31417672  1
  Zn  Zn116  1  0.31523472  0.31591961  0.81046376  1
  Zn  Zn117  1  0.31102303  0.81439299  0.31720567  1
  Zn  Zn118  1  0.31233295  0.81354336  0.81181273  1
  Zn  Zn119  1  0.80316299  0.32319099  0.30940064  1
  Zn  Zn120  1  0.81228217  0.31034498  0.80756099  1
  Zn  Zn121  1  0.81015588  0.80935679  0.31412118  1
  Zn  Zn122  1  0.81223336  0.81443198  0.81062505  1
  Zn  Zn123  1  0.18825109  0.43925767  0.44062119  1
  Zn  Zn124  1  0.18881812  0.43638413  0.93928819  1
  Zn  Zn125  1  0.18764748  0.93994229  0.43874204  1
  Zn  Zn126  1  0.19106543  0.93317175  0.93479892  1
  Zn  Zn127  1  0.68664614  0.43546487  0.43522681  1
  Zn  Zn128  1  0.69948990  0.45009073  0.97469427  1
  Zn  Zn129  1  0.69053553  0.94610060  0.44312358  1
  Zn  Zn130  1  0.68760768  0.93974723  0.93958581  1
  Zn  Zn131  1  0.30907912  0.06032099  0.06359680  1
  Zn  Zn132  1  0.31398284  0.06098786  0.56170945  1
  Zn  Zn133  1  0.31320814  0.56350705  0.06543338  1
  Zn  Zn134  1  0.31581476  0.56208972  0.56701706  1
  Zn  Zn135  1  0.81324986  0.06303867  0.06180859  1
  Zn  Zn136  1  0.81177571  0.06195052  0.56134794  1
  Zn  Zn137  1  0.81176874  0.55717498  0.07097375  1
  Zn  Zn138  1  0.80937680  0.55833493  0.56118064  1
  Zn  Zn139  1  0.43319293  0.43733170  0.18979871  1
  Zn  Zn140  1  0.43641016  0.43646618  0.68842415  1
  Zn  Zn141  1  0.43607031  0.94035988  0.18528949  1
  Zn  Zn142  1  0.43584738  0.93617832  0.68261462  1
  Zn  Zn143  1  0.93481424  0.42770590  0.18014160  1
  Zn  Zn144  1  0.93119238  0.43494085  0.68563909  1
  Zn  Zn145  1  0.93827570  0.93853775  0.18819456  1
  Zn  Zn146  1  0.93434341  0.93838000  0.68900354  1
  Zn  Zn147  1  0.06321216  0.06510490  0.31237058  1
  Zn  Zn148  1  0.05439425  0.07077989  0.84013545  1
  Zn  Zn149  1  0.08166366  0.56203547  0.31366183  1
  Zn  Zn150  1  0.04453792  0.54886508  0.77817346  1
  Zn  Zn151  1  0.56461816  0.06758371  0.31264600  1
  Zn  Zn152  1  0.56562138  0.06120891  0.81229328  1
  Zn  Zn153  1  0.55876193  0.56639882  0.32647126  1
  Zn  Zn154  1  0.56094221  0.56263705  0.81551603  1
  Zn  Zn155  1  0.44024476  0.18891608  0.43930914  1
  Zn  Zn156  1  0.44140341  0.18846262  0.94087264  1
  Zn  Zn157  1  0.44524471  0.68804289  0.43820916  1
  Zn  Zn158  1  0.43700873  0.68876537  0.93325132  1
  Zn  Zn159  1  0.93817081  0.19594882  0.43944788  1
  Zn  Zn160  1  0.94278666  0.18151696  0.93891776  1
  Zn  Zn161  1  0.93424668  0.69202459  0.43963660  1
  Zn  Zn162  1  0.93717816  0.68901503  0.93521666  1
  Zn  Zn163  1  0.06171180  0.31036188  0.05967155  1
  Zn  Zn164  1  0.05843542  0.30931770  0.56209613  1
  Zn  Zn165  1  0.06518220  0.81269289  0.06183703  1
  Zn  Zn166  1  0.06471249  0.81475290  0.55897354  1
  Zn  Zn167  1  0.56228529  0.31672904  0.06563896  1
  Zn  Zn168  1  0.56179368  0.31170563  0.56246912  1
  Zn  Zn169  1  0.55967409  0.80830609  0.06665436  1
  Zn  Zn170  1  0.56296555  0.81338450  0.56309000  1
  O  O171  1  0.12667173  0.10855217  0.12028124  1
  O  O172  1  0.11647666  0.12169669  0.61879069  1
  O  O173  1  0.11225945  0.61887979  0.12358584  1
  O  O174  1  0.12614458  0.62590853  0.60661302  1
  O  O175  1  0.62127658  0.12283671  0.12035182  1
  O  O176  1  0.61448455  0.12785272  0.61960886  1
  O  O177  1  0.62323162  0.63695398  0.11015404  1
  O  O178  1  0.61381944  0.62753166  0.61820490  1
  O  O179  1  0.38145924  0.38161068  0.37786120  1
  O  O180  1  0.37828821  0.38215085  0.88239332  1
  O  O181  1  0.36945112  0.87932848  0.39217595  1
  O  O182  1  0.38535241  0.87534207  0.88171094  1
  O  O183  1  0.87399040  0.36571145  0.39344532  1
  O  O184  1  0.88347175  0.37485076  0.87678944  1
  O  O185  1  0.88390544  0.87361820  0.38050056  1
  O  O186  1  0.87887277  0.87932014  0.88370571  1
  O  O187  1  0.24708274  0.00451759  0.36192239  1
  O  O188  1  0.25228452  0.00740276  0.86639195  1
  O  O189  1  0.25827590  0.50774827  0.37537450  1
  O  O190  1  0.26358978  0.49480627  0.87163052  1
  O  O191  1  0.74391810  0.01946498  0.37147976  1
  O  O192  1  0.75637815  0.00422125  0.86932145  1
  O  O193  1  0.74282048  0.51460004  0.37337748  1
  O  O194  1  0.75307846  0.50714606  0.87360760  1
  O  O195  1  0.24329053  0.49008421  0.12294334  1
  O  O196  1  0.24949690  0.49237500  0.63287524  1
  O  O197  1  0.24621405  0.99492493  0.13731883  1
  O  O198  1  0.24451389  0.99558242  0.63004584  1
  O  O199  1  0.73430589  0.48119757  0.08758653  1
  O  O200  1  0.74956783  0.49116788  0.63907643  1
  O  O201  1  0.74359504  0.99370043  0.12725892  1
  O  O202  1  0.74895066  0.99773697  0.63401194  1
  O  O203  1  -0.00539335  0.36031757  0.25344763  1
  O  O204  1  0.00157667  0.37035816  0.76288948  1
  O  O205  1  0.00472511  0.87198183  0.25862937  1
  O  O206  1  0.00236035  0.86364794  0.75290548  1
  O  O207  1  0.49824922  0.38140697  0.26425615  1
  O  O208  1  0.50775046  0.36589599  0.75019150  1
  O  O209  1  0.50015367  0.86562510  0.24760492  1
  O  O210  1  0.49904147  0.86850160  0.75437658  1
  O  O211  1  0.48738439  0.11996617  0.24139894  1
  O  O212  1  0.50712057  0.13685357  0.74397822  1
  O  O213  1  0.48569101  0.63592431  0.25661937  1
  O  O214  1  0.49636729  0.63089720  0.74406874  1
  O  O215  1  0.98902464  0.13680771  0.25687156  1
  O  O216  1  1.00667674  0.12158074  0.74113836  1
  O  O217  1  0.99195161  0.62392380  0.24844617  1
  O  O218  1  0.98512859  0.64464257  0.75869861  1
  O  O219  1  0.36869285  0.25271879  0.01057773  1
  O  O220  1  0.37325820  0.24973554  0.51408808  1
  O  O221  1  0.37072135  0.75558023  0.00302287  1
  O  O222  1  0.38265851  0.76448967  0.49789072  1
  O  O223  1  0.89001557  0.24880600  0.01303450  1
  O  O224  1  0.87991431  0.26004852  0.51767857  1
  O  O225  1  0.86990024  0.75998109  0.00635191  1
  O  O226  1  0.87603618  0.76572250  0.50070602  1
  O  O227  1  0.12382902  0.24248576  0.49204221  1
  O  O228  1  0.13211258  0.24583470  0.99067635  1
  O  O229  1  0.11851262  0.74043078  0.48815814  1
  O  O230  1  0.13329663  0.74858366  0.99088551  1
  O  O231  1  0.62016547  0.23816221  0.49399596  1
  O  O232  1  0.61894747  0.24289220  0.98806959  1
  O  O233  1  0.61934789  0.74184641  0.48943998  1
  O  O234  1  0.62991189  0.74535704  0.99582105  1
  O  O235  1  0.49045630  0.23716901  0.11821636  1
  O  O236  1  0.49332334  0.24388026  0.63248906  1
  O  O237  1  0.49788778  0.73667628  0.13998820  1
  O  O238  1  0.50242844  0.74338334  0.63644247  1
  O  O239  1  0.99691184  0.25012929  0.13683622  1
  O  O240  1  0.99284815  0.23955244  0.62908738  1
  O  O241  1  0.99804167  0.74027011  0.13066670  1
  O  O242  1  1.00277799  0.75452849  0.63678922  1
  O  O243  1  0.00684648  0.25389209  0.36402736  1
  O  O244  1  0.00999459  0.25630534  0.87284250  1
  O  O245  1  0.00486920  0.75784402  0.36945645  1
  O  O246  1  0.00465087  0.75973832  0.86889090  1
  O  O247  1  0.51114918  0.25872010  0.37935882  1
  O  O248  1  0.50723038  0.25167211  0.86793855  1
  O  O249  1  0.51700871  0.74615200  0.36854674  1
  O  O250  1  0.50030090  0.75788231  0.86323499  1
  O  O251  1  0.23555402  0.12454292  0.50113609  1
  O  O252  1  0.24970289  0.13576039  0.99543790  1
  O  O253  1  0.24994877  0.62456627  0.49372938  1
  O  O254  1  0.24991786  0.63798184  1.00264461  1
  O  O255  1  0.74126132  0.12339920  0.49355071  1
  O  O256  1  0.73837948  0.12030043  0.99035586  1
  O  O257  1  0.73910062  0.62172611  0.49561359  1
  O  O258  1  0.74337191  0.63108426  0.99357612  1
  O  O259  1  0.25495165  0.36261520  0.00788340  1
  O  O260  1  0.25359878  0.37451224  0.51216731  1
  O  O261  1  0.26014878  0.86302659  0.00006326  1
  O  O262  1  0.25973285  0.88010024  0.51076331  1
  O  O263  1  0.76865172  0.35794430  -0.01339120  1
  O  O264  1  0.75357986  0.37903997  0.51262762  1
  O  O265  1  0.75532879  0.87092143  0.01033610  1
  O  O266  1  0.75804069  0.88299837  0.51330373  1
  O  O267  1  0.13121716  0.50115109  0.23377557  1
  O  O268  1  0.14580490  0.49599311  0.76632223  1
  O  O269  1  0.13047221  0.99715549  0.24184828  1
  O  O270  1  0.13526665  0.99152127  0.74445498  1
  O  O271  1  0.59443027  0.54004082  0.22262335  1
  O  O272  1  0.62929691  0.48721718  0.75810515  1
  O  O273  1  0.62633730  1.00085705  0.23881196  1
  O  O274  1  0.63739952  0.99625146  0.74882363  1
  O  O275  1  0.36805916  0.00609894  0.25262071  1
  O  O276  1  0.36179490  -0.00664831  0.75074325  1
  O  O277  1  0.37392727  0.50957238  0.26359752  1
  O  O278  1  0.36800149  0.50715369  0.75572661  1
  O  O279  1  0.87778523  0.01704585  0.24649673  1
  O  O280  1  0.86190735  -0.00469096  0.76057306  1
  O  O281  1  0.87273314  0.50704192  0.23831996  1
  O  O282  1  0.86151544  0.50784590  0.75791673  1
  O  O283  1  0.12085346  0.36560481  0.38033755  1
  O  O284  1  0.11936775  0.36670596  0.87635146  1
  O  O285  1  0.11762783  0.86845587  0.37316091  1
  O  O286  1  0.11697538  0.86913898  0.86819144  1
  O  O287  1  0.62007696  0.36039163  0.37740257  1
  O  O288  1  0.62465550  0.36707001  0.87044430  1
  O  O289  1  0.63520943  0.86357611  0.37886642  1
  O  O290  1  0.61238748  0.87592154  0.87607048  1
  O  O291  1  0.38210835  0.12972452  0.12825646  1
  O  O292  1  0.38696857  0.13118541  0.62316420  1
  O  O293  1  0.37722218  0.62883954  0.13924539  1
  O  O294  1  0.38952433  0.62178761  0.63398464  1
  O  O295  1  0.87883654  0.13089499  0.13172548  1
  O  O296  1  0.88203082  0.13489926  0.62009599  1
  O  O297  1  0.88698808  0.62922396  0.11683199  1
  O  O298  1  0.86518415  0.62434502  0.63671230  1
  O  O299  1  0.25292605  0.25300511  0.11876715  1
  O  O300  1  0.25708146  0.25633512  0.62661621  1
  O  O301  1  0.25806562  0.75086295  0.11828400  1
  O  O302  1  0.24611987  0.76431396  0.62560395  1
  O  O303  1  0.76987834  0.24236274  0.12265539  1
  O  O304  1  0.75960737  0.25570144  0.62914975  1
  O  O305  1  0.75502581  0.75810943  0.12150517  1
  O  O306  1  0.74814453  0.76330304  0.62908581  1
  O  O307  1  0.24058742  0.24852478  0.37750734  1
  O  O308  1  0.24838173  0.24769344  0.88072361  1
  O  O309  1  0.23967348  0.74247887  0.37313639  1
  O  O310  1  0.23872365  0.75543316  0.88113752  1
  O  O311  1  0.73598398  0.24278235  0.36996069  1
  O  O312  1  0.74204433  0.23964084  0.86757577  1
  O  O313  1  0.73672060  0.73919568  0.37133195  1
  O  O314  1  0.74960273  0.74299848  0.88030767  1
  O  O315  1  0.01556558  0.09990524  -0.05080093  1
  O  O316  1  0.00752427  0.11981158  0.50632709  1
  O  O317  1  0.00163252  0.61823017  0.00504204  1
  O  O318  1  0.00708010  0.62501123  0.49649850  1
  O  O319  1  0.51225093  0.12177457  0.00641423  1
  O  O320  1  0.50534545  0.11831277  0.50854941  1
  O  O321  1  0.50617763  0.62227292  0.00193191  1
  O  O322  1  0.50784809  0.61792145  0.50743765  1
  O  O323  1  0.50008258  0.38276445  0.49481132  1
  O  O324  1  0.49185977  0.38584002  1.00041717  1
  O  O325  1  0.48707529  0.88447581  0.51010212  1
  O  O326  1  0.49237057  0.87277627  0.99332625  1
  O  O327  1  0.98900744  0.37846493  0.49837573  1
  O  O328  1  0.99438814  0.37743934  0.98832551  1
  O  O329  1  0.99401291  0.88295539  0.49442971  1
  O  O330  1  0.99111818  0.86933271  0.99116648  1
  O  O331  1  0.49390715  0.49297758  0.38618942  1
  O  O332  1  0.48728838  0.49918429  0.88094518  1
  O  O333  1  0.50105932  1.00412096  0.38732569  1
  O  O334  1  0.49763613  0.99212174  0.87624048  1
  O  O335  1  0.98672720  0.50607704  0.35547243  1
  O  O336  1  0.99293332  0.49242459  0.87467174  1
  O  O337  1  1.00723350  0.99110349  0.38404450  1
  O  O338  1  0.98628602  0.97853056  0.85630176  1
  O  O339  1  0.01541511  -0.00563012  0.12419571  1
  O  O340  1  0.00420683  0.00563443  0.61977695  1
  O  O341  1  0.00536768  0.50282289  0.11824050  1
  O  O342  1  0.01111249  0.50976994  0.67149997  1
  O  O343  1  0.50689702  0.01093509  0.12241259  1
  O  O344  1  0.50229356  0.00842711  0.62060687  1
  O  O345  1  0.48496299  0.51056244  0.11471069  1
  O  O346  1  0.49657928  0.50528990  0.61531684  1
  O  O347  1  0.25619586  0.37555688  0.23612996  1
  O  O348  1  0.25136205  0.38257623  0.73857855  1
  O  O349  1  0.24265794  0.88193722  0.25039914  1
  O  O350  1  0.24688621  0.87898961  0.73794710  1
  O  O351  1  0.75036182  0.38937890  0.23986756  1
  O  O352  1  0.74303067  0.38202301  0.74376770  1
  O  O353  1  0.74959448  0.87866598  0.23952630  1
  O  O354  1  0.74937933  0.88091152  0.73880737  1
  O  O355  1  0.26205677  0.11831829  0.24816795  1
  O  O356  1  0.25101361  0.11538923  0.75539585  1
  O  O357  1  0.25876357  0.62548131  0.26009266  1
  O  O358  1  0.25985786  0.61862244  0.74054382  1
  O  O359  1  0.76538540  0.12573370  0.25731895  1
  O  O360  1  0.74380456  0.11706071  0.76188867  1
  O  O361  1  0.74594537  0.62228865  0.25908877  1
  O  O362  1  0.75020816  0.61903904  0.75720495  1
  O  O363  1  0.37335131  0.12509333  0.36697003  1
  O  O364  1  0.36519416  0.12522728  0.88148379  1
  O  O365  1  0.37041229  0.62059860  0.37381115  1
  O  O366  1  0.37866731  0.61732625  0.86250145  1
  O  O367  1  0.86934262  0.13518258  0.36658227  1
  O  O368  1  0.86435939  0.11301071  0.87947978  1
  O  O369  1  0.86313229  0.62519373  0.37155209  1
  O  O370  1  0.86306299  0.62181974  0.87133487  1
  O  O371  1  0.13296974  0.38177431  0.11771340  1
  O  O372  1  0.13145058  0.37719755  0.62468389  1
  O  O373  1  0.12687020  0.88104151  0.13365222  1
  O  O374  1  0.13562425  0.88043207  0.62588286  1
  O  O375  1  0.63311639  0.36574942  0.13053694  1
  O  O376  1  0.63364297  0.36560541  0.63623543  1
  O  O377  1  0.63159494  0.88313531  0.12562380  1
  O  O378  1  0.63860405  0.87826771  0.62359530  1
  O  O379  1  0.11214785  0.24358886  0.25526576  1
  O  O380  1  0.12532554  0.25407390  0.76129430  1
  O  O381  1  0.11779041  0.75299241  0.25972531  1
  O  O382  1  0.11454900  0.75434818  0.75376482  1
  O  O383  1  0.61926945  0.23944914  0.26212545  1
  O  O384  1  0.61883416  0.25902105  0.75973163  1
  O  O385  1  0.61740549  0.75559957  0.26211471  1
  O  O386  1  0.61495108  0.75439482  0.75420693  1
  O  O387  1  0.37094474  0.24215347  0.23736247  1
  O  O388  1  0.38495627  0.25402956  0.73966736  1
  O  O389  1  0.38052915  0.74645009  0.25033569  1
  O  O390  1  0.38087927  0.73951694  0.75363817  1
  O  O391  1  0.88447737  0.24304636  0.23821814  1
  O  O392  1  0.87784307  0.25363809  0.73152189  1
  O  O393  1  0.88251225  0.75520962  0.24047056  1
  O  O394  1  0.88391302  0.74596371  0.75062624  1
  O  O395  1  0.38310477  0.50015572  0.49093368  1
  O  O396  1  0.37981618  0.49974085  0.99269864  1
  O  O397  1  0.38383618  0.99462605  0.49814566  1
  O  O398  1  0.37461898  0.98644481  0.99967955  1
  O  O399  1  0.87380154  0.48314214  0.50582653  1
  O  O400  1  0.88225331  0.48658081  0.99330113  1
  O  O401  1  0.88779232  0.99425408  0.50303362  1
  O  O402  1  0.86968653  0.98764143  0.99236553  1
  O  O403  1  0.13690412  -0.00570028  0.01610600  1
  O  O404  1  0.11563657  0.00631485  0.50633829  1
  O  O405  1  0.11973171  0.50222554  0.00734258  1
  O  O406  1  0.12205751  0.51624621  0.49561705  1
  O  O407  1  0.62416602  0.00770721  0.01214369  1
  O  O408  1  0.61621436  0.01211526  0.50325935  1
  O  O409  1  0.60471512  0.51202088  -0.00836325  1
  O  O410  1  0.61643037  0.50907361  0.49571523  1
  O  O411  1  0.36915915  0.36670383  0.12028113  1
  O  O412  1  0.36818350  0.36711473  0.62369830  1
  O  O413  1  0.37694107  0.86589617  0.11643209  1
  O  O414  1  0.36209076  0.87699929  0.61439759  1
  O  O415  1  0.87550952  0.35740156  0.11247617  1
  O  O416  1  0.86688918  0.36712908  0.61828181  1
  O  O417  1  0.86943864  0.87229268  0.11910516  1
  O  O418  1  0.86167091  0.87969636  0.61898033  1
  O  O419  1  0.12487986  0.13484522  0.38301784  1
  O  O420  1  0.14590038  0.13662264  0.87192132  1
  O  O421  1  0.13400678  0.63247465  0.38487410  1
  O  O422  1  0.11653020  0.63766689  0.87235143  1
  O  O423  1  0.62948909  0.13612239  0.38171677  1
  O  O424  1  0.63118661  0.13097581  0.88262075  1
  O  O425  1  0.63433835  0.63297936  0.38343221  1
  O  O426  1  0.63366760  0.62731275  0.88375328  1
