# generated using pymatgen
data_V85Zn86O256
_symmetry_space_group_name_H-M   'P 1'
_cell_length_a   16.96135830
_cell_length_b   16.95180428
_cell_length_c   16.95482502
_cell_angle_alpha   89.98101705
_cell_angle_beta   90.01342567
_cell_angle_gamma   90.01792233
_symmetry_Int_Tables_number   1
_chemical_formula_structural   V85Zn86O256
_chemical_formula_sum   'V85 Zn86 O256'
_cell_volume   4874.94604014
_cell_formula_units_Z   1
loop_
 _symmetry_equiv_pos_site_id
 _symmetry_equiv_pos_as_xyz
  1  'x, y, z'
loop_
 _atom_site_type_symbol
 _atom_site_label
 _atom_site_symmetry_multiplicity
 _atom_site_fract_x
 _atom_site_fract_y
 _atom_site_fract_z
 _atom_site_occupancy
  V  V0  1  0.24977281  0.36969265  0.11609071  1
  V  V1  1  0.12615633  0.49780031  0.12390252  1
  V  V2  1  0.87743588  0.61932747  0.24622982  1
  V  V3  1  0.62692882  0.87442735  0.24955597  1
  V  V4  1  0.87649033  0.87341165  0.49866533  1
  V  V5  1  0.93114330  0.06795103  0.80499062  1
  V  V6  1  0.12720895  0.13792551  0.50032527  1
  V  V7  1  0.88795404  0.13549325  0.24969234  1
  V  V8  1  0.12270412  0.49823346  0.62226072  1
  V  V9  1  0.74661435  0.62534504  0.87463729  1
  V  V10  1  0.37320968  0.24654832  0.11786087  1
  V  V11  1  0.62441414  0.61968182  0.00982441  1
  V  V12  1  0.25063581  0.87280531  0.62603632  1
  V  V13  1  0.87716975  0.75127907  0.12471849  1
  V  V14  1  0.75247985  0.37475051  0.62240804  1
  V  V15  1  0.37767038  0.87411455  0.00250812  1
  V  V16  1  0.00766737  0.87591647  0.37060747  1
  V  V17  1  0.74822491  0.12297985  0.87067286  1
  V  V18  1  0.74642884  0.00044853  0.75119787  1
  V  V19  1  0.50107149  0.12733557  0.12941748  1
  V  V20  1  0.62108561  0.50279078  0.62384684  1
  V  V21  1  0.23496649  -0.00350129  0.25155799  1
  V  V22  1  0.74705004  0.50087524  0.74816431  1
  V  V23  1  0.50290998  0.75539906  0.74287243  1
  V  V24  1  0.62569479  0.00212239  0.12603792  1
  V  V25  1  0.25423443  0.74718266  0.50485935  1
  V  V26  1  0.87919728  0.00268421  0.37419829  1
  V  V27  1  0.00891517  0.75182028  0.24803111  1
  V  V28  1  -0.00533785  0.25561112  0.75232288  1
  V  V29  1  0.24903466  0.36743442  0.61415965  1
  V  V30  1  0.61631648  0.37134393  0.74913806  1
  V  V31  1  0.88553775  0.88901618  -0.01185662  1
  V  V32  1  0.37610411  0.50073080  0.87397027  1
  V  V33  1  0.62725449  0.74963590  0.37275088  1
  V  V34  1  0.61478521  0.24804708  0.87059818  1
  V  V35  1  0.88775316  0.49543495  0.38013104  1
  V  V36  1  0.87028575  0.37617768  0.00495771  1
  V  V37  1  0.75070719  0.74897247  0.49966641  1
  V  V38  1  0.75191227  0.00432921  0.25111133  1
  V  V39  1  0.49225700  0.50215023  0.49931694  1
  V  V40  1  0.50128770  0.49502035  0.00286456  1
  V  V41  1  0.75317448  0.87673836  0.12478105  1
  V  V42  1  0.49358750  0.74323707  0.24677145  1
  V  V43  1  0.05598506  0.31889182  0.93283453  1
  V  V44  1  0.12552845  -0.00085679  0.62754426  1
  V  V45  1  0.36953150  -0.00394148  0.37244118  1
  V  V46  1  0.87536365  0.62632453  0.74919089  1
  V  V47  1  0.62262336  0.62475093  0.49893334  1
  V  V48  1  0.50957727  0.87402192  0.87428085  1
  V  V49  1  0.12187752  0.37188415  0.75220682  1
  V  V50  1  0.12022559  0.36276938  0.25182272  1
  V  V51  1  0.00040066  0.62421741  0.61865892  1
  V  V52  1  0.49776457  0.13543382  0.62558539  1
  V  V53  1  0.37615862  0.87166382  0.50544700  1
  V  V54  1  0.87638907  0.49368452  0.87176269  1
  V  V55  1  0.62258165  0.00476619  0.62190927  1
  V  V56  1  0.25603749  0.50310659  0.24417194  1
  V  V57  1  0.74115241  0.24783919  0.49808440  1
  V  V58  1  0.61522002  0.37399959  0.26056124  1
  V  V59  1  0.75137313  0.75220064  -0.00120136  1
  V  V60  1  0.24739277  0.63043846  0.87143133  1
  V  V61  1  0.00179964  0.50367048  -0.00875355  1
  V  V62  1  0.50040547  0.87483308  0.37399704  1
  V  V63  1  0.24201102  0.87677873  0.12851128  1
  V  V64  1  0.00682673  0.75199327  0.76094353  1
  V  V65  1  0.25064763  0.00695313  0.74981653  1
  V  V66  1  0.25429128  0.62739609  0.36800862  1
  V  V67  1  0.24621838  0.13866199  0.37830662  1
  V  V68  1  0.37705499  0.50194054  0.37163254  1
  V  V69  1  0.12539018  0.87387600  0.76385064  1
  V  V70  1  0.37372547  0.63223248  0.74211189  1
  V  V71  1  0.73753014  0.12917248  0.37780491  1
  V  V72  1  0.23950909  0.13538498  0.88830614  1
  V  V73  1  0.11284146  0.01035093  0.11802186  1
  V  V74  1  0.74411883  0.87402944  0.62947070  1
  V  V75  1  0.42933346  0.32587826  0.44181051  1
  V  V76  1  0.37659909  0.00099007  0.87250271  1
  V  V77  1  0.87658353  0.74923695  0.62449777  1
  V  V78  1  -0.00724969  0.12442648  0.62592778  1
  V  V79  1  0.12341769  0.62217230  0.49536911  1
  V  V80  1  0.00154302  -0.00027300  0.50108756  1
  V  V81  1  0.12516219  0.63253882  -0.00416496  1
  V  V82  1  0.75165473  0.61949345  0.37266497  1
  V  V83  1  0.62629726  0.12617484  0.00158168  1
  V  V84  1  0.24842699  0.75324152  -0.00550832  1
  Zn  Zn85  1  0.38173324  0.13771770  0.75510573  1
  Zn  Zn86  1  0.37434058  0.12492571  0.25110057  1
  Zn  Zn87  1  0.49242446  0.63140369  0.62072824  1
  Zn  Zn88  1  0.87347594  0.25214881  0.13214804  1
  Zn  Zn89  1  0.37014163  0.74578179  0.12897018  1
  Zn  Zn90  1  0.49202631  0.36910444  0.86889724  1
  Zn  Zn91  1  0.37311398  0.25823243  0.62833375  1
  Zn  Zn92  1  0.73384850  0.38279600  0.12419671  1
  Zn  Zn93  1  0.86898411  0.24312725  0.62959471  1
  Zn  Zn94  1  0.62604580  0.75252357  0.87232043  1
  Zn  Zn95  1  0.01368718  0.36187798  0.38770730  1
  Zn  Zn96  1  0.00240971  0.62612131  0.12328994  1
  Zn  Zn97  1  0.50677566  -0.00203898  0.49745102  1
  Zn  Zn98  1  0.88210587  0.37250964  0.50052545  1
  Zn  Zn99  1  0.49358931  0.61711123  0.12913968  1
  Zn  Zn100  1  0.73808751  0.49958316  0.23952429  1
  Zn  Zn101  1  0.74640966  0.25374323  0.00441116  1
  Zn  Zn102  1  0.50219953  -0.00171115  0.00005056  1
  Zn  Zn103  1  0.37204745  0.36767538  -0.00749852  1
  Zn  Zn104  1  0.24939702  0.49922602  0.74859452  1
  Zn  Zn105  1  0.12906669  0.75416205  0.37075525  1
  Zn  Zn106  1  0.50117673  0.25152688  0.26171540  1
  Zn  Zn107  1  0.19584919  0.18265792  0.18457356  1
  Zn  Zn108  1  0.18291290  0.18900272  0.69299413  1
  Zn  Zn109  1  0.18927929  0.68617975  0.18278129  1
  Zn  Zn110  1  0.18579913  0.68890588  0.68548421  1
  Zn  Zn111  1  0.68808773  0.20272615  0.19119322  1
  Zn  Zn112  1  0.68491266  0.18624233  0.68780491  1
  Zn  Zn113  1  0.68793599  0.68577699  0.18659212  1
  Zn  Zn114  1  0.68247386  0.68864106  0.68755821  1
  Zn  Zn115  1  0.31127638  0.31210056  0.29706782  1
  Zn  Zn116  1  0.30997895  0.31043366  0.80559751  1
  Zn  Zn117  1  0.31082729  0.81482891  0.31341847  1
  Zn  Zn118  1  0.31644915  0.81486391  0.81257720  1
  Zn  Zn119  1  0.80339636  0.31557704  0.31189007  1
  Zn  Zn120  1  0.80639206  0.31109768  0.81230430  1
  Zn  Zn121  1  0.81740135  0.81050742  0.31077657  1
  Zn  Zn122  1  0.81543707  0.81411771  0.81182166  1
  Zn  Zn123  1  0.18814547  0.44006781  0.43446039  1
  Zn  Zn124  1  0.19300557  0.44429200  0.93628308  1
  Zn  Zn125  1  0.18688822  0.94019200  0.44099599  1
  Zn  Zn126  1  0.19247103  0.94137854  0.93878329  1
  Zn  Zn127  1  0.68719093  0.43664393  0.43437830  1
  Zn  Zn128  1  0.68488483  0.43777377  0.93548290  1
  Zn  Zn129  1  0.69092523  0.93823643  0.43811643  1
  Zn  Zn130  1  0.69194432  0.93997765  0.93958865  1
  Zn  Zn131  1  0.31282216  0.05989288  0.06186515  1
  Zn  Zn132  1  0.31485690  0.06288409  0.56036293  1
  Zn  Zn133  1  0.31794590  0.56531417  0.06148306  1
  Zn  Zn134  1  0.30875546  0.55809288  0.56189899  1
  Zn  Zn135  1  0.81617806  0.06633664  0.06431735  1
  Zn  Zn136  1  0.81014211  0.06145282  0.55993881  1
  Zn  Zn137  1  0.81274095  0.55923170  0.06371857  1
  Zn  Zn138  1  0.81227337  0.56055210  0.55999731  1
  Zn  Zn139  1  0.44057005  0.43099983  0.18583118  1
  Zn  Zn140  1  0.43252358  0.44085204  0.68621481  1
  Zn  Zn141  1  0.43558529  0.93680783  0.18819244  1
  Zn  Zn142  1  0.43743597  0.93706834  0.68889819  1
  Zn  Zn143  1  0.94513283  0.43206509  0.18320530  1
  Zn  Zn144  1  0.93962794  0.43869512  0.68522559  1
  Zn  Zn145  1  0.93652527  0.93776489  0.18888865  1
  Zn  Zn146  1  0.93976923  0.92935833  0.68623754  1
  Zn  Zn147  1  0.06304656  0.18704332  0.31418410  1
  Zn  Zn148  1  0.06423450  0.06736572  0.94145995  1
  Zn  Zn149  1  0.06547122  0.56251564  0.30916139  1
  Zn  Zn150  1  0.06427058  0.56470956  0.80893322  1
  Zn  Zn151  1  0.56043450  0.06114850  0.31122085  1
  Zn  Zn152  1  0.56485961  0.05830190  0.80650062  1
  Zn  Zn153  1  0.56286715  0.55787838  0.31219635  1
  Zn  Zn154  1  0.55968272  0.56496633  0.81351045  1
  Zn  Zn155  1  0.43395639  0.16541605  0.44792452  1
  Zn  Zn156  1  0.43748585  0.18290610  0.93924350  1
  Zn  Zn157  1  0.43549536  0.68796186  0.43305973  1
  Zn  Zn158  1  0.43759862  0.68729684  0.93665567  1
  Zn  Zn159  1  0.92893352  0.19163346  0.44285374  1
  Zn  Zn160  1  0.92877400  0.18814343  0.94387258  1
  Zn  Zn161  1  0.93893680  0.68695865  0.43381757  1
  Zn  Zn162  1  0.93336907  0.68768908  0.93733268  1
  Zn  Zn163  1  0.03637243  0.18890311  0.08679987  1
  Zn  Zn164  1  0.05572771  0.31342676  0.56331183  1
  Zn  Zn165  1  0.06234056  0.81728047  0.06048882  1
  Zn  Zn166  1  0.06610347  0.80949850  0.56227605  1
  Zn  Zn167  1  0.56160456  0.31484075  0.06374764  1
  Zn  Zn168  1  0.56924418  0.31298986  0.56306019  1
  Zn  Zn169  1  0.56601178  0.81068392  0.06240858  1
  Zn  Zn170  1  0.56431249  0.81474844  0.56260504  1
  O  O171  1  0.12226413  0.11591390  0.12624990  1
  O  O172  1  0.11638656  0.11625321  0.62321342  1
  O  O173  1  0.12651001  0.61457299  0.11381854  1
  O  O174  1  0.11902504  0.61952188  0.61751469  1
  O  O175  1  0.62110898  0.12419857  0.11927546  1
  O  O176  1  0.61656918  0.11152979  0.62793899  1
  O  O177  1  0.61931893  0.62975809  0.11224538  1
  O  O178  1  0.62180820  0.61999063  0.61559815  1
  O  O179  1  0.36576326  0.38064876  0.37931879  1
  O  O180  1  0.37193314  0.38604065  0.87283615  1
  O  O181  1  0.37904707  0.87865065  0.38402814  1
  O  O182  1  0.38273058  0.88462961  0.88192563  1
  O  O183  1  0.87367485  0.39102391  0.37115562  1
  O  O184  1  0.86552236  0.39086083  0.87795476  1
  O  O185  1  0.88077940  0.88056807  0.38080759  1
  O  O186  1  0.87056239  0.87443644  0.88948117  1
  O  O187  1  0.25338092  -0.00121780  0.36755411  1
  O  O188  1  0.25956238  0.00412267  0.86651013  1
  O  O189  1  0.25852365  0.50726937  0.36727710  1
  O  O190  1  0.25806767  0.51205135  0.87055708  1
  O  O191  1  0.76084822  0.00572938  0.37283163  1
  O  O192  1  0.74234269  0.01189871  0.86566226  1
  O  O193  1  0.75749597  0.51228911  0.37179344  1
  O  O194  1  0.75515785  0.50845920  0.86773848  1
  O  O195  1  0.24659346  0.49669872  0.12871187  1
  O  O196  1  0.23633154  0.49518403  0.62819323  1
  O  O197  1  0.24727392  0.99445485  0.13247995  1
  O  O198  1  0.24539006  0.99618968  0.63060327  1
  O  O199  1  0.74635003  0.49997910  0.12605694  1
  O  O200  1  0.74176774  0.49601088  0.62782233  1
  O  O201  1  0.74484889  0.99669348  0.13224618  1
  O  O202  1  0.74319363  0.99480224  0.62954591  1
  O  O203  1  0.01974561  0.38349771  0.25441797  1
  O  O204  1  0.01118538  0.37138543  0.74569244  1
  O  O205  1  -0.00841343  0.86465209  0.26022484  1
  O  O206  1  0.00956902  0.86030112  0.74511292  1
  O  O207  1  0.50643174  0.37112355  0.25466081  1
  O  O208  1  0.51299926  0.38438405  0.74861385  1
  O  O209  1  0.50733214  0.86858395  0.25561948  1
  O  O210  1  0.49371202  0.86271239  0.75841974  1
  O  O211  1  0.49692861  0.12757168  0.24365827  1
  O  O212  1  0.49810486  0.11287793  0.73014126  1
  O  O213  1  0.50753667  0.64039944  0.24979860  1
  O  O214  1  0.49143152  0.63737907  0.74903218  1
  O  O215  1  0.98671121  0.12321910  0.25369039  1
  O  O216  1  0.99131938  0.13252730  0.74603466  1
  O  O217  1  0.99419159  0.63239736  0.24705086  1
  O  O218  1  0.99736062  0.63541122  0.74130953  1
  O  O219  1  0.38073202  0.25019655  0.01195732  1
  O  O220  1  0.38021665  0.26157111  0.50414462  1
  O  O221  1  0.36826530  0.76203788  -0.00260803  1
  O  O222  1  0.36608622  0.75800152  0.49462292  1
  O  O223  1  0.86459225  0.26754129  -0.00949010  1
  O  O224  1  0.86007535  0.25367892  0.51051738  1
  O  O225  1  0.86408522  0.75212053  0.00495228  1
  O  O226  1  0.86975407  0.75170586  0.50539867  1
  O  O227  1  0.12472937  0.23593043  0.51225649  1
  O  O228  1  0.10592116  0.26473254  0.99579329  1
  O  O229  1  0.13434082  0.73898473  0.49644670  1
  O  O230  1  0.13127992  0.74000734  1.00355077  1
  O  O231  1  0.64049404  0.25047779  0.50301401  1
  O  O232  1  0.62658713  0.24186496  0.99059163  1
  O  O233  1  0.63055485  0.74540827  0.49281550  1
  O  O234  1  0.63748072  0.74345612  0.99729555  1
  O  O235  1  0.49491812  0.23539714  0.12231261  1
  O  O236  1  0.50405369  0.23717660  0.62130209  1
  O  O237  1  0.50152403  0.75435220  0.14064755  1
  O  O238  1  0.50223249  0.75193532  0.63820636  1
  O  O239  1  0.98180998  0.27422268  0.12462715  1
  O  O240  1  0.99628205  0.23937967  0.63496373  1
  O  O241  1  0.99528173  0.75058235  0.13156394  1
  O  O242  1  0.99679605  0.74019618  0.63011575  1
  O  O243  1  0.00093070  0.24897902  0.38172960  1
  O  O244  1  -0.00123405  0.25574608  0.87184196  1
  O  O245  1  0.00162495  0.75814015  0.36670307  1
  O  O246  1  -0.00283436  0.74227018  0.85897362  1
  O  O247  1  0.47918441  0.25666640  0.38573911  1
  O  O248  1  0.51089459  0.24763147  0.87562665  1
  O  O249  1  0.50632992  0.75434471  0.36473387  1
  O  O250  1  0.50172187  0.75835695  0.86769600  1
  O  O251  1  0.24221965  0.11844144  0.48717066  1
  O  O252  1  0.25340750  0.12100829  0.98749820  1
  O  O253  1  0.24572841  0.63142728  0.49320494  1
  O  O254  1  0.24438819  0.63352643  0.99188651  1
  O  O255  1  0.75464413  0.13014763  0.48679538  1
  O  O256  1  0.74045809  0.12462721  0.99183129  1
  O  O257  1  0.74488039  0.63030984  0.49234095  1
  O  O258  1  0.74534252  0.63164695  0.99186620  1
  O  O259  1  0.25060032  0.38186611  0.01275855  1
  O  O260  1  0.24008248  0.37844229  0.51579596  1
  O  O261  1  0.25732623  0.86936580  0.00440833  1
  O  O262  1  0.25579107  0.86650307  0.50363030  1
  O  O263  1  0.75692587  0.37700591  -0.00145889  1
  O  O264  1  0.75146364  0.37015953  0.50709333  1
  O  O265  1  0.75476405  0.86724752  0.00575548  1
  O  O266  1  0.75712499  0.86730720  0.50649478  1
  O  O267  1  0.13631300  0.50105228  0.23943724  1
  O  O268  1  0.12460220  0.49435757  0.74046930  1
  O  O269  1  0.13596160  0.99938371  0.23538292  1
  O  O270  1  0.13482350  0.98921852  0.73660624  1
  O  O271  1  0.62162315  0.48629950  0.25242851  1
  O  O272  1  0.62939842  0.49776733  0.74438606  1
  O  O273  1  0.63180258  0.99307675  0.24572342  1
  O  O274  1  0.63510416  0.99517384  0.73545072  1
  O  O275  1  0.36789227  -0.00199452  0.26213491  1
  O  O276  1  0.36631876  -0.00092924  0.75694751  1
  O  O277  1  0.36365389  0.49256356  0.25568942  1
  O  O278  1  0.37368505  0.51180081  0.75935153  1
  O  O279  1  0.87003111  0.00631412  0.25808970  1
  O  O280  1  0.87345357  0.00230087  0.74890667  1
  O  O281  1  0.87929084  0.51148011  0.25538758  1
  O  O282  1  0.87055897  0.50773959  0.75454099  1
  O  O283  1  0.13082674  0.38035978  0.35585578  1
  O  O284  1  0.12267357  0.37550567  0.87306582  1
  O  O285  1  0.11103376  0.87508366  0.38104584  1
  O  O286  1  0.13049527  0.88050548  0.86287163  1
  O  O287  1  0.62516146  0.37668725  0.36303366  1
  O  O288  1  0.62452713  0.36495394  0.86499890  1
  O  O289  1  0.62238975  0.86962765  0.37032282  1
  O  O290  1  0.61279217  0.87543906  0.88208031  1
  O  O291  1  0.38347977  0.12700525  0.12575591  1
  O  O292  1  0.38768583  0.12568080  0.62391289  1
  O  O293  1  0.38130189  0.63409142  0.11971847  1
  O  O294  1  0.37226650  0.62030145  0.63843584  1
  O  O295  1  0.86905428  0.12580961  0.14604592  1
  O  O296  1  0.88861789  0.12023136  0.62103932  1
  O  O297  1  0.87894631  0.63234800  0.13088894  1
  O  O298  1  0.88188690  0.62794034  0.62828699  1
  O  O299  1  0.25868481  0.25786945  0.12712382  1
  O  O300  1  0.24608326  0.26402159  0.62794236  1
  O  O301  1  0.24931182  0.75844013  0.11412214  1
  O  O302  1  0.24689295  0.75497139  0.61253542  1
  O  O303  1  0.75822322  0.25874028  0.12169298  1
  O  O304  1  0.74924043  0.25807376  0.62236130  1
  O  O305  1  0.75548750  0.75533834  0.11801143  1
  O  O306  1  0.75455600  0.75636062  0.62280774  1
  O  O307  1  0.25797066  0.23613661  0.37000228  1
  O  O308  1  0.25366608  0.23374163  0.87221546  1
  O  O309  1  0.24838495  0.74330782  0.38051003  1
  O  O310  1  0.25348916  0.74657861  0.88610212  1
  O  O311  1  0.75304355  0.23566923  0.38228064  1
  O  O312  1  0.73891726  0.23527520  0.87088204  1
  O  O313  1  0.74864590  0.73946033  0.37799085  1
  O  O314  1  0.74951854  0.74375543  0.88043080  1
  O  O315  1  -0.00686379  0.12376033  0.00497727  1
  O  O316  1  0.00674358  0.11713266  0.50857434  1
  O  O317  1  0.00862120  0.62225570  -0.00091015  1
  O  O318  1  0.01000712  0.63216487  0.50693415  1
  O  O319  1  0.51271269  0.11983291  0.00632552  1
  O  O320  1  0.50211507  0.11252967  0.51889615  1
  O  O321  1  0.51086536  0.61928833  -0.00420235  1
  O  O322  1  0.50325533  0.62015754  0.50017795  1
  O  O323  1  0.49723719  0.38145450  0.49975585  1
  O  O324  1  0.49714931  0.38212625  0.99130858  1
  O  O325  1  0.49229585  0.87348103  0.49309368  1
  O  O326  1  0.49382716  0.87427581  0.99438275  1
  O  O327  1  0.99623604  0.38029635  0.49952662  1
  O  O328  1  0.99090271  0.38727638  0.98374571  1
  O  O329  1  0.99512317  0.87860685  0.49577338  1
  O  O330  1  0.98444403  0.87209404  1.00028401  1
  O  O331  1  0.48344324  0.50720971  0.38007436  1
  O  O332  1  0.49061779  0.50008346  0.88062877  1
  O  O333  1  0.49088800  0.99267308  0.37612007  1
  O  O334  1  0.49469639  0.99172224  0.87366065  1
  O  O335  1  0.98851971  0.50259034  0.37230024  1
  O  O336  1  0.99069150  0.51195064  0.88196993  1
  O  O337  1  0.98747510  0.99109404  0.38123479  1
  O  O338  1  0.99296924  1.01481504  0.85966216  1
  O  O339  1  0.01664496  -0.00727125  0.12933574  1
  O  O340  1  0.00797969  0.00358432  0.62394009  1
  O  O341  1  0.00983131  0.50170130  0.11000859  1
  O  O342  1  0.00915997  0.51471164  0.62925165  1
  O  O343  1  0.50646224  0.00957394  0.12626223  1
  O  O344  1  0.51540581  -0.00801606  0.62386333  1
  O  O345  1  0.49101052  0.49944242  0.10718604  1
  O  O346  1  0.50252782  0.50409553  0.61532035  1
  O  O347  1  0.24084306  0.38372032  0.23867862  1
  O  O348  1  0.23282584  0.37774386  0.74562461  1
  O  O349  1  0.25318085  0.88182639  0.24024482  1
  O  O350  1  0.24565272  0.88080788  0.74524199  1
  O  O351  1  0.73652440  0.37946288  0.24891531  1
  O  O352  1  0.73981362  0.38263876  0.74313015  1
  O  O353  1  0.74823818  0.88189080  0.24566902  1
  O  O354  1  0.75971721  0.88746300  0.74133985  1
  O  O355  1  0.25151882  0.11500044  0.26326914  1
  O  O356  1  0.25123616  0.11378671  0.75277018  1
  O  O357  1  0.24653798  0.61799794  0.25709438  1
  O  O358  1  0.25524373  0.62935243  0.75628743  1
  O  O359  1  0.75169880  0.11972168  0.26308859  1
  O  O360  1  0.74732002  0.11179554  0.75393275  1
  O  O361  1  0.75835281  0.62507944  0.25704831  1
  O  O362  1  0.75427740  0.62229928  0.75520696  1
  O  O363  1  0.36202090  0.11270370  0.37669992  1
  O  O364  1  0.37364438  0.11118317  0.87399656  1
  O  O365  1  0.36227989  0.61756991  0.37582486  1
  O  O366  1  0.36461248  0.62224075  0.86781734  1
  O  O367  1  0.86836052  0.11571803  0.36785491  1
  O  O368  1  0.86668105  0.12384397  0.86691629  1
  O  O369  1  0.87011049  0.61844454  0.36739299  1
  O  O370  1  0.86326788  0.61860702  0.86993720  1
  O  O371  1  0.13368878  0.38946730  0.13583632  1
  O  O372  1  0.12888945  0.38263323  0.63187987  1
  O  O373  1  0.13809239  0.88391171  0.11872687  1
  O  O374  1  0.13264861  0.88116878  0.62756495  1
  O  O375  1  0.62001498  0.36747024  0.14254892  1
  O  O376  1  0.63361310  0.38274450  0.63060120  1
  O  O377  1  0.63357133  0.88028279  0.12952826  1
  O  O378  1  0.63973369  0.87935729  0.62360287  1
  O  O379  1  0.12867590  0.25898652  0.24586873  1
  O  O380  1  0.10855298  0.25849357  0.74849615  1
  O  O381  1  0.11285028  0.74498564  0.24960459  1
  O  O382  1  0.11453093  0.75705917  0.74633325  1
  O  O383  1  0.61751054  0.26036842  0.25780605  1
  O  O384  1  0.62772606  0.25998578  0.75621516  1
  O  O385  1  0.62049728  0.75592929  0.25509501  1
  O  O386  1  0.60853063  0.74645699  0.75422749  1
  O  O387  1  0.38102010  0.24562098  0.23540273  1
  O  O388  1  0.37775900  0.24957991  0.74209878  1
  O  O389  1  0.39110318  0.75671670  0.25181809  1
  O  O390  1  0.38713654  0.74318559  0.75508547  1
  O  O391  1  0.87069135  0.23702909  0.25819529  1
  O  O392  1  0.88794452  0.26201692  0.74789281  1
  O  O393  1  0.88331341  0.73867165  0.24523342  1
  O  O394  1  0.88479289  0.74612289  0.74334010  1
  O  O395  1  0.38448814  0.50333992  0.49247624  1
  O  O396  1  0.38045962  0.50040939  0.98548943  1
  O  O397  1  0.37363686  0.98951260  0.48791279  1
  O  O398  1  0.37809810  0.98829820  0.99295191  1
  O  O399  1  0.87190716  0.50188381  0.48228235  1
  O  O400  1  0.88453099  0.50119292  0.98981044  1
  O  O401  1  0.88064284  0.99390034  0.49357078  1
  O  O402  1  0.86973207  0.98750238  1.00281665  1
  O  O403  1  0.12698511  -0.00100974  0.01300585  1
  O  O404  1  0.11997339  0.00469627  0.51172913  1
  O  O405  1  0.11977473  0.50989231  0.00227080  1
  O  O406  1  0.13042632  0.51409975  0.50622301  1
  O  O407  1  0.62532648  0.00794484  0.00866583  1
  O  O408  1  0.62846876  -0.00757279  0.51730885  1
  O  O409  1  0.61411090  0.50921448  -0.00927180  1
  O  O410  1  0.61214488  0.50477549  0.50080555  1
  O  O411  1  0.36624383  0.36557577  0.12177133  1
  O  O412  1  0.35314747  0.38107858  0.62912466  1
  O  O413  1  0.36662735  0.87300548  0.11656476  1
  O  O414  1  0.36894651  0.88122407  0.61184085  1
  O  O415  1  0.87174027  0.38905197  0.10844284  1
  O  O416  1  0.85919532  0.38199143  0.62605310  1
  O  O417  1  0.86846791  0.86937121  0.11979915  1
  O  O418  1  0.86681642  0.86846728  0.61821424  1
  O  O419  1  0.13811761  0.12647514  0.38349636  1
  O  O420  1  0.14092508  0.11900055  0.87381596  1
  O  O421  1  0.13564166  0.62495844  0.38058427  1
  O  O422  1  0.13876630  0.62143319  0.88046345  1
  O  O423  1  0.63962542  0.11336738  0.37660592  1
  O  O424  1  0.62823998  0.12822969  0.87970007  1
  O  O425  1  0.63368769  0.62914982  0.37884701  1
  O  O426  1  0.63696954  0.62651086  0.87953576  1
