# generated using pymatgen
data_V85Zn86O256
_symmetry_space_group_name_H-M   'P 1'
_cell_length_a   16.94470917
_cell_length_b   16.95449826
_cell_length_c   16.97082074
_cell_angle_alpha   89.92670685
_cell_angle_beta   89.93391181
_cell_angle_gamma   89.96568634
_symmetry_Int_Tables_number   1
_chemical_formula_structural   V85Zn86O256
_chemical_formula_sum   'V85 Zn86 O256'
_cell_volume   4875.52273260
_cell_formula_units_Z   1
loop_
 _symmetry_equiv_pos_site_id
 _symmetry_equiv_pos_as_xyz
  1  'x, y, z'
loop_
 _atom_site_type_symbol
 _atom_site_label
 _atom_site_symmetry_multiplicity
 _atom_site_fract_x
 _atom_site_fract_y
 _atom_site_fract_z
 _atom_site_occupancy
  V  V0  1  0.75366598  0.75453307  0.50042427  1
  V  V1  1  0.48930621  -0.00957466  0.50609051  1
  V  V2  1  -0.00426587  0.00869502  0.00617918  1
  V  V3  1  0.36889984  0.75629975  0.11098577  1
  V  V4  1  -0.00739356  0.87542459  0.37986692  1
  V  V5  1  0.72858686  0.00046425  0.24919844  1
  V  V6  1  0.87679789  0.75516131  0.62361344  1
  V  V7  1  0.50193048  0.12284085  0.62633301  1
  V  V8  1  0.00531050  0.87447994  0.87637466  1
  V  V9  1  0.24736267  0.01130592  0.25219901  1
  V  V10  1  0.12854570  0.37424167  0.23967385  1
  V  V11  1  0.88523127  0.24969852  0.12191548  1
  V  V12  1  0.74982910  0.50186423  0.24937036  1
  V  V13  1  0.50077000  0.76036639  0.24923260  1
  V  V14  1  0.37254207  0.26334810  0.12184370  1
  V  V15  1  0.87586200  0.37236601  0.49950470  1
  V  V16  1  0.50260767  0.62508700  0.61882540  1
  V  V17  1  0.88143528  0.12093839  0.74798974  1
  V  V18  1  0.00347832  0.36507498  0.37210932  1
  V  V19  1  0.62481900  0.24740728  0.37733646  1
  V  V20  1  0.37633654  0.75644506  0.61808617  1
  V  V21  1  0.37448235  0.63014916  0.24726699  1
  V  V22  1  0.62876542  0.37308819  0.75547543  1
  V  V23  1  0.62497365  0.50014309  0.12410702  1
  V  V24  1  0.75040536  0.24816787  0.50030036  1
  V  V25  1  0.73844279  0.75543389  0.01190832  1
  V  V26  1  0.62790213  0.75082164  0.86768621  1
  V  V27  1  0.12202589  0.61922530  -0.00813151  1
  V  V28  1  0.50138317  0.74878202  0.74624202  1
  V  V29  1  0.12435559  0.24962022  0.87443249  1
  V  V30  1  0.00127079  0.62347640  0.62558075  1
  V  V31  1  0.12373852  0.62699034  0.49720943  1
  V  V32  1  0.86563206  0.00093113  0.87187040  1
  V  V33  1  0.75153185  0.62525792  0.87429820  1
  V  V34  1  0.49226315  0.87798413  0.87900246  1
  V  V35  1  0.62194464  0.62181017  -0.00585513  1
  V  V36  1  0.25344002  0.26456784  0.00298489  1
  V  V37  1  0.00543220  0.75022001  0.75484897  1
  V  V38  1  0.25423407  0.00441398  0.75162184  1
  V  V39  1  0.62406364  0.75737306  0.37374091  1
  V  V40  1  0.49781932  0.24886005  0.24734475  1
  V  V41  1  0.74986494  0.62670866  0.37390146  1
  V  V42  1  0.00789758  0.60396783  0.11919372  1
  V  V43  1  0.50209832  0.24891232  0.75096595  1
  V  V44  1  0.24847269  0.49693293  0.23502178  1
  V  V45  1  0.11951230  0.00549167  0.62751098  1
  V  V46  1  0.86999314  0.87662158  -0.00133662  1
  V  V47  1  0.00019229  0.49939907  0.49907218  1
  V  V48  1  0.75041862  0.88437892  0.62597099  1
  V  V49  1  0.44277813  0.44300234  0.54671518  1
  V  V50  1  0.75030582  0.50157818  0.74689254  1
  V  V51  1  0.12490238  0.75115233  0.37254519  1
  V  V52  1  0.50040157  0.36630620  0.88143093  1
  V  V53  1  0.87480741  0.49657664  0.89047738  1
  V  V54  1  0.13275361  0.24592355  0.37363666  1
  V  V55  1  0.62811108  0.37500189  0.24823510  1
  V  V56  1  0.62835492  0.12489670  0.01166886  1
  V  V57  1  0.62581221  0.11282928  0.50455873  1
  V  V58  1  0.00083568  0.74929692  0.24816302  1
  V  V59  1  0.49365695  0.49496098  -0.00166072  1
  V  V60  1  -0.00407459  0.37754277  0.88475120  1
  V  V61  1  0.12293245  0.13008750  0.00978601  1
  V  V62  1  0.62363913  0.61413296  0.50018357  1
  V  V63  1  0.36877871  0.49609056  0.87761006  1
  V  V64  1  0.12553928  0.87602087  0.24200436  1
  V  V65  1  0.87997382  0.74868637  0.12205511  1
  V  V66  1  0.88120249  0.24573210  0.62537555  1
  V  V67  1  0.74122304  0.13291966  0.86707702  1
  V  V68  1  0.87656495  0.49709830  0.37331531  1
  V  V69  1  0.25006026  0.62686896  0.37181274  1
  V  V70  1  0.12777264  0.37555034  0.74206702  1
  V  V71  1  0.49849882  0.62594906  0.12270406  1
  V  V72  1  0.13446916  0.12386680  0.49961632  1
  V  V73  1  0.49596441  0.37728412  0.37521501  1
  V  V74  1  0.25779199  0.26736857  0.50322258  1
  V  V75  1  0.87678865  0.62384147  0.24752481  1
  V  V76  1  0.25260449  0.75673668  0.49686486  1
  V  V77  1  0.25214138  0.88018719  0.62063501  1
  V  V78  1  0.37821091  0.50070554  0.37237593  1
  V  V79  1  0.89352392  0.12406652  0.24654402  1
  V  V80  1  0.74746296  0.37860733  0.62471678  1
  V  V81  1  -0.00584183  0.00366172  0.50200357  1
  V  V82  1  0.24780333  0.63263265  0.87040526  1
  V  V83  1  0.63068254  0.88890901  0.74688995  1
  V  V84  1  0.49654754  0.11768398  0.12686721  1
  Zn  Zn85  1  0.37381900  0.25672978  0.62309428  1
  Zn  Zn86  1  0.76016217  0.37473990  0.11795333  1
  Zn  Zn87  1  0.87822022  0.62203754  0.75262584  1
  Zn  Zn88  1  0.25376710  0.12747562  0.87744876  1
  Zn  Zn89  1  0.74098990  0.88663480  0.12959716  1
  Zn  Zn90  1  0.13254364  0.49232347  0.61734470  1
  Zn  Zn91  1  0.75393263  0.12313851  0.37347780  1
  Zn  Zn92  1  0.23232124  0.76134314  0.98643029  1
  Zn  Zn93  1  0.37532757  0.12832137  0.75230387  1
  Zn  Zn94  1  0.12663191  0.87508764  0.75281359  1
  Zn  Zn95  1  0.36609066  -0.00144537  0.37971749  1
  Zn  Zn96  1  0.49371508  0.87653198  0.37676607  1
  Zn  Zn97  1  0.36800574  0.00224457  0.89044778  1
  Zn  Zn98  1  0.11892257  0.00721333  0.12634415  1
  Zn  Zn99  1  0.25046781  0.49772780  0.74122742  1
  Zn  Zn100  1  0.74945620  0.25628242  0.00067953  1
  Zn  Zn101  1  0.00146756  0.24887096  0.74756034  1
  Zn  Zn102  1  0.49686919  -0.00256633  0.00829829  1
  Zn  Zn103  1  0.25659829  0.88826852  0.11487111  1
  Zn  Zn104  1  0.87192031  -0.00075815  0.37239345  1
  Zn  Zn105  1  0.36557669  0.13124562  0.25587642  1
  Zn  Zn106  1  0.37250845  0.62431612  0.74662526  1
  Zn  Zn107  1  0.18504514  0.19376863  0.18420520  1
  Zn  Zn108  1  0.18862151  0.18844407  0.68388934  1
  Zn  Zn109  1  0.18651312  0.68640927  0.18192831  1
  Zn  Zn110  1  0.18656920  0.68722505  0.68652644  1
  Zn  Zn111  1  0.69436845  0.18638828  0.18717896  1
  Zn  Zn112  1  0.68800942  0.18884733  0.68793546  1
  Zn  Zn113  1  0.68104612  0.70197771  0.17937945  1
  Zn  Zn114  1  0.68800826  0.68549290  0.68397602  1
  Zn  Zn115  1  0.31050289  0.31285838  0.31503581  1
  Zn  Zn116  1  0.31299829  0.31272193  0.81494897  1
  Zn  Zn117  1  0.31273795  0.82241552  0.30970925  1
  Zn  Zn118  1  0.31312999  0.81272086  0.80368164  1
  Zn  Zn119  1  0.81442505  0.30706566  0.30597672  1
  Zn  Zn120  1  0.81662529  0.31022134  0.81328916  1
  Zn  Zn121  1  0.81024749  0.81673536  0.30844016  1
  Zn  Zn122  1  0.81488452  0.81122354  0.81074754  1
  Zn  Zn123  1  0.18874592  0.43967079  0.43190098  1
  Zn  Zn124  1  0.18097636  0.44061723  0.93608570  1
  Zn  Zn125  1  0.18229020  0.93730594  0.43497074  1
  Zn  Zn126  1  0.18639080  0.94334337  0.94086655  1
  Zn  Zn127  1  0.68825582  0.43503911  0.43501010  1
  Zn  Zn128  1  0.68776220  0.43610501  0.93552177  1
  Zn  Zn129  1  0.68946090  0.93677559  0.43585518  1
  Zn  Zn130  1  0.68276964  0.94483657  0.93700579  1
  Zn  Zn131  1  0.31196036  0.06744993  0.06462530  1
  Zn  Zn132  1  0.31397626  0.06906723  0.56762052  1
  Zn  Zn133  1  0.30898690  0.56877389  0.05617653  1
  Zn  Zn134  1  0.30689495  0.57061916  0.56515962  1
  Zn  Zn135  1  0.80890967  0.06624925  0.06936590  1
  Zn  Zn136  1  0.81459214  0.06439481  0.56115126  1
  Zn  Zn137  1  0.80958973  0.56847170  0.06516305  1
  Zn  Zn138  1  0.81430391  0.56433074  0.56214226  1
  Zn  Zn139  1  0.43831572  0.43901004  0.18860250  1
  Zn  Zn140  1  0.43707720  0.43737311  0.70677780  1
  Zn  Zn141  1  0.43188108  0.93766671  0.19016570  1
  Zn  Zn142  1  0.43931436  0.93785100  0.68817875  1
  Zn  Zn143  1  0.94064771  0.42967000  0.18993985  1
  Zn  Zn144  1  0.93896742  0.43578791  0.69235157  1
  Zn  Zn145  1  0.93230648  0.93693121  0.18820935  1
  Zn  Zn146  1  0.93623925  0.93745990  0.68831660  1
  Zn  Zn147  1  0.06594141  0.06108300  0.31748296  1
  Zn  Zn148  1  0.06080547  0.06191542  0.81695889  1
  Zn  Zn149  1  0.06314930  0.55796260  0.30922381  1
  Zn  Zn150  1  0.06233713  0.55795842  0.81309443  1
  Zn  Zn151  1  0.55348080  0.06568464  0.32077690  1
  Zn  Zn152  1  0.56290998  0.06237032  0.81447475  1
  Zn  Zn153  1  0.56170828  0.56753863  0.31311660  1
  Zn  Zn154  1  0.56283385  0.55855039  0.80788898  1
  Zn  Zn155  1  0.43194728  0.18119655  0.43682378  1
  Zn  Zn156  1  0.43484374  0.18239984  0.94046479  1
  Zn  Zn157  1  0.43850072  0.68889002  0.43768418  1
  Zn  Zn158  1  0.43695813  0.68575325  0.93144426  1
  Zn  Zn159  1  0.94155060  0.18121065  0.43578298  1
  Zn  Zn160  1  0.93454188  0.18959400  0.93679736  1
  Zn  Zn161  1  0.93572974  0.68909556  0.43744103  1
  Zn  Zn162  1  0.93857182  0.68626890  0.93938480  1
  Zn  Zn163  1  0.05921107  0.31171061  0.06199439  1
  Zn  Zn164  1  0.06336766  0.30790964  0.55894197  1
  Zn  Zn165  1  0.06200486  0.81043815  0.05725968  1
  Zn  Zn166  1  0.06471318  0.81720915  0.56359778  1
  Zn  Zn167  1  0.56992843  0.30762303  0.06112671  1
  Zn  Zn168  1  0.56958212  0.30593466  0.56908442  1
  Zn  Zn169  1  0.56142140  0.80923130  0.05972542  1
  Zn  Zn170  1  0.57088382  0.81022137  0.56235901  1
  O  O171  1  0.11930369  0.13099748  0.11315893  1
  O  O172  1  0.12624382  0.11291739  0.61818945  1
  O  O173  1  0.11242474  0.62502537  0.11862308  1
  O  O174  1  0.11194736  0.62835986  0.61641978  1
  O  O175  1  0.61787447  0.12854290  0.11681216  1
  O  O176  1  0.61485122  0.13364486  0.61639628  1
  O  O177  1  0.61707446  0.61999183  0.11627135  1
  O  O178  1  0.61237670  0.62881590  0.61612050  1
  O  O179  1  0.38775908  0.38311366  0.37185805  1
  O  O180  1  0.38481523  0.38786073  0.87150475  1
  O  O181  1  0.38008039  0.88384066  0.37196877  1
  O  O182  1  0.39078041  0.87245507  0.86725432  1
  O  O183  1  0.88348622  0.37520735  0.37718479  1
  O  O184  1  0.88726639  0.37997804  0.87205453  1
  O  O185  1  0.88913106  0.87419515  0.37133782  1
  O  O186  1  0.87712953  0.88275244  0.88088880  1
  O  O187  1  0.24345241  -0.00541157  0.35666934  1
  O  O188  1  0.24851806  0.00284153  0.86461292  1
  O  O189  1  0.26314924  0.50673988  0.36844813  1
  O  O190  1  0.25723021  0.50842316  0.87664159  1
  O  O191  1  0.75265235  0.00050664  0.36591823  1
  O  O192  1  0.76015911  0.01128656  0.87848646  1
  O  O193  1  0.75717550  0.50420570  0.36820117  1
  O  O194  1  0.75634223  0.50491067  0.86743850  1
  O  O195  1  0.25789194  0.50531904  0.13647418  1
  O  O196  1  0.24451035  0.50544567  0.62710472  1
  O  O197  1  0.23953870  1.00353763  0.13569738  1
  O  O198  1  0.24433108  0.99542367  0.62987612  1
  O  O199  1  0.74294696  0.50009599  0.13352552  1
  O  O200  1  0.75833472  0.49075027  0.63250736  1
  O  O201  1  0.74439331  1.00111791  0.14117080  1
  O  O202  1  0.75744096  0.98326944  0.61799644  1
  O  O203  1  0.01678419  0.38170495  0.26245488  1
  O  O204  1  0.01037334  0.37076261  0.75819913  1
  O  O205  1  0.00374837  0.86791849  0.25552887  1
  O  O206  1  -0.00161760  0.86796585  0.75946097  1
  O  O207  1  0.50619336  0.36738499  0.25794258  1
  O  O208  1  0.51101681  0.36950067  0.75766870  1
  O  O209  1  0.50075978  0.86295201  0.24738784  1
  O  O210  1  0.51311221  0.86896628  0.75389902  1
  O  O211  1  0.50587202  0.13973953  0.24449659  1
  O  O212  1  0.50344762  0.13283178  0.74506478  1
  O  O213  1  0.49036716  0.63123627  0.24329707  1
  O  O214  1  0.50078315  0.62991610  0.73870497  1
  O  O215  1  0.99231935  0.12151189  0.25115433  1
  O  O216  1  0.98571237  0.12835411  0.75661920  1
  O  O217  1  0.99914308  0.62853668  0.23918937  1
  O  O218  1  1.00051178  0.63033206  0.74218641  1
  O  O219  1  0.36086339  0.24878279  0.00573487  1
  O  O220  1  0.36215081  0.24977765  0.49939805  1
  O  O221  1  0.37629254  0.74467591  0.01091754  1
  O  O222  1  0.36844391  0.74720290  0.50980131  1
  O  O223  1  0.87080838  0.23960671  0.01747635  1
  O  O224  1  0.86970368  0.25240289  0.50424715  1
  O  O225  1  0.86895383  0.75929645  0.00465807  1
  O  O226  1  0.86520002  0.74619278  0.50863230  1
  O  O227  1  0.13523473  0.24405070  0.49524597  1
  O  O228  1  0.13163059  0.24839296  0.99409334  1
  O  O229  1  0.13062469  0.74587667  0.49342968  1
  O  O230  1  0.11941905  0.73064144  1.00200030  1
  O  O231  1  0.63092191  0.24453951  0.49296404  1
  O  O232  1  0.62627274  0.23042310  0.99741285  1
  O  O233  1  0.63364834  0.73937303  0.49261479  1
  O  O234  1  0.61969125  0.73887491  0.97914066  1
  O  O235  1  0.49568623  0.24646726  0.13304658  1
  O  O236  1  0.49749715  0.24464137  0.63361160  1
  O  O237  1  0.49049956  0.74491404  0.13005322  1
  O  O238  1  0.49512503  0.74439391  0.62537506  1
  O  O239  1  0.98576749  0.25016523  0.12380193  1
  O  O240  1  0.98486133  0.25263442  0.62304557  1
  O  O241  1  0.99029856  0.74489810  0.12813438  1
  O  O242  1  0.99324599  0.74635274  0.62818156  1
  O  O243  1  0.01021684  0.26084691  0.38300151  1
  O  O244  1  0.00450777  0.26108269  0.87351978  1
  O  O245  1  0.00555449  0.75481203  0.36979271  1
  O  O246  1  -0.01050901  0.76014881  0.86585537  1
  O  O247  1  0.50813032  0.25803004  0.37117033  1
  O  O248  1  0.49412342  0.26140299  0.87099155  1
  O  O249  1  0.50637288  0.74994077  0.36664360  1
  O  O250  1  0.50607278  0.75832749  0.86634956  1
  O  O251  1  0.23815187  0.12640437  0.50157719  1
  O  O252  1  0.23708026  0.13546378  0.99796835  1
  O  O253  1  0.24412950  0.63564387  0.48990572  1
  O  O254  1  0.23788666  0.63147680  0.99044902  1
  O  O255  1  0.74297834  0.13063720  0.49683846  1
  O  O256  1  0.73877579  0.12311414  0.99308156  1
  O  O257  1  0.74629561  0.63398653  0.49448702  1
  O  O258  1  0.73847193  0.63023041  0.99221914  1
  O  O259  1  0.24337508  0.36297180  -0.00347620  1
  O  O260  1  0.24821285  0.36598275  0.49872061  1
  O  O261  1  0.23842105  0.87085612  0.00531179  1
  O  O262  1  0.24214187  0.87135252  0.51205253  1
  O  O263  1  0.73477661  0.37005526  0.00776943  1
  O  O264  1  0.75498114  0.37015272  0.50678271  1
  O  O265  1  0.75889089  0.87561240  -0.00309307  1
  O  O266  1  0.74180759  0.86168743  0.50919503  1
  O  O267  1  0.13686558  0.48685683  0.25630263  1
  O  O268  1  0.12413180  0.48484432  0.74827825  1
  O  O269  1  0.12887912  0.99332439  0.24736976  1
  O  O270  1  0.13132595  1.00108848  0.74328059  1
  O  O271  1  0.62846722  0.49473078  0.24703641  1
  O  O272  1  0.64054945  0.49144618  0.75159623  1
  O  O273  1  0.62999030  1.00154822  0.25877993  1
  O  O274  1  0.62689669  0.98697293  0.75099758  1
  O  O275  1  0.35492808  0.00210902  0.24539568  1
  O  O276  1  0.36130202  -0.00099897  0.74875653  1
  O  O277  1  0.37116383  0.51020942  0.25460005  1
  O  O278  1  0.37012991  0.50542965  0.76256154  1
  O  O279  1  0.87381414  0.01321613  0.25071909  1
  O  O280  1  0.87727569  0.00716494  0.75951456  1
  O  O281  1  0.87107997  0.50412683  0.25450677  1
  O  O282  1  0.86363347  0.50014557  0.75657750  1
  O  O283  1  0.11983386  0.36610904  0.37230367  1
  O  O284  1  0.11517926  0.36752320  0.86819116  1
  O  O285  1  0.11608694  0.86850513  0.36228095  1
  O  O286  1  0.10783728  0.88212636  0.87419319  1
  O  O287  1  0.61587461  0.37187749  0.36648744  1
  O  O288  1  0.61592860  0.37961892  0.86218015  1
  O  O289  1  0.61925400  0.85976594  0.38244713  1
  O  O290  1  0.62218349  0.86858298  0.86347602  1
  O  O291  1  0.38331486  0.13949046  0.13310836  1
  O  O292  1  0.38957488  0.13063892  0.63027469  1
  O  O293  1  0.37937996  0.63340629  0.13026256  1
  O  O294  1  0.38781308  0.63378815  0.62242105  1
  O  O295  1  0.87384120  0.13184538  0.13890804  1
  O  O296  1  0.86605424  0.13330436  0.63644425  1
  O  O297  1  0.89375644  0.62326575  0.12863857  1
  O  O298  1  0.88709103  0.63364888  0.62499850  1
  O  O299  1  0.25689675  0.25076121  0.11215243  1
  O  O300  1  0.25343372  0.24941513  0.60898653  1
  O  O301  1  0.26472951  0.74716833  0.12294815  1
  O  O302  1  0.25701807  0.75781314  0.61997248  1
  O  O303  1  0.76010826  0.25259934  0.12431257  1
  O  O304  1  0.75865308  0.25800578  0.61976876  1
  O  O305  1  0.77820413  0.71488001  0.11792268  1
  O  O306  1  0.75818683  0.75248763  0.61769730  1
  O  O307  1  0.24359567  0.25337070  0.38876722  1
  O  O308  1  0.24273253  0.25088978  0.88538195  1
  O  O309  1  0.24441153  0.74739176  0.37577516  1
  O  O310  1  0.25708394  0.73741606  0.87124856  1
  O  O311  1  0.73715591  0.25227049  0.37890070  1
  O  O312  1  0.75728257  0.23497447  0.87952185  1
  O  O313  1  0.74509698  0.74769304  0.38023214  1
  O  O314  1  0.74246650  0.74698715  0.88197588  1
  O  O315  1  0.00664127  0.11751031  -0.00878911  1
  O  O316  1  0.01509036  0.11401538  0.49563665  1
  O  O317  1  0.00604310  0.62217556  0.01063114  1
  O  O318  1  0.00324465  0.62045333  0.50532864  1
  O  O319  1  0.50879637  0.12751678  0.01180881  1
  O  O320  1  0.50710831  0.11795935  0.50914943  1
  O  O321  1  0.50432280  0.61749926  0.00138498  1
  O  O322  1  0.50991483  0.62723731  0.50594608  1
  O  O323  1  0.50919483  0.38103050  0.49489426  1
  O  O324  1  0.50948596  0.38277363  0.99211733  1
  O  O325  1  0.50590793  0.88902733  0.50923455  1
  O  O326  1  0.50910456  0.87519520  0.98264051  1
  O  O327  1  0.99514719  0.37996429  0.49311347  1
  O  O328  1  1.00623960  0.37685205  0.98356552  1
  O  O329  1  1.00888739  0.88562785  0.48919518  1
  O  O330  1  0.98656045  0.87928899  0.99349053  1
  O  O331  1  0.48797919  0.49502821  0.36870536  1
  O  O332  1  0.49393356  0.49247120  0.88109292  1
  O  O333  1  0.50472391  0.99589044  0.39711206  1
  O  O334  1  0.49847970  0.98374649  0.86973529  1
  O  O335  1  0.99440963  0.49203578  0.38031474  1
  O  O336  1  0.98897425  0.48760787  0.86956936  1
  O  O337  1  1.00095628  0.99051449  0.38310030  1
  O  O338  1  0.98718784  0.99323015  0.88425487  1
  O  O339  1  -0.00265726  -0.00655234  0.10917354  1
  O  O340  1  0.00798075  -0.00765008  0.61575852  1
  O  O341  1  0.00195702  0.50637357  0.12852059  1
  O  O342  1  0.00087582  0.50823060  0.61852058  1
  O  O343  1  0.49691467  0.01447794  0.13350086  1
  O  O344  1  0.50061461  0.00804640  0.61702564  1
  O  O345  1  0.50396181  0.50530638  0.11751490  1
  O  O346  1  0.49151324  0.50282528  0.61565871  1
  O  O347  1  0.23978294  0.38424282  0.25476754  1
  O  O348  1  0.23188080  0.37527503  0.75799780  1
  O  O349  1  0.23880474  0.88237227  0.23981340  1
  O  O350  1  0.24599088  0.88146955  0.73830538  1
  O  O351  1  0.74104634  0.38334488  0.25160399  1
  O  O352  1  0.74601668  0.37831852  0.74566841  1
  O  O353  1  0.75151178  0.89303354  0.24845362  1
  O  O354  1  0.73810145  0.86864893  0.74363164  1
  O  O355  1  0.24284240  0.11476834  0.24820924  1
  O  O356  1  0.25173052  0.11817646  0.75072054  1
  O  O357  1  0.25653070  0.62053818  0.25352623  1
  O  O358  1  0.24885086  0.62231225  0.75693895  1
  O  O359  1  0.74899606  0.11112423  0.25514625  1
  O  O360  1  0.75526256  0.12918933  0.76235929  1
  O  O361  1  0.75481007  0.61932466  0.25548879  1
  O  O362  1  0.75167529  0.61766117  0.75419177  1
  O  O363  1  0.38634319  0.11141644  0.36518994  1
  O  O364  1  0.37296409  0.12117691  0.86911297  1
  O  O365  1  0.37248522  0.62074592  0.36566471  1
  O  O366  1  0.36689364  0.61511028  0.87303145  1
  O  O367  1  0.87437939  0.12511510  0.36146223  1
  O  O368  1  0.86561119  0.11894633  0.86827269  1
  O  O369  1  0.87031703  0.61990704  0.36726227  1
  O  O370  1  0.86877347  0.61709279  0.87491640  1
  O  O371  1  0.12046964  0.36918576  0.14140718  1
  O  O372  1  0.11726367  0.37245706  0.63868715  1
  O  O373  1  0.11645981  0.87480269  0.13673404  1
  O  O374  1  0.13269363  0.88779056  0.62771311  1
  O  O375  1  0.61929479  0.38147906  0.13964322  1
  O  O376  1  0.64000785  0.37176148  0.63501933  1
  O  O377  1  0.66498359  0.80497346  0.10556231  1
  O  O378  1  0.63455969  0.86763748  0.64015771  1
  O  O379  1  0.13548729  0.26371729  0.26060013  1
  O  O380  1  0.12366254  0.25692056  0.75606946  1
  O  O381  1  0.11991054  0.75523463  0.25208693  1
  O  O382  1  0.10920081  0.75443961  0.74263251  1
  O  O383  1  0.62015191  0.25786249  0.25711893  1
  O  O384  1  0.61385424  0.25914650  0.74770525  1
  O  O385  1  0.61222951  0.73964232  0.26176106  1
  O  O386  1  0.62146631  0.75073894  0.75720549  1
  O  O387  1  0.38243649  0.25243393  0.24542732  1
  O  O388  1  0.38858204  0.25628888  0.74557031  1
  O  O389  1  0.38042970  0.74134774  0.24442839  1
  O  O390  1  0.38288164  0.74662775  0.73526635  1
  O  O391  1  0.87174001  0.23225956  0.24259462  1
  O  O392  1  0.87627975  0.24218210  0.74099930  1
  O  O393  1  0.88074781  0.74339503  0.24288703  1
  O  O394  1  0.88436663  0.74499799  0.74124655  1
  O  O395  1  0.37741318  0.50271623  0.49197615  1
  O  O396  1  0.38662751  0.50554520  0.99499492  1
  O  O397  1  0.38711107  1.00210499  0.50502864  1
  O  O398  1  0.38273694  1.00562969  1.00337234  1
  O  O399  1  0.87915524  0.49262119  0.49290583  1
  O  O400  1  0.86583935  0.50229757  0.98948833  1
  O  O401  1  0.88998097  1.00776162  0.49488529  1
  O  O402  1  0.87653352  0.99563103  0.99584823  1
  O  O403  1  0.11321503  0.01363968  -0.00013181  1
  O  O404  1  0.12031256  0.00665088  0.50621382  1
  O  O405  1  0.12730422  0.51777007  0.00138069  1
  O  O406  1  0.11793876  0.50812515  0.49650807  1
  O  O407  1  0.61509448  0.01759008  -0.00538947  1
  O  O408  1  0.62295531  0.01077028  0.50035169  1
  O  O409  1  0.61342622  0.50634306  0.00222540  1
  O  O410  1  0.63313640  0.51457038  0.49457922  1
  O  O411  1  0.38213078  0.36282359  0.12721674  1
  O  O412  1  0.39169574  0.38311615  0.61109945  1
  O  O413  1  0.37485994  0.85896732  0.12713661  1
  O  O414  1  0.36671809  0.86722970  0.62788413  1
  O  O415  1  0.87448241  0.35635951  0.13789261  1
  O  O416  1  0.86684408  0.36831045  0.62056336  1
  O  O417  1  0.86807530  0.86372117  0.11733793  1
  O  O418  1  0.86722091  0.86179628  0.63127975  1
  O  O419  1  0.12233189  0.13930785  0.38126532  1
  O  O420  1  0.12263559  0.14076571  0.87962030  1
  O  O421  1  0.12912776  0.63085363  0.37694171  1
  O  O422  1  0.13057571  0.62104855  0.88226576  1
  O  O423  1  0.62310810  0.13543440  0.38601411  1
  O  O424  1  0.63857962  0.12253263  0.87772970  1
  O  O425  1  0.63152204  0.63229261  0.38134716  1
  O  O426  1  0.62995696  0.63013897  0.87383860  1
