# generated using pymatgen
data_V85Zn86O256
_symmetry_space_group_name_H-M   'P 1'
_cell_length_a   16.94147849
_cell_length_b   16.94529080
_cell_length_c   16.94778963
_cell_angle_alpha   90.05473794
_cell_angle_beta   90.07820583
_cell_angle_gamma   89.96391231
_symmetry_Int_Tables_number   1
_chemical_formula_structural   V85Zn86O256
_chemical_formula_sum   'V85 Zn86 O256'
_cell_volume   4865.33457569
_cell_formula_units_Z   1
loop_
 _symmetry_equiv_pos_site_id
 _symmetry_equiv_pos_as_xyz
  1  'x, y, z'
loop_
 _atom_site_type_symbol
 _atom_site_label
 _atom_site_symmetry_multiplicity
 _atom_site_fract_x
 _atom_site_fract_y
 _atom_site_fract_z
 _atom_site_occupancy
  V  V0  1  0.38722675  0.63102466  0.25099956  1
  V  V1  1  0.62358454  0.75543795  0.36339774  1
  V  V2  1  0.87530165  0.50139434  0.37289591  1
  V  V3  1  0.25214248  0.50585497  0.75256346  1
  V  V4  1  0.13599690  0.12122460  -0.00368923  1
  V  V5  1  0.37719212  0.24988277  0.62186029  1
  V  V6  1  0.25168757  -0.00136485  0.24172122  1
  V  V7  1  0.00350911  0.24944577  0.25124869  1
  V  V8  1  0.87397617  0.62598465  0.24923181  1
  V  V9  1  0.50267577  0.36025509  0.37307025  1
  V  V10  1  0.50065178  0.63622096  0.11422385  1
  V  V11  1  -0.00206301  0.62571206  0.12359352  1
  V  V12  1  0.50655057  0.75456741  0.76464326  1
  V  V13  1  0.36171116  0.11849467  0.75197966  1
  V  V14  1  0.87605965  0.24862335  0.12550282  1
  V  V15  1  0.37811995  0.87532622  0.49728771  1
  V  V16  1  0.37619529  0.37575139  0.49906715  1
  V  V17  1  0.25299653  0.75234326  0.49958274  1
  V  V18  1  0.37496890  0.62670661  0.76600304  1
  V  V19  1  -0.00213806  0.88473524  0.37392677  1
  V  V20  1  0.13759389  0.63213942  -0.00415017  1
  V  V21  1  0.87293790  0.12189770  0.74996235  1
  V  V22  1  -0.00237607  0.12063741  0.62486284  1
  V  V23  1  0.62680724  0.63362059  0.50237556  1
  V  V24  1  0.63769788  0.75078428  0.89399644  1
  V  V25  1  0.00344581  0.36979510  0.37664848  1
  V  V26  1  0.12204491  0.12602341  0.49676234  1
  V  V27  1  0.38021305  0.49996169  0.37459092  1
  V  V28  1  0.79591199  0.43553835  0.68391128  1
  V  V29  1  0.74801777  0.12122261  0.87612780  1
  V  V30  1  0.75148507  0.60875445  0.88023177  1
  V  V31  1  0.25208989  0.62597917  0.37596066  1
  V  V32  1  0.62133260  0.36319579  0.25298423  1
  V  V33  1  0.12789465  0.24363600  0.87427182  1
  V  V34  1  -0.00286455  0.50240247  -0.00883344  1
  V  V35  1  0.51229536  -0.00532169  0.50089203  1
  V  V36  1  0.36023107  0.76127165  0.12643543  1
  V  V37  1  0.12404765  0.49822229  0.12326326  1
  V  V38  1  0.62514864  0.13177017  0.49631407  1
  V  V39  1  0.74890092  0.63102449  0.37811502  1
  V  V40  1  0.73766309  -0.00126487  0.74591951  1
  V  V41  1  0.00215003  -0.00220220  -0.00207380  1
  V  V42  1  0.85975772  0.75327413  0.12372516  1
  V  V43  1  0.62493962  0.38157751  0.74973269  1
  V  V44  1  0.12633570  0.37058984  0.25182051  1
  V  V45  1  0.12386523  0.62783673  0.50021602  1
  V  V46  1  0.62592710  -0.01686968  0.12773525  1
  V  V47  1  0.74662610  0.49974537  0.24840005  1
  V  V48  1  0.50622855  0.11766684  0.62625472  1
  V  V49  1  -0.00091379  0.75161720  0.24979614  1
  V  V50  1  0.86880202  0.87382130  0.49518066  1
  V  V51  1  0.12887310  0.87476409  0.24292433  1
  V  V52  1  0.87594696  0.11940499  0.25725957  1
  V  V53  1  0.25075400  0.50037429  0.25091480  1
  V  V54  1  0.87505871  0.37885637  -0.00330861  1
  V  V55  1  0.49879306  0.62708794  0.62831333  1
  V  V56  1  0.87252172  0.75374779  0.63520422  1
  V  V57  1  0.25025824  0.88324594  0.62777511  1
  V  V58  1  0.37644962  -0.00035883  0.37301200  1
  V  V59  1  0.74730291  0.12690942  0.37368779  1
  V  V60  1  0.86665772  0.37772457  0.49929765  1
  V  V61  1  0.00261971  0.85784037  0.87389650  1
  V  V62  1  0.61995612  0.12277867  0.00520460  1
  V  V63  1  0.24481163  0.12533719  0.37112551  1
  V  V64  1  0.75028426  -0.01247597  0.24942908  1
  V  V65  1  0.24502959  0.25040528  0.49460647  1
  V  V66  1  0.61898755  0.50345859  0.12187518  1
  V  V67  1  0.62460237  0.25008358  0.87467976  1
  V  V68  1  0.86486533  0.24943341  0.62476782  1
  V  V69  1  0.00300861  0.12328070  0.12320083  1
  V  V70  1  0.26100958  0.25754266  -0.00484400  1
  V  V71  1  0.36572756  0.87730593  -0.01084305  1
  V  V72  1  0.75170682  0.24766783  0.00188150  1
  V  V73  1  0.50444083  0.87283647  0.36058161  1
  V  V74  1  0.00014950  0.24692835  0.75079558  1
  V  V75  1  0.87440300  -0.00245732  0.87586799  1
  V  V76  1  0.86310794  0.87132500  0.00407909  1
  V  V77  1  0.00347411  0.63505820  0.63602014  1
  V  V78  1  0.00189826  0.50383668  0.49740275  1
  V  V79  1  0.49379075  0.38013408  0.88095427  1
  V  V80  1  0.74158451  0.87424456  0.62344205  1
  V  V81  1  0.38308037  0.25439454  0.13282521  1
  V  V82  1  0.62641401  0.49730263  0.62289111  1
  V  V83  1  0.12885113  0.37476189  0.74868865  1
  V  V84  1  0.50009406  0.25034707  0.74767236  1
  Zn  Zn85  1  0.37835497  0.74902886  0.62679879  1
  Zn  Zn86  1  0.87166410  0.61546075  0.75561711  1
  Zn  Zn87  1  0.38169241  0.12810390  0.25162484  1
  Zn  Zn88  1  0.12866500  0.50362572  0.62519840  1
  Zn  Zn89  1  0.14012312  0.74450066  0.86359839  1
  Zn  Zn90  1  0.36888423  0.00180687  0.87322414  1
  Zn  Zn91  1  0.50120647  0.50032651  0.49947451  1
  Zn  Zn92  1  0.12226227  0.87316381  0.74893376  1
  Zn  Zn93  1  0.25037762  0.37655646  0.62313248  1
  Zn  Zn94  1  0.25714935  0.37864700  0.11879213  1
  Zn  Zn95  1  0.61909358  0.87653334  0.75395646  1
  Zn  Zn96  1  0.13131584  -0.00642068  0.11896969  1
  Zn  Zn97  1  0.12474699  0.75255027  0.37335350  1
  Zn  Zn98  1  0.36142575  0.49634695  0.88841746  1
  Zn  Zn99  1  0.74424537  0.25506840  0.49560386  1
  Zn  Zn100  1  0.74870632  0.37593360  0.12624786  1
  Zn  Zn101  1  0.13124785  0.00400315  0.62967071  1
  Zn  Zn102  1  -0.00356234  0.00055763  0.49695867  1
  Zn  Zn103  1  0.49433988  0.50260883  0.00092489  1
  Zn  Zn104  1  0.49874649  -0.00964146  -0.00383432  1
  Zn  Zn105  1  0.50462792  0.12756080  0.13748387  1
  Zn  Zn106  1  -0.00310565  0.37588922  0.87348972  1
  Zn  Zn107  1  0.19246273  0.18828825  0.18069278  1
  Zn  Zn108  1  0.18630281  0.19066793  0.68016506  1
  Zn  Zn109  1  0.18640697  0.68344438  0.18899807  1
  Zn  Zn110  1  0.19068323  0.69567948  0.69110456  1
  Zn  Zn111  1  0.69021954  0.18304441  0.18702655  1
  Zn  Zn112  1  0.68476776  0.18690620  0.68612974  1
  Zn  Zn113  1  0.68232352  0.68701765  0.18698800  1
  Zn  Zn114  1  0.69296802  0.68445318  0.69458734  1
  Zn  Zn115  1  0.31137994  0.31322235  0.31279326  1
  Zn  Zn116  1  0.31171228  0.30918001  0.80995719  1
  Zn  Zn117  1  0.31388502  0.81329651  0.31048037  1
  Zn  Zn118  1  0.31537732  0.81310074  0.80908852  1
  Zn  Zn119  1  0.81147714  0.31071900  0.31267750  1
  Zn  Zn120  1  0.81425592  0.30736178  0.81857983  1
  Zn  Zn121  1  0.81167976  0.80927524  0.31578083  1
  Zn  Zn122  1  0.80908570  0.81178562  0.81379491  1
  Zn  Zn123  1  0.18860969  0.43866546  0.43639294  1
  Zn  Zn124  1  0.18334983  0.43628565  0.93408874  1
  Zn  Zn125  1  0.18428511  0.94014086  0.43519600  1
  Zn  Zn126  1  0.19616378  0.93213263  0.93204258  1
  Zn  Zn127  1  0.68460596  0.44177715  0.43457187  1
  Zn  Zn128  1  0.68459294  0.43615562  0.94114909  1
  Zn  Zn129  1  0.69143441  0.94014637  0.43328847  1
  Zn  Zn130  1  0.68129541  0.93531758  0.93560384  1
  Zn  Zn131  1  0.31579945  0.06607878  0.05997182  1
  Zn  Zn132  1  0.31840492  0.06368395  0.55877034  1
  Zn  Zn133  1  0.32006470  0.55619613  0.06853480  1
  Zn  Zn134  1  0.31330172  0.56247093  0.56709734  1
  Zn  Zn135  1  0.81063583  0.05862458  0.06636774  1
  Zn  Zn136  1  0.81047664  0.05599918  0.55999558  1
  Zn  Zn137  1  0.80919818  0.56474020  0.05978886  1
  Zn  Zn138  1  0.81742357  0.57342795  0.55832564  1
  Zn  Zn139  1  0.43911173  0.43614156  0.18662637  1
  Zn  Zn140  1  0.43789015  0.44084552  0.69030842  1
  Zn  Zn141  1  0.44027776  0.94204616  0.18276671  1
  Zn  Zn142  1  0.43647259  0.93635839  0.68642883  1
  Zn  Zn143  1  0.93803376  0.43693015  0.18399259  1
  Zn  Zn144  1  0.96030010  0.43818779  0.68170632  1
  Zn  Zn145  1  0.93678744  0.93770443  0.18434880  1
  Zn  Zn146  1  0.93536769  0.93712462  0.69036543  1
  Zn  Zn147  1  0.06584513  0.06127956  0.31050723  1
  Zn  Zn148  1  0.07189274  0.05420900  0.81223715  1
  Zn  Zn149  1  0.06355202  0.56254737  0.31260892  1
  Zn  Zn150  1  0.06506198  0.56388377  0.81385937  1
  Zn  Zn151  1  0.56511366  0.06187386  0.31045559  1
  Zn  Zn152  1  0.55435302  0.06036700  0.81694808  1
  Zn  Zn153  1  0.56419667  0.56014288  0.31242954  1
  Zn  Zn154  1  0.56926446  0.56691391  0.81593632  1
  Zn  Zn155  1  0.43570779  0.18184394  0.43667409  1
  Zn  Zn156  1  0.43974214  0.18423541  0.93412075  1
  Zn  Zn157  1  0.44244771  0.68837086  0.43835891  1
  Zn  Zn158  1  0.31422844  0.69138649  0.94535272  1
  Zn  Zn159  1  0.93500662  0.18983208  0.43704335  1
  Zn  Zn160  1  0.94079800  0.18549188  0.93700965  1
  Zn  Zn161  1  0.93602753  0.69610364  0.44028907  1
  Zn  Zn162  1  0.92603196  0.68320623  0.93970764  1
  Zn  Zn163  1  0.06419429  0.31232464  0.06018674  1
  Zn  Zn164  1  0.05959068  0.30887497  0.56303122  1
  Zn  Zn165  1  0.05839710  0.81102349  0.06204386  1
  Zn  Zn166  1  0.06214898  0.81238723  0.56185019  1
  Zn  Zn167  1  0.56500290  0.31339292  0.06414343  1
  Zn  Zn168  1  0.56203489  0.31393717  0.56126830  1
  Zn  Zn169  1  0.55183853  0.80955584  0.05932166  1
  Zn  Zn170  1  0.56366625  0.80903773  0.56077616  1
  O  O171  1  0.11898372  0.12383596  0.11432949  1
  O  O172  1  0.11421053  0.12584946  0.61669621  1
  O  O173  1  0.12016755  0.61441539  0.11848269  1
  O  O174  1  0.11828060  0.62923550  0.61692728  1
  O  O175  1  0.62572218  0.12034998  0.11751441  1
  O  O176  1  0.61281493  0.12641962  0.61785417  1
  O  O177  1  0.60864620  0.61860742  0.13496742  1
  O  O178  1  0.62365192  0.61676478  0.61970163  1
  O  O179  1  0.38170157  0.38195646  0.37786043  1
  O  O180  1  0.39141711  0.37505485  0.86485513  1
  O  O181  1  0.38473688  0.87853884  0.37973318  1
  O  O182  1  0.37380724  0.87604048  0.88619286  1
  O  O183  1  0.88186210  0.38068547  0.38092043  1
  O  O184  1  0.87775598  0.36796997  0.89173307  1
  O  O185  1  0.88043532  0.86835632  0.38774969  1
  O  O186  1  0.88198102  0.87672921  0.88688231  1
  O  O187  1  0.25387399  0.00789144  0.36785424  1
  O  O188  1  0.25690019  0.00800512  0.88208171  1
  O  O189  1  0.26221689  0.50454067  0.37178630  1
  O  O190  1  0.24699784  0.49395132  0.85863585  1
  O  O191  1  0.74743704  0.00946114  0.35843113  1
  O  O192  1  0.75475403  0.00335103  0.86840549  1
  O  O193  1  0.75485055  0.50730989  0.36466481  1
  O  O194  1  0.73995282  0.50851012  0.87467431  1
  O  O195  1  0.24145159  0.49740019  0.13323371  1
  O  O196  1  0.24749927  0.49561009  0.63515643  1
  O  O197  1  0.24924586  1.00840197  0.13871738  1
  O  O198  1  0.25232361  0.98652976  0.61245777  1
  O  O199  1  0.74304448  0.50222203  0.13651762  1
  O  O200  1  0.74509922  0.50182180  0.61881992  1
  O  O201  1  0.73859229  1.00295518  0.13690095  1
  O  O202  1  0.75518766  0.98893929  0.63593014  1
  O  O203  1  0.00577923  0.37161437  0.25703234  1
  O  O204  1  0.00881192  0.36528131  0.75240587  1
  O  O205  1  0.00232197  0.86899451  0.25507484  1
  O  O206  1  -0.00744219  0.87922280  0.77312837  1
  O  O207  1  0.51368868  0.37674488  0.25728567  1
  O  O208  1  0.50870692  0.37022583  0.75490103  1
  O  O209  1  0.50059884  0.88074876  0.26205086  1
  O  O210  1  0.50015229  0.85902418  0.74344636  1
  O  O211  1  0.49565868  0.12365954  0.25183340  1
  O  O212  1  0.49720634  0.13317892  0.73955468  1
  O  O213  1  0.48924052  0.62157767  0.24981953  1
  O  O214  1  0.49482274  0.63082916  0.74615020  1
  O  O215  1  0.99556222  0.12878424  0.24534853  1
  O  O216  1  0.99376382  0.12835887  0.74299453  1
  O  O217  1  0.99553170  0.63201230  0.24569271  1
  O  O218  1  0.99381891  0.61544161  0.73802425  1
  O  O219  1  0.36354508  0.24613450  0.00203898  1
  O  O220  1  0.36942543  0.25221849  0.50779946  1
  O  O221  1  0.37217372  0.76006493  0.01821912  1
  O  O222  1  0.36918634  0.75611773  0.49938697  1
  O  O223  1  0.87249284  0.25260397  0.00814301  1
  O  O224  1  0.87545552  0.26182403  0.50895588  1
  O  O225  1  0.87768077  0.76290491  0.00986000  1
  O  O226  1  0.87708590  0.76575636  0.51121623  1
  O  O227  1  0.13207169  0.23902360  0.50330702  1
  O  O228  1  0.13084075  0.24358754  0.99152443  1
  O  O229  1  0.13234877  0.74126764  0.49609136  1
  O  O230  1  0.12163441  0.73190517  1.00681767  1
  O  O231  1  0.62689373  0.23725123  0.50437894  1
  O  O232  1  0.63403813  0.24395236  0.99795360  1
  O  O233  1  0.62514257  0.73647577  0.49277414  1
  O  O234  1  0.62563702  0.75266292  0.99225153  1
  O  O235  1  0.48595477  0.25128513  0.11949799  1
  O  O236  1  0.49331479  0.24365048  0.62666256  1
  O  O237  1  0.49097248  0.73868018  0.12910432  1
  O  O238  1  0.50159377  0.73629383  0.62664544  1
  O  O239  1  0.99247178  0.24562388  0.12916979  1
  O  O240  1  0.98852382  0.24040741  0.62975447  1
  O  O241  1  0.99196305  0.74534016  0.13617993  1
  O  O242  1  0.98952381  0.74402871  0.62064509  1
  O  O243  1  -0.00379203  0.26277737  0.36922347  1
  O  O244  1  0.00816697  0.25068451  0.86768597  1
  O  O245  1  -0.00089214  0.75709424  0.36205517  1
  O  O246  1  -0.00262276  0.75800209  0.88240116  1
  O  O247  1  0.49316912  0.26142513  0.37919031  1
  O  O248  1  0.50643673  0.25861946  0.86776858  1
  O  O249  1  0.51409546  0.75764611  0.37970355  1
  O  O250  1  0.51500506  0.74585381  0.86252245  1
  O  O251  1  0.24245735  0.13069381  0.49424959  1
  O  O252  1  0.23900548  0.13709686  1.00419105  1
  O  O253  1  0.24487163  0.63194103  0.49727158  1
  O  O254  1  0.24045809  0.61982056  1.00563526  1
  O  O255  1  0.74262751  0.12118303  0.49223737  1
  O  O256  1  0.74254613  0.12763472  0.99642052  1
  O  O257  1  0.74320438  0.62036613  0.48538922  1
  O  O258  1  0.75252708  0.62274824  0.98296603  1
  O  O259  1  0.24247076  0.36075875  0.00003746  1
  O  O260  1  0.25520242  0.36713119  0.49894017  1
  O  O261  1  0.26477600  0.87503182  0.00783202  1
  O  O262  1  0.25692329  0.86864490  0.49858376  1
  O  O263  1  0.75714200  0.36781398  0.00470654  1
  O  O264  1  0.76222903  0.37553859  0.49075379  1
  O  O265  1  0.76559625  0.88279392  -0.00217292  1
  O  O266  1  0.76087198  0.88062412  0.50596814  1
  O  O267  1  0.12749298  0.49272972  0.24253599  1
  O  O268  1  0.13000156  0.49207767  0.74825127  1
  O  O269  1  0.13260873  0.99180852  0.24676664  1
  O  O270  1  0.12060167  0.98686855  0.74114002  1
  O  O271  1  0.63195582  0.49330073  0.24433979  1
  O  O272  1  0.62380659  0.48868114  0.74170539  1
  O  O273  1  0.63778157  0.99925908  0.23833959  1
  O  O274  1  0.63402660  0.99920842  0.75612285  1
  O  O275  1  0.36704283  0.00081172  0.25640843  1
  O  O276  1  0.37807959  0.01600230  0.74556652  1
  O  O277  1  0.37044981  0.50591173  0.25707496  1
  O  O278  1  0.36830960  0.50829907  0.75378486  1
  O  O279  1  0.86322179  0.00888788  0.23933602  1
  O  O280  1  0.86612784  0.00557021  0.75734482  1
  O  O281  1  0.86800553  0.50503533  0.25271972  1
  O  O282  1  0.86880768  0.49004739  0.73371863  1
  O  O283  1  0.11507725  0.38229929  0.36532850  1
  O  O284  1  0.12203514  0.36328772  0.86357824  1
  O  O285  1  0.11458535  0.87337041  0.36562961  1
  O  O286  1  0.11004836  0.86781664  0.88356288  1
  O  O287  1  0.61747845  0.37918796  0.36324446  1
  O  O288  1  0.61987818  0.36906193  0.86606720  1
  O  O289  1  0.62132667  0.86179545  0.38193637  1
  O  O290  1  0.62882997  0.85760314  0.87158861  1
  O  O291  1  0.37703659  0.14050947  0.12543613  1
  O  O292  1  0.38580985  0.13225069  0.62691853  1
  O  O293  1  0.38415483  0.63148239  0.13416631  1
  O  O294  1  0.38650901  0.62536409  0.63159769  1
  O  O295  1  0.88168335  0.13140630  0.13195778  1
  O  O296  1  0.87828698  0.13199830  0.62697505  1
  O  O297  1  0.87859117  0.63164926  0.13120016  1
  O  O298  1  0.88208494  0.63963745  0.62517711  1
  O  O299  1  0.25829371  0.25477358  0.11123748  1
  O  O300  1  0.25802133  0.25237556  0.61059065  1
  O  O301  1  0.26203360  0.74454448  0.13087278  1
  O  O302  1  0.25512506  0.75853971  0.61080597  1
  O  O303  1  0.76358240  0.24969412  0.12221171  1
  O  O304  1  0.76122571  0.24558269  0.62014590  1
  O  O305  1  0.76063225  0.74636007  0.13204081  1
  O  O306  1  0.76372443  0.75705038  0.62773510  1
  O  O307  1  0.25540704  0.24256713  0.38683105  1
  O  O308  1  0.24337263  0.25222698  0.88520787  1
  O  O309  1  0.24995604  0.74515714  0.38524265  1
  O  O310  1  0.25265491  0.74859007  0.87336939  1
  O  O311  1  0.75842896  0.23353421  0.37826729  1
  O  O312  1  0.74355801  0.24160299  0.88170158  1
  O  O313  1  0.73808008  0.74237810  0.37341803  1
  O  O314  1  0.74054871  0.74643281  0.87697884  1
  O  O315  1  0.00865246  0.11745791  0.00374350  1
  O  O316  1  0.00469415  0.12616641  0.50480996  1
  O  O317  1  0.00162762  0.61759989  0.00702344  1
  O  O318  1  0.00798000  0.62501040  0.50263464  1
  O  O319  1  0.51452217  0.12906756  0.00295945  1
  O  O320  1  0.50699029  0.11674583  0.50382076  1
  O  O321  1  0.49873594  0.62507244  0.01683313  1
  O  O322  1  0.50863329  0.62175974  0.50858885  1
  O  O323  1  0.49487582  0.37874484  0.49137644  1
  O  O324  1  0.50714516  0.37252038  0.98232514  1
  O  O325  1  0.49646727  0.88031261  0.49666091  1
  O  O326  1  0.47399236  0.87609245  1.01434861  1
  O  O327  1  0.99308836  0.38004545  0.49367582  1
  O  O328  1  0.99386347  0.38334396  1.00056117  1
  O  O329  1  0.99389963  0.87544976  0.48981113  1
  O  O330  1  0.99326375  0.88154173  0.99284875  1
  O  O331  1  0.48941810  0.49462079  0.37509097  1
  O  O332  1  0.50620558  0.48644510  0.87486234  1
  O  O333  1  0.49877286  0.99032421  0.38269866  1
  O  O334  1  0.48398661  1.01147394  0.88444168  1
  O  O335  1  0.99360845  0.49273504  0.37787247  1
  O  O336  1  1.00332955  0.49723596  0.88771974  1
  O  O337  1  0.99951436  0.98828203  0.37199380  1
  O  O338  1  0.99313596  0.99865096  0.88699044  1
  O  O339  1  0.00186475  0.00442053  0.11253105  1
  O  O340  1  -0.00524005  0.01371526  0.62375311  1
  O  O341  1  0.00778325  0.50547751  0.11934524  1
  O  O342  1  0.00695503  0.51366465  0.61221082  1
  O  O343  1  0.51641903  0.00451660  0.12340581  1
  O  O344  1  0.49623066  0.00733613  0.61464268  1
  O  O345  1  0.50479725  0.51030757  0.12870852  1
  O  O346  1  0.50941504  0.51058709  0.62550879  1
  O  O347  1  0.24044326  0.38200922  0.25110958  1
  O  O348  1  0.24323420  0.37856886  0.74522154  1
  O  O349  1  0.23905182  0.88500407  0.25900827  1
  O  O350  1  0.25726241  0.87290712  0.72838035  1
  O  O351  1  0.74214102  0.38333409  0.25128802  1
  O  O352  1  0.74395297  0.37058569  0.74962709  1
  O  O353  1  0.75806560  0.88911762  0.25375709  1
  O  O354  1  0.74781996  0.88271868  0.74200565  1
  O  O355  1  0.24889652  0.11959932  0.25801197  1
  O  O356  1  0.26424104  0.12910205  0.73580763  1
  O  O357  1  0.25581665  0.61792991  0.25887994  1
  O  O358  1  0.26322142  0.61762444  0.74005417  1
  O  O359  1  0.75875822  0.11970323  0.25573116  1
  O  O360  1  0.75318208  0.11811689  0.75363960  1
  O  O361  1  0.75223886  0.61850726  0.25959119  1
  O  O362  1  0.75634589  0.62566753  0.76492417  1
  O  O363  1  0.36138995  0.11741572  0.37648820  1
  O  O364  1  0.37430707  0.13749391  0.85242143  1
  O  O365  1  0.37332595  0.61917004  0.37087520  1
  O  O366  1  0.37555479  0.62060885  0.86790008  1
  O  O367  1  0.87347397  0.12476140  0.36241825  1
  O  O368  1  0.86798737  0.11954771  0.87077103  1
  O  O369  1  0.86788131  0.62347790  0.37082323  1
  O  O370  1  0.86142982  0.62201165  0.87186098  1
  O  O371  1  0.12377950  0.38621846  0.13087093  1
  O  O372  1  0.12271508  0.37419292  0.63672644  1
  O  O373  1  0.11699389  0.87514783  0.13861108  1
  O  O374  1  0.14138499  0.87678358  0.61548972  1
  O  O375  1  0.62566046  0.38189342  0.13798259  1
  O  O376  1  0.62287260  0.38843930  0.62874954  1
  O  O377  1  0.62352976  0.88516044  0.11957033  1
  O  O378  1  0.63898072  0.86939850  0.62348621  1
  O  O379  1  0.12111055  0.26343936  0.24138504  1
  O  O380  1  0.12301000  0.25347169  0.75534782  1
  O  O381  1  0.11703669  0.75509828  0.25098249  1
  O  O382  1  0.12302392  0.75912535  0.75094134  1
  O  O383  1  0.63418084  0.26532263  0.24650485  1
  O  O384  1  0.62055529  0.26070761  0.75134261  1
  O  O385  1  0.62441441  0.74874587  0.26483799  1
  O  O386  1  0.61238561  0.75018418  0.74572752  1
  O  O387  1  0.36695408  0.24862909  0.23595602  1
  O  O388  1  0.37855152  0.24637682  0.73474013  1
  O  O389  1  0.37111483  0.73926378  0.24426196  1
  O  O390  1  0.38999172  0.74234326  0.74833411  1
  O  O391  1  0.88204539  0.24367356  0.24279023  1
  O  O392  1  0.87798784  0.24340066  0.74298608  1
  O  O393  1  0.88054348  0.74527509  0.24507241  1
  O  O394  1  0.87680559  0.75322556  0.73705131  1
  O  O395  1  0.37536901  0.49493287  0.49175788  1
  O  O396  1  0.38010754  0.49547873  0.99892530  1
  O  O397  1  0.38637347  0.99478470  0.49125319  1
  O  O398  1  0.37558091  0.98722127  1.00748236  1
  O  O399  1  0.88128204  0.49521882  0.49462839  1
  O  O400  1  0.88508207  0.48928852  1.01176284  1
  O  O401  1  0.87990668  0.98066002  0.50555295  1
  O  O402  1  0.88137212  0.99174117  0.99788928  1
  O  O403  1  0.11867464  0.00583308  -0.00020384  1
  O  O404  1  0.11980540  0.01391232  0.50235978  1
  O  O405  1  0.11854623  0.50636714  0.00628744  1
  O  O406  1  0.12295967  0.51298775  0.49942899  1
  O  O407  1  0.62610480  0.00551311  0.01089312  1
  O  O408  1  0.61628922  0.00723375  0.49656579  1
  O  O409  1  0.61966694  0.49173924  0.01892700  1
  O  O410  1  0.62359474  0.50965677  0.50621738  1
  O  O411  1  0.37336736  0.36179901  0.12839470  1
  O  O412  1  0.37774585  0.36733629  0.61757818  1
  O  O413  1  0.37098348  0.86146834  0.13863347  1
  O  O414  1  0.36726885  0.87277835  0.61357483  1
  O  O415  1  0.87414462  0.36500814  0.11793948  1
  O  O416  1  0.86913806  0.37308239  0.62122641  1
  O  O417  1  0.87880381  0.86771133  0.11274953  1
  O  O418  1  0.87105325  0.86707504  0.61982153  1
  O  O419  1  0.13542712  0.12332362  0.38100411  1
  O  O420  1  0.11888557  0.13622490  0.88120915  1
  O  O421  1  0.13209732  0.62674781  0.38224259  1
  O  O422  1  0.12095429  0.62696144  0.89251114  1
  O  O423  1  0.63482206  0.12128106  0.38423629  1
  O  O424  1  0.63019023  0.13127026  0.88186732  1
  O  O425  1  0.62972586  0.63198357  0.38031330  1
  O  O426  1  0.63742623  0.63897662  0.87110968  1
