# generated using pymatgen
data_V85Zn86O256
_symmetry_space_group_name_H-M   'P 1'
_cell_length_a   16.93514472
_cell_length_b   16.93505917
_cell_length_c   16.92836008
_cell_angle_alpha   90.00092489
_cell_angle_beta   89.93421675
_cell_angle_gamma   90.04874154
_symmetry_Int_Tables_number   1
_chemical_formula_structural   V85Zn86O256
_chemical_formula_sum   'V85 Zn86 O256'
_cell_volume   4855.00940424
_cell_formula_units_Z   1
loop_
 _symmetry_equiv_pos_site_id
 _symmetry_equiv_pos_as_xyz
  1  'x, y, z'
loop_
 _atom_site_type_symbol
 _atom_site_label
 _atom_site_symmetry_multiplicity
 _atom_site_fract_x
 _atom_site_fract_y
 _atom_site_fract_z
 _atom_site_occupancy
  V  V0  1  0.74937334  0.37427180  0.62347131  1
  V  V1  1  0.37600838  0.49953088  0.88382871  1
  V  V2  1  0.87550318  0.37485986  0.50047020  1
  V  V3  1  0.00848869  0.62418890  0.12600817  1
  V  V4  1  0.37247992  0.37050894  0.01581064  1
  V  V5  1  0.74985849  0.12307165  0.37287666  1
  V  V6  1  0.36980901  -0.01202125  0.87264888  1
  V  V7  1  0.87471154  0.24914722  0.62754278  1
  V  V8  1  0.37327473  0.12558236  0.23439047  1
  V  V9  1  0.37325677  0.25034549  0.62193493  1
  V  V10  1  0.50110962  0.12354905  0.10891519  1
  V  V11  1  0.49731977  0.24733232  0.24074963  1
  V  V12  1  0.87653567  0.50313203  0.87454112  1
  V  V13  1  0.12864143  0.87619944  0.74942272  1
  V  V14  1  0.25195701  0.62636309  0.36702503  1
  V  V15  1  0.12694488  0.00000625  0.62717873  1
  V  V16  1  0.36881211  0.12346142  0.75268646  1
  V  V17  1  0.87339125  0.00097779  0.88116835  1
  V  V18  1  0.87543494  0.50162330  0.37678651  1
  V  V19  1  0.38409002  0.87779192  0.49659148  1
  V  V20  1  0.25333736  0.13600092  0.37746667  1
  V  V21  1  0.37768330  0.50493326  0.36916084  1
  V  V22  1  0.63174890  0.37243514  0.23687131  1
  V  V23  1  0.00449219  0.36631839  0.87726704  1
  V  V24  1  0.61978635  0.12005286  0.49927783  1
  V  V25  1  0.74909295  0.24861645  0.49889970  1
  V  V26  1  0.25171092  0.49275199  0.24558961  1
  V  V27  1  0.50093629  0.38280494  0.88187733  1
  V  V28  1  0.50442905  0.50348051  0.49430080  1
  V  V29  1  0.13105104  0.49226448  0.12257938  1
  V  V30  1  0.87365311  -0.00012443  0.37273568  1
  V  V31  1  0.75097739  0.49517697  0.24221114  1
  V  V32  1  0.00457615  0.37316652  0.37241284  1
  V  V33  1  0.11731066  0.13284842  -0.01454862  1
  V  V34  1  0.12690426  0.50101208  0.62732586  1
  V  V35  1  0.25120518  0.88085472  0.62360280  1
  V  V36  1  0.49997934  -0.02577684  -0.00892966  1
  V  V37  1  0.62368600  0.37746274  0.75149624  1
  V  V38  1  0.74085447  0.74528799  0.50322253  1
  V  V39  1  0.86852644  0.37428573  0.00696868  1
  V  V40  1  0.62374912  0.50045859  0.62127531  1
  V  V41  1  0.25009219  0.37227809  0.62045161  1
  V  V42  1  0.50021959  0.62510191  0.62086769  1
  V  V43  1  0.49833448  0.12473353  0.62265729  1
  V  V44  1  0.61936419  -0.00265855  0.62852046  1
  V  V45  1  -0.00602663  0.87557774  0.88015525  1
  V  V46  1  0.62466257  0.24791250  0.37204134  1
  V  V47  1  0.74153292  -0.00538454  0.24943357  1
  V  V48  1  0.74627903  0.23619428  0.00497016  1
  V  V49  1  0.12720101  0.74593775  0.88666623  1
  V  V50  1  0.87794570  0.75027120  0.13011563  1
  V  V51  1  -0.00053372  0.62528340  0.62629340  1
  V  V52  1  0.37236482  0.74844474  0.62129016  1
  V  V53  1  0.87513056  0.87508696  0.50155533  1
  V  V54  1  0.74716043  0.87159792  0.12480409  1
  V  V55  1  0.37411353  0.62508418  0.75353935  1
  V  V56  1  0.13031526  0.13300755  0.50085288  1
  V  V57  1  0.14123276  -0.01277887  0.09312341  1
  V  V58  1  0.00846590  0.50271431  -0.00120823  1
  V  V59  1  0.74306445  0.00289314  0.75893910  1
  V  V60  1  0.73800766  0.62249447  0.37840416  1
  V  V61  1  0.50826158  0.88186989  0.36401461  1
  V  V62  1  0.24675647  -0.00080414  0.25073166  1
  V  V63  1  0.12684617  0.62698244  0.49861406  1
  V  V64  1  0.00049196  0.00070514  0.50148261  1
  V  V65  1  -0.00097803  0.12433589  0.62553093  1
  V  V66  1  0.37414405  0.37314988  0.49906648  1
  V  V67  1  0.63007716  0.24078795  0.87608489  1
  V  V68  1  0.75332321  0.50162449  0.75209160  1
  V  V69  1  0.37844965  0.00334431  0.37815267  1
  V  V70  1  0.50126632  0.73690466  0.24823790  1
  V  V71  1  0.24672214  0.62695190  0.89097378  1
  V  V72  1  -0.00099519  0.74891943  0.75107071  1
  V  V73  1  0.62155910  -0.00284734  0.11852247  1
  V  V74  1  0.50073965  0.37352833  0.37219925  1
  V  V75  1  0.12741549  0.36784397  0.75377961  1
  V  V76  1  0.50221458  0.76686298  0.75318915  1
  V  V77  1  0.00206526  0.87446780  0.37425450  1
  V  V78  1  0.00228234  0.11454210  0.12340642  1
  V  V79  1  0.12698058  0.87462639  0.24704014  1
  V  V80  1  0.75039216  0.72655414  -0.00289174  1
  V  V81  1  0.74609657  0.87545544  0.62994350  1
  V  V82  1  0.86985396  0.12553507  0.75499564  1
  V  V83  1  0.25058615  0.24955175  0.00429148  1
  V  V84  1  0.87134148  0.75009041  0.62851818  1
  Zn  Zn85  1  0.61260552  0.75259336  0.88767027  1
  Zn  Zn86  1  0.12884268  0.25264459  0.37425688  1
  Zn  Zn87  1  0.12698775  0.75071676  0.37374616  1
  Zn  Zn88  1  0.49733628  0.61796719  0.09854773  1
  Zn  Zn89  1  0.49882907  0.25205115  0.75256490  1
  Zn  Zn90  1  0.37010883  0.74657325  0.12316498  1
  Zn  Zn91  1  0.13043662  0.36539135  0.24191953  1
  Zn  Zn92  1  0.86545937  0.63369596  0.75969529  1
  Zn  Zn93  1  0.00119469  0.74722926  0.25292034  1
  Zn  Zn94  1  0.87657617  0.87753318  0.00389469  1
  Zn  Zn95  1  0.87765910  0.62334860  0.25325522  1
  Zn  Zn96  1  0.00253683  0.24628231  0.24781177  1
  Zn  Zn97  1  0.28286718  0.83968575  0.05292483  1
  Zn  Zn98  1  0.24871920  0.12856298  0.87040242  1
  Zn  Zn99  1  0.87569566  0.12491054  0.24691898  1
  Zn  Zn100  1  0.62830012  0.50957549  0.09677859  1
  Zn  Zn101  1  0.87598603  0.24812653  0.12788064  1
  Zn  Zn102  1  0.00030144  0.50018155  0.50063188  1
  Zn  Zn103  1  0.62378959  0.75209951  0.37617590  1
  Zn  Zn104  1  0.00357029  0.24599427  0.75457251  1
  Zn  Zn105  1  0.25137430  0.75321812  0.49312097  1
  Zn  Zn106  1  0.25211864  0.50097280  0.75137353  1
  Zn  Zn107  1  0.18323213  0.18321493  0.18293125  1
  Zn  Zn108  1  0.19026214  0.18972870  0.68442859  1
  Zn  Zn109  1  0.19191469  0.68570716  0.18127403  1
  Zn  Zn110  1  0.18996483  0.69074081  0.69015709  1
  Zn  Zn111  1  0.68532894  0.18116237  0.18360591  1
  Zn  Zn112  1  0.68610436  0.18704695  0.69007952  1
  Zn  Zn113  1  0.68619614  0.69123425  0.19463911  1
  Zn  Zn114  1  0.64289136  0.64657297  0.74562188  1
  Zn  Zn115  1  0.31641921  0.31196488  0.30719373  1
  Zn  Zn116  1  0.31058951  0.30970740  0.81510342  1
  Zn  Zn117  1  0.31393487  0.81228738  0.30395192  1
  Zn  Zn118  1  0.30942387  0.80832063  0.81118413  1
  Zn  Zn119  1  0.81696020  0.31050175  0.30967800  1
  Zn  Zn120  1  0.81268666  0.31441996  0.81661737  1
  Zn  Zn121  1  0.81078647  0.81208987  0.31226213  1
  Zn  Zn122  1  0.77563701  0.82745410  0.83267510  1
  Zn  Zn123  1  0.18864797  0.43986434  0.43811104  1
  Zn  Zn124  1  0.19256771  0.43591139  0.93775252  1
  Zn  Zn125  1  0.19002721  0.94194582  0.43728960  1
  Zn  Zn126  1  0.18085017  0.94788180  0.92328929  1
  Zn  Zn127  1  0.68542219  0.43679728  0.43149536  1
  Zn  Zn128  1  0.69302256  0.43312747  0.93451581  1
  Zn  Zn129  1  0.68779191  0.93858202  0.44386105  1
  Zn  Zn130  1  0.68083396  0.92901121  0.94065707  1
  Zn  Zn131  1  0.30450728  0.04413054  0.04972547  1
  Zn  Zn132  1  0.31229765  0.06193981  0.56107265  1
  Zn  Zn133  1  0.31829928  0.56955098  0.06633514  1
  Zn  Zn134  1  0.31187188  0.56115772  0.55743161  1
  Zn  Zn135  1  0.81092761  0.06231663  0.06316028  1
  Zn  Zn136  1  0.80956833  0.06166801  0.56450655  1
  Zn  Zn137  1  0.82305663  0.55906561  0.06873287  1
  Zn  Zn138  1  0.81190903  0.56423727  0.56451728  1
  Zn  Zn139  1  0.44012393  0.44007632  0.18644943  1
  Zn  Zn140  1  0.43789173  0.43984212  0.69184715  1
  Zn  Zn141  1  0.43054696  0.93265333  0.18395832  1
  Zn  Zn142  1  0.43292454  0.94316198  0.68445774  1
  Zn  Zn143  1  0.94163338  0.43676275  0.18891051  1
  Zn  Zn144  1  0.94062653  0.43610938  0.68934391  1
  Zn  Zn145  1  0.93925402  0.94116680  0.18703269  1
  Zn  Zn146  1  0.93500431  0.93741723  0.69337291  1
  Zn  Zn147  1  0.06486110  0.06272182  0.31266204  1
  Zn  Zn148  1  0.05743110  0.05916088  0.81117634  1
  Zn  Zn149  1  0.06553739  0.55861049  0.30968468  1
  Zn  Zn150  1  0.06344969  0.56142765  0.81334973  1
  Zn  Zn151  1  0.55994042  0.06079509  0.30736271  1
  Zn  Zn152  1  0.55425801  0.06061453  0.81106772  1
  Zn  Zn153  1  0.56641597  0.56289312  0.24090609  1
  Zn  Zn154  1  0.57046560  0.57520787  0.92478221  1
  Zn  Zn155  1  0.43747073  0.18813487  0.43632620  1
  Zn  Zn156  1  0.43496489  0.19518418  0.93310855  1
  Zn  Zn157  1  0.43943724  0.68966622  0.43205787  1
  Zn  Zn158  1  0.42631067  0.70902274  0.94297757  1
  Zn  Zn159  1  0.93821065  0.18783000  0.43652555  1
  Zn  Zn160  1  0.93337503  0.18732563  0.93883462  1
  Zn  Zn161  1  0.93652743  0.68781969  0.44054994  1
  Zn  Zn162  1  0.93515211  0.68788066  0.94216018  1
  Zn  Zn163  1  0.06021413  0.30754006  0.06258240  1
  Zn  Zn164  1  0.06026211  0.31236119  0.56301716  1
  Zn  Zn165  1  0.06273977  0.81199978  0.06328814  1
  Zn  Zn166  1  0.06314804  0.81070401  0.56154882  1
  Zn  Zn167  1  0.56237028  0.31468714  0.05919633  1
  Zn  Zn168  1  0.56013590  0.31101644  0.56116516  1
  Zn  Zn169  1  0.56809384  0.80405874  0.06923833  1
  Zn  Zn170  1  0.56069657  0.81392894  0.56568090  1
  O  O171  1  0.11778285  0.11248948  0.11068198  1
  O  O172  1  0.12160333  0.11959117  0.62039413  1
  O  O173  1  0.11462796  0.61399873  0.12974763  1
  O  O174  1  0.12261959  0.61951964  0.62122994  1
  O  O175  1  0.61412819  0.10824768  0.12693361  1
  O  O176  1  0.61702353  0.12184186  0.61923603  1
  O  O177  1  0.61970606  0.61491167  0.14753665  1
  O  O178  1  0.61093947  0.61130957  0.63467424  1
  O  O179  1  0.38135407  0.37942697  0.38035821  1
  O  O180  1  0.38299836  0.38264568  0.87524473  1
  O  O181  1  0.38244853  0.88483454  0.37922056  1
  O  O182  1  0.36722356  0.88916984  0.86722619  1
  O  O183  1  0.88113129  0.38352205  0.38154958  1
  O  O184  1  0.88503112  0.38222421  0.88332635  1
  O  O185  1  0.88144795  0.88049976  0.38057202  1
  O  O186  1  0.87734183  0.88264979  0.87415030  1
  O  O187  1  0.25756491  0.01124482  0.36736031  1
  O  O188  1  0.26595769  0.00871644  0.87333713  1
  O  O189  1  0.25837397  0.50531575  0.37043615  1
  O  O190  1  0.25665947  0.50803555  0.87063758  1
  O  O191  1  0.75224731  0.00167185  0.36820615  1
  O  O192  1  0.75413847  -0.00279564  0.86309113  1
  O  O193  1  0.75950656  0.50567113  0.37499124  1
  O  O194  1  0.76392005  0.48996663  0.86274119  1
  O  O195  1  0.24265570  0.50555834  0.13341019  1
  O  O196  1  0.24328953  0.49396191  0.62752331  1
  O  O197  1  0.23937703  1.01941451  0.14471855  1
  O  O198  1  0.24532077  0.98849216  0.62244953  1
  O  O199  1  0.75079438  0.50051459  0.13946981  1
  O  O200  1  0.74457084  0.49069575  0.62587379  1
  O  O201  1  0.74262072  0.99497290  0.12960980  1
  O  O202  1  0.74071576  0.99473404  0.63131385  1
  O  O203  1  0.00404754  0.37330942  0.26149603  1
  O  O204  1  0.00891807  0.37306118  0.75868303  1
  O  O205  1  0.00677376  0.87740575  0.26025204  1
  O  O206  1  0.00369190  0.86337573  0.75562115  1
  O  O207  1  0.50742911  0.36373835  0.25410588  1
  O  O208  1  0.50944414  0.37468674  0.75685034  1
  O  O209  1  0.50335616  0.88361176  0.26346780  1
  O  O210  1  0.49421627  0.86491131  0.73761235  1
  O  O211  1  0.49215639  0.12873258  0.23985675  1
  O  O212  1  0.49093483  0.12935731  0.73741161  1
  O  O213  1  0.49401464  0.64093903  0.27680318  1
  O  O214  1  0.48236961  0.63553550  0.73263705  1
  O  O215  1  1.00105776  0.12004538  0.23619027  1
  O  O216  1  0.99128662  0.12636331  0.74201842  1
  O  O217  1  0.99913095  0.62587896  0.24336701  1
  O  O218  1  0.99986981  0.63665668  0.74533445  1
  O  O219  1  0.36801682  0.26261705  0.00106384  1
  O  O220  1  0.38179172  0.25755370  0.51234317  1
  O  O221  1  0.34750349  0.75884448  0.00005395  1
  O  O222  1  0.37251859  0.75897774  0.50474691  1
  O  O223  1  0.86318769  0.25777165  -0.00083486  1
  O  O224  1  0.86856620  0.25467611  0.50587038  1
  O  O225  1  0.86902968  0.74873630  0.01745228  1
  O  O226  1  0.87064299  0.75608049  0.51118941  1
  O  O227  1  0.12159964  0.23624597  0.50029127  1
  O  O228  1  0.13155200  0.23987759  0.99872932  1
  O  O229  1  0.12861084  0.73829935  0.49890590  1
  O  O230  1  0.12506399  0.75552795  0.98602611  1
  O  O231  1  0.62889853  0.23965480  0.49479566  1
  O  O232  1  0.63752195  0.25639277  0.98924970  1
  O  O233  1  0.63786024  0.75428788  0.50057772  1
  O  O234  1  0.64740152  0.75089663  1.00344019  1
  O  O235  1  0.50956379  0.23968983  0.13367046  1
  O  O236  1  0.49328519  0.24362058  0.62840709  1
  O  O237  1  0.50637918  0.74224046  0.14106220  1
  O  O238  1  0.48585996  0.74389800  0.62093683  1
  O  O239  1  1.00034489  0.23284967  0.12626461  1
  O  O240  1  0.99104835  0.24315232  0.62713769  1
  O  O241  1  0.99577417  0.74205787  0.12666395  1
  O  O242  1  0.99338002  0.74729586  0.63159968  1
  O  O243  1  0.00143087  0.26073138  0.37498899  1
  O  O244  1  -0.00387192  0.26255047  0.87439894  1
  O  O245  1  0.00024957  0.76317826  0.37680874  1
  O  O246  1  0.00376932  0.75259127  0.86751839  1
  O  O247  1  0.50588064  0.25022799  0.36270853  1
  O  O248  1  0.51157049  0.26238489  0.87386003  1
  O  O249  1  0.50128392  0.76837181  0.37410184  1
  O  O250  1  0.49469203  0.75860905  0.85689971  1
  O  O251  1  0.24178457  0.12047744  0.49164816  1
  O  O252  1  0.23456224  0.12754516  0.99525461  1
  O  O253  1  0.24187593  0.62528665  0.48943768  1
  O  O254  1  0.24526846  0.61616564  0.98906993  1
  O  O255  1  0.74235766  0.12954813  0.49422652  1
  O  O256  1  0.75294440  0.13785171  0.99524638  1
  O  O257  1  0.75681670  0.63561103  0.49349470  1
  O  O258  1  0.75232108  0.62820439  1.01203954  1
  O  O259  1  0.26214472  0.36475694  -0.00278910  1
  O  O260  1  0.25756754  0.38200540  0.51237480  1
  O  O261  1  0.22429190  0.93348483  0.02748974  1
  O  O262  1  0.25897928  0.87477221  0.50510761  1
  O  O263  1  0.76612596  0.36762835  -0.00345849  1
  O  O264  1  0.75531269  0.36874373  0.50298005  1
  O  O265  1  0.75727211  0.87297592  0.01678117  1
  O  O266  1  0.75690628  0.87030545  0.50947299  1
  O  O267  1  0.13388386  0.49289870  0.24124460  1
  O  O268  1  0.12528455  0.49188464  0.73849279  1
  O  O269  1  0.13285836  0.99046762  0.25286355  1
  O  O270  1  0.11819009  0.98526311  0.74311668  1
  O  O271  1  0.64079080  0.48185054  0.26827841  1
  O  O272  1  0.63582553  0.48592751  0.74201320  1
  O  O273  1  0.63586898  1.00171156  0.24223488  1
  O  O274  1  0.63120524  1.00828920  0.74075844  1
  O  O275  1  0.36869461  0.00694171  0.25880599  1
  O  O276  1  0.38373037  0.01003789  0.76280177  1
  O  O277  1  0.36895128  0.49408232  0.26306825  1
  O  O278  1  0.37559392  0.50863159  0.76164964  1
  O  O279  1  0.86388956  0.00157619  0.25654673  1
  O  O280  1  0.86500398  0.00790342  0.75543708  1
  O  O281  1  0.86807274  0.49598696  0.25992231  1
  O  O282  1  0.87058644  0.49801632  0.75753787  1
  O  O283  1  0.11547207  0.37402333  0.37995559  1
  O  O284  1  0.11879533  0.38175544  0.86430623  1
  O  O285  1  0.11734434  0.87571425  0.37155663  1
  O  O286  1  0.11663605  0.86987774  0.86554243  1
  O  O287  1  0.61829792  0.36229753  0.37173971  1
  O  O288  1  0.61892987  0.36865228  0.86624427  1
  O  O289  1  0.60989698  0.87992013  0.38489137  1
  O  O290  1  0.66563259  0.85158329  0.86347905  1
  O  O291  1  0.38077133  0.11229192  0.13207733  1
  O  O292  1  0.38030517  0.13065497  0.62631072  1
  O  O293  1  0.38507525  0.63151580  0.12568980  1
  O  O294  1  0.37479834  0.63277043  0.62644091  1
  O  O295  1  0.88995078  0.12091259  0.12199909  1
  O  O296  1  0.87830493  0.12868260  0.63292554  1
  O  O297  1  0.88901771  0.63048914  0.13125375  1
  O  O298  1  0.88243890  0.63391152  0.62698142  1
  O  O299  1  0.24738056  0.23983373  0.10567702  1
  O  O300  1  0.25959728  0.26024541  0.62380174  1
  O  O301  1  0.25157395  0.76416994  0.13711045  1
  O  O302  1  0.25914002  0.75952716  0.62131141  1
  O  O303  1  0.75087380  0.24356977  0.10992036  1
  O  O304  1  0.75394685  0.25451597  0.61890812  1
  O  O305  1  0.75829492  0.75473136  0.12498388  1
  O  O306  1  0.75842736  0.75966695  0.61894305  1
  O  O307  1  0.25360917  0.23947253  0.37504066  1
  O  O308  1  0.25618129  0.24356745  0.89044589  1
  O  O309  1  0.24945448  0.74095189  0.37274843  1
  O  O310  1  0.23755570  0.73913244  0.86634464  1
  O  O311  1  0.74480313  0.24276320  0.37967240  1
  O  O312  1  0.73714741  0.25479035  0.88258050  1
  O  O313  1  0.75140594  0.74264774  0.38508046  1
  O  O314  1  0.77599727  0.73299826  0.89864141  1
  O  O315  1  0.01014133  0.13329296  0.00631257  1
  O  O316  1  0.00615749  0.11871709  0.50557754  1
  O  O317  1  -0.00430407  0.61186229  0.00881363  1
  O  O318  1  0.00923401  0.62402956  0.50730738  1
  O  O319  1  0.49440736  0.12908278  0.00887417  1
  O  O320  1  0.50703928  0.13056013  0.51101405  1
  O  O321  1  0.50261798  0.64079543  -0.01237779  1
  O  O322  1  0.49369348  0.61725370  0.50973625  1
  O  O323  1  0.49439480  0.38092858  0.49329346  1
  O  O324  1  0.48420648  0.36878397  0.99381161  1
  O  O325  1  0.48743284  0.87547354  0.49525260  1
  O  O326  1  0.50661999  0.87635541  0.99626817  1
  O  O327  1  0.99152695  0.37659068  0.49399927  1
  O  O328  1  0.99351557  0.37931261  0.99294125  1
  O  O329  1  0.99647586  0.88088555  0.49459670  1
  O  O330  1  0.99572652  0.86843193  0.98426314  1
  O  O331  1  0.49225964  0.49374848  0.38187680  1
  O  O332  1  0.49097869  0.48874580  0.87459451  1
  O  O333  1  0.49218436  0.99367746  0.37416657  1
  O  O334  1  0.49475913  0.99699748  0.88581080  1
  O  O335  1  0.99375316  0.49112519  0.37749073  1
  O  O336  1  0.99767073  0.49107602  0.88174274  1
  O  O337  1  0.99528968  0.99160579  0.38062602  1
  O  O338  1  0.98570816  0.98656340  0.86382649  1
  O  O339  1  0.01003058  0.00948178  0.12154387  1
  O  O340  1  0.00439944  0.00425630  0.62133388  1
  O  O341  1  0.00610353  0.50550941  0.11805039  1
  O  O342  1  0.00888689  0.50576642  0.62434480  1
  O  O343  1  0.50369017  0.00183201  0.10948365  1
  O  O344  1  0.50913715  0.00963279  0.62647337  1
  O  O345  1  0.51581300  0.50889817  0.14674198  1
  O  O346  1  0.50117280  0.50587133  0.61679240  1
  O  O347  1  0.24861400  0.38746504  0.25523465  1
  O  O348  1  0.24436662  0.37706649  0.74000330  1
  O  O349  1  0.24031565  0.88872831  0.25974946  1
  O  O350  1  0.23882196  0.86935390  0.73838631  1
  O  O351  1  0.74305747  0.38055525  0.25624199  1
  O  O352  1  0.74600969  0.37957887  0.74233209  1
  O  O353  1  0.75419760  0.88237326  0.23890913  1
  O  O354  1  0.75836270  0.88702506  0.73377342  1
  O  O355  1  0.25778478  0.12283407  0.25867203  1
  O  O356  1  0.26419200  0.12874779  0.74701018  1
  O  O357  1  0.24082684  0.61216423  0.26271604  1
  O  O358  1  0.26306735  0.62438665  0.74936167  1
  O  O359  1  0.75045847  0.11572007  0.25688922  1
  O  O360  1  0.75870309  0.11548672  0.74347723  1
  O  O361  1  0.75646393  0.61507761  0.26326064  1
  O  O362  1  0.75350733  0.60483820  0.73784797  1
  O  O363  1  0.37107719  0.11974251  0.36938485  1
  O  O364  1  0.37935995  0.12079264  0.86440524  1
  O  O365  1  0.36471006  0.61463461  0.38376887  1
  O  O366  1  0.36634068  0.61957173  0.86849417  1
  O  O367  1  0.86859803  0.11555564  0.37642064  1
  O  O368  1  0.88075696  0.11822645  0.86254977  1
  O  O369  1  0.87511658  0.61139565  0.37754496  1
  O  O370  1  0.88594517  0.60759518  0.87393104  1
  O  O371  1  0.11806562  0.38784857  0.12367190  1
  O  O372  1  0.13156285  0.38215494  0.62684753  1
  O  O373  1  0.11330602  0.88849034  0.13366476  1
  O  O374  1  0.13183252  0.87799052  0.62854617  1
  O  O375  1  0.62484021  0.37686597  0.13531146  1
  O  O376  1  0.62793618  0.37844642  0.63047430  1
  O  O377  1  0.63297684  0.88646587  0.12355142  1
  O  O378  1  0.63252192  0.88802386  0.61696222  1
  O  O379  1  0.12363658  0.24960682  0.25457118  1
  O  O380  1  0.12308450  0.26367346  0.74227401  1
  O  O381  1  0.12145330  0.76512828  0.25245528  1
  O  O382  1  0.11566117  0.75993930  0.75132428  1
  O  O383  1  0.62137882  0.25330568  0.25324814  1
  O  O384  1  0.62739024  0.26056873  0.75880588  1
  O  O385  1  0.61020150  0.75370531  0.26023051  1
  O  O386  1  0.60030555  0.75347395  0.72978298  1
  O  O387  1  0.38581141  0.23904935  0.24985966  1
  O  O388  1  0.37729176  0.24534167  0.73800720  1
  O  O389  1  0.39887743  0.76237870  0.25176747  1
  O  O390  1  0.37898389  0.74579095  0.73923586  1
  O  O391  1  0.88047764  0.24323348  0.24585929  1
  O  O392  1  0.87341074  0.24230036  0.74640050  1
  O  O393  1  0.87819882  0.74819259  0.24170723  1
  O  O394  1  0.88047977  0.75056618  0.73892859  1
  O  O395  1  0.38433397  0.49247448  0.49313308  1
  O  O396  1  0.36661674  0.48625516  0.98989133  1
  O  O397  1  0.37060968  0.99484009  0.48602753  1
  O  O398  1  0.38908151  0.99998632  0.98451382  1
  O  O399  1  0.87620214  0.49228567  0.49501314  1
  O  O400  1  0.88277366  0.48881701  0.99515823  1
  O  O401  1  0.87911078  0.99469724  0.49497925  1
  O  O402  1  0.86970309  1.00113821  0.98460201  1
  O  O403  1  0.11088929  0.01703635  -0.00683678  1
  O  O404  1  0.11961772  0.00851088  0.50704933  1
  O  O405  1  0.11579175  0.49441624  0.00479712  1
  O  O406  1  0.12499926  0.51019087  0.51109392  1
  O  O407  1  0.61045353  -0.00364564  0.00257998  1
  O  O408  1  0.63030202  0.01458502  0.51040842  1
  O  O409  1  0.61899300  0.49352461  -0.01253010  1
  O  O410  1  0.61112258  0.49313128  0.50342195  1
  O  O411  1  0.37624010  0.37773850  0.11416339  1
  O  O412  1  0.36958200  0.36979362  0.62236629  1
  O  O413  1  0.37679110  0.86732166  0.11716749  1
  O  O414  1  0.36797399  0.87215119  0.61656570  1
  O  O415  1  0.88441424  0.37175138  0.10957338  1
  O  O416  1  0.87104301  0.36954594  0.61969012  1
  O  O417  1  0.87255595  0.86720907  0.12555193  1
  O  O418  1  0.87014745  0.86999832  0.62043351  1
  O  O419  1  0.13486087  0.12481147  0.38409839  1
  O  O420  1  0.12125652  0.12470566  0.88156614  1
  O  O421  1  0.13061340  0.62437945  0.38331921  1
  O  O422  1  0.13397954  0.63412540  0.86715813  1
  O  O423  1  0.62698661  0.12743819  0.38165808  1
  O  O424  1  0.61775707  0.14312401  0.86617970  1
  O  O425  1  0.63916118  0.62569429  0.37708101  1
  O  O426  1  0.62651656  0.64285834  0.85545783  1
