# generated using pymatgen
data_V85Zn86O256
_symmetry_space_group_name_H-M   'P 1'
_cell_length_a   16.93582632
_cell_length_b   16.93296687
_cell_length_c   16.92978169
_cell_angle_alpha   89.98703787
_cell_angle_beta   90.07320857
_cell_angle_gamma   89.98457645
_symmetry_Int_Tables_number   1
_chemical_formula_structural   V85Zn86O256
_chemical_formula_sum   'V85 Zn86 O256'
_cell_volume   4855.01332528
_cell_formula_units_Z   1
loop_
 _symmetry_equiv_pos_site_id
 _symmetry_equiv_pos_as_xyz
  1  'x, y, z'
loop_
 _atom_site_type_symbol
 _atom_site_label
 _atom_site_symmetry_multiplicity
 _atom_site_fract_x
 _atom_site_fract_y
 _atom_site_fract_z
 _atom_site_occupancy
  V  V0  1  0.49602041  0.87112231  0.86678997  1
  V  V1  1  0.37426752  0.37454971  0.00394751  1
  V  V2  1  0.87893889  0.12296168  0.25006437  1
  V  V3  1  0.37373735  0.26284288  0.62455311  1
  V  V4  1  0.69526718  0.55570707  0.30525318  1
  V  V5  1  0.36982892  0.75208777  0.12499578  1
  V  V6  1  -0.00509775  0.73607186  0.74216169  1
  V  V7  1  0.50056279  0.13064495  0.12727404  1
  V  V8  1  0.30653658  0.56890113  0.42421678  1
  V  V9  1  -0.00369726  0.24669546  0.75070291  1
  V  V10  1  0.87151936  0.24621357  0.62755378  1
  V  V11  1  0.12841588  0.49304274  0.62404069  1
  V  V12  1  0.24893797  0.12190913  0.87425328  1
  V  V13  1  0.87916806  0.87149682  0.50215535  1
  V  V14  1  0.50276705  0.12475945  0.62664724  1
  V  V15  1  0.87606974  0.73404467  0.62613650  1
  V  V16  1  0.75083694  0.10998580  0.87531654  1
  V  V17  1  0.75140312  -0.00175591  0.25198314  1
  V  V18  1  0.50127875  0.25015254  0.75119077  1
  V  V19  1  0.87036587  0.24604589  0.11958867  1
  V  V20  1  0.87409242  0.62008883  0.24956986  1
  V  V21  1  0.62904857  0.88425852  0.75037419  1
  V  V22  1  0.62051181  0.74833071  0.86541800  1
  V  V23  1  0.12365183  0.74835886  0.86850341  1
  V  V24  1  0.62274998  -0.00348076  0.12580353  1
  V  V25  1  0.49427394  0.39443377  0.36727852  1
  V  V26  1  0.86641916  0.37136804  -0.00232671  1
  V  V27  1  0.12502366  0.38167352  0.24187658  1
  V  V28  1  0.12573700  0.24910925  0.87753154  1
  V  V29  1  0.00336860  0.75207040  0.25132066  1
  V  V30  1  0.24921035  0.75517438  0.50355792  1
  V  V31  1  -0.00282869  0.50156743  0.50886623  1
  V  V32  1  0.37666308  0.12295187  0.25162967  1
  V  V33  1  0.11831424  0.62745825  0.50502380  1
  V  V34  1  0.00428005  0.61930489  0.12647079  1
  V  V35  1  0.13067963  0.74301323  0.37373038  1
  V  V36  1  0.75122101  0.87361674  0.12417256  1
  V  V37  1  -0.00039864  0.37462380  0.87586560  1
  V  V38  1  0.24728306  0.75390473  -0.00070174  1
  V  V39  1  0.37193335  0.87585962  0.00230129  1
  V  V40  1  0.24614564  0.89375980  0.62750126  1
  V  V41  1  0.63508496  0.25121472  0.87917087  1
  V  V42  1  0.87443693  0.37238526  0.50307415  1
  V  V43  1  0.87192951  0.50348169  0.37367311  1
  V  V44  1  0.00094095  0.50020513  0.00074809  1
  V  V45  1  0.36985259  -0.00022647  0.87285107  1
  V  V46  1  0.87003722  0.10910650  0.75499912  1
  V  V47  1  0.87618887  0.50365929  0.86808269  1
  V  V48  1  0.37446167  0.25226906  0.13192806  1
  V  V49  1  0.38391792  0.63076844  0.75223910  1
  V  V50  1  0.50514480  0.75039684  0.25449260  1
  V  V51  1  0.25225116  0.25806986  0.50269370  1
  V  V52  1  -0.00593439  0.87388795  0.87073226  1
  V  V53  1  0.73748741  0.74156370  0.48666233  1
  V  V54  1  0.63234682  0.49527596  0.12581278  1
  V  V55  1  0.12716224  0.61853493  0.00151149  1
  V  V56  1  0.87447723  0.87575515  -0.00292822  1
  V  V57  1  0.12734470  0.24892660  0.37446192  1
  V  V58  1  0.37229580  0.12216985  0.74881073  1
  V  V59  1  0.74802471  0.50000281  0.74650422  1
  V  V60  1  0.24560121  0.50745118  0.23829164  1
  V  V61  1  0.13281767  0.37123913  0.74424281  1
  V  V62  1  0.00570851  0.12306853  0.12617201  1
  V  V63  1  0.37261234  0.62158115  0.24862236  1
  V  V64  1  0.87995326  -0.00166460  0.38169298  1
  V  V65  1  0.75138939  0.12871988  0.37860429  1
  V  V66  1  0.75392303  0.62708525  0.86949625  1
  V  V67  1  0.63119491  0.12984104  0.00285584  1
  V  V68  1  -0.00033177  0.37479941  0.37298732  1
  V  V69  1  0.00823377  0.87586286  0.37611666  1
  V  V70  1  0.60817672  0.25197112  0.36474622  1
  V  V71  1  0.61824166  0.50466142  0.61361880  1
  V  V72  1  0.49709600  0.00412306  0.49118938  1
  V  V73  1  0.25246407  0.12253941  0.37287938  1
  V  V74  1  0.74978027  0.37444777  0.13589582  1
  V  V75  1  0.25265344  -0.01412492  0.24865238  1
  V  V76  1  0.62520501  0.62597185  -0.00388809  1
  V  V77  1  0.50043173  0.62480655  0.12401726  1
  V  V78  1  0.12445133  0.88573153  0.74423780  1
  V  V79  1  0.75121688  0.87836883  0.62609473  1
  V  V80  1  0.50151400  0.37353755  0.87639949  1
  V  V81  1  0.50019253  0.49961224  0.00084429  1
  V  V82  1  0.38343325  0.75678058  0.62784398  1
  V  V83  1  -0.00005208  -0.00228623  -0.00384694  1
  V  V84  1  0.12854316  -0.01938510  0.12888132  1
  Zn  Zn85  1  0.24505659  0.37609938  0.12300755  1
  Zn  Zn86  1  0.00216597  0.25053187  0.24716812  1
  Zn  Zn87  1  0.74998942  0.75079945  -0.00341930  1
  Zn  Zn88  1  0.49815426  0.00019066  0.00001761  1
  Zn  Zn89  1  0.63159191  0.86602742  0.25961764  1
  Zn  Zn90  1  0.25049144  0.62297925  0.86867563  1
  Zn  Zn91  1  0.74714893  0.24801665  0.50085855  1
  Zn  Zn92  1  0.25016508  0.24854361  0.00242819  1
  Zn  Zn93  1  0.37369717  0.49996775  0.87230445  1
  Zn  Zn94  1  0.63136992  0.00529892  0.62755422  1
  Zn  Zn95  1  0.37255306  0.88567034  0.49331214  1
  Zn  Zn96  1  0.87493525  0.74729390  0.12382548  1
  Zn  Zn97  1  0.12755274  0.12180441  0.00148696  1
  Zn  Zn98  1  0.00469319  0.10637829  0.62007481  1
  Zn  Zn99  1  0.12423959  0.10818334  0.51151782  1
  Zn  Zn100  1  0.50006175  0.88027429  0.37317555  1
  Zn  Zn101  1  0.62724692  0.12742427  0.50182899  1
  Zn  Zn102  1  0.74668790  0.37522263  0.62448862  1
  Zn  Zn103  1  0.50649422  0.63290102  0.61717171  1
  Zn  Zn104  1  0.37927078  0.38717419  0.49485941  1
  Zn  Zn105  1  0.25331776  0.49814079  0.74939937  1
  Zn  Zn106  1  0.62363290  0.37470245  0.74333689  1
  Zn  Zn107  1  0.18937156  0.18854653  0.18948122  1
  Zn  Zn108  1  0.19022685  0.18479811  0.68676451  1
  Zn  Zn109  1  0.18744867  0.69022179  0.18573415  1
  Zn  Zn110  1  0.18886170  0.68788212  0.68533729  1
  Zn  Zn111  1  0.69178868  0.18773226  0.18976922  1
  Zn  Zn112  1  0.68892772  0.18806910  0.69255784  1
  Zn  Zn113  1  0.68669950  0.68864904  0.18092095  1
  Zn  Zn114  1  0.69012672  0.68933144  0.68453846  1
  Zn  Zn115  1  0.31573591  0.31727067  0.31238603  1
  Zn  Zn116  1  0.31350853  0.30962590  0.81513210  1
  Zn  Zn117  1  0.31940229  0.81206534  0.31813617  1
  Zn  Zn118  1  0.30823726  0.81183176  0.80853865  1
  Zn  Zn119  1  0.81625263  0.30975232  0.31052700  1
  Zn  Zn120  1  0.81028548  0.31269262  0.81189911  1
  Zn  Zn121  1  0.81601345  0.81011375  0.31260328  1
  Zn  Zn122  1  0.81174101  0.81171339  0.80837939  1
  Zn  Zn123  1  0.18386271  0.43189715  0.43788950  1
  Zn  Zn124  1  0.19079440  0.43781933  0.93358148  1
  Zn  Zn125  1  0.19335715  0.93263221  0.42859777  1
  Zn  Zn126  1  0.18492938  0.93592873  0.93516707  1
  Zn  Zn127  1  0.68337873  0.42318969  0.43734228  1
  Zn  Zn128  1  0.68893458  0.43814666  0.93881362  1
  Zn  Zn129  1  0.68381592  0.93631488  0.44126421  1
  Zn  Zn130  1  0.68294524  0.93629198  0.93996435  1
  Zn  Zn131  1  0.30991357  0.06164922  0.06347627  1
  Zn  Zn132  1  0.31349748  0.07182141  0.55916155  1
  Zn  Zn133  1  0.31115280  0.56280945  0.06064110  1
  Zn  Zn134  1  0.30886781  0.56679082  0.58751805  1
  Zn  Zn135  1  0.81305520  0.05916116  0.05955740  1
  Zn  Zn136  1  0.81750342  0.06012660  0.56365998  1
  Zn  Zn137  1  0.81330575  0.56154815  0.05860804  1
  Zn  Zn138  1  0.80371497  0.56297890  0.55746099  1
  Zn  Zn139  1  0.44192203  0.43925706  0.19411961  1
  Zn  Zn140  1  0.44096896  0.44129004  0.68912425  1
  Zn  Zn141  1  0.43611011  0.93741908  0.18610157  1
  Zn  Zn142  1  0.43653326  0.94033366  0.68592961  1
  Zn  Zn143  1  0.93590849  0.43794170  0.18618023  1
  Zn  Zn144  1  0.93940863  0.43502221  0.68875238  1
  Zn  Zn145  1  0.93837310  0.93552152  0.18871322  1
  Zn  Zn146  1  0.93202148  0.92923581  0.69156344  1
  Zn  Zn147  1  0.06852722  0.05827928  0.31523346  1
  Zn  Zn148  1  0.05874380  0.06318822  0.81108169  1
  Zn  Zn149  1  0.06298853  0.56224977  0.31650797  1
  Zn  Zn150  1  0.06439421  0.56070756  0.81086789  1
  Zn  Zn151  1  0.56669885  0.06459247  0.31138665  1
  Zn  Zn152  1  0.55949841  0.06162989  0.81566378  1
  Zn  Zn153  1  0.56085325  0.56686925  0.44212427  1
  Zn  Zn154  1  0.56195497  0.56028878  0.80721879  1
  Zn  Zn155  1  0.43496655  0.18629330  0.43955525  1
  Zn  Zn156  1  0.44049285  0.18820773  0.94188610  1
  Zn  Zn157  1  0.43941709  0.70189562  0.44186281  1
  Zn  Zn158  1  0.43821572  0.68916873  0.93566545  1
  Zn  Zn159  1  0.93995998  0.18584784  0.43903576  1
  Zn  Zn160  1  0.93551402  0.18353922  0.93723889  1
  Zn  Zn161  1  0.93596415  0.68774755  0.44024702  1
  Zn  Zn162  1  0.93725143  0.68875357  0.93652843  1
  Zn  Zn163  1  0.05783534  0.31053485  0.06118247  1
  Zn  Zn164  1  0.05846173  0.29460331  0.56134989  1
  Zn  Zn165  1  0.05933758  0.80584633  0.06099654  1
  Zn  Zn166  1  0.06222564  0.94065114  0.55708101  1
  Zn  Zn167  1  0.56326863  0.31113463  0.06636039  1
  Zn  Zn168  1  0.56175636  0.31594571  0.55294892  1
  Zn  Zn169  1  0.55969617  0.81191705  0.05795056  1
  Zn  Zn170  1  0.56454187  0.81832826  0.55999980  1
  O  O171  1  0.11437993  0.12330084  0.12353606  1
  O  O172  1  0.11820595  0.13199858  0.62505199  1
  O  O173  1  0.11638818  0.63033881  0.11357614  1
  O  O174  1  0.13018510  0.61415556  0.61187703  1
  O  O175  1  0.62089120  0.12168837  0.12081394  1
  O  O176  1  0.61735437  0.12645217  0.62761433  1
  O  O177  1  0.62282679  0.61664779  0.11525005  1
  O  O178  1  0.62526181  0.60981755  0.63156021  1
  O  O179  1  0.38665124  0.37908113  0.37495667  1
  O  O180  1  0.38611313  0.37200058  0.88398191  1
  O  O181  1  0.38639450  0.87401009  0.38052659  1
  O  O182  1  0.37718948  0.88010871  0.87779868  1
  O  O183  1  0.88149408  0.38244272  0.37876970  1
  O  O184  1  0.87923301  0.37952399  0.88102537  1
  O  O185  1  0.88292055  0.87989874  0.38071639  1
  O  O186  1  0.88584983  0.87005515  0.87980246  1
  O  O187  1  0.24628915  0.00747160  0.35619880  1
  O  O188  1  0.26041707  0.00521467  0.87781987  1
  O  O189  1  0.24717888  0.50659394  0.36887480  1
  O  O190  1  0.25506933  0.50439725  0.86909713  1
  O  O191  1  0.75870157  0.00925257  0.37187161  1
  O  O192  1  0.74451038  0.01053954  0.87820030  1
  O  O193  1  0.75392100  0.49346062  0.36939457  1
  O  O194  1  0.75619617  0.50598466  0.86900698  1
  O  O195  1  0.24875856  0.49741232  0.13413941  1
  O  O196  1  0.23389281  0.49251627  0.62815738  1
  O  O197  1  0.23562657  1.00182627  0.13140622  1
  O  O198  1  0.25465835  0.99205860  0.62225992  1
  O  O199  1  0.74151426  0.49081358  0.11623792  1
  O  O200  1  0.74349277  0.49866194  0.63221665  1
  O  O201  1  0.74482762  0.98987917  0.12800716  1
  O  O202  1  0.75126005  0.98414529  0.61969253  1
  O  O203  1  0.00533471  0.37686282  0.25701582  1
  O  O204  1  0.00562108  0.36579167  0.75876374  1
  O  O205  1  -0.00713940  0.85888185  0.25730392  1
  O  O206  1  0.00473694  0.86388662  0.75728070  1
  O  O207  1  0.49717596  0.37291740  0.26603475  1
  O  O208  1  0.50102136  0.36939730  0.76110279  1
  O  O209  1  0.49800076  0.85852229  0.24108481  1
  O  O210  1  0.50461872  0.88000586  0.76140030  1
  O  O211  1  0.48519877  0.11520281  0.24216803  1
  O  O212  1  0.49287171  0.13145308  0.74753284  1
  O  O213  1  0.48812828  0.63893543  0.23830591  1
  O  O214  1  0.48771576  0.62493258  0.74524187  1
  O  O215  1  0.99725236  0.12286010  0.24144460  1
  O  O216  1  0.98552312  0.13152127  0.75424648  1
  O  O217  1  0.99459657  0.62835194  0.24388618  1
  O  O218  1  1.00227562  0.63702426  0.75288397  1
  O  O219  1  0.37622730  0.25736700  0.01169777  1
  O  O220  1  0.36809717  0.24781110  0.51023376  1
  O  O221  1  0.36647359  0.75496442  0.00326783  1
  O  O222  1  0.36473474  0.75763614  0.51042654  1
  O  O223  1  0.88206310  0.25847936  0.00727105  1
  O  O224  1  0.87436256  0.25643697  0.51091812  1
  O  O225  1  0.87414621  0.76212503  0.00176955  1
  O  O226  1  0.87036528  0.75468935  0.50901363  1
  O  O227  1  0.13488665  0.26043147  0.48362380  1
  O  O228  1  0.12297206  0.24754380  0.98784436  1
  O  O229  1  0.13426389  0.73798864  0.49452568  1
  O  O230  1  0.12992767  0.74307459  0.99161455  1
  O  O231  1  0.62926277  0.24655318  0.48483606  1
  O  O232  1  0.62078115  0.24002984  0.99343096  1
  O  O233  1  0.63862288  0.75613851  0.50188285  1
  O  O234  1  0.62683831  0.74499320  0.98696601  1
  O  O235  1  0.49460694  0.23730943  0.12482076  1
  O  O236  1  0.49502281  0.24220161  0.62952047  1
  O  O237  1  0.48727305  0.74438100  0.12336849  1
  O  O238  1  0.48646686  0.75908082  0.62295904  1
  O  O239  1  0.99103338  0.23910379  0.12507227  1
  O  O240  1  0.98673088  0.25360356  0.64160086  1
  O  O241  1  0.99816278  0.73864830  0.13329623  1
  O  O242  1  0.98073349  0.74944063  0.63134063  1
  O  O243  1  0.00569210  0.26190014  0.37157179  1
  O  O244  1  0.00507739  0.25142163  0.86785012  1
  O  O245  1  0.00540793  0.75365427  0.36920741  1
  O  O246  1  0.00503751  0.75542095  0.86781193  1
  O  O247  1  0.50819859  0.23918177  0.36876820  1
  O  O248  1  0.50793558  0.25571556  0.87260252  1
  O  O249  1  0.49962953  0.74928853  0.35606697  1
  O  O250  1  0.50780956  0.75916411  0.87635806  1
  O  O251  1  0.24667990  0.13529357  0.48858919  1
  O  O252  1  0.24840965  0.12624059  0.98815832  1
  O  O253  1  0.24877771  0.62735458  0.49368349  1
  O  O254  1  0.24253729  0.63454433  0.99728433  1
  O  O255  1  0.75199162  0.12578632  0.49245773  1
  O  O256  1  0.73957046  0.12146427  0.99477348  1
  O  O257  1  0.75043440  0.64145439  0.49703886  1
  O  O258  1  0.74362862  0.62511189  0.98701782  1
  O  O259  1  0.26292116  0.37425143  0.00119947  1
  O  O260  1  0.25857401  0.36260625  0.49147045  1
  O  O261  1  0.25594481  0.86228269  -0.00744712  1
  O  O262  1  0.25087962  0.87104434  0.51162207  1
  O  O263  1  0.76325775  0.37707466  0.00503583  1
  O  O264  1  0.76452587  0.37046293  0.49962860  1
  O  O265  1  0.75798036  0.87585235  0.00487707  1
  O  O266  1  0.76095738  0.86878836  0.50500253  1
  O  O267  1  0.13240383  0.49441877  0.25429719  1
  O  O268  1  0.12146395  0.48885286  0.74113612  1
  O  O269  1  0.13602848  0.99965296  0.23656303  1
  O  O270  1  0.12165440  0.98430459  0.75897691  1
  O  O271  1  0.63677763  0.50488222  0.23834694  1
  O  O272  1  0.63312441  0.49536272  0.74241957  1
  O  O273  1  0.63286036  1.00314471  0.23647291  1
  O  O274  1  0.62195588  0.98851160  0.75136211  1
  O  O275  1  0.35946694  0.00772161  0.23636938  1
  O  O276  1  0.37744253  0.01405027  0.75730417  1
  O  O277  1  0.36653521  0.51504853  0.24441290  1
  O  O278  1  0.37435579  0.51351466  0.74788624  1
  O  O279  1  0.87040722  0.00279521  0.25795543  1
  O  O280  1  0.87550700  0.01088472  0.75479040  1
  O  O281  1  0.87912761  0.51082390  0.25680142  1
  O  O282  1  0.86972157  0.49478132  0.76151090  1
  O  O283  1  0.11666019  0.37114695  0.36473700  1
  O  O284  1  0.11866615  0.36663459  0.87059020  1
  O  O285  1  0.11395937  0.85912574  0.37774617  1
  O  O286  1  0.11656414  0.86364917  0.86967556  1
  O  O287  1  0.61176158  0.36027225  0.37474626  1
  O  O288  1  0.61585638  0.36727055  0.88053974  1
  O  O289  1  0.61361061  0.89019054  0.36768522  1
  O  O290  1  0.61694423  0.86928875  0.87042436  1
  O  O291  1  0.38167864  0.13142151  0.12755908  1
  O  O292  1  0.38052657  0.13423297  0.63502884  1
  O  O293  1  0.37804560  0.63232698  0.12903467  1
  O  O294  1  0.38004092  0.63805009  0.63567894  1
  O  O295  1  0.88394021  0.12791101  0.12591985  1
  O  O296  1  0.87515024  0.13020553  0.63886784  1
  O  O297  1  0.88057153  0.62504296  0.13148888  1
  O  O298  1  0.86924108  0.63513854  0.62205156  1
  O  O299  1  0.25818820  0.25353426  0.12128920  1
  O  O300  1  0.26111580  0.24788104  0.61544505  1
  O  O301  1  0.26111311  0.74810516  0.11578067  1
  O  O302  1  0.25512830  0.75436298  0.61414331  1
  O  O303  1  0.76314145  0.25385984  0.12536684  1
  O  O304  1  0.76090833  0.25275978  0.62721555  1
  O  O305  1  0.75137743  0.76217447  0.12032178  1
  O  O306  1  0.75933582  0.75778826  0.61955907  1
  O  O307  1  0.24438009  0.24455964  0.37701657  1
  O  O308  1  0.24156313  0.24288477  0.87925234  1
  O  O309  1  0.24175511  0.75665294  0.38833485  1
  O  O310  1  0.23968341  0.74748075  0.87980966  1
  O  O311  1  0.75632209  0.23650591  0.37506479  1
  O  O312  1  0.73765944  0.24345116  0.87234982  1
  O  O313  1  0.75215860  0.75558104  0.38745600  1
  O  O314  1  0.74407597  0.74178912  0.87447526  1
  O  O315  1  0.00079699  0.11292187  0.00628329  1
  O  O316  1  0.01325894  0.14810732  0.51105177  1
  O  O317  1  0.00649769  0.62213850  0.00661496  1
  O  O318  1  0.00679575  0.61378048  0.49676933  1
  O  O319  1  0.51060462  0.12156903  0.00852691  1
  O  O320  1  0.50095791  0.12060869  0.51067528  1
  O  O321  1  0.50470302  0.61954207  0.00361417  1
  O  O322  1  0.49839020  0.63193733  0.50365073  1
  O  O323  1  0.49386393  0.36994261  0.47905931  1
  O  O324  1  0.49150895  0.37753468  0.99667437  1
  O  O325  1  0.49821319  0.89543593  0.50550490  1
  O  O326  1  0.48983633  0.87672538  0.98715323  1
  O  O327  1  0.99020593  0.37751920  0.49368037  1
  O  O328  1  0.99217372  0.38143650  0.99511471  1
  O  O329  1  0.98682145  0.87077447  0.48927015  1
  O  O330  1  0.99468558  0.87725523  0.99294532  1
  O  O331  1  0.50668655  0.49341276  0.36994255  1
  O  O332  1  0.49961081  0.48958576  0.88082727  1
  O  O333  1  0.49887981  1.01307009  0.38958969  1
  O  O334  1  0.48570824  0.99470994  0.87858964  1
  O  O335  1  0.99335295  0.49007769  0.38459093  1
  O  O336  1  0.99282649  0.49615918  0.87867437  1
  O  O337  1  0.99182448  0.98679971  0.36252594  1
  O  O338  1  1.00704858  0.98948931  0.88798215  1
  O  O339  1  0.01103580  0.00233258  0.12054293  1
  O  O340  1  -0.00616435  -0.00641464  0.62692903  1
  O  O341  1  -0.00441814  0.51161588  0.11802171  1
  O  O342  1  0.00599440  0.49478216  0.61408401  1
  O  O343  1  0.50737288  0.00894306  0.12330377  1
  O  O344  1  0.50117950  0.01565879  0.62528626  1
  O  O345  1  0.51057120  0.50453979  0.12160986  1
  O  O346  1  0.51574851  0.50118483  0.62516122  1
  O  O347  1  0.24176620  0.38647770  0.24932174  1
  O  O348  1  0.23598764  0.37211546  0.75542646  1
  O  O349  1  0.25560886  0.88716347  0.25090095  1
  O  O350  1  0.23957964  0.87093515  0.73565984  1
  O  O351  1  0.75907822  0.37470364  0.23540534  1
  O  O352  1  0.74717602  0.38780477  0.75072964  1
  O  O353  1  0.75131584  0.87871058  0.24101206  1
  O  O354  1  0.74126851  0.87224512  0.74130197  1
  O  O355  1  0.25870049  0.11837502  0.25313486  1
  O  O356  1  0.25964775  0.13254041  0.76470640  1
  O  O357  1  0.25666117  0.61980118  0.24667240  1
  O  O358  1  0.26245835  0.62294663  0.74718250  1
  O  O359  1  0.76003388  0.11708594  0.25572444  1
  O  O360  1  0.76241230  0.12624879  0.75879042  1
  O  O361  1  0.75581659  0.62338944  0.24915881  1
  O  O362  1  0.74627344  0.61448906  0.76139919  1
  O  O363  1  0.36211433  0.13041684  0.36540210  1
  O  O364  1  0.37041879  0.11941763  0.87197294  1
  O  O365  1  0.37007140  0.62925048  0.36897827  1
  O  O366  1  0.37535773  0.62638841  0.86302106  1
  O  O367  1  0.87390191  0.11703163  0.37157963  1
  O  O368  1  0.86521089  0.12785429  0.86517588  1
  O  O369  1  0.88029572  0.61054492  0.36915407  1
  O  O370  1  0.86625203  0.61588057  0.88052433  1
  O  O371  1  0.12214190  0.36871080  0.13788300  1
  O  O372  1  0.11461818  0.37737517  0.63407762  1
  O  O373  1  0.12084553  0.88232099  0.12414034  1
  O  O374  1  0.13778190  0.87799123  0.62987288  1
  O  O375  1  0.63579229  0.38257570  0.11894385  1
  O  O376  1  0.62707334  0.38583872  0.62274106  1
  O  O377  1  0.63159215  0.88197567  0.12349738  1
  O  O378  1  0.63283406  0.87667961  0.63515358  1
  O  O379  1  0.12441833  0.25874415  0.25960347  1
  O  O380  1  0.11711516  0.25360518  0.76047299  1
  O  O381  1  0.11590822  0.74119141  0.26003401  1
  O  O382  1  0.11741779  0.75459289  0.75357742  1
  O  O383  1  0.63204805  0.24532064  0.26703290  1
  O  O384  1  0.61875279  0.25360992  0.76042779  1
  O  O385  1  0.60860364  0.74945941  0.23853845  1
  O  O386  1  0.62890638  0.75908628  0.76040861  1
  O  O387  1  0.36844002  0.24060362  0.23818502  1
  O  O388  1  0.38057391  0.24368731  0.74482176  1
  O  O389  1  0.37671704  0.74257006  0.24046550  1
  O  O390  1  0.37146817  0.74075311  0.74352827  1
  O  O391  1  0.88071637  0.24080884  0.24010905  1
  O  O392  1  0.88022916  0.24571391  0.74683295  1
  O  O393  1  0.88286230  0.73539738  0.25035919  1
  O  O394  1  0.87964874  0.75058103  0.73682345  1
  O  O395  1  0.35647422  0.51103930  0.49216816  1
  O  O396  1  0.38210468  0.49198898  0.99994852  1
  O  O397  1  0.39158510  1.00500142  0.50839435  1
  O  O398  1  0.37315777  0.99091249  0.99422730  1
  O  O399  1  0.87893428  0.49388494  0.49494252  1
  O  O400  1  0.88037952  0.49241201  0.98858417  1
  O  O401  1  0.87427460  0.99147105  0.48746961  1
  O  O402  1  0.88655832  0.98632975  1.00550319  1
  O  O403  1  0.11964051  -0.00175924  0.01199138  1
  O  O404  1  0.12103994  -0.00177212  0.48146585  1
  O  O405  1  0.12000364  0.51196889  -0.00749086  1
  O  O406  1  0.11686498  0.50189286  0.50468369  1
  O  O407  1  0.62300681  0.00685272  0.01202767  1
  O  O408  1  0.61243877  0.00752402  0.50747887  1
  O  O409  1  0.61938174  0.50455847  0.00611082  1
  O  O410  1  0.63315641  0.49986489  0.50955581  1
  O  O411  1  0.37716885  0.36836467  0.12057938  1
  O  O412  1  0.38325390  0.36592057  0.62128375  1
  O  O413  1  0.37860476  0.86815285  0.10954072  1
  O  O414  1  0.36136152  0.87189862  0.62892703  1
  O  O415  1  0.87172163  0.36685850  0.11730078  1
  O  O416  1  0.87381105  0.36751093  0.61826204  1
  O  O417  1  0.86809506  0.87275021  0.11774040  1
  O  O418  1  0.86811259  0.86562635  0.61720805  1
  O  O419  1  0.13644665  0.13545014  0.36860163  1
  O  O420  1  0.13182525  0.13035318  0.87501510  1
  O  O421  1  0.12083764  0.63421125  0.38671784  1
  O  O422  1  0.12376423  0.63520303  0.88071507  1
  O  O423  1  0.63608359  0.13236206  0.37563591  1
  O  O424  1  0.62990745  0.12999429  0.88279394  1
  O  O425  1  0.63545672  0.60993783  0.36136159  1
  O  O426  1  0.62921300  0.63095042  0.87549492  1
