# generated using pymatgen
data_V85Zn86O256
_symmetry_space_group_name_H-M   'P 1'
_cell_length_a   16.92685199
_cell_length_b   16.93593482
_cell_length_c   16.93370487
_cell_angle_alpha   89.97325813
_cell_angle_beta   90.05713929
_cell_angle_gamma   90.04393783
_symmetry_Int_Tables_number   1
_chemical_formula_structural   V85Zn86O256
_chemical_formula_sum   'V85 Zn86 O256'
_cell_volume   4854.41572495
_cell_formula_units_Z   1
loop_
 _symmetry_equiv_pos_site_id
 _symmetry_equiv_pos_as_xyz
  1  'x, y, z'
loop_
 _atom_site_type_symbol
 _atom_site_label
 _atom_site_symmetry_multiplicity
 _atom_site_fract_x
 _atom_site_fract_y
 _atom_site_fract_z
 _atom_site_occupancy
  V  V0  1  0.12650658  0.74550524  0.37811609  1
  V  V1  1  0.87832878  0.74831391  0.62675397  1
  V  V2  1  0.75429105  0.61580904  0.37732798  1
  V  V3  1  0.62799076  0.12741335  0.00168369  1
  V  V4  1  0.25626794  0.88229039  0.12713828  1
  V  V5  1  0.23780737  0.37454379  0.62627542  1
  V  V6  1  0.61390064  0.24801300  0.37458316  1
  V  V7  1  0.49860474  0.36505580  0.87103156  1
  V  V8  1  0.88388004  0.87895136  0.00023735  1
  V  V9  1  0.37012994  0.36747058  0.50242995  1
  V  V10  1  0.49939967  0.37537160  0.37506045  1
  V  V11  1  0.37586414  -0.00216122  0.87867218  1
  V  V12  1  0.25081810  0.24508034  0.00737012  1
  V  V13  1  -0.00304693  0.49714603  -0.00207184  1
  V  V14  1  0.75156566  0.49994992  0.75306347  1
  V  V15  1  0.63152334  0.37450326  0.24648141  1
  V  V16  1  0.50220503  0.49761520  0.51126570  1
  V  V17  1  0.37632780  0.62182777  0.24928841  1
  V  V18  1  -0.00438695  0.37996884  0.37212782  1
  V  V19  1  0.62646276  0.74714706  0.37631360  1
  V  V20  1  0.74686122  0.12593504  0.37648659  1
  V  V21  1  0.37898724  0.13236271  0.75332415  1
  V  V22  1  0.74162447  0.62439800  0.87673821  1
  V  V23  1  0.60905132  0.87099468  0.75765509  1
  V  V24  1  0.87617229  0.00183052  0.37975432  1
  V  V25  1  0.24897698  0.62215582  0.87436560  1
  V  V26  1  0.37737481  0.36919003  0.01153447  1
  V  V27  1  0.74437543  0.74935450  -0.00432055  1
  V  V28  1  0.00107228  0.87529523  0.37648862  1
  V  V29  1  0.25423280  0.75490908  0.00212977  1
  V  V30  1  0.12343757  0.75699879  0.87685013  1
  V  V31  1  0.00142388  0.74827868  0.25136848  1
  V  V32  1  0.85468507  0.25678377  0.12267180  1
  V  V33  1  0.62561409  0.87576950  0.25164166  1
  V  V34  1  0.63460550  0.49711368  0.12218170  1
  V  V35  1  0.00082924  0.37636004  0.87093884  1
  V  V36  1  0.86069906  0.37703072  -0.00192861  1
  V  V37  1  0.62293687  0.00039459  0.62541749  1
  V  V38  1  0.75256632  -0.00366240  0.75065930  1
  V  V39  1  0.87587104  0.25068688  0.62139564  1
  V  V40  1  0.12800492  0.24431247  0.38262817  1
  V  V41  1  0.49932922  0.13115097  0.62944704  1
  V  V42  1  0.01933655  0.50556758  0.50125940  1
  V  V43  1  0.12745659  0.88238739  0.73426320  1
  V  V44  1  0.50018631  -0.00340349  -0.00109866  1
  V  V45  1  0.88508184  0.00441706  0.87973105  1
  V  V46  1  0.00100948  0.25038785  0.24305801  1
  V  V47  1  0.87660300  0.61660930  0.25438819  1
  V  V48  1  0.24884107  0.62100833  0.38310530  1
  V  V49  1  0.12703853  0.62026547  0.00512475  1
  V  V50  1  0.36959192  -0.01088589  0.35976995  1
  V  V51  1  0.75177250  0.75148171  0.50131615  1
  V  V52  1  0.25521586  0.75117560  0.50487929  1
  V  V53  1  0.62163386  0.37387811  0.74432583  1
  V  V54  1  0.37484207  0.87647780  0.51777151  1
  V  V55  1  0.50801559  0.62120734  0.12338564  1
  V  V56  1  0.22659340  0.49163041  0.74917366  1
  V  V57  1  0.37547387  0.49845094  0.37680478  1
  V  V58  1  0.62547139  0.62081800  0.51015638  1
  V  V59  1  0.37544808  0.25393242  0.63246290  1
  V  V60  1  0.62856212  0.24996480  0.87377127  1
  V  V61  1  0.24672516  0.12482839  0.87595182  1
  V  V62  1  0.37365255  0.49364490  0.86814404  1
  V  V63  1  0.87924969  0.12734021  0.74514656  1
  V  V64  1  0.87404540  0.39078996  0.49706957  1
  V  V65  1  0.12973129  0.88404649  0.25106823  1
  V  V66  1  0.75262848  0.87549380  0.12449542  1
  V  V67  1  0.74933721  -0.00087627  0.25213401  1
  V  V68  1  0.74946596  0.25180362  0.49841144  1
  V  V69  1  0.24320745  0.50073761  0.24381544  1
  V  V70  1  0.75340826  0.13087535  0.87728890  1
  V  V71  1  0.24746389  0.00433154  0.73087766  1
  V  V72  1  0.74741092  0.38291685  0.62409716  1
  V  V73  1  0.87689824  0.62408479  0.75650513  1
  V  V74  1  0.50545299  0.49791780  -0.00186657  1
  V  V75  1  0.23963973  0.37535573  0.12398919  1
  V  V76  1  0.00442163  0.61845223  0.12639539  1
  V  V77  1  0.50282586  0.74676149  0.24921043  1
  V  V78  1  0.11646949  0.00194687  0.11719437  1
  V  V79  1  0.49227804  0.63672298  0.62977275  1
  V  V80  1  0.87583926  0.74857080  0.12416738  1
  V  V81  1  0.02099303  0.62342445  0.62712113  1
  V  V82  1  0.01838482  0.00705225  0.50497160  1
  V  V83  1  0.36985486  0.13253421  0.24938293  1
  V  V84  1  0.37769972  0.75166428  0.12078350  1
  Zn  Zn85  1  0.49763313  -0.00128638  0.49687455  1
  Zn  Zn86  1  0.00611715  0.88339244  0.87659443  1
  Zn  Zn87  1  0.74985815  0.87315536  0.62744393  1
  Zn  Zn88  1  0.12560472  0.25515968  0.87286591  1
  Zn  Zn89  1  0.44605074  0.83463069  -0.07334820  1
  Zn  Zn90  1  0.75538565  0.49525098  0.24941171  1
  Zn  Zn91  1  0.38183390  0.63433011  0.75199140  1
  Zn  Zn92  1  -0.00928558  0.12421263  0.11930955  1
  Zn  Zn93  1  0.00644638  0.25946027  0.74441240  1
  Zn  Zn94  1  0.50005050  0.87200395  0.37961915  1
  Zn  Zn95  1  0.49088664  0.13032655  0.12161170  1
  Zn  Zn96  1  0.12218520  0.37701008  0.24746369  1
  Zn  Zn97  1  0.87303767  0.12789264  0.24788220  1
  Zn  Zn98  1  0.62517161  0.00304953  0.12468483  1
  Zn  Zn99  1  0.87854914  0.87559284  0.50342538  1
  Zn  Zn100  1  0.61028066  0.74811036  0.87426556  1
  Zn  Zn101  1  0.61689054  0.12452433  0.49984930  1
  Zn  Zn102  1  0.00456886  0.75224502  0.74968791  1
  Zn  Zn103  1  0.01806392  0.12855098  0.61975686  1
  Zn  Zn104  1  0.11470550  0.12335453  -0.00474386  1
  Zn  Zn105  1  0.24048396  0.11271894  0.37383170  1
  Zn  Zn106  1  0.49577250  0.25343370  0.23297304  1
  Zn  Zn107  1  0.18903652  0.18789436  0.19158439  1
  Zn  Zn108  1  0.18583265  0.19788586  0.69417996  1
  Zn  Zn109  1  0.18841982  0.68939191  0.19037271  1
  Zn  Zn110  1  0.21405699  0.69982532  0.70360424  1
  Zn  Zn111  1  0.68354731  0.18734977  0.19104008  1
  Zn  Zn112  1  0.68933003  0.18952488  0.68905325  1
  Zn  Zn113  1  0.69047674  0.68550457  0.18702667  1
  Zn  Zn114  1  0.68540942  0.68910915  0.68890747  1
  Zn  Zn115  1  0.31006686  0.31150864  0.31177120  1
  Zn  Zn116  1  0.30847897  0.31126938  0.81402875  1
  Zn  Zn117  1  0.31230064  0.80759818  0.30985404  1
  Zn  Zn118  1  0.30673535  0.81675469  0.80689586  1
  Zn  Zn119  1  0.81327754  0.31178692  0.31289983  1
  Zn  Zn120  1  0.81761154  0.31429342  0.81311382  1
  Zn  Zn121  1  0.81494616  0.80901516  0.31513530  1
  Zn  Zn122  1  0.81487564  0.81309697  0.81455097  1
  Zn  Zn123  1  0.18818655  0.42892164  0.43420400  1
  Zn  Zn124  1  0.18564594  0.43693135  0.94192452  1
  Zn  Zn125  1  0.19401320  0.93238782  0.43740649  1
  Zn  Zn126  1  0.19283425  0.93847111  0.93854269  1
  Zn  Zn127  1  0.68445053  0.43764216  0.43713133  1
  Zn  Zn128  1  0.68581300  0.44144887  0.93143289  1
  Zn  Zn129  1  0.68583360  0.93699118  0.44029077  1
  Zn  Zn130  1  0.69165479  0.93997743  0.93563029  1
  Zn  Zn131  1  0.31167761  0.06096248  0.06459409  1
  Zn  Zn132  1  0.20345984  0.08536064  0.55529460  1
  Zn  Zn133  1  0.31707702  0.55956337  0.06106239  1
  Zn  Zn134  1  0.31032412  0.55604446  0.56656848  1
  Zn  Zn135  1  0.81248745  0.06499943  0.06217951  1
  Zn  Zn136  1  0.81135041  0.06305198  0.56127157  1
  Zn  Zn137  1  0.81507349  0.56427508  0.05916871  1
  Zn  Zn138  1  0.81444774  0.56596801  0.56931809  1
  Zn  Zn139  1  0.43970677  0.43672615  0.18906977  1
  Zn  Zn140  1  0.43796262  0.43917708  0.68787763  1
  Zn  Zn141  1  0.44247851  0.93966814  0.18250611  1
  Zn  Zn142  1  0.43575177  0.94592763  0.69112475  1
  Zn  Zn143  1  0.93674061  0.43582807  0.18132320  1
  Zn  Zn144  1  0.93744579  0.44408274  0.68350295  1
  Zn  Zn145  1  0.93815129  0.93756821  0.19193152  1
  Zn  Zn146  1  0.94185549  0.93661167  0.68682796  1
  Zn  Zn147  1  0.05852706  0.06539643  0.30776951  1
  Zn  Zn148  1  0.06504872  0.06788965  0.80527631  1
  Zn  Zn149  1  0.06397164  0.56018925  0.31667439  1
  Zn  Zn150  1  0.05961909  0.56346763  0.81812259  1
  Zn  Zn151  1  0.55219037  0.06279413  0.31184662  1
  Zn  Zn152  1  0.56182683  0.05995636  0.81379323  1
  Zn  Zn153  1  0.56577633  0.55957969  0.31505894  1
  Zn  Zn154  1  0.56453449  0.55780624  0.80810187  1
  Zn  Zn155  1  0.38301934  0.15086297  0.47281737  1
  Zn  Zn156  1  0.43818806  0.18699092  0.94210849  1
  Zn  Zn157  1  0.43721391  0.68850204  0.43989787  1
  Zn  Zn158  1  0.43739515  0.67320867  0.93739150  1
  Zn  Zn159  1  0.93911818  0.18975724  0.43523074  1
  Zn  Zn160  1  0.93777678  0.19333238  0.94268697  1
  Zn  Zn161  1  0.93972105  0.68250461  0.44052174  1
  Zn  Zn162  1  0.93669175  0.68915847  0.93725496  1
  Zn  Zn163  1  0.06220616  0.30974830  0.05745766  1
  Zn  Zn164  1  0.05882240  0.31301199  0.55895404  1
  Zn  Zn165  1  0.06504454  0.81046386  0.06492249  1
  Zn  Zn166  1  0.06323412  0.81043669  0.55906333  1
  Zn  Zn167  1  0.56887975  0.31022959  0.06083050  1
  Zn  Zn168  1  0.55996790  0.30874153  0.56238737  1
  Zn  Zn169  1  0.56793768  0.81254154  0.06579900  1
  Zn  Zn170  1  0.56297705  0.81389475  0.56627222  1
  O  O171  1  0.13021208  0.10638123  0.12938483  1
  O  O172  1  0.13056343  0.12858622  0.62589303  1
  O  O173  1  0.11632505  0.63228565  0.11829796  1
  O  O174  1  0.11746901  0.63532391  0.64079089  1
  O  O175  1  0.63294566  0.12493603  0.10937039  1
  O  O176  1  0.61836970  0.12109467  0.62589030  1
  O  O177  1  0.61398359  0.61774873  0.12986874  1
  O  O178  1  0.61778499  0.62721830  0.61487578  1
  O  O179  1  0.37848676  0.37764272  0.38372482  1
  O  O180  1  0.38252832  0.37642788  0.88153700  1
  O  O181  1  0.38090117  0.88058071  0.36345892  1
  O  O182  1  0.36407407  0.89066276  0.87286442  1
  O  O183  1  0.88581834  0.37110206  0.38340527  1
  O  O184  1  0.88193122  0.37248072  0.89127481  1
  O  O185  1  0.88325530  0.88177210  0.37674039  1
  O  O186  1  0.87862414  0.88565646  0.88267086  1
  O  O187  1  0.26478424  -0.00761014  0.36879542  1
  O  O188  1  0.25758320  0.01261673  0.87634390  1
  O  O189  1  0.25542876  0.50389171  0.36897750  1
  O  O190  1  0.25475203  0.49616730  0.86768501  1
  O  O191  1  0.75493511  0.00606051  0.37301919  1
  O  O192  1  0.76056980  0.00969790  0.86636238  1
  O  O193  1  0.74727813  0.51278549  0.37433119  1
  O  O194  1  0.75050386  0.51019466  0.86575980  1
  O  O195  1  0.25700637  0.49248931  0.13358165  1
  O  O196  1  0.25011610  0.49133280  0.64160207  1
  O  O197  1  0.24171868  0.98585997  0.12218126  1
  O  O198  1  0.25484871  1.00697655  0.63296600  1
  O  O199  1  0.73717688  0.51041074  0.12634869  1
  O  O200  1  0.75036991  0.48849136  0.62918564  1
  O  O201  1  0.75113804  0.99370497  0.13486790  1
  O  O202  1  0.73991567  1.00073410  0.63172440  1
  O  O203  1  -0.00098054  0.37371170  0.25678540  1
  O  O204  1  -0.01444289  0.38208863  0.76800480  1
  O  O205  1  0.00745730  0.86780422  0.25696399  1
  O  O206  1  0.01443450  0.87531620  0.75371603  1
  O  O207  1  0.50796502  0.37371556  0.25879795  1
  O  O208  1  0.51012849  0.38146789  0.75869907  1
  O  O209  1  0.51560818  0.86752403  0.24466700  1
  O  O210  1  0.51006421  0.88025546  0.75172494  1
  O  O211  1  0.48910152  0.12996271  0.24517060  1
  O  O212  1  0.49238983  0.11882508  0.74088996  1
  O  O213  1  0.49696018  0.62580322  0.24326653  1
  O  O214  1  0.50030663  0.61901906  0.73465355  1
  O  O215  1  0.99295742  0.13520107  0.24182177  1
  O  O216  1  0.98716165  0.12593257  0.74216801  1
  O  O217  1  0.99619848  0.62627743  0.24503363  1
  O  O218  1  0.99295107  0.62482272  0.74489516  1
  O  O219  1  0.36363418  0.25826112  -0.00483980  1
  O  O220  1  0.38169542  0.26321150  0.51261685  1
  O  O221  1  0.36772492  0.74887972  0.00336058  1
  O  O222  1  0.36823004  0.76339743  0.49290607  1
  O  O223  1  0.87239430  0.26370519  0.01338763  1
  O  O224  1  0.86945002  0.25943221  0.50415609  1
  O  O225  1  0.86767220  0.75771036  0.00463932  1
  O  O226  1  0.86876981  0.74879121  0.50738118  1
  O  O227  1  0.11055953  0.24787055  0.48089570  1
  O  O228  1  0.13864941  0.24859556  0.99501663  1
  O  O229  1  0.13296995  0.75815633  0.48291817  1
  O  O230  1  0.13179773  0.74091869  0.99750620  1
  O  O231  1  0.63135817  0.24792632  0.49201814  1
  O  O232  1  0.62670362  0.24291169  0.98354818  1
  O  O233  1  0.63300937  0.74313939  0.49751968  1
  O  O234  1  0.64042938  0.75543902  0.99692092  1
  O  O235  1  0.50074536  0.24481435  0.11891517  1
  O  O236  1  0.49009018  0.24470346  0.62801110  1
  O  O237  1  0.49939741  0.74006297  0.12733639  1
  O  O238  1  0.50028332  0.73518664  0.62295546  1
  O  O239  1  0.99569450  0.25561484  0.13533952  1
  O  O240  1  0.98660963  0.25002215  0.62296676  1
  O  O241  1  0.99605132  0.73969797  0.13063313  1
  O  O242  1  0.99488704  0.74131846  0.62428683  1
  O  O243  1  0.00159829  0.25746185  0.36190997  1
  O  O244  1  -0.00326120  0.26731944  0.87485051  1
  O  O245  1  0.00760551  0.75259377  0.37273110  1
  O  O246  1  0.01381673  0.75045371  0.87464120  1
  O  O247  1  0.51157487  0.25664906  0.37726156  1
  O  O248  1  0.50710425  0.26005314  0.87768916  1
  O  O249  1  0.50873624  0.74785832  0.36670074  1
  O  O250  1  0.49688077  0.74786805  0.88107649  1
  O  O251  1  0.27238607  0.12621203  0.48177154  1
  O  O252  1  0.24826633  0.13126338  0.99583579  1
  O  O253  1  0.25982800  0.62654706  0.48738052  1
  O  O254  1  0.24421685  0.62960531  0.99742632  1
  O  O255  1  0.74672691  0.13028298  0.48882086  1
  O  O256  1  0.74297526  0.11979324  0.98596056  1
  O  O257  1  0.74491412  0.63068569  0.49741601  1
  O  O258  1  0.75882275  0.63493038  0.98761381  1
  O  O259  1  0.25745887  0.36993333  0.00663508  1
  O  O260  1  0.26085072  0.38391263  0.51155259  1
  O  O261  1  0.24536760  0.86221528  0.01113140  1
  O  O262  1  0.26502522  0.86456745  0.49525185  1
  O  O263  1  0.76183761  0.38162874  -0.00567244  1
  O  O264  1  0.75501861  0.37331649  0.50495077  1
  O  O265  1  0.76028630  0.86962674  0.00402441  1
  O  O266  1  0.75153975  0.86167992  0.50254220  1
  O  O267  1  0.13913746  0.49785656  0.25403282  1
  O  O268  1  0.12840350  0.49100262  0.75630185  1
  O  O269  1  0.12104685  0.98809068  0.24393207  1
  O  O270  1  0.13190511  0.99105099  0.75065079  1
  O  O271  1  0.62638367  0.49249532  0.24153335  1
  O  O272  1  0.63823129  0.48554512  0.75285893  1
  O  O273  1  0.63078335  0.99140591  0.25155250  1
  O  O274  1  0.63313237  0.99288381  0.74598449  1
  O  O275  1  0.37995252  0.00341525  0.25635240  1
  O  O276  1  0.36615094  0.01132465  0.75757446  1
  O  O277  1  0.36837354  0.50331252  0.25665267  1
  O  O278  1  0.37430788  0.50028947  0.76293025  1
  O  O279  1  0.86926674  0.00068474  0.26319374  1
  O  O280  1  0.87043640  0.00710675  0.75303878  1
  O  O281  1  0.87444473  0.51243502  0.24377793  1
  O  O282  1  0.86157091  0.50994711  0.74232488  1
  O  O283  1  0.11007858  0.36782641  0.37307099  1
  O  O284  1  0.10467124  0.37791734  0.88520052  1
  O  O285  1  0.12163578  0.86983938  0.36640408  1
  O  O286  1  0.12405394  0.86973090  0.87668762  1
  O  O287  1  0.61929472  0.36871596  0.36949060  1
  O  O288  1  0.61914785  0.36779146  0.86865143  1
  O  O289  1  0.62543163  0.86607608  0.36851757  1
  O  O290  1  0.62952461  0.87663714  0.86031563  1
  O  O291  1  0.37084717  0.11747328  0.14492010  1
  O  O292  1  0.38206257  0.13741228  0.63802012  1
  O  O293  1  0.38696841  0.62825423  0.12869133  1
  O  O294  1  0.38979465  0.61887302  0.62427662  1
  O  O295  1  0.86942145  0.14238585  0.12612742  1
  O  O296  1  0.87110556  0.13504155  0.63007559  1
  O  O297  1  0.88321753  0.63091650  0.13150779  1
  O  O298  1  0.88061036  0.63518248  0.63499753  1
  O  O299  1  0.24806648  0.25945924  0.11855774  1
  O  O300  1  0.26671860  0.26218071  0.63444403  1
  O  O301  1  0.25591834  0.75437913  0.11867748  1
  O  O302  1  0.23894346  0.74222550  0.60129998  1
  O  O303  1  0.75649081  0.25517042  0.13009915  1
  O  O304  1  0.75822065  0.25980116  0.61975404  1
  O  O305  1  0.75654618  0.75383220  0.11763712  1
  O  O306  1  0.75811614  0.74849682  0.61749695  1
  O  O307  1  0.22878490  0.25960569  0.37332650  1
  O  O308  1  0.25103623  0.23853869  0.88306780  1
  O  O309  1  0.24489552  0.73916744  0.37755953  1
  O  O310  1  0.23872235  0.74614635  0.88798492  1
  O  O311  1  0.74231582  0.24294264  0.37857503  1
  O  O312  1  0.74562712  0.23889949  0.86755639  1
  O  O313  1  0.74706746  0.74037135  0.38421843  1
  O  O314  1  0.74951366  0.74377522  0.88128230  1
  O  O315  1  0.00252572  0.13137873  0.00745298  1
  O  O316  1  -0.00440983  0.10951529  0.49858147  1
  O  O317  1  0.00426651  0.61964429  0.00680304  1
  O  O318  1  0.00199016  0.61285225  0.50835016  1
  O  O319  1  0.51138913  0.11621928  -0.00275090  1
  O  O320  1  0.49096225  0.11979449  0.51778376  1
  O  O321  1  0.49641183  0.60644597  0.00946615  1
  O  O322  1  0.50648388  0.61901665  0.50763735  1
  O  O323  1  0.49604704  0.38198528  0.49509716  1
  O  O324  1  0.49403450  0.38044881  0.99241710  1
  O  O325  1  0.48808847  0.87149597  0.50047489  1
  O  O326  1  0.50523846  0.88972583  1.00697421  1
  O  O327  1  0.99293851  0.38813425  0.49564225  1
  O  O328  1  0.99192627  0.38246702  0.99606192  1
  O  O329  1  1.00156957  0.88807625  0.49322107  1
  O  O330  1  0.98741143  0.86900722  1.00046150  1
  O  O331  1  0.49430386  0.49508147  0.38351669  1
  O  O332  1  0.49549578  0.49158419  0.88102809  1
  O  O333  1  0.49045833  0.99163949  0.37707018  1
  O  O334  1  0.48911535  1.00201769  0.88253159  1
  O  O335  1  1.00177918  0.49498119  0.38906076  1
  O  O336  1  0.99722009  0.49416341  0.88928159  1
  O  O337  1  0.99391317  0.99791688  0.38299276  1
  O  O338  1  0.98784905  1.00461158  0.86982989  1
  O  O339  1  0.01284195  -0.00050556  0.12927681  1
  O  O340  1  -0.00340615  0.00147907  0.60618452  1
  O  O341  1  -0.00066582  0.51148026  0.11666319  1
  O  O342  1  0.00097773  0.50782270  0.61161210  1
  O  O343  1  0.50548876  0.00835260  0.11429338  1
  O  O344  1  0.51195071  0.00733959  0.62731058  1
  O  O345  1  0.50739142  0.50346162  0.11826132  1
  O  O346  1  0.50093267  0.50475528  0.61390437  1
  O  O347  1  0.25080012  0.38275010  0.24020401  1
  O  O348  1  0.25382514  0.38579046  0.74440155  1
  O  O349  1  0.23838958  0.86339905  0.23903901  1
  O  O350  1  0.23566341  0.89183936  0.75281228  1
  O  O351  1  0.73658636  0.37874205  0.25888546  1
  O  O352  1  0.74832763  0.38123567  0.74340422  1
  O  O353  1  0.74244003  0.87580263  0.24789958  1
  O  O354  1  0.75253724  0.88860456  0.74903166  1
  O  O355  1  0.26360491  0.13011079  0.25849578  1
  O  O356  1  0.25835357  0.12036847  0.75938988  1
  O  O357  1  0.25674547  0.61828904  0.25576573  1
  O  O358  1  0.24067367  0.59992780  0.76076132  1
  O  O359  1  0.74883856  0.11995058  0.26231350  1
  O  O360  1  0.75967909  0.11644252  0.75408880  1
  O  O361  1  0.75918439  0.62499415  0.25995441  1
  O  O362  1  0.75450183  0.61885656  0.75334431  1
  O  O363  1  0.37927091  0.10457194  0.36265305  1
  O  O364  1  0.37105119  0.11954257  0.87019742  1
  O  O365  1  0.36987715  0.61876692  0.36919416  1
  O  O366  1  0.36507534  0.60993314  0.87468625  1
  O  O367  1  0.86555108  0.11928120  0.37332125  1
  O  O368  1  0.87005255  0.12369844  0.86822076  1
  O  O369  1  0.86744778  0.63051003  0.36651019  1
  O  O370  1  0.86810091  0.63216233  0.86103937  1
  O  O371  1  0.13648283  0.37722109  0.12250801  1
  O  O372  1  0.13859952  0.36724696  0.61849612  1
  O  O373  1  0.12940818  0.88300298  0.13150096  1
  O  O374  1  0.12349441  0.87232135  0.63621221  1
  O  O375  1  0.62250213  0.38427291  0.13420193  1
  O  O376  1  0.63386183  0.36635928  0.63342858  1
  O  O377  1  0.63604904  0.87761222  0.13408095  1
  O  O378  1  0.62721150  0.88330938  0.63668375  1
  O  O379  1  0.11515291  0.25577098  0.25399599  1
  O  O380  1  0.11812878  0.25563741  0.75983298  1
  O  O381  1  0.11924704  0.75678587  0.25855008  1
  O  O382  1  0.13021828  0.76619010  0.76061748  1
  O  O383  1  0.62178263  0.25763979  0.25789709  1
  O  O384  1  0.63063949  0.26096163  0.76091129  1
  O  O385  1  0.62338372  0.75474874  0.25486246  1
  O  O386  1  0.62907916  0.76818196  0.75064742  1
  O  O387  1  0.37933755  0.23665895  0.26047611  1
  O  O388  1  0.37575226  0.24036163  0.75028990  1
  O  O389  1  0.38361394  0.74039289  0.24227402  1
  O  O390  1  0.32196803  0.72867310  0.74597033  1
  O  O391  1  0.87902964  0.25389876  0.23710406  1
  O  O392  1  0.87686554  0.24426958  0.73959891  1
  O  O393  1  0.88226995  0.74097529  0.24480711  1
  O  O394  1  0.87934196  0.74469903  0.74355640  1
  O  O395  1  0.38328125  0.49014273  0.49627690  1
  O  O396  1  0.38115322  0.48900124  0.98903557  1
  O  O397  1  0.37728851  0.97782592  0.48434026  1
  O  O398  1  0.38530905  1.00680389  0.99136799  1
  O  O399  1  0.87632364  0.49247424  0.50357428  1
  O  O400  1  0.88288479  0.48671169  1.00871574  1
  O  O401  1  0.87348019  0.99663174  0.48856868  1
  O  O402  1  0.86948475  0.99221072  0.99121770  1
  O  O403  1  0.12599005  -0.00160881  0.01454060  1
  O  O404  1  0.12130037  0.00215573  0.49596502  1
  O  O405  1  0.11820176  0.51402540  -0.00122778  1
  O  O406  1  0.11741675  0.49860917  0.49788752  1
  O  O407  1  0.62028417  0.00953806  -0.00351259  1
  O  O408  1  0.62105864  0.00201776  0.51044491  1
  O  O409  1  0.61573010  0.49220133  0.00733429  1
  O  O410  1  0.61530184  0.50956130  0.49469225  1
  O  O411  1  0.37028636  0.38006742  0.11387061  1
  O  O412  1  0.37203876  0.37175979  0.62090315  1
  O  O413  1  0.36666471  0.86656386  0.13244430  1
  O  O414  1  0.37629715  0.88108245  0.61659186  1
  O  O415  1  0.87296508  0.36604472  0.11503975  1
  O  O416  1  0.86821864  0.37053449  0.61692260  1
  O  O417  1  0.87172438  0.87054694  0.12070096  1
  O  O418  1  0.87531493  0.86147979  0.62465333  1
  O  O419  1  0.12438182  0.13859266  0.36605323  1
  O  O420  1  0.13499045  0.12469351  0.87676865  1
  O  O421  1  0.13624912  0.63335854  0.36936402  1
  O  O422  1  0.12940258  0.63271190  0.88416565  1
  O  O423  1  0.62812674  0.13164210  0.37645803  1
  O  O424  1  0.63271979  0.13132512  0.87696415  1
  O  O425  1  0.63274374  0.62996152  0.38454249  1
  O  O426  1  0.63721498  0.62838311  0.86694683  1
