# generated using pymatgen
data_V85Zn86O256
_symmetry_space_group_name_H-M   'P 1'
_cell_length_a   16.97961962
_cell_length_b   16.96333576
_cell_length_c   16.95780222
_cell_angle_alpha   89.95892167
_cell_angle_beta   89.97116518
_cell_angle_gamma   90.06868429
_symmetry_Int_Tables_number   1
_chemical_formula_structural   V85Zn86O256
_chemical_formula_sum   'V85 Zn86 O256'
_cell_volume   4884.36715430
_cell_formula_units_Z   1
loop_
 _symmetry_equiv_pos_site_id
 _symmetry_equiv_pos_as_xyz
  1  'x, y, z'
loop_
 _atom_site_type_symbol
 _atom_site_label
 _atom_site_symmetry_multiplicity
 _atom_site_fract_x
 _atom_site_fract_y
 _atom_site_fract_z
 _atom_site_occupancy
  V  V0  1  0.37205876  0.00250238  0.36996849  1
  V  V1  1  0.61727191  0.75620154  0.87787493  1
  V  V2  1  0.37032324  0.87562544  0.00458906  1
  V  V3  1  0.74932875  0.37287389  0.62079417  1
  V  V4  1  0.62564411  0.00291602  0.61947730  1
  V  V5  1  0.38099140  -0.00960313  0.87206303  1
  V  V6  1  -0.00267061  0.87532089  0.87769141  1
  V  V7  1  0.24684128  0.75305347  0.00556861  1
  V  V8  1  0.50156594  0.37635448  0.88195097  1
  V  V9  1  0.12260902  0.62159341  0.49542999  1
  V  V10  1  0.75051969  0.75254177  0.49614036  1
  V  V11  1  0.12064756  0.25172633  0.85975351  1
  V  V12  1  0.87534419  0.74719675  0.63204462  1
  V  V13  1  0.13054757  0.13690229  0.50303331  1
  V  V14  1  0.87479075  0.49682044  0.37678516  1
  V  V15  1  0.62524024  0.24998105  0.87784967  1
  V  V16  1  0.00053136  0.01028706  0.49620989  1
  V  V17  1  0.13845339  0.49685949  0.64361196  1
  V  V18  1  0.63553026  0.38146377  0.75754867  1
  V  V19  1  0.49940971  0.62209564  0.62638522  1
  V  V20  1  0.25209639  0.11917502  0.87578976  1
  V  V21  1  0.37335206  0.74782388  0.62338733  1
  V  V22  1  0.11666207  0.49148382  0.13154056  1
  V  V23  1  0.87829308  0.88080716  0.49515754  1
  V  V24  1  0.87429929  0.25020687  0.12816980  1
  V  V25  1  0.75289375  0.88013027  0.62758937  1
  V  V26  1  0.74902677  0.75347647  -0.00026242  1
  V  V27  1  0.00110884  0.75072459  0.25275419  1
  V  V28  1  0.49575477  0.12622014  0.12972712  1
  V  V29  1  0.61674777  0.87864389  0.75330819  1
  V  V30  1  -0.00526651  0.49899858  0.50751138  1
  V  V31  1  0.75239939  0.88155339  0.13190927  1
  V  V32  1  0.75137629  0.62729786  0.86348657  1
  V  V33  1  -0.00520840  0.49965351  -0.00430079  1
  V  V34  1  0.25057910  0.00392648  0.23942974  1
  V  V35  1  0.62350269  0.87338528  0.25024734  1
  V  V36  1  0.49567169  0.50443247  0.00182038  1
  V  V37  1  0.25141016  0.62024961  0.87555213  1
  V  V38  1  0.24858944  0.74165403  0.49140347  1
  V  V39  1  0.33761732  0.49251389  0.41308766  1
  V  V40  1  0.87337189  0.37513264  -0.00694642  1
  V  V41  1  0.00787918  0.12759979  0.13148529  1
  V  V42  1  0.13034559  0.88063328  0.23861855  1
  V  V43  1  0.25325704  0.51085707  0.24658365  1
  V  V44  1  0.62578521  0.50206784  0.63378613  1
  V  V45  1  0.62073149  0.37821574  0.25201604  1
  V  V46  1  0.49860264  0.75484894  0.75107970  1
  V  V47  1  0.62569874  0.62546873  0.00241181  1
  V  V48  1  0.87317431  0.88315293  -0.00168932  1
  V  V49  1  0.12706940  0.12075880  0.00237023  1
  V  V50  1  0.63040023  0.25200323  0.37319147  1
  V  V51  1  0.47058721  0.13491609  0.60288550  1
  V  V52  1  0.12213950  -0.00088909  0.62126973  1
  V  V53  1  0.87328145  0.11244885  0.24982239  1
  V  V54  1  0.37231365  0.74674335  0.12868875  1
  V  V55  1  0.75024599  0.50224289  0.24874511  1
  V  V56  1  0.73830927  0.01581658  0.76435886  1
  V  V57  1  0.12006392  0.86883588  0.74817268  1
  V  V58  1  0.50440142  -0.00642467  0.49267261  1
  V  V59  1  0.25419645  0.13331618  0.37613568  1
  V  V60  1  0.00202415  0.88260408  0.37273574  1
  V  V61  1  0.49360902  0.25363104  0.25583298  1
  V  V62  1  0.62723259  0.12470724  -0.00682356  1
  V  V63  1  0.62819604  0.00436008  0.13151806  1
  V  V64  1  0.24286738  0.37210762  0.13120324  1
  V  V65  1  0.49715753  0.26410977  0.71962786  1
  V  V66  1  0.75193568  0.24677724  -0.00947000  1
  V  V67  1  0.00216275  -0.00001454  0.01092576  1
  V  V68  1  0.87512084  0.75222203  0.12514047  1
  V  V69  1  0.86959096  0.50703560  0.85912210  1
  V  V70  1  0.90373338  0.02513459  0.84207295  1
  V  V71  1  0.36582685  0.14593403  0.73976791  1
  V  V72  1  0.25049624  0.25114541  -0.00580802  1
  V  V73  1  0.50709736  0.48536463  0.48864629  1
  V  V74  1  0.12430419  0.74849074  0.87557572  1
  V  V75  1  0.75526309  0.11357654  0.36806877  1
  V  V76  1  0.37262230  0.38118049  -0.00088167  1
  V  V77  1  0.37089453  0.87195423  0.49741440  1
  V  V78  1  0.25463942  -0.01357152  0.74947133  1
  V  V79  1  0.90197169  0.21389485  0.62681630  1
  V  V80  1  0.49931163  -0.00252741  -0.00157240  1
  V  V81  1  0.62394004  0.62713313  0.49902444  1
  V  V82  1  -0.00226774  0.62380868  0.12636991  1
  V  V83  1  0.37421843  0.62327137  0.75559167  1
  V  V84  1  0.37394453  0.24855531  0.12690663  1
  Zn  Zn85  1  0.49745271  0.74606394  0.25147546  1
  Zn  Zn86  1  0.75459613  0.24830382  0.49754801  1
  Zn  Zn87  1  0.87613087  0.36934163  0.50266127  1
  Zn  Zn88  1  0.87500748  0.62668233  0.25447627  1
  Zn  Zn89  1  0.37494187  0.62371320  0.26649601  1
  Zn  Zn90  1  0.12902241  0.25708177  0.36787953  1
  Zn  Zn91  1  0.12341691  0.62280969  -0.00108048  1
  Zn  Zn92  1  0.62598316  0.49974530  0.12479777  1
  Zn  Zn93  1  -0.00147255  0.62361475  0.63560003  1
  Zn  Zn94  1  0.00779321  0.26594350  0.25235311  1
  Zn  Zn95  1  0.49756884  0.62508965  0.12968814  1
  Zn  Zn96  1  -0.01327369  0.74782534  0.75710319  1
  Zn  Zn97  1  0.61848236  0.74886601  0.37341094  1
  Zn  Zn98  1  0.01295311  0.38125628  0.85828150  1
  Zn  Zn99  1  0.12643505  0.74825892  0.37239073  1
  Zn  Zn100  1  0.24450030  0.86710352  0.62058364  1
  Zn  Zn101  1  0.75147319  0.62677040  0.37435872  1
  Zn  Zn102  1  0.01940849  0.37826327  0.37348203  1
  Zn  Zn103  1  0.31863937  0.45863714  0.81859885  1
  Zn  Zn104  1  0.63105521  0.12565274  0.49403273  1
  Zn  Zn105  1  0.49604320  0.86925970  0.36934841  1
  Zn  Zn106  1  0.74908004  0.37536012  0.12460443  1
  Zn  Zn107  1  0.19021042  0.18629958  0.18885941  1
  Zn  Zn108  1  0.19123702  0.17700059  0.68710279  1
  Zn  Zn109  1  0.18183488  0.68809936  0.18397591  1
  Zn  Zn110  1  0.18772143  0.68170058  0.68510306  1
  Zn  Zn111  1  0.68844427  0.18986229  0.18671287  1
  Zn  Zn112  1  0.67534879  0.19432221  0.68440220  1
  Zn  Zn113  1  0.68858116  0.68914962  0.18718194  1
  Zn  Zn114  1  0.68626624  0.69367198  0.68510323  1
  Zn  Zn115  1  0.31320727  0.32315369  0.31398105  1
  Zn  Zn116  1  0.30283959  0.29525797  0.78341478  1
  Zn  Zn117  1  0.30929029  0.81405915  0.31190978  1
  Zn  Zn118  1  0.31364652  0.80879435  0.81877472  1
  Zn  Zn119  1  0.81454624  0.31490771  0.31088359  1
  Zn  Zn120  1  0.84759080  0.32681918  0.78528194  1
  Zn  Zn121  1  0.81545123  0.81703204  0.31243537  1
  Zn  Zn122  1  0.80627902  0.82397398  0.81416607  1
  Zn  Zn123  1  0.17499310  0.41232854  0.48613967  1
  Zn  Zn124  1  0.18059093  0.43538150  0.94218401  1
  Zn  Zn125  1  0.18670863  0.93737244  0.43213640  1
  Zn  Zn126  1  0.18743164  0.93550162  0.93987443  1
  Zn  Zn127  1  0.68679687  0.43853258  0.43582233  1
  Zn  Zn128  1  0.69254026  0.44118080  0.93958943  1
  Zn  Zn129  1  0.69181757  0.93508048  0.43217244  1
  Zn  Zn130  1  0.68244609  0.93679381  0.94054254  1
  Zn  Zn131  1  0.31494111  0.06427370  0.06290332  1
  Zn  Zn132  1  0.30558425  0.05588144  0.55896368  1
  Zn  Zn133  1  0.30803963  0.56377421  0.06299023  1
  Zn  Zn134  1  0.30832727  0.55590176  0.56944134  1
  Zn  Zn135  1  0.81380174  0.06533639  0.06090481  1
  Zn  Zn136  1  0.81036021  0.06167336  0.55691295  1
  Zn  Zn137  1  0.81093307  0.56464020  0.06129642  1
  Zn  Zn138  1  0.80788259  0.56179836  0.56569839  1
  Zn  Zn139  1  0.43715370  0.43644957  0.18457522  1
  Zn  Zn140  1  0.42669332  0.42618079  0.69074513  1
  Zn  Zn141  1  0.43614793  0.93502024  0.18545306  1
  Zn  Zn142  1  0.43816294  0.94292460  0.67702513  1
  Zn  Zn143  1  0.93318641  0.43401971  0.18937465  1
  Zn  Zn144  1  0.93922476  0.43925535  0.68847732  1
  Zn  Zn145  1  0.94083548  0.93897669  0.18802127  1
  Zn  Zn146  1  0.93677131  0.95570905  0.68769275  1
  Zn  Zn147  1  0.06917615  0.07076838  0.31324635  1
  Zn  Zn148  1  0.07247964  0.05806356  0.81375295  1
  Zn  Zn149  1  0.06178974  0.55654275  0.31470717  1
  Zn  Zn150  1  0.05866341  0.56703284  0.80896376  1
  Zn  Zn151  1  0.56299041  0.06479138  0.31103011  1
  Zn  Zn152  1  0.54986038  0.07224240  0.80371011  1
  Zn  Zn153  1  0.56386746  0.56784360  0.31147369  1
  Zn  Zn154  1  0.56024259  0.56431680  0.81653552  1
  Zn  Zn155  1  0.44160417  0.18218697  0.43465660  1
  Zn  Zn156  1  0.43535361  0.18806178  0.93176265  1
  Zn  Zn157  1  0.43508279  0.67666197  0.43266849  1
  Zn  Zn158  1  0.43599677  0.69007728  0.93994166  1
  Zn  Zn159  1  0.93725847  0.19429245  0.43547300  1
  Zn  Zn160  1  0.94168064  0.18831613  0.93814843  1
  Zn  Zn161  1  0.93824393  0.68724953  0.43909702  1
  Zn  Zn162  1  0.93404340  0.68740075  0.93896887  1
  Zn  Zn163  1  0.06014966  0.30954788  0.05431063  1
  Zn  Zn164  1  0.05870424  0.31710154  0.57261924  1
  Zn  Zn165  1  0.06293999  0.81156817  0.06372260  1
  Zn  Zn166  1  0.05926546  0.81174793  0.56019183  1
  Zn  Zn167  1  0.56344639  0.31299878  0.06620021  1
  Zn  Zn168  1  0.55943643  0.31218881  0.56427926  1
  Zn  Zn169  1  0.55804307  0.81478123  0.06656802  1
  Zn  Zn170  1  0.56183660  0.81285158  0.56336774  1
  O  O171  1  0.11694285  0.12849814  0.11498498  1
  O  O172  1  0.13364780  0.10990636  0.61773857  1
  O  O173  1  0.11025070  0.61756258  0.12059315  1
  O  O174  1  0.12043617  0.61253694  0.62113886  1
  O  O175  1  0.61889179  0.11987025  0.11679887  1
  O  O176  1  0.64631398  0.10367938  0.61286033  1
  O  O177  1  0.62332420  0.62926853  0.11109364  1
  O  O178  1  0.62174607  0.62091745  0.62129291  1
  O  O179  1  0.36949949  0.40620479  0.37310450  1
  O  O180  1  0.38523255  0.38056177  0.89182577  1
  O  O181  1  0.37343435  0.88257294  0.38383706  1
  O  O182  1  0.37575779  0.87926164  0.89038621  1
  O  O183  1  0.86942352  0.38942522  0.38176527  1
  O  O184  1  0.85828155  0.38877986  0.88784582  1
  O  O185  1  0.88645377  0.87351312  0.38329067  1
  O  O186  1  0.88378595  0.89012803  0.87702381  1
  O  O187  1  0.25732147  0.00663863  0.36816833  1
  O  O188  1  0.26107346  -0.00315246  0.87071585  1
  O  O189  1  0.24493761  0.50026447  0.34751857  1
  O  O190  1  0.24545205  0.51254419  0.88292295  1
  O  O191  1  0.74867129  0.01449493  0.37150024  1
  O  O192  1  0.73611373  0.00414046  0.86444630  1
  O  O193  1  0.75524902  0.50362672  0.36684120  1
  O  O194  1  0.75767478  0.51600873  0.88185381  1
  O  O195  1  0.23527153  0.49248767  0.12432635  1
  O  O196  1  0.23632527  0.51325370  0.64919807  1
  O  O197  1  0.25505109  1.00464407  0.14022177  1
  O  O198  1  0.23980213  0.98724512  0.63306284  1
  O  O199  1  0.74862232  0.49992021  0.13386759  1
  O  O200  1  0.73323426  0.49206993  0.62103482  1
  O  O201  1  0.73963829  0.99319000  0.11716994  1
  O  O202  1  0.74522689  0.98971156  0.62854212  1
  O  O203  1  -0.00047799  0.38097783  0.25827758  1
  O  O204  1  -0.04337879  0.36177610  0.76456796  1
  O  O205  1  0.00959751  0.87448031  0.25528051  1
  O  O206  1  0.00506760  0.87437194  0.76046944  1
  O  O207  1  0.50769223  0.36633599  0.24450817  1
  O  O208  1  0.51378015  0.37475630  0.76970623  1
  O  O209  1  0.50986390  0.87229131  0.24835169  1
  O  O210  1  0.51000033  0.87245466  0.73950656  1
  O  O211  1  0.50490607  0.13337985  0.23596022  1
  O  O212  1  0.48274235  0.13524498  0.72667143  1
  O  O213  1  0.49227160  0.62617898  0.24720642  1
  O  O214  1  0.49902212  0.63799130  0.74647360  1
  O  O215  1  0.99363501  0.12203971  0.23988377  1
  O  O216  1  0.97246779  0.05215028  0.76280901  1
  O  O217  1  0.99945088  0.62998973  0.24269014  1
  O  O218  1  0.99773147  0.63684984  0.74820224  1
  O  O219  1  0.36777018  0.25677309  0.00345047  1
  O  O220  1  0.41159277  0.19519171  0.54575060  1
  O  O221  1  0.36712247  0.75861096  0.00475836  1
  O  O222  1  0.36729901  0.75221561  0.50130358  1
  O  O223  1  0.87004987  0.25548056  0.00275805  1
  O  O224  1  0.87469027  0.24751909  0.52110275  1
  O  O225  1  0.87001671  0.76220655  0.00525124  1
  O  O226  1  0.86908404  0.76153727  0.50888053  1
  O  O227  1  0.12387380  0.23689239  0.51217046  1
  O  O228  1  0.13254248  0.23761663  0.99094151  1
  O  O229  1  0.13023621  0.73968494  0.50292109  1
  O  O230  1  0.13073759  0.74980835  0.99449248  1
  O  O231  1  0.62126394  0.24999610  0.47947094  1
  O  O232  1  0.63323703  0.24204700  1.00106489  1
  O  O233  1  0.63436723  0.74675574  0.50063862  1
  O  O234  1  0.62640111  0.74924600  0.99392039  1
  O  O235  1  0.49441466  0.24391656  0.13159725  1
  O  O236  1  0.55030976  0.21479610  0.62754949  1
  O  O237  1  0.48718528  0.74822888  0.12670552  1
  O  O238  1  0.49338988  0.74362695  0.62992546  1
  O  O239  1  0.99124176  0.24141278  0.12057681  1
  O  O240  1  0.99866728  0.24105390  0.63250129  1
  O  O241  1  0.99519705  0.74280914  0.13041382  1
  O  O242  1  0.98114402  0.75587006  0.62622099  1
  O  O243  1  0.00327591  0.25743177  0.37271058  1
  O  O244  1  0.01891679  0.24487723  0.87651754  1
  O  O245  1  0.00041700  0.75991552  0.36789287  1
  O  O246  1  0.00180529  0.76256811  0.87955589  1
  O  O247  1  0.50669655  0.24022065  0.36075299  1
  O  O248  1  0.51360753  0.26884243  0.90020286  1
  O  O249  1  0.49899828  0.75129210  0.37228817  1
  O  O250  1  0.51135909  0.74827610  0.87081024  1
  O  O251  1  0.24294505  0.12024897  0.49041937  1
  O  O252  1  0.24497730  0.12806916  0.99450581  1
  O  O253  1  0.23370711  0.63064946  0.50761544  1
  O  O254  1  0.24568720  0.63318002  0.99281442  1
  O  O255  1  0.75047065  0.12709918  0.48295752  1
  O  O256  1  0.73746936  0.13143595  1.00344470  1
  O  O257  1  0.73961061  0.63613071  0.50358995  1
  O  O258  1  0.74226030  0.63575759  0.99577984  1
  O  O259  1  0.25625216  0.37163100  0.00622512  1
  O  O260  1  0.27521175  0.46578790  0.49320517  1
  O  O261  1  0.25728702  0.86667308  -0.00161537  1
  O  O262  1  0.25613403  0.86683816  0.49898215  1
  O  O263  1  0.75523471  0.36635291  0.00505711  1
  O  O264  1  0.74914310  0.37360898  0.50918223  1
  O  O265  1  0.75324807  0.87335406  0.00877842  1
  O  O266  1  0.75820272  0.87220795  0.50558125  1
  O  O267  1  0.13111685  0.50545788  0.23509044  1
  O  O268  1  0.11072118  0.48828751  0.74018814  1
  O  O269  1  0.13718122  0.99053998  0.25431636  1
  O  O270  1  0.13357165  0.98492596  0.74437785  1
  O  O271  1  0.63141764  0.49473066  0.24848222  1
  O  O272  1  0.62049677  0.49377807  0.74637814  1
  O  O273  1  0.62002706  0.99485082  0.23618568  1
  O  O274  1  0.62358682  0.99769118  0.74241413  1
  O  O275  1  0.36110517  -0.01131148  0.25745217  1
  O  O276  1  0.36793204  -0.01982625  0.76063829  1
  O  O277  1  0.35675044  0.50522366  0.23010491  1
  O  O278  1  0.39836816  0.52311504  0.75607686  1
  O  O279  1  0.87413544  0.01298269  0.24316819  1
  O  O280  1  0.84291565  -0.01171755  0.75357923  1
  O  O281  1  0.86602616  0.50336779  0.25788763  1
  O  O282  1  0.87066815  0.50611509  0.76046974  1
  O  O283  1  0.13401930  0.36705830  0.39619655  1
  O  O284  1  0.12731623  0.35792225  0.87507461  1
  O  O285  1  0.11645687  0.87060426  0.36654333  1
  O  O286  1  0.11660692  0.87000572  0.86968211  1
  O  O287  1  0.63186280  0.36783030  0.36012646  1
  O  O288  1  0.62440051  0.37295143  0.87392012  1
  O  O289  1  0.62638751  0.87490037  0.35943265  1
  O  O290  1  0.62482841  0.86855374  0.86644063  1
  O  O291  1  0.38448529  0.13575292  0.11992215  1
  O  O292  1  0.37620150  0.08375546  0.64538082  1
  O  O293  1  0.37463497  0.64030417  0.11836420  1
  O  O294  1  0.37868403  0.63014590  0.63369490  1
  O  O295  1  0.88316481  0.13221083  0.12993313  1
  O  O296  1  0.89036717  0.11380583  0.61847832  1
  O  O297  1  0.88500610  0.63133572  0.12491010  1
  O  O298  1  0.86821519  0.64557515  0.62135158  1
  O  O299  1  0.25432117  0.25554673  0.11746649  1
  O  O300  1  0.29901473  0.21647740  0.69247630  1
  O  O301  1  0.25246827  0.74665357  0.11214961  1
  O  O302  1  0.25711675  0.74938445  0.61549127  1
  O  O303  1  0.76057265  0.24905978  0.11493195  1
  O  O304  1  0.73004262  0.26880305  0.61498292  1
  O  O305  1  0.75616734  0.75974427  0.11883495  1
  O  O306  1  0.75480108  0.76276456  0.61649219  1
  O  O307  1  0.26145022  0.23599142  0.36833546  1
  O  O308  1  0.24456811  0.24183491  0.87429173  1
  O  O309  1  0.24747841  0.75000162  0.38745796  1
  O  O310  1  0.24373912  0.74326174  0.88665898  1
  O  O311  1  0.74438727  0.24476906  0.37477679  1
  O  O312  1  0.74192863  0.25164337  0.88856315  1
  O  O313  1  0.75218679  0.75264629  0.38815622  1
  O  O314  1  0.74008341  0.75058363  0.88126270  1
  O  O315  1  0.00795141  0.11862940  0.00889319  1
  O  O316  1  0.00973245  0.11302433  0.48892045  1
  O  O317  1  -0.00167020  0.61685832  0.00691703  1
  O  O318  1  0.00790438  0.62412948  0.50965194  1
  O  O319  1  0.50340915  0.11665494  0.00861982  1
  O  O320  1  0.51471617  0.10531257  0.49422723  1
  O  O321  1  0.50722683  0.61961372  -0.00100733  1
  O  O322  1  0.51488016  0.62862219  0.50834941  1
  O  O323  1  0.50750812  0.38656521  0.49530070  1
  O  O324  1  0.49303255  0.38449250  1.00332040  1
  O  O325  1  0.49257221  0.88125889  0.49729856  1
  O  O326  1  0.49443587  0.89188029  1.00501867  1
  O  O327  1  0.99342646  0.38696755  0.50284778  1
  O  O328  1  0.99006571  0.38086703  0.98915115  1
  O  O329  1  0.99562866  0.88120992  0.49043348  1
  O  O330  1  0.99590180  0.88207924  0.99802798  1
  O  O331  1  0.51464843  0.50058625  0.39015429  1
  O  O332  1  0.50817207  0.49028168  0.89192087  1
  O  O333  1  0.49266889  0.99592942  0.37696564  1
  O  O334  1  0.48784561  1.00718111  0.88068534  1
  O  O335  1  0.99161623  0.50066977  0.38794598  1
  O  O336  1  0.99027573  0.50064508  0.88180009  1
  O  O337  1  1.00837549  0.99086136  0.38068293  1
  O  O338  1  1.00420812  0.98971430  0.89317747  1
  O  O339  1  0.00147753  0.00855372  0.11703672  1
  O  O340  1  0.01499039  -0.01064121  0.61030728  1
  O  O341  1  0.00061840  0.50541049  0.11875880  1
  O  O342  1  -0.00113150  0.50331230  0.61700045  1
  O  O343  1  0.50412172  0.00838833  0.11918833  1
  O  O344  1  0.50846524  0.01005910  0.61130342  1
  O  O345  1  0.50438558  0.50352620  0.11393472  1
  O  O346  1  0.51135076  0.50502692  0.62025766  1
  O  O347  1  0.25178132  0.38446434  0.23363931  1
  O  O348  1  0.32163008  0.39098525  0.73171038  1
  O  O349  1  0.23671316  0.88458329  0.25385767  1
  O  O350  1  0.24127708  0.87517884  0.75240584  1
  O  O351  1  0.74532987  0.38675768  0.24637277  1
  O  O352  1  0.73958302  0.36951698  0.74168593  1
  O  O353  1  0.74475096  0.87289980  0.23757404  1
  O  O354  1  0.73220466  0.88194148  0.74297726  1
  O  O355  1  0.24791509  0.10927806  0.25809300  1
  O  O356  1  0.25095591  0.09718116  0.75967153  1
  O  O357  1  0.25016114  0.61408737  0.23979829  1
  O  O358  1  0.26139114  0.63394511  0.76293096  1
  O  O359  1  0.75865194  0.12984467  0.25804781  1
  O  O360  1  0.73334558  0.11351353  0.74906110  1
  O  O361  1  0.75106047  0.61560763  0.25060236  1
  O  O362  1  0.74206862  0.63534148  0.76474345  1
  O  O363  1  0.37021935  0.11022824  0.37866044  1
  O  O364  1  0.36942003  0.11487606  0.86216265  1
  O  O365  1  0.36850891  0.59406187  0.38133389  1
  O  O366  1  0.36424661  0.63392537  0.86957499  1
  O  O367  1  0.86360891  0.13135391  0.36406940  1
  O  O368  1  0.87669939  0.11246845  0.88143709  1
  O  O369  1  0.87199543  0.61482317  0.37566372  1
  O  O370  1  0.86282634  0.61948540  0.88141740  1
  O  O371  1  0.13066203  0.38106552  0.11388944  1
  O  O372  1  0.13709322  0.39757717  0.60182250  1
  O  O373  1  0.11961320  0.87692786  0.13990960  1
  O  O374  1  0.12394517  0.87611033  0.63345088  1
  O  O375  1  0.62876733  0.37536727  0.13784592  1
  O  O376  1  0.62852966  0.38531779  0.63618638  1
  O  O377  1  0.63162928  0.88296380  0.13180845  1
  O  O378  1  0.63120474  0.88323326  0.63031034  1
  O  O379  1  0.11850075  0.23616561  0.25447606  1
  O  O380  1  0.13094002  0.24182934  0.76080735  1
  O  O381  1  0.12044489  0.76177463  0.24990813  1
  O  O382  1  0.12534097  0.75956522  0.75499161  1
  O  O383  1  0.61913675  0.25703709  0.25560746  1
  O  O384  1  0.61149321  0.26046418  0.76045434  1
  O  O385  1  0.62373934  0.76015401  0.24978534  1
  O  O386  1  0.61878548  0.76058031  0.75664660  1
  O  O387  1  0.38342124  0.26086166  0.24145671  1
  O  O388  1  0.41097491  0.24294177  0.78630324  1
  O  O389  1  0.36920648  0.74650707  0.24219028  1
  O  O390  1  0.38176232  0.74702106  0.74583671  1
  O  O391  1  0.87680184  0.24667661  0.23627172  1
  O  O392  1  0.85405048  0.23738681  0.71277372  1
  O  O393  1  0.88231840  0.75046308  0.24250754  1
  O  O394  1  0.86706330  0.76418174  0.73493654  1
  O  O395  1  0.40514244  0.51375937  0.50401925  1
  O  O396  1  0.38260595  0.49371021  1.00758201  1
  O  O397  1  0.38161197  0.98969607  0.49196488  1
  O  O398  1  0.37957483  0.99494798  0.99455535  1
  O  O399  1  0.87993367  0.50382613  0.49557829  1
  O  O400  1  0.88303673  0.49369644  0.99994089  1
  O  O401  1  0.88543875  0.98833272  0.50243870  1
  O  O402  1  0.88660978  0.99624415  1.00171092  1
  O  O403  1  0.12086934  0.01252381  -0.00393934  1
  O  O404  1  0.12074083  0.00267454  0.50615444  1
  O  O405  1  0.10838419  0.49948865  0.00786912  1
  O  O406  1  0.11194544  0.51516959  0.50530679  1
  O  O407  1  0.61643246  0.00656080  0.00735134  1
  O  O408  1  0.61844839  -0.01070710  0.50346269  1
  O  O409  1  0.62044345  0.51103469  0.00277259  1
  O  O410  1  0.62036290  0.50909760  0.50793559  1
  O  O411  1  0.36679391  0.36789311  0.11469361  1
  O  O412  1  0.45854218  0.32508417  0.64342268  1
  O  O413  1  0.37683874  0.86559586  0.11283063  1
  O  O414  1  0.37409505  0.86907418  0.60982005  1
  O  O415  1  0.87451403  0.36690958  0.11122020  1
  O  O416  1  0.85171644  0.38720127  0.62351822  1
  O  O417  1  0.86810997  0.87421635  0.12093377  1
  O  O418  1  0.86741495  0.87376502  0.61915738  1
  O  O419  1  0.13774136  0.12836122  0.38647311  1
  O  O420  1  0.13262239  0.12888662  0.87970419  1
  O  O421  1  0.11718132  0.62830105  0.39125541  1
  O  O422  1  0.13157364  0.63243133  0.87645436  1
  O  O423  1  0.63898666  0.13180479  0.36835436  1
  O  O424  1  0.60910154  0.13181168  0.88663483  1
  O  O425  1  0.63143877  0.62998621  0.38582524  1
  O  O426  1  0.63007998  0.63448122  0.88576634  1
