# generated using pymatgen
data_V85Zn86O256
_symmetry_space_group_name_H-M   'P 1'
_cell_length_a   16.93166273
_cell_length_b   16.92405195
_cell_length_c   16.93823958
_cell_angle_alpha   89.92451073
_cell_angle_beta   90.00534893
_cell_angle_gamma   89.98271917
_symmetry_Int_Tables_number   1
_chemical_formula_structural   V85Zn86O256
_chemical_formula_sum   'V85 Zn86 O256'
_cell_volume   4853.68772610
_cell_formula_units_Z   1
loop_
 _symmetry_equiv_pos_site_id
 _symmetry_equiv_pos_as_xyz
  1  'x, y, z'
loop_
 _atom_site_type_symbol
 _atom_site_label
 _atom_site_symmetry_multiplicity
 _atom_site_fract_x
 _atom_site_fract_y
 _atom_site_fract_z
 _atom_site_occupancy
  V  V0  1  0.62001339  0.26253249  0.37031167  1
  V  V1  1  0.24990907  0.87577843  0.12298499  1
  V  V2  1  0.19408371  0.43420275  0.07692090  1
  V  V3  1  0.37253332  0.74902857  0.63068345  1
  V  V4  1  0.24836899  0.63117969  0.37405363  1
  V  V5  1  0.37929874  0.75164126  0.12998491  1
  V  V6  1  0.12538742  0.24839061  0.87167483  1
  V  V7  1  0.01130794  0.11704542  0.62792325  1
  V  V8  1  -0.00263535  0.49955736  0.49798697  1
  V  V9  1  0.62234572  0.62470717  0.50006124  1
  V  V10  1  -0.00664187  0.24676685  0.74976547  1
  V  V11  1  0.62509203  0.87649144  0.75170148  1
  V  V12  1  0.37228428  0.26165999  0.61580534  1
  V  V13  1  0.49991653  0.12239192  0.13502363  1
  V  V14  1  0.75216699  0.36709872  0.13294587  1
  V  V15  1  0.37272312  0.24879466  0.12892292  1
  V  V16  1  0.74869659  0.87629494  0.62504276  1
  V  V17  1  0.75747390  0.74479941  -0.00459931  1
  V  V18  1  0.24965015  0.12149090  0.87293828  1
  V  V19  1  0.37743969  0.48601551  0.37841390  1
  V  V20  1  0.13451521  0.37360792  0.74755252  1
  V  V21  1  0.62996927  0.37480679  0.75223993  1
  V  V22  1  0.24951030  0.73677346  -0.00271933  1
  V  V23  1  0.75562346  0.00646977  0.75044029  1
  V  V24  1  0.49676798  0.87067983  0.37036576  1
  V  V25  1  0.62548534  0.88012811  0.24388270  1
  V  V26  1  0.74959545  0.12672703  0.37381617  1
  V  V27  1  0.49833368  0.48532816  0.49568899  1
  V  V28  1  0.50153790  0.26876615  0.25054796  1
  V  V29  1  0.49779343  0.12453382  0.62505672  1
  V  V30  1  0.49939887  0.74654186  0.74893126  1
  V  V31  1  0.76282223  0.24938978  0.00321454  1
  V  V32  1  -0.00372385  0.62596062  0.62648377  1
  V  V33  1  0.25784726  0.51860419  0.74490887  1
  V  V34  1  0.24714559  0.49914081  0.25100622  1
  V  V35  1  0.87370490  0.24007074  0.62754426  1
  V  V36  1  0.37169296  0.12839505  0.74897346  1
  V  V37  1  0.74836830  0.75108099  0.49993448  1
  V  V38  1  0.75280669  0.62419098  0.37384366  1
  V  V39  1  0.37540679  0.87443483  0.49860888  1
  V  V40  1  0.87363556  0.87702681  0.49972767  1
  V  V41  1  0.87522507  0.00079638  0.88144840  1
  V  V42  1  0.00953855  0.61441921  0.10981130  1
  V  V43  1  0.00319419  0.74469527  0.25195527  1
  V  V44  1  0.12403819  0.63093264  0.49344132  1
  V  V45  1  0.38259369  0.62782198  0.25419459  1
  V  V46  1  0.12383013  0.12049863  0.00339069  1
  V  V47  1  0.62701307  0.12239975  0.00542027  1
  V  V48  1  0.50390050  -0.00013687  0.00438170  1
  V  V49  1  0.50815446  0.62677336  0.12219571  1
  V  V50  1  -0.00077345  0.25016145  0.24386371  1
  V  V51  1  0.12985047  0.73883086  0.87778017  1
  V  V52  1  0.87414650  0.00182976  0.37385104  1
  V  V53  1  0.24816963  0.74759212  0.49849333  1
  V  V54  1  0.12838141  0.87015708  0.25314381  1
  V  V55  1  0.87340134  0.50660455  0.88568515  1
  V  V56  1  0.50005646  0.37514058  0.87854917  1
  V  V57  1  0.62208374  0.12530183  0.49752361  1
  V  V58  1  -0.00303230  0.37893108  0.87902501  1
  V  V59  1  0.87405394  0.12936624  0.24170865  1
  V  V60  1  0.24258152  0.88234811  0.62620195  1
  V  V61  1  -0.00185132  0.75293324  0.75249341  1
  V  V62  1  0.00050624  0.36594166  0.37500839  1
  V  V63  1  -0.00216713  0.87257606  0.88823089  1
  V  V64  1  0.25046694  0.24996778  0.00344845  1
  V  V65  1  0.62624945  0.50039482  0.62490751  1
  V  V66  1  0.13046391  0.37005496  0.25398540  1
  V  V67  1  0.37652597  0.01224670  0.37189564  1
  V  V68  1  0.23204164  0.12788393  0.38497030  1
  V  V69  1  0.75076282  0.25207271  0.49988118  1
  V  V70  1  0.87789438  0.75720593  0.12358842  1
  V  V71  1  0.61909847  0.74886447  0.36845017  1
  V  V72  1  0.75303558  0.50866597  0.75347394  1
  V  V73  1  0.62735347  0.24897528  0.87958718  1
  V  V74  1  0.62862766  0.73578493  0.88047722  1
  V  V75  1  0.25218591  0.00927083  0.24802620  1
  V  V76  1  0.74299577  0.49843392  0.24887939  1
  V  V77  1  0.37281191  0.87705201  -0.00159552  1
  V  V78  1  0.01187314  0.00379177  0.50248003  1
  V  V79  1  0.37876631  0.37797240  0.00301013  1
  V  V80  1  0.12850308  0.49816421  0.62631274  1
  V  V81  1  0.50015616  0.87644332  0.87382107  1
  V  V82  1  0.00495463  0.87039958  0.37657360  1
  V  V83  1  0.37519982  0.51593762  0.87082290  1
  V  V84  1  0.48797678  0.62212303  0.62440651  1
  Zn  Zn85  1  -0.00467948  -0.00431454  0.00758961  1
  Zn  Zn86  1  0.62416514  0.00185074  0.62572911  1
  Zn  Zn87  1  0.12308487  0.88009900  0.75187864  1
  Zn  Zn88  1  0.51026458  0.51065078  -0.00732559  1
  Zn  Zn89  1  0.87472555  0.49746555  0.37349226  1
  Zn  Zn90  1  -0.00477633  0.12497578  0.12221153  1
  Zn  Zn91  1  0.87233995  0.75125549  0.62851146  1
  Zn  Zn92  1  0.87681230  0.37270369  0.50246622  1
  Zn  Zn93  1  0.74468350  0.00354749  0.24235803  1
  Zn  Zn94  1  0.23800684  0.26700313  0.49018032  1
  Zn  Zn95  1  0.88122394  0.37639693  0.00816630  1
  Zn  Zn96  1  0.23883390  0.01311963  0.73743929  1
  Zn  Zn97  1  0.87631531  0.62273448  0.24504376  1
  Zn  Zn98  1  0.37508215  0.00004280  0.87074092  1
  Zn  Zn99  1  0.75593475  0.37502219  0.62745112  1
  Zn  Zn100  1  0.75512807  0.12673921  0.87247276  1
  Zn  Zn101  1  0.62736439  0.49690711  0.11938000  1
  Zn  Zn102  1  0.87085145  0.62841354  0.75530754  1
  Zn  Zn103  1  0.50028233  -0.00078062  0.49902728  1
  Zn  Zn104  1  0.12186059  -0.00165584  0.12472053  1
  Zn  Zn105  1  0.75197908  0.87967594  0.11594590  1
  Zn  Zn106  1  0.50256619  0.24862246  0.75075644  1
  Zn  Zn107  1  0.18789998  0.18951701  0.18905475  1
  Zn  Zn108  1  0.17306451  0.20493622  0.65321589  1
  Zn  Zn109  1  0.18810539  0.68726343  0.18577996  1
  Zn  Zn110  1  0.18148183  0.69213719  0.68467148  1
  Zn  Zn111  1  0.68491554  0.18885385  0.18719549  1
  Zn  Zn112  1  0.68611917  0.18722094  0.68702172  1
  Zn  Zn113  1  0.69216445  0.69370996  0.18842015  1
  Zn  Zn114  1  0.68324357  0.68823270  0.68687189  1
  Zn  Zn115  1  0.31133352  0.30750164  0.31115628  1
  Zn  Zn116  1  0.31479536  0.30979988  0.81137272  1
  Zn  Zn117  1  0.31263570  0.81363963  0.31124874  1
  Zn  Zn118  1  0.31110624  0.81075594  0.81105858  1
  Zn  Zn119  1  0.81506410  0.31313445  0.31424102  1
  Zn  Zn120  1  0.81334010  0.31579720  0.81570519  1
  Zn  Zn121  1  0.81300253  0.81156287  0.31037042  1
  Zn  Zn122  1  0.81277987  0.81551157  0.81618337  1
  Zn  Zn123  1  0.18234667  0.44433400  0.43215104  1
  Zn  Zn124  1  0.18936122  0.44255240  0.91440135  1
  Zn  Zn125  1  0.18987154  0.93794224  0.43599581  1
  Zn  Zn126  1  0.18405034  0.93567140  0.93266935  1
  Zn  Zn127  1  0.68696687  0.43765641  0.43839942  1
  Zn  Zn128  1  0.69184516  0.44043322  0.94459982  1
  Zn  Zn129  1  0.68589009  0.93913125  0.43339811  1
  Zn  Zn130  1  0.68892927  0.93377873  0.93912725  1
  Zn  Zn131  1  0.31574744  0.06373126  0.06210867  1
  Zn  Zn132  1  0.31543014  0.06427439  0.55788096  1
  Zn  Zn133  1  0.32564000  0.56621325  0.06021671  1
  Zn  Zn134  1  0.31468461  0.43584625  0.56188795  1
  Zn  Zn135  1  0.80833422  0.05772653  0.06314672  1
  Zn  Zn136  1  0.81429196  0.06303305  0.56246518  1
  Zn  Zn137  1  0.81299550  0.56833378  0.06739145  1
  Zn  Zn138  1  0.81243721  0.56240296  0.56399005  1
  Zn  Zn139  1  0.43426170  0.44279818  0.18511341  1
  Zn  Zn140  1  0.44402102  0.43937103  0.69356902  1
  Zn  Zn141  1  0.43908536  0.93815700  0.18973874  1
  Zn  Zn142  1  0.43342016  0.94035062  0.68721682  1
  Zn  Zn143  1  0.93152169  0.43935040  0.18954331  1
  Zn  Zn144  1  0.93699218  0.43345129  0.68975787  1
  Zn  Zn145  1  0.93874461  0.93910011  0.18917922  1
  Zn  Zn146  1  0.93500856  0.93675310  0.69096172  1
  Zn  Zn147  1  0.06135887  0.05850021  0.30968877  1
  Zn  Zn148  1  0.06034870  0.06057474  0.81021702  1
  Zn  Zn149  1  0.06494082  0.55724942  0.31009302  1
  Zn  Zn150  1  0.05898049  0.56208353  0.81247897  1
  Zn  Zn151  1  0.56139548  0.06278244  0.31484114  1
  Zn  Zn152  1  0.56309130  0.06243937  0.81412856  1
  Zn  Zn153  1  0.56217539  0.55917413  0.31156774  1
  Zn  Zn154  1  0.55983602  0.56124419  0.80889751  1
  Zn  Zn155  1  0.43572218  0.19336334  0.43590494  1
  Zn  Zn156  1  0.43847643  0.18719859  0.93973857  1
  Zn  Zn157  1  0.43533565  0.68362362  0.44079006  1
  Zn  Zn158  1  0.43976060  0.69358543  0.94025292  1
  Zn  Zn159  1  0.94135125  0.18542002  0.43881630  1
  Zn  Zn160  1  0.93934497  0.18088482  0.93164537  1
  Zn  Zn161  1  0.93502798  0.68995756  0.43824245  1
  Zn  Zn162  1  0.93911076  0.68520104  0.94082685  1
  Zn  Zn163  1  0.05861335  0.30563906  0.06052212  1
  Zn  Zn164  1  0.06424258  0.31244376  0.55972187  1
  Zn  Zn165  1  0.06668986  0.80588654  0.06488086  1
  Zn  Zn166  1  0.06088043  0.81258153  0.56185017  1
  Zn  Zn167  1  0.56791986  0.31428261  0.06552001  1
  Zn  Zn168  1  0.56439879  0.30926627  0.56643049  1
  Zn  Zn169  1  0.56245827  0.80816819  0.06048642  1
  Zn  Zn170  1  0.56147553  0.81288113  0.56062868  1
  O  O171  1  0.12820847  0.12533640  0.11209228  1
  O  O172  1  0.10931510  0.10891956  0.63573080  1
  O  O173  1  0.10834282  0.62943175  0.13100082  1
  O  O174  1  0.11464918  0.61722926  0.61919168  1
  O  O175  1  0.61683046  0.13001409  0.11217525  1
  O  O176  1  0.61555552  0.12632057  0.61652982  1
  O  O177  1  0.60858699  0.63380452  0.13526522  1
  O  O178  1  0.61764305  0.61934722  0.61792292  1
  O  O179  1  0.37315884  0.38727775  0.36690710  1
  O  O180  1  0.38262355  0.37779418  0.88279253  1
  O  O181  1  0.38099119  0.87925063  0.37909047  1
  O  O182  1  0.38189083  0.87484748  0.87926516  1
  O  O183  1  0.88482147  0.37722941  0.38159123  1
  O  O184  1  0.88233412  0.38484827  0.87806707  1
  O  O185  1  0.88073718  0.88289768  0.37837861  1
  O  O186  1  0.88555706  0.88492405  0.87249135  1
  O  O187  1  0.25572230  0.00871587  0.36898539  1
  O  O188  1  0.25383261  0.01421852  0.87738147  1
  O  O189  1  0.25724752  0.51235566  0.36715180  1
  O  O190  1  0.26061233  0.50437247  0.85625897  1
  O  O191  1  0.75774472  0.00795647  0.37181008  1
  O  O192  1  0.75947259  -0.00265549  0.86995718  1
  O  O193  1  0.74890081  0.50792959  0.37075253  1
  O  O194  1  0.76466691  0.49363796  0.86739422  1
  O  O195  1  0.25707878  0.49841429  0.13027091  1
  O  O196  1  0.24305535  0.49621806  0.63685980  1
  O  O197  1  0.25164674  0.99548992  0.13276850  1
  O  O198  1  0.25617279  0.98562846  0.62063019  1
  O  O199  1  0.75078608  0.49304067  0.13308673  1
  O  O200  1  0.74473832  0.49627779  0.63237670  1
  O  O201  1  0.75143822  0.99112891  0.13019722  1
  O  O202  1  0.74849052  0.99462306  0.63236612  1
  O  O203  1  0.00436758  0.36917354  0.25564493  1
  O  O204  1  0.00727136  0.36755306  0.75945999  1
  O  O205  1  0.00794368  0.86721514  0.25782394  1
  O  O206  1  -0.00038075  0.86276030  0.75458443  1
  O  O207  1  0.50190253  0.36721183  0.24327635  1
  O  O208  1  0.51268594  0.37409042  0.76220696  1
  O  O209  1  0.50832325  0.87610013  0.26248680  1
  O  O210  1  0.50602958  0.86990179  0.75174888  1
  O  O211  1  0.50479495  0.12634470  0.23699253  1
  O  O212  1  0.49450314  0.12575825  0.74201713  1
  O  O213  1  0.48761290  0.62269038  0.24471567  1
  O  O214  1  0.50616699  0.63345617  0.73664019  1
  O  O215  1  0.99328458  0.13335393  0.25236131  1
  O  O216  1  0.99884097  0.13317883  0.74031565  1
  O  O217  1  1.00058338  0.63871214  0.25968710  1
  O  O218  1  0.99935539  0.63543106  0.74201811  1
  O  O219  1  0.36962016  0.25915028  0.00452807  1
  O  O220  1  0.37001346  0.24893908  0.51292641  1
  O  O221  1  0.36866864  0.75887088  0.00611537  1
  O  O222  1  0.36953464  0.75454921  0.50980178  1
  O  O223  1  0.86484101  0.24655111  -0.00735918  1
  O  O224  1  0.86588712  0.24786689  0.50652461  1
  O  O225  1  0.86556628  0.74949564  0.00416730  1
  O  O226  1  0.86650581  0.75931135  0.50211789  1
  O  O227  1  0.14341927  0.23911087  0.54631056  1
  O  O228  1  0.13273876  0.24350461  0.99372696  1
  O  O229  1  0.12738328  0.73735731  0.50395328  1
  O  O230  1  0.13506124  0.75212479  0.98748632  1
  O  O231  1  0.62934334  0.24162305  0.49432075  1
  O  O232  1  0.63209571  0.24345644  0.99385381  1
  O  O233  1  0.62939215  0.74508189  0.49128250  1
  O  O234  1  0.62678540  0.74900680  0.98429303  1
  O  O235  1  0.49707671  0.24593311  0.13450958  1
  O  O236  1  0.49215277  0.24032858  0.62680681  1
  O  O237  1  0.48742648  0.74263859  0.12259588  1
  O  O238  1  0.49329076  0.74499558  0.62820857  1
  O  O239  1  0.99983682  0.24672505  0.13911187  1
  O  O240  1  0.99331027  0.23721038  0.63082420  1
  O  O241  1  0.99649114  0.74378263  0.13395756  1
  O  O242  1  0.99941622  0.74350081  0.63341216  1
  O  O243  1  0.00033336  0.26013762  0.37052799  1
  O  O244  1  0.00565125  0.25286895  0.86554031  1
  O  O245  1  -0.00569385  0.76325501  0.37000802  1
  O  O246  1  0.00589529  0.75438343  0.87108968  1
  O  O247  1  0.50344142  0.24731052  0.35871093  1
  O  O248  1  0.51038299  0.25677526  0.87610763  1
  O  O249  1  0.50696277  0.75669832  0.38142634  1
  O  O250  1  0.51018018  0.75559574  0.86994333  1
  O  O251  1  0.24900589  0.12179172  0.48544963  1
  O  O252  1  0.24587766  0.13031904  0.99239211  1
  O  O253  1  0.23964929  0.63175458  0.49021193  1
  O  O254  1  0.25738928  0.63755672  1.00242277  1
  O  O255  1  0.74267755  0.13453533  0.49651201  1
  O  O256  1  0.74231952  0.13120465  0.99820715  1
  O  O257  1  0.74234169  0.62869994  0.49455012  1
  O  O258  1  0.74627370  0.64490245  1.00938611  1
  O  O259  1  0.25352232  0.37621294  0.00593973  1
  O  O260  1  0.24750416  0.38014579  0.49351346  1
  O  O261  1  0.25651487  0.87214039  0.00470788  1
  O  O262  1  0.25374279  0.86800303  0.50716480  1
  O  O263  1  0.75600771  0.36387436  0.00915369  1
  O  O264  1  0.74960009  0.36203705  0.50299066  1
  O  O265  1  0.73797024  0.85409216  0.00258711  1
  O  O266  1  0.75216944  0.87255225  0.50416168  1
  O  O267  1  0.13959644  0.49210558  0.24930829  1
  O  O268  1  0.13524170  0.49801926  0.74546452  1
  O  O269  1  0.13350154  0.98845910  0.24845924  1
  O  O270  1  0.13073129  0.99246474  0.75900526  1
  O  O271  1  0.63812261  0.50425846  0.24594263  1
  O  O272  1  0.63236669  0.49273351  0.74746218  1
  O  O273  1  0.62448224  0.98406499  0.25771620  1
  O  O274  1  0.63094353  0.99105857  0.74974870  1
  O  O275  1  0.36388102  -0.00770351  0.26005060  1
  O  O276  1  0.36933051  0.01580768  0.74942775  1
  O  O277  1  0.36570883  0.50750714  0.25477241  1
  O  O278  1  0.36446909  0.49840654  0.75344680  1
  O  O279  1  0.87717458  0.00796519  0.26306461  1
  O  O280  1  0.86350337  -0.00616925  0.76099309  1
  O  O281  1  0.86149276  0.50504963  0.25573610  1
  O  O282  1  0.86695080  0.50087652  0.75624277  1
  O  O283  1  0.11429226  0.38104480  0.36279553  1
  O  O284  1  0.11761623  0.36845637  0.86615418  1
  O  O285  1  0.11619682  0.87791786  0.36797877  1
  O  O286  1  0.11403278  0.86388101  0.87366918  1
  O  O287  1  0.62701480  0.36146901  0.37754524  1
  O  O288  1  0.62073167  0.36776438  0.87231744  1
  O  O289  1  0.61615951  0.86779445  0.37078862  1
  O  O290  1  0.61988954  0.86923518  0.86382898  1
  O  O291  1  0.38695806  0.13888866  0.11658349  1
  O  O292  1  0.38050831  0.13270997  0.62954818  1
  O  O293  1  0.38295221  0.63295185  0.13481763  1
  O  O294  1  0.38693893  0.63507089  0.61884556  1
  O  O295  1  0.87337123  0.12223245  0.13891502  1
  O  O296  1  0.87850911  0.13563967  0.62522472  1
  O  O297  1  0.88779662  0.63794220  0.12643772  1
  O  O298  1  0.88684960  0.62749463  0.62585526  1
  O  O299  1  0.26326576  0.24592350  0.12066395  1
  O  O300  1  0.27468140  0.25615660  0.63712864  1
  O  O301  1  0.25888634  0.75479283  0.11737574  1
  O  O302  1  0.25668538  0.75601088  0.61943052  1
  O  O303  1  0.74923121  0.25806004  0.11941891  1
  O  O304  1  0.75547263  0.24980639  0.61864719  1
  O  O305  1  0.76010986  0.75550282  0.11872572  1
  O  O306  1  0.74838153  0.75752329  0.61863379  1
  O  O307  1  0.25291585  0.23198265  0.37472588  1
  O  O308  1  0.24485783  0.24227535  0.88079435  1
  O  O309  1  0.25516112  0.73896887  0.37976264  1
  O  O310  1  0.23815655  0.75345436  0.88026974  1
  O  O311  1  0.74300075  0.24579772  0.38177701  1
  O  O312  1  0.74250858  0.24907409  0.88230257  1
  O  O313  1  0.74282840  0.74319073  0.38035855  1
  O  O314  1  0.74033081  0.75010759  0.88228457  1
  O  O315  1  0.01039723  0.12449351  0.00164168  1
  O  O316  1  -0.00266663  0.11735605  0.51480716  1
  O  O317  1  0.00422188  0.62238028  0.00970660  1
  O  O318  1  0.00414956  0.62050352  0.50426605  1
  O  O319  1  0.50642910  0.11866172  0.00697814  1
  O  O320  1  0.50633743  0.12652290  0.50551031  1
  O  O321  1  0.49387702  0.62738822  0.01776552  1
  O  O322  1  0.50686470  0.61817271  0.50683729  1
  O  O323  1  0.50865599  0.38623967  0.50272804  1
  O  O324  1  0.49549019  0.37397793  0.99067283  1
  O  O325  1  0.49518396  0.87721883  0.48956988  1
  O  O326  1  0.49593597  0.88171263  0.99610961  1
  O  O327  1  1.00288160  0.38186716  0.49318128  1
  O  O328  1  0.99913395  0.36690085  0.98454364  1
  O  O329  1  0.99372923  0.87994783  0.49443629  1
  O  O330  1  1.00365187  0.87293631  0.99137073  1
  O  O331  1  0.49056208  0.50589838  0.38419078  1
  O  O332  1  0.49285211  0.49162687  0.87256647  1
  O  O333  1  0.49140573  0.99262449  0.37613289  1
  O  O334  1  0.49704800  0.99352787  0.88187986  1
  O  O335  1  0.99897082  0.49200608  0.38326482  1
  O  O336  1  0.98697699  0.49117501  0.86829381  1
  O  O337  1  0.99329062  0.99191383  0.38157164  1
  O  O338  1  0.98927776  0.99149960  0.87719540  1
  O  O339  1  0.00349746  0.00554672  0.12443930  1
  O  O340  1  -0.01283824  0.01122316  0.61829612  1
  O  O341  1  -0.00483681  0.51666411  0.13372561  1
  O  O342  1  0.00475667  0.50790999  0.62075631  1
  O  O343  1  0.49477154  0.00867878  0.11653649  1
  O  O344  1  0.49980862  0.01224136  0.62126569  1
  O  O345  1  0.50079238  0.51653119  0.12550930  1
  O  O346  1  0.50550388  0.50640908  0.61958693  1
  O  O347  1  0.24164396  0.38214323  0.25314245  1
  O  O348  1  0.23706810  0.37858950  0.75711541  1
  O  O349  1  0.24365632  0.88151151  0.24563292  1
  O  O350  1  0.25283370  0.87472168  0.73250203  1
  O  O351  1  0.75401735  0.37985903  0.24121049  1
  O  O352  1  0.74101754  0.38238645  0.75082609  1
  O  O353  1  0.73360307  0.87444323  0.25379263  1
  O  O354  1  0.74177469  0.88141456  0.74556627  1
  O  O355  1  0.24392568  0.11309029  0.25834068  1
  O  O356  1  0.25708235  0.13040401  0.75759446  1
  O  O357  1  0.25666505  0.61953753  0.25474364  1
  O  O358  1  0.24989674  0.61665229  0.74118928  1
  O  O359  1  0.75600771  0.12677337  0.25668681  1
  O  O360  1  0.74018921  0.11041269  0.75330335  1
  O  O361  1  0.75160325  0.62063905  0.25845230  1
  O  O362  1  0.74953763  0.61262276  0.74522566  1
  O  O363  1  0.37322203  0.11417991  0.37657369  1
  O  O364  1  0.36791014  0.12833677  0.86763818  1
  O  O365  1  0.36820433  0.62003032  0.36879529  1
  O  O366  1  0.38548280  0.61512731  0.87628534  1
  O  O367  1  0.86992473  0.11843514  0.37126017  1
  O  O368  1  0.87392447  0.10712457  0.87135405  1
  O  O369  1  0.86068146  0.62456698  0.37786969  1
  O  O370  1  0.88036523  0.61064538  0.87315463  1
  O  O371  1  0.12715229  0.37488506  0.12932767  1
  O  O372  1  0.11254269  0.39248568  0.63529339  1
  O  O373  1  0.13376496  0.87477668  0.13269029  1
  O  O374  1  0.14013677  0.86874958  0.62505088  1
  O  O375  1  0.64496622  0.37614330  0.12291602  1
  O  O376  1  0.62626906  0.37967376  0.63702677  1
  O  O377  1  0.61898748  0.86526379  0.14302792  1
  O  O378  1  0.62831299  0.87645828  0.63510066  1
  O  O379  1  0.11827923  0.26165461  0.24717856  1
  O  O380  1  0.11561897  0.25781075  0.74801765  1
  O  O381  1  0.12021579  0.76192137  0.24837130  1
  O  O382  1  0.11834054  0.75415582  0.76033522  1
  O  O383  1  0.61093031  0.24765317  0.25645246  1
  O  O384  1  0.62583607  0.25708486  0.75967803  1
  O  O385  1  0.62703632  0.75806131  0.26406323  1
  O  O386  1  0.62200453  0.75768025  0.75889438  1
  O  O387  1  0.38801175  0.25492398  0.23999802  1
  O  O388  1  0.38278829  0.24153605  0.74515695  1
  O  O389  1  0.36877643  0.74161311  0.24073541  1
  O  O390  1  0.38065759  0.75338854  0.73744417  1
  O  O391  1  0.88544657  0.23994180  0.25884925  1
  O  O392  1  0.88542396  0.25532917  0.74519897  1
  O  O393  1  0.88483340  0.74767397  0.24407007  1
  O  O394  1  0.88165642  0.74728744  0.75032414  1
  O  O395  1  0.38610006  0.49833949  0.49175271  1
  O  O396  1  0.38052468  0.49311919  0.98948204  1
  O  O397  1  0.37628515  0.99187394  0.48914232  1
  O  O398  1  0.38607524  0.99473597  0.99702737  1
  O  O399  1  0.88768073  0.49839598  0.50117382  1
  O  O400  1  0.86865768  0.49978836  0.98819148  1
  O  O401  1  0.87953807  0.99624963  0.48919429  1
  O  O402  1  0.87539740  1.00062938  0.98623774  1
  O  O403  1  0.12338703  0.00845520  0.00050945  1
  O  O404  1  0.11057593  -0.00702913  0.49852994  1
  O  O405  1  0.14272175  0.48746839  0.01148579  1
  O  O406  1  0.11447690  0.51023826  0.50776985  1
  O  O407  1  0.61356030  0.00762628  -0.00666870  1
  O  O408  1  0.62442177  0.01389145  0.50015858  1
  O  O409  1  0.62178877  0.50045082  0.00433406  1
  O  O410  1  0.62018652  0.50582121  0.50514060  1
  O  O411  1  0.38272798  0.36850324  0.11039801  1
  O  O412  1  0.38591773  0.36631856  0.62664827  1
  O  O413  1  0.37128775  0.86808826  0.12168517  1
  O  O414  1  0.36895975  0.86810823  0.61793582  1
  O  O415  1  0.86048787  0.37687849  0.12308057  1
  O  O416  1  0.87671611  0.35966058  0.62216087  1
  O  O417  1  0.87835875  0.86121475  0.13038876  1
  O  O418  1  0.86677247  0.87436977  0.61760496  1
  O  O419  1  0.13333218  0.12080666  0.37599596  1
  O  O420  1  0.13119002  0.13053514  0.88270959  1
  O  O421  1  0.13396406  0.61845328  0.38282385  1
  O  O422  1  0.12011454  0.63968876  0.87213132  1
  O  O423  1  0.62893048  0.13243196  0.38162185  1
  O  O424  1  0.62503075  0.13404204  0.88528725  1
  O  O425  1  0.63178806  0.63152001  0.37897790  1
  O  O426  1  0.62179672  0.63800464  0.86896088  1
