# generated using pymatgen
data_V85Zn86O256
_symmetry_space_group_name_H-M   'P 1'
_cell_length_a   16.92562523
_cell_length_b   16.92770595
_cell_length_c   16.92796726
_cell_angle_alpha   90.06068457
_cell_angle_beta   89.95992080
_cell_angle_gamma   90.06661752
_symmetry_Int_Tables_number   1
_chemical_formula_structural   V85Zn86O256
_chemical_formula_sum   'V85 Zn86 O256'
_cell_volume   4850.05869032
_cell_formula_units_Z   1
loop_
 _symmetry_equiv_pos_site_id
 _symmetry_equiv_pos_as_xyz
  1  'x, y, z'
loop_
 _atom_site_type_symbol
 _atom_site_label
 _atom_site_symmetry_multiplicity
 _atom_site_fract_x
 _atom_site_fract_y
 _atom_site_fract_z
 _atom_site_occupancy
  V  V0  1  0.50514673  0.12571243  0.61922223  1
  V  V1  1  0.13238205  0.38085758  0.75139987  1
  V  V2  1  0.76005391  0.38231225  0.12277366  1
  V  V3  1  0.75020377  0.74804996  0.00231203  1
  V  V4  1  0.37704714  0.12535297  0.24993915  1
  V  V5  1  0.37524529  0.87617985  0.01337622  1
  V  V6  1  0.88253828  0.23224507  0.12427207  1
  V  V7  1  0.62635936  0.25568028  0.87134606  1
  V  V8  1  0.50411783  0.26231252  0.74557145  1
  V  V9  1  0.50249207  -0.00516959  -0.00498003  1
  V  V10  1  0.12881019  0.87529647  0.75655366  1
  V  V11  1  0.86996285  0.49472168  0.87685430  1
  V  V12  1  0.37693707  0.73093837  0.12901442  1
  V  V13  1  0.88170779  0.87361507  0.49652506  1
  V  V14  1  0.61947610  0.87615588  0.75315812  1
  V  V15  1  0.24971793  -0.00341198  0.74946389  1
  V  V16  1  0.61968263  0.74876364  0.87575147  1
  V  V17  1  0.00162165  0.49818692  0.49302359  1
  V  V18  1  0.86810098  0.63227553  0.24511319  1
  V  V19  1  0.00107981  0.00565338  0.00273433  1
  V  V20  1  0.25865239  0.25948798  -0.00019171  1
  V  V21  1  0.25035270  0.75425225  0.00399186  1
  V  V22  1  0.62654603  0.12759752  -0.00085709  1
  V  V23  1  0.74394187  0.24485429  0.49863896  1
  V  V24  1  0.87291157  0.62076251  0.74976902  1
  V  V25  1  0.00833447  0.12032489  0.62576494  1
  V  V26  1  0.75184857  0.87370591  0.62466188  1
  V  V27  1  0.62674020  0.00207981  0.61705735  1
  V  V28  1  0.24969137  0.61937066  0.87100750  1
  V  V29  1  0.38137292  0.25969105  0.12413602  1
  V  V30  1  0.13861718  0.13629741  0.50352178  1
  V  V31  1  0.62046901  0.87306247  0.25034907  1
  V  V32  1  0.50938303  0.62303161  0.62103356  1
  V  V33  1  0.75044668  0.61814138  0.37663069  1
  V  V34  1  0.24961951  0.50199856  0.24849394  1
  V  V35  1  0.14327884  -0.03231659  0.60046951  1
  V  V36  1  0.00261343  0.25114959  0.75230116  1
  V  V37  1  -0.00104098  0.37692156  0.87804504  1
  V  V38  1  0.74562378  0.74410359  0.50063565  1
  V  V39  1  0.75014974  0.00039288  0.74946252  1
  V  V40  1  0.36920628  0.61645618  0.74458828  1
  V  V41  1  0.37080920  0.24944741  0.61865609  1
  V  V42  1  0.49767311  0.73326788  0.24684361  1
  V  V43  1  0.37459907  0.37316079  0.48833337  1
  V  V44  1  -0.00797618  0.49968162  0.00353464  1
  V  V45  1  0.13568464  0.86970471  0.24156450  1
  V  V46  1  0.62386072  -0.00099000  0.12518527  1
  V  V47  1  0.62225104  0.74386593  0.37844470  1
  V  V48  1  -0.00135576  0.74905147  0.75083315  1
  V  V49  1  0.87441660  0.00103597  0.87507181  1
  V  V50  1  0.75890769  0.87056288  0.12838494  1
  V  V51  1  0.37770773  0.12425311  0.74960682  1
  V  V52  1  0.12727441  0.25079462  0.87690090  1
  V  V53  1  0.87449372  0.37790331  0.50045509  1
  V  V54  1  0.25399903  0.12532994  0.87517560  1
  V  V55  1  -0.00260761  0.87316399  0.35566766  1
  V  V56  1  0.73433524  0.37881540  0.62940272  1
  V  V57  1  0.62422860  0.37211143  0.25627055  1
  V  V58  1  0.12100869  0.74695002  0.36688012  1
  V  V59  1  0.36941081  -0.00812799  0.37902189  1
  V  V60  1  0.13681527  -0.00293847  0.12245524  1
  V  V61  1  -0.00341744  0.87217589  0.87787888  1
  V  V62  1  0.12281027  0.62590352  0.00092042  1
  V  V63  1  0.11758894  0.36790637  0.24634976  1
  V  V64  1  0.87566866  0.25327848  0.62894819  1
  V  V65  1  0.37715642  0.50327698  0.37238383  1
  V  V66  1  0.12536226  0.12925546  0.00728238  1
  V  V67  1  0.87327224  0.87249057  0.00418920  1
  V  V68  1  0.00087666  0.62393525  0.62293025  1
  V  V69  1  0.38007784  -0.01330932  0.87245514  1
  V  V70  1  0.87748950  0.12408085  0.75071971  1
  V  V71  1  0.49860729  -0.00855551  0.49817308  1
  V  V72  1  0.61823090  0.50160911  0.12904643  1
  V  V73  1  0.51010063  0.49973256  0.49865905  1
  V  V74  1  0.13046872  0.62784964  0.49687055  1
  V  V75  1  0.25012668  0.37425829  0.61814434  1
  V  V76  1  0.73476742  0.49764966  0.74850030  1
  V  V77  1  0.75298298  0.00701899  0.25296124  1
  V  V78  1  0.36045721  0.75959259  0.61077980  1
  V  V79  1  0.49465528  0.37711253  0.88913799  1
  V  V80  1  0.49326981  0.75225818  0.74996680  1
  V  V81  1  -0.00471807  0.64018773  0.13069672  1
  V  V82  1  0.25501671  0.62941334  0.37343604  1
  V  V83  1  0.87642745  0.74852900  0.62427013  1
  V  V84  1  0.13217538  0.50214907  0.62593298  1
  Zn  Zn85  1  0.25603936  -0.00303298  0.24374584  1
  Zn  Zn86  1  0.49568750  0.25549515  0.26393212  1
  Zn  Zn87  1  0.87214619  0.49745449  0.36594922  1
  Zn  Zn88  1  0.75282007  0.12851877  0.37312992  1
  Zn  Zn89  1  0.94033109  0.17885279  0.28538345  1
  Zn  Zn90  1  0.61501604  0.24276899  0.38063452  1
  Zn  Zn91  1  0.74652600  0.62203635  0.87724321  1
  Zn  Zn92  1  0.25176260  0.38055579  0.12195396  1
  Zn  Zn93  1  -0.00757209  0.35996002  0.36601278  1
  Zn  Zn94  1  0.36804464  0.49254577  0.87644935  1
  Zn  Zn95  1  0.12251698  0.50158421  0.12734193  1
  Zn  Zn96  1  0.50236971  0.12749795  0.12778028  1
  Zn  Zn97  1  0.12251329  0.24840439  0.37181656  1
  Zn  Zn98  1  0.12548359  0.74808872  0.87658959  1
  Zn  Zn99  1  0.25493976  0.13477672  0.37717213  1
  Zn  Zn100  1  0.75057008  0.12866035  0.87404287  1
  Zn  Zn101  1  0.87984813  0.00948669  0.37370227  1
  Zn  Zn102  1  -0.00147135  0.00106941  0.49997334  1
  Zn  Zn103  1  0.48711635  0.51530018  0.01059543  1
  Zn  Zn104  1  0.49496104  0.86841641  0.37903927  1
  Zn  Zn105  1  0.62038105  0.62575218  0.00927554  1
  Zn  Zn106  1  0.75496914  0.25808473  -0.00132243  1
  Zn  Zn107  1  0.19415329  0.18724197  0.18714569  1
  Zn  Zn108  1  0.19013645  0.18850194  0.68789612  1
  Zn  Zn109  1  0.18966696  0.68594870  0.18668623  1
  Zn  Zn110  1  0.18784047  0.69099447  0.68784520  1
  Zn  Zn111  1  0.69073455  0.19395214  0.18398468  1
  Zn  Zn112  1  0.68762235  0.18806217  0.68677177  1
  Zn  Zn113  1  0.68733204  0.68668378  0.19008195  1
  Zn  Zn114  1  0.68692843  0.68654584  0.69074170  1
  Zn  Zn115  1  0.30388666  0.30991113  0.31004635  1
  Zn  Zn116  1  0.31419665  0.31239460  0.80638500  1
  Zn  Zn117  1  0.31224621  0.80848638  0.31149510  1
  Zn  Zn118  1  0.31257333  0.80626624  0.81326169  1
  Zn  Zn119  1  0.80867019  0.31618626  0.30701312  1
  Zn  Zn120  1  0.81069482  0.31487833  0.81225497  1
  Zn  Zn121  1  0.81202691  0.80893136  0.31100471  1
  Zn  Zn122  1  0.80933478  0.81143292  0.81447990  1
  Zn  Zn123  1  0.18754975  0.43284866  0.43107844  1
  Zn  Zn124  1  0.18507064  0.44150819  0.94001998  1
  Zn  Zn125  1  0.18356264  0.93649555  0.43217338  1
  Zn  Zn126  1  0.19111527  0.93711086  0.93733440  1
  Zn  Zn127  1  0.68868479  0.43320389  0.43912645  1
  Zn  Zn128  1  0.68130597  0.43734050  0.94329903  1
  Zn  Zn129  1  0.68854508  0.93305780  0.43563604  1
  Zn  Zn130  1  0.68723366  0.93512792  0.93535845  1
  Zn  Zn131  1  0.31634700  0.06976580  0.06078004  1
  Zn  Zn132  1  0.31609319  0.05772935  0.56285442  1
  Zn  Zn133  1  0.31151115  0.55842419  0.05668113  1
  Zn  Zn134  1  0.31507785  0.56443286  0.55966595  1
  Zn  Zn135  1  0.80908999  0.06189128  0.06340471  1
  Zn  Zn136  1  0.81714264  0.06241324  0.56326653  1
  Zn  Zn137  1  0.80804795  0.56269742  0.06539304  1
  Zn  Zn138  1  0.80933523  0.56008766  0.56303048  1
  Zn  Zn139  1  0.44012791  0.43701865  0.19284465  1
  Zn  Zn140  1  0.43702395  0.44023749  0.68342858  1
  Zn  Zn141  1  0.44154406  0.93821899  0.19037144  1
  Zn  Zn142  1  0.43653584  0.93439057  0.68344448  1
  Zn  Zn143  1  0.93444212  0.44493443  0.18750865  1
  Zn  Zn144  1  0.93934148  0.43876204  0.68756496  1
  Zn  Zn145  1  0.95783386  0.99696065  0.20444111  1
  Zn  Zn146  1  0.94400295  0.93807601  0.68516650  1
  Zn  Zn147  1  0.07357302  0.05670086  0.32022864  1
  Zn  Zn148  1  0.06585685  0.06155235  0.81575896  1
  Zn  Zn149  1  0.06060081  0.56084121  0.30747848  1
  Zn  Zn150  1  0.06187381  0.56194532  0.81339484  1
  Zn  Zn151  1  0.56505099  0.06836106  0.31916524  1
  Zn  Zn152  1  0.56183335  0.06665953  0.81019095  1
  Zn  Zn153  1  0.56702565  0.55678930  0.31285083  1
  Zn  Zn154  1  0.55623020  0.56594392  0.81522064  1
  Zn  Zn155  1  0.43911952  0.18190796  0.43664283  1
  Zn  Zn156  1  0.44079246  0.18616281  0.93694215  1
  Zn  Zn157  1  0.43769108  0.68489876  0.43964895  1
  Zn  Zn158  1  0.43581887  0.68541160  0.93476796  1
  Zn  Zn159  1  0.93682632  0.18884811  0.44682620  1
  Zn  Zn160  1  0.93646508  0.18990130  0.94263035  1
  Zn  Zn161  1  0.93815968  0.68816402  0.43309254  1
  Zn  Zn162  1  0.93233282  0.68468543  0.93868403  1
  Zn  Zn163  1  0.05919806  0.31472673  0.06615950  1
  Zn  Zn164  1  0.05957269  0.31382472  0.56366209  1
  Zn  Zn165  1  0.06290687  0.81490302  0.06369368  1
  Zn  Zn166  1  0.07371283  0.81241630  0.55679679  1
  Zn  Zn167  1  0.56708004  0.31388559  0.06720997  1
  Zn  Zn168  1  0.55801499  0.31552154  0.55715817  1
  Zn  Zn169  1  0.55959771  0.81181395  0.06356459  1
  Zn  Zn170  1  0.56069852  0.80952174  0.56597711  1
  O  O171  1  0.13166110  0.11900199  0.11186533  1
  O  O172  1  0.12254372  0.12442932  0.61866894  1
  O  O173  1  0.11194921  0.62670750  0.11823880  1
  O  O174  1  0.12309384  0.61910323  0.61708656  1
  O  O175  1  0.62504974  0.11832525  0.11635833  1
  O  O176  1  0.61726352  0.11427006  0.63002862  1
  O  O177  1  0.63274169  0.60595701  0.13058101  1
  O  O178  1  0.60814982  0.62970335  0.62839017  1
  O  O179  1  0.36755218  0.38082357  0.38530787  1
  O  O180  1  0.39095567  0.37270416  0.86611319  1
  O  O181  1  0.37625172  0.88704776  0.36972018  1
  O  O182  1  0.37156047  0.88381604  0.88316352  1
  O  O183  1  0.87460643  0.37922070  0.38389305  1
  O  O184  1  0.88185750  0.38722374  0.86955169  1
  O  O185  1  0.88321572  0.87075880  0.38062749  1
  O  O186  1  0.87938524  0.88098427  0.88155424  1
  O  O187  1  0.26067357  0.00054180  0.37687861  1
  O  O188  1  0.26038992  0.00513006  0.87040349  1
  O  O189  1  0.25672442  0.50704092  0.36915967  1
  O  O190  1  0.24690656  0.51433026  0.87679658  1
  O  O191  1  0.74985127  -0.00323089  0.36173996  1
  O  O192  1  0.75665311  0.00056505  0.86685121  1
  O  O193  1  0.75123135  0.51489659  0.38719351  1
  O  O194  1  0.75409494  0.49677612  0.86882664  1
  O  O195  1  0.24729684  0.50190188  0.13406095  1
  O  O196  1  0.23836225  0.49492502  0.62098677  1
  O  O197  1  0.24060790  1.00131834  0.11673558  1
  O  O198  1  0.24228302  0.99967035  0.63248444  1
  O  O199  1  0.74132597  0.48889761  0.12321722  1
  O  O200  1  0.75152540  0.48722051  0.63195230  1
  O  O201  1  0.74315080  0.99094910  0.13418574  1
  O  O202  1  0.74388255  0.99547492  0.62858916  1
  O  O203  1  0.01364447  0.38533500  0.24890802  1
  O  O204  1  0.01121495  0.37168942  0.75603191  1
  O  O205  1  0.00717526  0.88676251  0.25504402  1
  O  O206  1  -0.00090442  0.87139533  0.76639398  1
  O  O207  1  0.51812992  0.37253676  0.24755397  1
  O  O208  1  0.49916419  0.36415153  0.74493322  1
  O  O209  1  0.51146452  0.86823318  0.25218025  1
  O  O210  1  0.50912354  0.86624141  0.74295740  1
  O  O211  1  0.48791191  0.12442436  0.24951708  1
  O  O212  1  0.49401851  0.13153225  0.73845292  1
  O  O213  1  0.50377147  0.63444739  0.25273427  1
  O  O214  1  0.49077994  0.63042665  0.73987703  1
  O  O215  1  1.00040142  0.09440209  0.24563368  1
  O  O216  1  1.00092702  0.12817136  0.74231730  1
  O  O217  1  0.99635636  0.62743329  0.23496913  1
  O  O218  1  0.99354598  0.62836593  0.74373986  1
  O  O219  1  0.36838283  0.24318569  0.00794372  1
  O  O220  1  0.38148779  0.25812797  0.51229800  1
  O  O221  1  0.37094787  0.75652430  0.01005927  1
  O  O222  1  0.37677403  0.74892730  0.51141909  1
  O  O223  1  0.86957746  0.24524272  0.01337787  1
  O  O224  1  0.86800249  0.26246292  0.50989732  1
  O  O225  1  0.85932460  0.75727620  -0.00756252  1
  O  O226  1  0.86923030  0.75476318  0.50531307  1
  O  O227  1  0.12123483  0.23838049  0.50397162  1
  O  O228  1  0.13063051  0.24471398  0.99593057  1
  O  O229  1  0.12098102  0.73236294  0.48951236  1
  O  O230  1  0.13230348  0.74281813  1.00082807  1
  O  O231  1  0.64083925  0.25702336  0.50314035  1
  O  O232  1  0.62528530  0.24134546  0.99273957  1
  O  O233  1  0.63370290  0.75528588  0.49242519  1
  O  O234  1  0.63029894  0.75495174  0.99021773  1
  O  O235  1  0.49208628  0.24729934  0.12566987  1
  O  O236  1  0.49694555  0.24306011  0.62788175  1
  O  O237  1  0.48606763  0.75308171  0.13147901  1
  O  O238  1  0.49335075  0.73948558  0.63150427  1
  O  O239  1  0.98195103  0.25241567  0.12017737  1
  O  O240  1  0.99678378  0.24350773  0.63482562  1
  O  O241  1  0.99478946  0.73813154  0.11540866  1
  O  O242  1  0.99646316  0.74307286  0.63012277  1
  O  O243  1  0.00190979  0.24396843  0.36913601  1
  O  O244  1  0.00641434  0.25698276  0.87192027  1
  O  O245  1  0.01265523  0.75761708  0.37647328  1
  O  O246  1  -0.00177052  0.75659017  0.87121582  1
  O  O247  1  0.50121914  0.25222763  0.37914286  1
  O  O248  1  0.50369612  0.25873232  0.86588985  1
  O  O249  1  0.50550693  0.74883633  0.36917018  1
  O  O250  1  0.50417560  0.74909413  0.85836535  1
  O  O251  1  0.24051393  0.12554748  0.50658905  1
  O  O252  1  0.24470464  0.13538407  0.99240902  1
  O  O253  1  0.23972965  0.61587593  0.48752200  1
  O  O254  1  0.23968821  0.63350593  0.99571584  1
  O  O255  1  0.75635899  0.14383459  0.50893308  1
  O  O256  1  0.73557286  0.12045134  0.99485308  1
  O  O257  1  0.75555966  0.63722377  0.49570726  1
  O  O258  1  0.74297082  0.63436875  0.99832905  1
  O  O259  1  0.24416814  0.36305376  -0.00067177  1
  O  O260  1  0.25669685  0.38036666  0.51087266  1
  O  O261  1  0.25756600  0.86159104  -0.00497443  1
  O  O262  1  0.17306060  0.88642910  0.53340558  1
  O  O263  1  0.74356010  0.37421411  0.01645669  1
  O  O264  1  0.75660572  0.37167793  0.51291958  1
  O  O265  1  0.75202402  0.87003930  0.00789193  1
  O  O266  1  0.76056601  0.86474125  0.50409448  1
  O  O267  1  0.13264136  0.49336905  0.24832544  1
  O  O268  1  0.11851119  0.49238851  0.73886323  1
  O  O269  1  0.13392405  0.99057283  0.23859041  1
  O  O270  1  0.13482557  0.99171175  0.75256730  1
  O  O271  1  0.62415540  0.48773425  0.24102083  1
  O  O272  1  0.63612709  0.50636888  0.75445270  1
  O  O273  1  0.63169679  0.99036236  0.24641016  1
  O  O274  1  0.62792773  0.99324929  0.74288630  1
  O  O275  1  0.37524465  0.00402122  0.25981595  1
  O  O276  1  0.37130046  0.00115705  0.75568675  1
  O  O277  1  0.36842157  0.49238912  0.26499101  1
  O  O278  1  0.37671456  0.51285705  0.75188529  1
  O  O279  1  0.85534809  -0.01384312  0.25375677  1
  O  O280  1  0.87256855  0.00412072  0.75338945  1
  O  O281  1  0.88314277  0.52215170  0.25426315  1
  O  O282  1  0.86980726  0.50513076  0.75610785  1
  O  O283  1  0.11775787  0.37392315  0.36087635  1
  O  O284  1  0.12182194  0.37314582  0.86677442  1
  O  O285  1  0.11846460  0.86581454  0.36336730  1
  O  O286  1  0.11497248  0.87292234  0.87193127  1
  O  O287  1  0.63638905  0.37160118  0.35949115  1
  O  O288  1  0.61306991  0.36268667  0.87837907  1
  O  O289  1  0.62404732  0.86143535  0.36746537  1
  O  O290  1  0.62895442  0.86630760  0.86075113  1
  O  O291  1  0.37888083  0.13294379  0.13289991  1
  O  O292  1  0.38075555  0.13150344  0.62905206  1
  O  O293  1  0.37586783  0.63320172  0.12394167  1
  O  O294  1  0.37937490  0.63217302  0.63036010  1
  O  O295  1  0.87561263  0.13051744  0.12512400  1
  O  O296  1  0.88651278  0.12966660  0.63227011  1
  O  O297  1  0.88168703  0.62567195  0.13401423  1
  O  O298  1  0.87988058  0.62878712  0.63009527  1
  O  O299  1  0.26009406  0.25174371  0.11454187  1
  O  O300  1  0.25954519  0.26043311  0.62907067  1
  O  O301  1  0.26477655  0.74463612  0.11787941  1
  O  O302  1  0.26068532  0.74722957  0.62241583  1
  O  O303  1  0.76028000  0.26022729  0.12047215  1
  O  O304  1  0.75462139  0.26136316  0.62188903  1
  O  O305  1  0.74040712  0.75820432  0.11426427  1
  O  O306  1  0.75462356  0.75313426  0.61946870  1
  O  O307  1  0.23904980  0.24720394  0.37432069  1
  O  O308  1  0.24779069  0.24673268  0.87934456  1
  O  O309  1  0.23911004  0.73947815  0.36999735  1
  O  O310  1  0.24891406  0.73907159  0.88597947  1
  O  O311  1  0.75300609  0.25456090  0.39333886  1
  O  O312  1  0.74136508  0.25043048  0.87707623  1
  O  O313  1  0.74286935  0.74281319  0.38328899  1
  O  O314  1  0.73937428  0.74979207  0.88284423  1
  O  O315  1  0.01308953  0.11595998  -0.01014859  1
  O  O316  1  0.00610618  0.12560406  0.51658090  1
  O  O317  1  0.00360417  0.62099675  0.00608474  1
  O  O318  1  0.00517724  0.61737961  0.50485583  1
  O  O319  1  0.51080170  0.11368604  -0.00070400  1
  O  O320  1  0.49512284  0.11119148  0.51402298  1
  O  O321  1  0.50886643  0.62703125  -0.00798297  1
  O  O322  1  0.49755388  0.61518934  0.51225734  1
  O  O323  1  0.48741851  0.39151194  0.50958374  1
  O  O324  1  0.49884516  0.37194631  0.98890809  1
  O  O325  1  0.50448337  0.88701410  0.50127041  1
  O  O326  1  0.49230079  0.88666641  1.00072190  1
  O  O327  1  0.99224749  0.38156958  0.49807015  1
  O  O328  1  1.00862482  0.38957264  0.99057405  1
  O  O329  1  0.98898816  0.87081025  0.49671981  1
  O  O330  1  0.99535737  0.87898268  0.99127651  1
  O  O331  1  0.49238379  0.50934068  0.38923582  1
  O  O332  1  0.50250509  0.48179927  0.87209710  1
  O  O333  1  0.49204458  0.99682097  0.38335946  1
  O  O334  1  0.49167132  1.00380654  0.88091720  1
  O  O335  1  0.99826332  0.50248250  0.38788431  1
  O  O336  1  0.99114566  0.49721016  0.88156160  1
  O  O337  1  1.00014317  0.98436994  0.38240365  1
  O  O338  1  0.99639934  0.99175101  0.88313134  1
  O  O339  1  0.01582559  -0.00716035  0.10593335  1
  O  O340  1  0.01600690  0.00592126  0.62286920  1
  O  O341  1  -0.00101926  0.51146737  0.11381940  1
  O  O342  1  0.01058065  0.50393097  0.61539488  1
  O  O343  1  0.50779604  0.00165611  0.11584620  1
  O  O344  1  0.50705181  0.00536692  0.62104014  1
  O  O345  1  0.51279748  0.49536633  0.12600326  1
  O  O346  1  0.49422832  0.51394301  0.61483804  1
  O  O347  1  0.23829106  0.38726925  0.24799848  1
  O  O348  1  0.23868419  0.37364986  0.73987050  1
  O  O349  1  0.23922647  0.87582985  0.25124464  1
  O  O350  1  0.23790097  0.87761401  0.75941645  1
  O  O351  1  0.73838568  0.37307111  0.23494669  1
  O  O352  1  0.75312269  0.38193719  0.73651288  1
  O  O353  1  0.73884864  0.87439940  0.24424275  1
  O  O354  1  0.74442541  0.88002217  0.74269658  1
  O  O355  1  0.26365330  0.11895220  0.25024958  1
  O  O356  1  0.25751548  0.11898261  0.75523844  1
  O  O357  1  0.24387938  0.61245053  0.25984240  1
  O  O358  1  0.25626889  0.63071854  0.75808237  1
  O  O359  1  0.74688949  0.10838607  0.24431892  1
  O  O360  1  0.75817834  0.11790535  0.74977802  1
  O  O361  1  0.76039546  0.62962763  0.25924206  1
  O  O362  1  0.75743492  0.61610324  0.74964031  1
  O  O363  1  0.37291249  0.11119071  0.36990797  1
  O  O364  1  0.37264301  0.11719504  0.86829608  1
  O  O365  1  0.36430464  0.61827777  0.37873101  1
  O  O366  1  0.36505351  0.62686979  0.86233246  1
  O  O367  1  0.87084856  0.12549992  0.37546132  1
  O  O368  1  0.87629951  0.11852784  0.86823697  1
  O  O369  1  0.86715416  0.62460836  0.36818805  1
  O  O370  1  0.87112417  0.61318026  0.86737820  1
  O  O371  1  0.12751628  0.38051859  0.13324350  1
  O  O372  1  0.13075842  0.38163522  0.62943616  1
  O  O373  1  0.12534171  0.88162662  0.13035554  1
  O  O374  1  0.09817604  0.87754099  0.65327889  1
  O  O375  1  0.63248413  0.38300771  0.13202388  1
  O  O376  1  0.63629944  0.37308057  0.62519820  1
  O  O377  1  0.63000017  0.88029042  0.13203068  1
  O  O378  1  0.63151256  0.88021532  0.63425325  1
  O  O379  1  0.12778110  0.26479527  0.24238788  1
  O  O380  1  0.12174513  0.25780414  0.75691547  1
  O  O381  1  0.12564006  0.75599204  0.25385740  1
  O  O382  1  0.11633496  0.75605593  0.75498470  1
  O  O383  1  0.62291307  0.26107478  0.24797440  1
  O  O384  1  0.61566942  0.24397466  0.75835937  1
  O  O385  1  0.61707556  0.75486883  0.25533118  1
  O  O386  1  0.61767636  0.75774121  0.75364924  1
  O  O387  1  0.37558701  0.24338827  0.24205771  1
  O  O388  1  0.38359811  0.24539757  0.73736406  1
  O  O389  1  0.38131200  0.75276105  0.23599908  1
  O  O390  1  0.38052198  0.74235984  0.74289784  1
  O  O391  1  0.86966339  0.25138332  0.23365584  1
  O  O392  1  0.88217940  0.24453770  0.74820815  1
  O  O393  1  0.87925450  0.73327253  0.25616304  1
  O  O394  1  0.87853942  0.74282682  0.74566004  1
  O  O395  1  0.37931667  0.49357570  0.49022530  1
  O  O396  1  0.37676261  0.50008448  0.99014151  1
  O  O397  1  0.38172557  0.99877559  0.48902857  1
  O  O398  1  0.38118591  0.99468050  0.99314862  1
  O  O399  1  0.88257659  0.48967078  0.50334083  1
  O  O400  1  0.88179848  0.50783798  0.99046729  1
  O  O401  1  0.87607284  0.98845955  0.49797249  1
  O  O402  1  0.88291216  0.99533782  0.99594990  1
  O  O403  1  0.12188171  0.00726348  0.00050769  1
  O  O404  1  0.12067744  0.01873843  0.50348747  1
  O  O405  1  0.11602981  0.51395964  0.00158186  1
  O  O406  1  0.11859502  0.50502962  0.50424877  1
  O  O407  1  0.61838475  0.00249920  0.00172461  1
  O  O408  1  0.62185018  -0.00675031  0.51186534  1
  O  O409  1  0.61846017  0.50106649  0.01554687  1
  O  O410  1  0.60890628  0.49333732  0.49763024  1
  O  O411  1  0.37194546  0.36333212  0.13151117  1
  O  O412  1  0.36627243  0.37010136  0.61924580  1
  O  O413  1  0.37532502  0.87667238  0.11486773  1
  O  O414  1  0.37491388  0.85900858  0.62676350  1
  O  O415  1  0.86227840  0.37886593  0.12764485  1
  O  O416  1  0.87337277  0.36939346  0.61968847  1
  O  O417  1  0.86058483  0.87784249  0.11950251  1
  O  O418  1  0.87232311  0.86874465  0.61909825  1
  O  O419  1  0.13063161  0.12393484  0.39317972  1
  O  O420  1  0.13365922  0.13131024  0.88229595  1
  O  O421  1  0.12835606  0.62946233  0.37800156  1
  O  O422  1  0.12811067  0.62739233  0.88317077  1
  O  O423  1  0.63842584  0.13014459  0.37415828  1
  O  O424  1  0.62372087  0.13685551  0.88015212  1
  O  O425  1  0.63394006  0.63635701  0.36938929  1
  O  O426  1  0.62746350  0.64072792  0.86908744  1
