# generated using pymatgen
data_V85Zn86O256
_symmetry_space_group_name_H-M   'P 1'
_cell_length_a   16.93505589
_cell_length_b   16.93829994
_cell_length_c   16.95209065
_cell_angle_alpha   89.95927176
_cell_angle_beta   89.87710818
_cell_angle_gamma   90.04077118
_symmetry_Int_Tables_number   1
_chemical_formula_structural   V85Zn86O256
_chemical_formula_sum   'V85 Zn86 O256'
_cell_volume   4862.71145960
_cell_formula_units_Z   1
loop_
 _symmetry_equiv_pos_site_id
 _symmetry_equiv_pos_as_xyz
  1  'x, y, z'
loop_
 _atom_site_type_symbol
 _atom_site_label
 _atom_site_symmetry_multiplicity
 _atom_site_fract_x
 _atom_site_fract_y
 _atom_site_fract_z
 _atom_site_occupancy
  V  V0  1  0.37223861  -0.00534604  0.38355522  1
  V  V1  1  0.62709039  0.24961068  0.37552913  1
  V  V2  1  0.12499495  0.87374077  0.75404682  1
  V  V3  1  0.11378502  0.62030820  0.50731371  1
  V  V4  1  0.88272402  -0.01088174  0.37087170  1
  V  V5  1  0.74093460  0.24810873  0.00135583  1
  V  V6  1  0.75128058  0.00041651  0.24765606  1
  V  V7  1  0.36483378  0.37195639  -0.00034170  1
  V  V8  1  0.49560139  0.62706985  0.12139064  1
  V  V9  1  0.75187875  0.75604261  -0.00085702  1
  V  V10  1  0.11539963  0.75548705  0.37903567  1
  V  V11  1  0.62554837  0.87648384  0.74850883  1
  V  V12  1  -0.01063720  0.37961872  0.38253871  1
  V  V13  1  0.12513647  0.26058362  0.37013127  1
  V  V14  1  0.87498138  0.24971372  0.12136190  1
  V  V15  1  0.24814384  -0.01001690  0.24808772  1
  V  V16  1  0.37176648  0.62742901  0.24706307  1
  V  V17  1  0.62502634  0.37287030  0.74661819  1
  V  V18  1  0.36107442  0.76404014  0.12068552  1
  V  V19  1  0.12732914  -0.00694838  0.12331546  1
  V  V20  1  -0.00026836  -0.00026506  -0.00060872  1
  V  V21  1  0.88293825  0.74855605  0.11684249  1
  V  V22  1  0.37540971  0.24531856  0.62581583  1
  V  V23  1  0.50019996  0.75264578  0.24758527  1
  V  V24  1  0.11900943  0.00755228  0.62537394  1
  V  V25  1  0.75334038  0.12486329  0.37343877  1
  V  V26  1  0.88029890  0.74685792  0.62343977  1
  V  V27  1  0.24640854  0.25231155  0.50184744  1
  V  V28  1  0.25208495  0.75506388  0.49994972  1
  V  V29  1  -0.00425594  0.75464480  0.25359629  1
  V  V30  1  0.00654487  0.12629766  0.11789799  1
  V  V31  1  0.01766450  0.36665204  0.87388038  1
  V  V32  1  0.00018376  0.50456986  0.00381494  1
  V  V33  1  0.24616064  0.12504252  0.37440128  1
  V  V34  1  0.76572662  0.37311694  0.62189494  1
  V  V35  1  0.50095684  0.37533018  0.87565062  1
  V  V36  1  0.01141875  0.25146327  0.74070901  1
  V  V37  1  0.62573690  0.12536928  0.49943690  1
  V  V38  1  0.12604878  0.49669258  0.64411283  1
  V  V39  1  0.49714264  0.87919027  0.88913699  1
  V  V40  1  0.87739783  -0.00228250  0.87683646  1
  V  V41  1  -0.00041422  -0.00059231  0.49875229  1
  V  V42  1  0.37545572  0.75391966  0.62206879  1
  V  V43  1  0.24773064  0.62557639  0.37852002  1
  V  V44  1  0.37466708  0.37421970  0.50043291  1
  V  V45  1  0.74649863  0.73837472  0.49803205  1
  V  V46  1  0.75226304  0.62365676  0.87099718  1
  V  V47  1  0.50258466  0.62455782  0.62141380  1
  V  V48  1  0.74657732  0.12465335  0.87928293  1
  V  V49  1  0.24532543  0.76662266  -0.00587586  1
  V  V50  1  0.18931448  0.18270610  0.93655973  1
  V  V51  1  0.62388222  0.50131207  0.62309935  1
  V  V52  1  0.50496470  0.12116710  0.11005530  1
  V  V53  1  0.62401803  0.00101031  0.11342828  1
  V  V54  1  0.25423876  0.87862268  0.62225108  1
  V  V55  1  0.62438217  0.49987294  0.12339216  1
  V  V56  1  0.62735807  0.87572154  0.25033595  1
  V  V57  1  0.87394401  0.37549968  -0.00662661  1
  V  V58  1  0.37463252  0.00046928  0.89036873  1
  V  V59  1  0.00337225  0.74368210  0.74773846  1
  V  V60  1  0.49850330  0.87450975  0.38176827  1
  V  V61  1  0.62668693  0.00021570  0.62221745  1
  V  V62  1  0.76423055  0.25286836  0.50208770  1
  V  V63  1  0.37577831  0.12100181  0.25007541  1
  V  V64  1  0.00645670  0.26123401  0.24387768  1
  V  V65  1  0.49674368  0.50129054  0.00127670  1
  V  V66  1  0.25403653  0.00677867  0.75269320  1
  V  V67  1  0.87669789  0.62239170  0.25184214  1
  V  V68  1  0.50182262  0.24578390  0.74987131  1
  V  V69  1  0.62844310  0.73638487  0.37564256  1
  V  V70  1  0.50199262  0.37354403  0.37516366  1
  V  V71  1  0.00079485  0.87022834  0.87826027  1
  V  V72  1  0.50140410  0.50255800  0.50309162  1
  V  V73  1  0.36824892  0.62674502  0.75087376  1
  V  V74  1  0.36516009  0.50304461  0.87398692  1
  V  V75  1  0.62465389  0.74905840  0.87504401  1
  V  V76  1  0.87876443  0.12594073  0.24816417  1
  V  V77  1  0.50017404  0.75289515  0.74903552  1
  V  V78  1  0.12664882  0.62981678  -0.00140461  1
  V  V79  1  0.74736256  0.50421199  0.25583648  1
  V  V80  1  0.87981492  0.13320642  0.73819122  1
  V  V81  1  0.37409663  0.50320158  0.37833580  1
  V  V82  1  0.75391256  0.00163493  0.74916566  1
  V  V83  1  0.36675234  0.24592562  0.11831076  1
  V  V84  1  0.50120650  0.24644097  0.24936543  1
  Zn  Zn85  1  0.75211237  0.87437196  0.61776331  1
  Zn  Zn86  1  0.12313988  0.87096248  0.25051240  1
  Zn  Zn87  1  0.23753268  0.37241373  0.13124251  1
  Zn  Zn88  1  0.87649214  0.49955940  0.87161187  1
  Zn  Zn89  1  0.23403019  0.48822836  0.25413750  1
  Zn  Zn90  1  0.62190063  0.24310285  0.87896128  1
  Zn  Zn91  1  0.37576093  0.12287875  0.75689897  1
  Zn  Zn92  1  0.75291155  0.49900987  0.75054059  1
  Zn  Zn93  1  0.86364065  0.50254057  0.38593121  1
  Zn  Zn94  1  0.24171785  0.37728305  0.64661782  1
  Zn  Zn95  1  0.75064215  0.37807929  0.12343250  1
  Zn  Zn96  1  0.88164389  0.62121115  0.74779919  1
  Zn  Zn97  1  0.75452223  0.87608506  0.12014415  1
  Zn  Zn98  1  0.62669914  0.37517622  0.24840390  1
  Zn  Zn99  1  0.87732942  0.87066389  0.49618099  1
  Zn  Zn100  1  -0.01130646  0.49677158  0.51572111  1
  Zn  Zn101  1  0.24429372  0.63237202  0.87133608  1
  Zn  Zn102  1  0.11458519  0.13168520  0.50356672  1
  Zn  Zn103  1  0.12219857  0.49489328  0.12809406  1
  Zn  Zn104  1  0.50111188  0.12237973  0.62515710  1
  Zn  Zn105  1  0.49715616  -0.00321378  0.50228076  1
  Zn  Zn106  1  0.62477274  0.62501377  -0.00299736  1
  Zn  Zn107  1  0.18644938  0.18207505  0.18666063  1
  Zn  Zn108  1  0.18827033  0.18716512  0.68932908  1
  Zn  Zn109  1  0.16278918  0.65349892  0.20375517  1
  Zn  Zn110  1  0.18463917  0.68867933  0.68579311  1
  Zn  Zn111  1  0.68649292  0.18636250  0.18523938  1
  Zn  Zn112  1  0.69235080  0.18858834  0.68666551  1
  Zn  Zn113  1  0.68974609  0.68465389  0.18484031  1
  Zn  Zn114  1  0.68955125  0.68768097  0.68429280  1
  Zn  Zn115  1  0.31425533  0.30848497  0.31335200  1
  Zn  Zn116  1  0.30786177  0.31031601  0.81503422  1
  Zn  Zn117  1  0.31170109  0.81109746  0.31334487  1
  Zn  Zn118  1  0.31370024  0.81838125  0.81228386  1
  Zn  Zn119  1  0.81212074  0.31481131  0.30757671  1
  Zn  Zn120  1  0.81204296  0.30981780  0.81132276  1
  Zn  Zn121  1  0.80863961  0.80820861  0.31131227  1
  Zn  Zn122  1  0.81544542  0.81256646  0.81033284  1
  Zn  Zn123  1  0.18478186  0.43796326  0.44082158  1
  Zn  Zn124  1  0.18660051  0.44003978  0.94082182  1
  Zn  Zn125  1  0.18340006  0.93679237  0.43857320  1
  Zn  Zn126  1  0.18311784  0.95001857  0.93543996  1
  Zn  Zn127  1  0.68745109  0.43669672  0.44079701  1
  Zn  Zn128  1  0.68668537  0.43669030  0.93659497  1
  Zn  Zn129  1  0.69263123  0.93286630  0.43581864  1
  Zn  Zn130  1  0.68902017  0.93574211  0.93447411  1
  Zn  Zn131  1  0.31005310  0.06135755  0.06301341  1
  Zn  Zn132  1  0.30787049  0.06548210  0.56189754  1
  Zn  Zn133  1  0.30289724  0.56460792  0.06408168  1
  Zn  Zn134  1  0.30807120  0.56382232  0.56664812  1
  Zn  Zn135  1  0.81517424  0.06187274  0.06043426  1
  Zn  Zn136  1  0.81396238  0.06125978  0.55920742  1
  Zn  Zn137  1  0.81244549  0.56665831  0.06099348  1
  Zn  Zn138  1  0.81276310  0.56310550  0.56644821  1
  Zn  Zn139  1  0.40314340  0.42344802  0.20225752  1
  Zn  Zn140  1  0.40926556  0.42380386  0.70304626  1
  Zn  Zn141  1  0.43946172  0.93969734  0.18969054  1
  Zn  Zn142  1  0.43826342  0.93854632  0.68875021  1
  Zn  Zn143  1  0.93619650  0.43688551  0.18420749  1
  Zn  Zn144  1  0.94417780  0.43994218  0.69395138  1
  Zn  Zn145  1  0.93764619  0.93225151  0.18422543  1
  Zn  Zn146  1  0.93781697  0.93417744  0.68597062  1
  Zn  Zn147  1  0.06323094  0.06749115  0.31181338  1
  Zn  Zn148  1  0.06360764  0.06742446  0.81186910  1
  Zn  Zn149  1  0.05543665  0.56674427  0.31633167  1
  Zn  Zn150  1  0.06304227  0.56114136  0.82292774  1
  Zn  Zn151  1  0.56298036  0.06004010  0.31146357  1
  Zn  Zn152  1  0.56151586  0.06011015  0.81498866  1
  Zn  Zn153  1  0.55718876  0.56078377  0.30810431  1
  Zn  Zn154  1  0.55945801  0.56314820  0.80932992  1
  Zn  Zn155  1  0.43750389  0.18311811  0.43715575  1
  Zn  Zn156  1  0.43312780  0.18697190  0.93587050  1
  Zn  Zn157  1  0.43790778  0.69094560  0.43925268  1
  Zn  Zn158  1  0.43177918  0.69280687  0.93932852  1
  Zn  Zn159  1  0.94218035  0.18322713  0.43404116  1
  Zn  Zn160  1  0.93666837  0.18743644  0.93402723  1
  Zn  Zn161  1  0.93105797  0.68271329  0.43590984  1
  Zn  Zn162  1  0.93898401  0.68638493  0.93400855  1
  Zn  Zn163  1  0.07007935  0.31355283  0.05610298  1
  Zn  Zn164  1  0.06306031  0.31881518  0.56555533  1
  Zn  Zn165  1  0.06312998  0.81256375  0.06148184  1
  Zn  Zn166  1  0.06210962  0.81924292  0.56375351  1
  Zn  Zn167  1  0.55727092  0.31496553  0.06407858  1
  Zn  Zn168  1  0.56358970  0.31158088  0.56263575  1
  Zn  Zn169  1  0.56507455  0.81057678  0.06478804  1
  Zn  Zn170  1  0.56707702  0.81103507  0.56056307  1
  O  O171  1  0.11107440  0.11336498  0.13247913  1
  O  O172  1  0.13230735  0.11138596  0.62161804  1
  O  O173  1  0.12232010  0.62462411  0.10267657  1
  O  O174  1  0.13066199  0.61710501  0.61230450  1
  O  O175  1  0.61257905  0.11665784  0.12931422  1
  O  O176  1  0.62743377  0.11773066  0.61674367  1
  O  O177  1  0.61514996  0.61550031  0.12316284  1
  O  O178  1  0.61503313  0.61461524  0.63195784  1
  O  O179  1  0.38188695  0.37791769  0.38648453  1
  O  O180  1  0.38330030  0.38365625  0.88371141  1
  O  O181  1  0.38470774  0.88268918  0.36926750  1
  O  O182  1  0.39092850  0.88342331  0.87099413  1
  O  O183  1  0.88673892  0.37580135  0.37252226  1
  O  O184  1  0.87294171  0.37453544  0.88598388  1
  O  O185  1  0.87128681  0.88685529  0.37018648  1
  O  O186  1  0.88397488  0.89029162  0.86536116  1
  O  O187  1  0.25442462  0.00303442  0.37078945  1
  O  O188  1  0.26738324  -0.01160126  0.86684827  1
  O  O189  1  0.25494713  0.50857991  0.37466120  1
  O  O190  1  0.26294966  0.50406162  0.87899164  1
  O  O191  1  0.75760754  0.00656240  0.36680217  1
  O  O192  1  0.75807363  0.00418866  0.87015275  1
  O  O193  1  0.74648620  0.49406844  0.36058647  1
  O  O194  1  0.74835227  0.51017014  0.87309845  1
  O  O195  1  0.24844838  0.49558897  0.13280686  1
  O  O196  1  0.23198797  0.49726780  0.61653160  1
  O  O197  1  0.23951039  1.00567556  0.13532052  1
  O  O198  1  0.24654398  0.99365498  0.63008044  1
  O  O199  1  0.73884425  0.50195372  0.12891762  1
  O  O200  1  0.74057911  0.48814873  0.62658218  1
  O  O201  1  0.74470578  0.99872912  0.13033282  1
  O  O202  1  0.74118582  0.99824622  0.62976970  1
  O  O203  1  -0.00601827  0.36422114  0.25661118  1
  O  O204  1  -0.00444396  0.36192653  0.76465119  1
  O  O205  1  -0.00042791  0.85913349  0.24954209  1
  O  O206  1  0.00885271  0.87068524  0.75618141  1
  O  O207  1  0.49429481  0.36078328  0.25643370  1
  O  O208  1  0.50348421  0.36316114  0.75423117  1
  O  O209  1  0.50783071  0.87081190  0.25795943  1
  O  O210  1  0.51163405  0.87194462  0.75398585  1
  O  O211  1  0.49612719  0.13352990  0.24850933  1
  O  O212  1  0.50219924  0.13505541  0.74820249  1
  O  O213  1  0.49145698  0.63451252  0.24292177  1
  O  O214  1  0.49452201  0.63567596  0.73976066  1
  O  O215  1  0.99427541  0.13660867  0.24328995  1
  O  O216  1  0.98900392  0.13740105  0.75600717  1
  O  O217  1  0.98361784  0.63436094  0.24917968  1
  O  O218  1  1.00434232  0.64111400  0.75997791  1
  O  O219  1  0.38067959  0.25830478  0.00737165  1
  O  O220  1  0.36912877  0.25421385  0.50305857  1
  O  O221  1  0.36286871  0.75078513  0.01269112  1
  O  O222  1  0.36067494  0.74697728  0.50630623  1
  O  O223  1  0.86651430  0.25577986  0.00382661  1
  O  O224  1  0.86277559  0.24213840  0.49344147  1
  O  O225  1  0.87050155  0.74353869  0.01104360  1
  O  O226  1  0.86601791  0.74898483  0.50401774  1
  O  O227  1  0.13170363  0.25231053  0.49458389  1
  O  O228  1  0.12250528  0.23920357  0.98968309  1
  O  O229  1  0.13103577  0.74252209  0.49872292  1
  O  O230  1  0.13698415  0.74551889  1.00272175  1
  O  O231  1  0.63173467  0.24197635  0.49462278  1
  O  O232  1  0.63700031  0.25655052  1.00060299  1
  O  O233  1  0.63650593  0.75262134  0.49006852  1
  O  O234  1  0.63322085  0.74761168  0.99352370  1
  O  O235  1  0.49778572  0.23771664  0.13183039  1
  O  O236  1  0.49438720  0.24611145  0.63140039  1
  O  O237  1  0.49217723  0.74493573  0.12840370  1
  O  O238  1  0.49609407  0.74589857  0.62675614  1
  O  O239  1  0.99679821  0.24343032  0.12836675  1
  O  O240  1  1.00143969  0.25769376  0.64118784  1
  O  O241  1  0.98798162  0.75071318  0.13005132  1
  O  O242  1  0.99322577  0.75587315  0.63369609  1
  O  O243  1  0.00573694  0.25993354  0.36718267  1
  O  O244  1  -0.00401467  0.26259519  0.87018542  1
  O  O245  1  0.00459987  0.74431391  0.36850613  1
  O  O246  1  -0.00705176  0.76507600  0.86691598  1
  O  O247  1  0.50593868  0.25109988  0.36829102  1
  O  O248  1  0.50224035  0.25380659  0.86737893  1
  O  O249  1  0.50497540  0.75738267  0.36883108  1
  O  O250  1  0.50273767  0.76130274  0.87055885  1
  O  O251  1  0.24850287  0.13956771  0.49346311  1
  O  O252  1  0.24873065  0.13302222  1.00318953  1
  O  O253  1  0.24356086  0.63270668  0.49220042  1
  O  O254  1  0.24112366  0.63598987  0.99611420  1
  O  O255  1  0.74216172  0.13086481  0.49514437  1
  O  O256  1  0.75664944  0.13455246  0.99143994  1
  O  O257  1  0.74746453  0.63914943  0.50319645  1
  O  O258  1  0.74784502  0.63479678  0.98753721  1
  O  O259  1  0.26260987  0.37821693  0.00386141  1
  O  O260  1  0.25830766  0.36483097  0.49824634  1
  O  O261  1  0.23934526  0.86531931  -0.00229025  1
  O  O262  1  0.24435450  0.86683265  0.50942090  1
  O  O263  1  0.75594953  0.36783143  0.00177586  1
  O  O264  1  0.74697970  0.36741579  0.51353733  1
  O  O265  1  0.74948075  0.86064339  -0.00235249  1
  O  O266  1  0.75572573  0.86375381  0.49930829  1
  O  O267  1  0.13158861  0.53833756  0.23990727  1
  O  O268  1  0.12872066  0.50895130  0.74245005  1
  O  O269  1  0.13181353  0.99851310  0.24611083  1
  O  O270  1  0.13073187  0.99416836  0.74260708  1
  O  O271  1  0.62938861  0.50018780  0.24131282  1
  O  O272  1  0.62340025  0.49089555  0.73980491  1
  O  O273  1  0.63137896  0.99274592  0.24434513  1
  O  O274  1  0.63038863  0.99517383  0.74218920  1
  O  O275  1  0.36772533  0.00381990  0.25808577  1
  O  O276  1  0.36846055  0.00071882  0.75544834  1
  O  O277  1  0.38321864  0.51988111  0.26103028  1
  O  O278  1  0.39365424  0.51899255  0.76480411  1
  O  O279  1  0.87302942  0.00501067  0.25296394  1
  O  O280  1  0.87314937  0.00914541  0.75495250  1
  O  O281  1  0.86734217  0.51005194  0.24600996  1
  O  O282  1  0.87152181  0.50398886  0.75331544  1
  O  O283  1  0.11831083  0.36608996  0.37459834  1
  O  O284  1  0.11635863  0.37454618  0.87679990  1
  O  O285  1  0.12816238  0.85883653  0.37382992  1
  O  O286  1  0.11509441  0.88519685  0.86295402  1
  O  O287  1  0.61815788  0.36824994  0.37228603  1
  O  O288  1  0.61993652  0.37383514  0.86153645  1
  O  O289  1  0.61870251  0.87120860  0.36374856  1
  O  O290  1  0.61526010  0.87214966  0.86778415  1
  O  O291  1  0.38712562  0.12724847  0.12833411  1
  O  O292  1  0.37843860  0.13613208  0.62173165  1
  O  O293  1  0.37647808  0.63394158  0.13276911  1
  O  O294  1  0.38018794  0.63134818  0.63207092  1
  O  O295  1  0.88409300  0.12944024  0.13068237  1
  O  O296  1  0.87084103  0.12133634  0.64008503  1
  O  O297  1  0.86907323  0.63914532  0.13487250  1
  O  O298  1  0.86769944  0.64183456  0.63157999  1
  O  O299  1  0.26445574  0.24939531  0.13355753  1
  O  O300  1  0.25701539  0.25443212  0.61927093  1
  O  O301  1  0.25977097  0.75230032  0.11754091  1
  O  O302  1  0.25324260  0.75843984  0.61826664  1
  O  O303  1  0.75586733  0.25020570  0.11788197  1
  O  O304  1  0.74733190  0.26394658  0.61674004  1
  O  O305  1  0.75590056  0.75045792  0.11430641  1
  O  O306  1  0.75239771  0.75309957  0.61274981  1
  O  O307  1  0.24308243  0.24823010  0.38027911  1
  O  O308  1  0.25095338  0.23966864  0.87636464  1
  O  O309  1  0.24378270  0.74520374  0.38397443  1
  O  O310  1  0.26011761  0.75300331  0.89069526  1
  O  O311  1  0.74520642  0.24615040  0.37915145  1
  O  O312  1  0.74767123  0.24158142  0.88299211  1
  O  O313  1  0.74147083  0.75017214  0.38532476  1
  O  O314  1  0.74592094  0.74629346  0.87950105  1
  O  O315  1  -0.00813050  0.11764321  0.00982394  1
  O  O316  1  0.00011354  0.10971291  0.49776704  1
  O  O317  1  0.00961531  0.61604416  -0.01086131  1
  O  O318  1  0.01272958  0.62768988  0.49905841  1
  O  O319  1  0.50225740  0.12831076  0.01203344  1
  O  O320  1  0.51509707  0.12193228  0.49914499  1
  O  O321  1  0.49857031  0.61986963  0.00436361  1
  O  O322  1  0.49398995  0.62185403  0.51384139  1
  O  O323  1  0.49498709  0.37887588  0.49302321  1
  O  O324  1  0.49534428  0.38371462  0.99314997  1
  O  O325  1  0.50594954  0.87622505  0.48571615  1
  O  O326  1  0.50461948  0.87185009  0.98712877  1
  O  O327  1  1.00181496  0.37604809  0.48525604  1
  O  O328  1  0.99304673  0.37756912  0.98769237  1
  O  O329  1  0.99640416  0.89029241  0.50043126  1
  O  O330  1  1.00363098  0.88254306  0.98853039  1
  O  O331  1  0.49425107  0.49588199  0.38284142  1
  O  O332  1  0.49651617  0.49819462  0.88670845  1
  O  O333  1  0.49110121  0.99216384  0.37481566  1
  O  O334  1  0.49212903  0.98743958  0.87318414  1
  O  O335  1  0.99834807  0.48393751  0.37064776  1
  O  O336  1  0.99798644  0.48408643  0.88202702  1
  O  O337  1  0.99148324  1.00438942  0.37876105  1
  O  O338  1  0.99489037  0.99677954  0.88089939  1
  O  O339  1  0.00118431  0.00575446  0.11802478  1
  O  O340  1  0.00978939  -0.00378529  0.61851894  1
  O  O341  1  -0.00261203  0.49576244  0.10713965  1
  O  O342  1  0.01791349  0.49822009  0.62763062  1
  O  O343  1  0.50693116  0.01342708  0.13038585  1
  O  O344  1  0.51238727  0.00100865  0.62226996  1
  O  O345  1  0.50157905  0.50642939  0.11267180  1
  O  O346  1  0.50364798  0.50782594  0.62137119  1
  O  O347  1  0.28875674  0.38741379  0.23978986  1
  O  O348  1  0.30221993  0.38925936  0.73932748  1
  O  O349  1  0.24691516  0.88656325  0.25461656  1
  O  O350  1  0.24320491  0.88266276  0.74345420  1
  O  O351  1  0.74869932  0.38592456  0.24220718  1
  O  O352  1  0.74152680  0.37233014  0.73902210  1
  O  O353  1  0.74156300  0.88078014  0.24777835  1
  O  O354  1  0.73826255  0.88189748  0.75168342  1
  O  O355  1  0.25558169  0.11520343  0.25678217  1
  O  O356  1  0.25422627  0.11002457  0.74423444  1
  O  O357  1  0.25976821  0.63563394  0.26728795  1
  O  O358  1  0.26379309  0.63489311  0.75091579  1
  O  O359  1  0.75771239  0.12029184  0.25243996  1
  O  O360  1  0.76098799  0.12188797  0.75563696  1
  O  O361  1  0.75931178  0.61548435  0.24547381  1
  O  O362  1  0.74753656  0.62617307  0.76228529  1
  O  O363  1  0.36799649  0.11716972  0.36949145  1
  O  O364  1  0.38432631  0.10487942  0.87444820  1
  O  O365  1  0.36765719  0.62474595  0.37200130  1
  O  O366  1  0.37451045  0.62113801  0.86816449  1
  O  O367  1  0.87076597  0.11883686  0.36417825  1
  O  O368  1  0.86699501  0.11474183  0.86753288  1
  O  O369  1  0.87201963  0.62206759  0.35696823  1
  O  O370  1  0.86532826  0.62421882  0.87056657  1
  O  O371  1  0.12359907  0.37769588  0.12778811  1
  O  O372  1  0.12874243  0.38949909  0.62829128  1
  O  O373  1  0.11669768  0.88891635  0.13128381  1
  O  O374  1  0.13600454  0.88509059  0.63190844  1
  O  O375  1  0.62102932  0.38934059  0.12711158  1
  O  O376  1  0.62472751  0.38013813  0.63523303  1
  O  O377  1  0.62464050  0.88145507  0.13614741  1
  O  O378  1  0.62695805  0.88259986  0.63180393  1
  O  O379  1  0.11692262  0.24570518  0.25725006  1
  O  O380  1  0.11117449  0.24334987  0.75064500  1
  O  O381  1  0.11318098  0.74409417  0.26028591  1
  O  O382  1  0.11913410  0.76393033  0.74294292  1
  O  O383  1  0.61757725  0.25154379  0.25477353  1
  O  O384  1  0.61870117  0.25587306  0.75000855  1
  O  O385  1  0.62230168  0.75706585  0.25365322  1
  O  O386  1  0.62125044  0.75925854  0.75392224  1
  O  O387  1  0.38408273  0.23906509  0.24384500  1
  O  O388  1  0.38415812  0.24275395  0.74113033  1
  O  O389  1  0.37780561  0.74419500  0.24167879  1
  O  O390  1  0.38217454  0.74722104  0.74343218  1
  O  O391  1  0.88179842  0.24570794  0.24051906  1
  O  O392  1  0.88054597  0.23683453  0.75334583  1
  O  O393  1  0.87624081  0.74090710  0.24395014  1
  O  O394  1  0.88556122  0.75082880  0.74207324  1
  O  O395  1  0.37872727  0.49236571  0.49780894  1
  O  O396  1  0.38071148  0.49567827  0.99426874  1
  O  O397  1  0.37540498  1.00537852  0.48733763  1
  O  O398  1  0.37128015  0.99613567  0.98928801  1
  O  O399  1  0.87910954  0.50952661  0.49661495  1
  O  O400  1  0.87981168  0.49320031  0.99699236  1
  O  O401  1  0.88001072  0.99894886  0.48812508  1
  O  O402  1  0.88645537  1.00077693  0.99094270  1
  O  O403  1  0.11103568  -0.00057808  0.00970285  1
  O  O404  1  0.11775509  0.00195233  0.50688500  1
  O  O405  1  0.11757338  0.51024108  -0.00015901  1
  O  O406  1  0.11849360  0.51420089  0.49741263  1
  O  O407  1  0.63073928  -0.00662443  0.01422936  1
  O  O408  1  0.62789385  0.00624213  0.50605737  1
  O  O409  1  0.61658392  0.50201867  0.00611189  1
  O  O410  1  0.61745009  0.49369314  0.51439975  1
  O  O411  1  0.38642332  0.35895651  0.11099828  1
  O  O412  1  0.38523539  0.36046655  0.60758585  1
  O  O413  1  0.37816939  0.86180817  0.13200910  1
  O  O414  1  0.36295430  0.87079692  0.62943466  1
  O  O415  1  0.87532784  0.36722043  0.11102753  1
  O  O416  1  0.86320550  0.37911456  0.62956972  1
  O  O417  1  0.87051712  0.85463016  0.13041262  1
  O  O418  1  0.87093058  0.86282554  0.62387544  1
  O  O419  1  0.13025139  0.13910160  0.37808153  1
  O  O420  1  0.13953932  0.11153130  0.88075424  1
  O  O421  1  0.13076102  0.63433851  0.38766886  1
  O  O422  1  0.12957399  0.62583818  0.88921068  1
  O  O423  1  0.63291622  0.12768804  0.38055579  1
  O  O424  1  0.64143294  0.12243565  0.86968041  1
  O  O425  1  0.61622321  0.63795717  0.36930237  1
  O  O426  1  0.62847515  0.63397620  0.87386340  1
