# generated using pymatgen
data_V85Zn86O256
_symmetry_space_group_name_H-M   'P 1'
_cell_length_a   16.92318112
_cell_length_b   16.93746353
_cell_length_c   16.92727070
_cell_angle_alpha   89.98563765
_cell_angle_beta   89.98825962
_cell_angle_gamma   89.98318960
_symmetry_Int_Tables_number   1
_chemical_formula_structural   V85Zn86O256
_chemical_formula_sum   'V85 Zn86 O256'
_cell_volume   4851.96069124
_cell_formula_units_Z   1
loop_
 _symmetry_equiv_pos_site_id
 _symmetry_equiv_pos_as_xyz
  1  'x, y, z'
loop_
 _atom_site_type_symbol
 _atom_site_label
 _atom_site_symmetry_multiplicity
 _atom_site_fract_x
 _atom_site_fract_y
 _atom_site_fract_z
 _atom_site_occupancy
  V  V0  1  0.75335492  0.88332673  0.63305672  1
  V  V1  1  0.49857224  0.12545505  0.62524976  1
  V  V2  1  0.24863938  0.73945984  0.00133128  1
  V  V3  1  0.37694029  -0.00007435  0.87537414  1
  V  V4  1  0.24363244  0.24257816  0.48076435  1
  V  V5  1  0.62020591  0.50630279  0.62720951  1
  V  V6  1  0.62192140  0.88727120  0.24764969  1
  V  V7  1  0.19189223  0.18870342  0.06891741  1
  V  V8  1  0.12645687  0.00291594  0.61562104  1
  V  V9  1  0.25042351  0.49884989  0.25313006  1
  V  V10  1  0.24587436  0.88428203  0.12421507  1
  V  V11  1  0.50676803  -0.00687906  0.00012690  1
  V  V12  1  0.49929997  0.74934022  0.24900384  1
  V  V13  1  0.38134846  0.61717791  0.24769512  1
  V  V14  1  0.25019093  0.74832515  0.50308048  1
  V  V15  1  0.37914320  0.74475430  0.12488938  1
  V  V16  1  0.75376340  0.12442522  0.37188849  1
  V  V17  1  0.24867413  0.62777782  0.85836507  1
  V  V18  1  0.49333915  0.50803684  0.50273134  1
  V  V19  1  0.61644088  0.88291702  0.75286879  1
  V  V20  1  0.00007146  0.75376981  0.24985055  1
  V  V21  1  0.49689735  0.87965666  0.37533294  1
  V  V22  1  0.61962588  0.75242587  0.87402599  1
  V  V23  1  0.87613722  0.37581815  0.50135857  1
  V  V24  1  0.49757109  0.50136796  0.00621225  1
  V  V25  1  0.62563053  0.12462726  0.49979358  1
  V  V26  1  0.49950679  0.38364659  0.37333340  1
  V  V27  1  0.38147857  0.25108199  0.12030700  1
  V  V28  1  0.63220943  0.37901197  0.25038291  1
  V  V29  1  0.24378182  0.13110900  0.87806842  1
  V  V30  1  0.36825926  0.37456933  -0.00170587  1
  V  V31  1  0.75413461  0.24977563  0.50134706  1
  V  V32  1  0.12345821  0.37265365  0.75304274  1
  V  V33  1  0.11864673  0.62464744  0.49750697  1
  V  V34  1  0.12750621  0.87819816  0.75109170  1
  V  V35  1  0.88221666  0.24899004  0.12783302  1
  V  V36  1  0.50778068  0.12169705  0.12142401  1
  V  V37  1  0.62679833  0.25279642  0.87511078  1
  V  V38  1  0.87385056  0.62612604  0.24386004  1
  V  V39  1  0.00026224  0.23972667  0.75311353  1
  V  V40  1  0.37838462  0.87190689  -0.00437401  1
  V  V41  1  0.37530020  0.50494140  0.86586466  1
  V  V42  1  -0.00168950  0.50118535  0.50234486  1
  V  V43  1  0.62084069  0.62667118  0.00076926  1
  V  V44  1  0.87234022  0.87692122  -0.00129879  1
  V  V45  1  0.49676566  0.73657145  0.74744244  1
  V  V46  1  0.62476610  0.75245440  0.37615938  1
  V  V47  1  0.25641823  0.62148305  0.37548954  1
  V  V48  1  0.62981071  0.25511847  0.37720960  1
  V  V49  1  0.63196018  0.12159907  0.00011024  1
  V  V50  1  0.74948865  0.37756186  0.62690064  1
  V  V51  1  0.87233719  0.50103500  0.36836386  1
  V  V52  1  0.49588282  0.00027891  0.50283004  1
  V  V53  1  0.49791602  0.25216973  0.75034630  1
  V  V54  1  0.88081982  0.87410627  0.50513418  1
  V  V55  1  0.87745805  -0.00413935  0.37796012  1
  V  V56  1  0.87649148  0.24443298  0.62941047  1
  V  V57  1  0.12095739  0.74597149  0.88095110  1
  V  V58  1  0.01001691  0.01035239  0.01225283  1
  V  V59  1  0.88697519  0.12243892  0.24157000  1
  V  V60  1  -0.00442953  0.37601854  0.88255693  1
  V  V61  1  0.62213050  0.62731040  0.50269375  1
  V  V62  1  0.87048304  0.50140331  0.88117187  1
  V  V63  1  0.00010963  0.36752344  0.37197589  1
  V  V64  1  0.11995986  0.37056981  0.25220362  1
  V  V65  1  0.87468135  0.00457004  0.86126034  1
  V  V66  1  0.74869666  0.62516407  0.36974210  1
  V  V67  1  0.37701174  0.73454869  0.62846007  1
  V  V68  1  0.37159691  0.24841855  0.62287005  1
  V  V69  1  0.12511948  0.50780420  0.11891274  1
  V  V70  1  0.75796464  0.25274136  0.00031713  1
  V  V71  1  0.00271995  0.12224206  0.61065039  1
  V  V72  1  0.87830439  0.62791414  0.73690846  1
  V  V73  1  0.49847247  0.23913266  0.25971841  1
  V  V74  1  0.25553699  0.00019533  0.27451794  1
  V  V75  1  0.75396416  0.75156805  0.50921620  1
  V  V76  1  0.00006610  0.87636383  0.87525411  1
  V  V77  1  0.24778283  0.36947058  0.62298066  1
  V  V78  1  0.37493870  0.87515125  0.50145882  1
  V  V79  1  0.12114642  0.49878416  0.62553991  1
  V  V80  1  0.74315841  0.88189854  0.12217972  1
  V  V81  1  0.62646636  0.50785265  0.12932761  1
  V  V82  1  0.75470764  0.37878125  0.12405366  1
  V  V83  1  0.75564544  0.12350110  0.86077676  1
  V  V84  1  0.37291094  0.37805877  0.49299710  1
  Zn  Zn85  1  0.74748487  0.75104235  -0.00121495  1
  Zn  Zn86  1  0.24729323  0.37200050  0.12325535  1
  Zn  Zn87  1  -0.00056003  0.50820385  -0.00096500  1
  Zn  Zn88  1  0.49893796  0.37551714  0.87640899  1
  Zn  Zn89  1  0.25166523  0.50346800  0.74518635  1
  Zn  Zn90  1  0.12472320  0.24977191  0.89069621  1
  Zn  Zn91  1  0.62855712  0.00426238  0.63077892  1
  Zn  Zn92  1  0.74473623  0.00434550  0.24414705  1
  Zn  Zn93  1  0.00186785  0.87378817  0.37863391  1
  Zn  Zn94  1  0.74855513  0.62730823  0.87251893  1
  Zn  Zn95  1  -0.00894204  0.74977786  0.73874660  1
  Zn  Zn96  1  0.62380144  0.37878865  0.75130648  1
  Zn  Zn97  1  0.36779678  0.12293429  0.25201008  1
  Zn  Zn98  1  0.25369074  0.87738974  0.62898156  1
  Zn  Zn99  1  0.74880183  0.50345963  0.74992124  1
  Zn  Zn100  1  0.25193260  0.00195168  0.75086571  1
  Zn  Zn101  1  0.13218884  0.11656584  0.47214998  1
  Zn  Zn102  1  0.87248486  0.75207185  0.12178209  1
  Zn  Zn103  1  0.12475784  0.87501251  0.24835519  1
  Zn  Zn104  1  0.00817546  0.63394759  0.11669763  1
  Zn  Zn105  1  0.12580569  0.75056045  0.37160860  1
  Zn  Zn106  1  0.37322756  0.12440697  0.75196448  1
  Zn  Zn107  1  0.15638709  0.16547028  0.26691131  1
  Zn  Zn108  1  0.18634565  0.18561827  0.69039163  1
  Zn  Zn109  1  0.19127438  0.68954864  0.18860159  1
  Zn  Zn110  1  0.15927422  0.69795470  0.67757587  1
  Zn  Zn111  1  0.68702627  0.19051452  0.18749519  1
  Zn  Zn112  1  0.68466605  0.19017815  0.68681124  1
  Zn  Zn113  1  0.68760465  0.69470137  0.18596773  1
  Zn  Zn114  1  0.68990912  0.68875160  0.69041531  1
  Zn  Zn115  1  0.31412949  0.31532784  0.30696918  1
  Zn  Zn116  1  0.31046153  0.31205492  0.81434566  1
  Zn  Zn117  1  0.31267270  0.81162354  0.31344776  1
  Zn  Zn118  1  0.31253698  0.81253400  0.81256774  1
  Zn  Zn119  1  0.81787424  0.31039943  0.30938166  1
  Zn  Zn120  1  0.81402602  0.31470561  0.81037396  1
  Zn  Zn121  1  0.80978025  0.81252847  0.31206358  1
  Zn  Zn122  1  0.80927120  0.81031624  0.81105578  1
  Zn  Zn123  1  0.18720089  0.43581194  0.43375397  1
  Zn  Zn124  1  0.18889151  0.43972919  0.93456876  1
  Zn  Zn125  1  0.18410884  0.92905812  0.43886440  1
  Zn  Zn126  1  0.18975893  0.93876925  0.94101594  1
  Zn  Zn127  1  0.68819634  0.44278694  0.44077053  1
  Zn  Zn128  1  0.68888171  0.43718009  0.94078497  1
  Zn  Zn129  1  0.68875258  0.93875513  0.43990542  1
  Zn  Zn130  1  0.69000230  0.93814836  0.92956040  1
  Zn  Zn131  1  0.32213864  0.06144236  0.06349686  1
  Zn  Zn132  1  0.31013279  0.06336367  0.56018934  1
  Zn  Zn133  1  0.31111764  0.56099473  0.06390266  1
  Zn  Zn134  1  0.30770483  0.55914212  0.56385598  1
  Zn  Zn135  1  0.81507501  0.05911099  0.05756922  1
  Zn  Zn136  1  0.81659587  0.06090811  0.56246629  1
  Zn  Zn137  1  0.80761547  0.56284159  0.05865103  1
  Zn  Zn138  1  0.80976945  0.56348377  0.56072652  1
  Zn  Zn139  1  0.44009392  0.43481823  0.18687084  1
  Zn  Zn140  1  0.43714988  0.43545522  0.68434715  1
  Zn  Zn141  1  0.43299101  0.93866709  0.18384586  1
  Zn  Zn142  1  0.43761130  0.93446569  0.68753748  1
  Zn  Zn143  1  0.93850981  0.44037449  0.18535844  1
  Zn  Zn144  1  0.93713787  0.43906941  0.69342453  1
  Zn  Zn145  1  0.93253490  0.93672261  0.18610278  1
  Zn  Zn146  1  0.94234741  0.93813400  0.68442094  1
  Zn  Zn147  1  0.06036313  0.03904497  0.29996691  1
  Zn  Zn148  1  0.06327372  0.06120505  0.81516155  1
  Zn  Zn149  1  0.06091339  0.56278991  0.31040711  1
  Zn  Zn150  1  0.05918493  0.56458597  0.81365095  1
  Zn  Zn151  1  0.54747255  0.07037371  0.32153048  1
  Zn  Zn152  1  0.56006349  0.06577592  0.81650553  1
  Zn  Zn153  1  0.56280760  0.56235042  0.31402140  1
  Zn  Zn154  1  0.56141694  0.56225975  0.81560222  1
  Zn  Zn155  1  0.43774332  0.19180671  0.43566000  1
  Zn  Zn156  1  0.43798527  0.18539343  0.93753718  1
  Zn  Zn157  1  0.43472602  0.68899360  0.43505351  1
  Zn  Zn158  1  0.43863949  0.68472779  0.93315734  1
  Zn  Zn159  1  0.98317498  0.15871741  0.39747776  1
  Zn  Zn160  1  0.93880719  0.18505922  0.93980030  1
  Zn  Zn161  1  0.93536652  0.68959325  0.43616505  1
  Zn  Zn162  1  0.93674358  0.68597096  0.93633834  1
  Zn  Zn163  1  0.05954869  0.32284156  0.06807550  1
  Zn  Zn164  1  0.06260356  0.30905898  0.55914535  1
  Zn  Zn165  1  0.06032329  0.81486396  0.06189787  1
  Zn  Zn166  1  0.06291150  0.81082768  0.56664449  1
  Zn  Zn167  1  0.56375847  0.31469143  0.06203063  1
  Zn  Zn168  1  0.56183082  0.31623974  0.56233360  1
  Zn  Zn169  1  0.56132228  0.81280474  0.06451593  1
  Zn  Zn170  1  0.56331980  0.81231660  0.56947424  1
  O  O171  1  0.14386424  0.14211655  0.14068834  1
  O  O172  1  0.11881577  0.11672882  0.62687255  1
  O  O173  1  0.12784554  0.61148768  0.13145591  1
  O  O174  1  0.13713422  0.60344292  0.61030590  1
  O  O175  1  0.62999932  0.13025424  0.10446818  1
  O  O176  1  0.61803811  0.12529408  0.61796672  1
  O  O177  1  0.62935939  0.61518076  0.12126277  1
  O  O178  1  0.63100546  0.61398442  0.61876215  1
  O  O179  1  0.38412126  0.37078160  0.38433901  1
  O  O180  1  0.37543415  0.38215424  0.88205888  1
  O  O181  1  0.38450677  0.86415270  0.39106058  1
  O  O182  1  0.36887154  0.88255802  0.88827229  1
  O  O183  1  0.87615059  0.38570717  0.37821826  1
  O  O184  1  0.88264674  0.38913288  0.86569375  1
  O  O185  1  0.87088422  0.88086638  0.38414789  1
  O  O186  1  0.87906239  0.88381941  0.87652326  1
  O  O187  1  0.25917822  -0.01176930  0.37285731  1
  O  O188  1  0.26061483  0.01130601  0.88066365  1
  O  O189  1  0.24810592  0.50614020  0.36285913  1
  O  O190  1  0.25557318  0.51038700  0.87024311  1
  O  O191  1  0.75785845  0.00911103  0.37412652  1
  O  O192  1  0.76509993  0.00872391  0.87573202  1
  O  O193  1  0.75967921  0.51266731  0.38222307  1
  O  O194  1  0.75879620  0.49830914  0.87221838  1
  O  O195  1  0.24118985  0.49887618  0.13490868  1
  O  O196  1  0.24199629  0.48645580  0.62600030  1
  O  O197  1  0.25642372  0.98395381  0.11848601  1
  O  O198  1  0.24227717  1.00079262  0.62925425  1
  O  O199  1  0.73956253  0.49018751  0.12023158  1
  O  O200  1  0.74079712  0.49236423  0.62310025  1
  O  O201  1  0.75016184  0.98807622  0.12474458  1
  O  O202  1  0.74633898  0.98842629  0.62047153  1
  O  O203  1  0.01153219  0.38510279  0.25735661  1
  O  O204  1  0.00924842  0.36793372  0.75709725  1
  O  O205  1  -0.00099191  0.86724650  0.25086246  1
  O  O206  1  0.00627783  0.87230801  0.75998548  1
  O  O207  1  0.50697928  0.36783881  0.25883144  1
  O  O208  1  0.50106538  0.36321012  0.75147571  1
  O  O209  1  0.50156729  0.87256709  0.25768138  1
  O  O210  1  0.51345886  0.86569551  0.74504892  1
  O  O211  1  0.53788811  0.12887607  0.22186097  1
  O  O212  1  0.49874197  0.13685629  0.74512836  1
  O  O213  1  0.48748038  0.62976661  0.25834771  1
  O  O214  1  0.50118726  0.63751338  0.75053610  1
  O  O215  1  0.98586067  0.11689372  0.24418721  1
  O  O216  1  1.00619145  0.13758419  0.74521192  1
  O  O217  1  0.98975555  0.63191693  0.24503889  1
  O  O218  1  0.98246372  0.62537651  0.75442321  1
  O  O219  1  0.38658979  0.25935757  0.01064144  1
  O  O220  1  0.36630247  0.25528338  0.50174051  1
  O  O221  1  0.37218730  0.75398112  0.00456129  1
  O  O222  1  0.37000124  0.75329392  0.50885456  1
  O  O223  1  0.86335621  0.24470472  0.00659706  1
  O  O224  1  0.86849774  0.26134026  0.51478279  1
  O  O225  1  0.87100034  0.76539057  -0.00525426  1
  O  O226  1  0.86346453  0.75705240  0.49660607  1
  O  O227  1  0.14166699  0.24941117  0.49833150  1
  O  O228  1  0.12856207  0.24885545  1.01099260  1
  O  O229  1  0.13394435  0.73959485  0.49656934  1
  O  O230  1  0.13462896  0.75833251  0.98921758  1
  O  O231  1  0.63327276  0.24621294  0.49727037  1
  O  O232  1  0.63332258  0.24459303  0.99163311  1
  O  O233  1  0.62839618  0.74501715  0.49657236  1
  O  O234  1  0.61852789  0.74373266  0.99184833  1
  O  O235  1  0.49776882  0.24372155  0.13002375  1
  O  O236  1  0.49374140  0.24670635  0.62992015  1
  O  O237  1  0.48690370  0.75371453  0.13206549  1
  O  O238  1  0.49249868  0.74880816  0.63682037  1
  O  O239  1  0.98084710  0.25981626  0.12027707  1
  O  O240  1  0.99459824  0.24470692  0.63080694  1
  O  O241  1  0.99423039  0.75128943  0.13430464  1
  O  O242  1  1.05120161  0.73400824  0.64454069  1
  O  O243  1  -0.01554165  0.26949135  0.37541768  1
  O  O244  1  0.00039628  0.25630771  0.86980569  1
  O  O245  1  -0.00027829  0.74919044  0.36150620  1
  O  O246  1  0.00730123  0.75907514  0.87264711  1
  O  O247  1  0.51455994  0.27052559  0.38198106  1
  O  O248  1  0.50824133  0.24930735  0.86782976  1
  O  O249  1  0.50480930  0.76031744  0.37137110  1
  O  O250  1  0.50794115  0.74828611  0.86262255  1
  O  O251  1  0.24998774  0.13735329  0.49333527  1
  O  O252  1  0.24642905  0.12615708  1.00166309  1
  O  O253  1  0.24383491  0.62715043  0.49224218  1
  O  O254  1  0.25368467  0.63709787  0.99577712  1
  O  O255  1  0.74889380  0.12962146  0.48994984  1
  O  O256  1  0.74681308  0.13069305  0.98905722  1
  O  O257  1  0.74567672  0.63434499  0.49186884  1
  O  O258  1  0.73453092  0.62860108  0.99695990  1
  O  O259  1  0.26413551  0.38093142  0.00164149  1
  O  O260  1  0.25638750  0.36634120  0.50007408  1
  O  O261  1  0.25796036  0.86584293  0.00817916  1
  O  O262  1  0.25856232  0.86432790  0.50301130  1
  O  O263  1  0.74482430  0.36455563  0.01126993  1
  O  O264  1  0.75426957  0.37199079  0.50992689  1
  O  O265  1  0.75411464  0.87671366  0.00394317  1
  O  O266  1  0.75565355  0.86854708  0.50833189  1
  O  O267  1  0.13245699  0.49603665  0.24336388  1
  O  O268  1  0.12236152  0.49249801  0.74102185  1
  O  O269  1  0.14904626  0.99108306  0.24976706  1
  O  O270  1  0.12631699  0.99014356  0.74767920  1
  O  O271  1  0.61790233  0.49227565  0.24066474  1
  O  O272  1  0.62450924  0.49860477  0.74229717  1
  O  O273  1  0.62195142  0.98868287  0.26024428  1
  O  O274  1  0.61766617  0.98740692  0.75289348  1
  O  O275  1  0.36072385  0.00150378  0.24617377  1
  O  O276  1  0.37634851  0.00080914  0.76085941  1
  O  O277  1  0.36693985  0.50644640  0.24240245  1
  O  O278  1  0.37367072  0.49315902  0.76168417  1
  O  O279  1  0.86688068  0.00931616  0.25390639  1
  O  O280  1  0.87932413  -0.00285642  0.76274204  1
  O  O281  1  0.87860239  0.50897139  0.26098708  1
  O  O282  1  0.87191292  0.50944340  0.75800922  1
  O  O283  1  0.11505632  0.38159461  0.36253397  1
  O  O284  1  0.11922077  0.37238140  0.86870211  1
  O  O285  1  0.11950807  0.86846004  0.37064163  1
  O  O286  1  0.11653737  0.87444719  0.87176762  1
  O  O287  1  0.62328470  0.37784148  0.36824558  1
  O  O288  1  0.62393571  0.36372110  0.87514446  1
  O  O289  1  0.61798636  0.87020774  0.37127136  1
  O  O290  1  0.62656995  0.86891973  0.86093447  1
  O  O291  1  0.39014801  0.13228728  0.12795047  1
  O  O292  1  0.38082426  0.13173819  0.62630716  1
  O  O293  1  0.37086130  0.63239341  0.13459898  1
  O  O294  1  0.36988347  0.63513808  0.62284216  1
  O  O295  1  0.86376222  0.13092808  0.13602828  1
  O  O296  1  0.88494529  0.13433690  0.61988487  1
  O  O297  1  0.86520098  0.62532961  0.13777547  1
  O  O298  1  0.87271371  0.62030373  0.63704829  1
  O  O299  1  0.26175312  0.25039645  0.11801242  1
  O  O300  1  0.25537722  0.25262500  0.61935067  1
  O  O301  1  0.26114298  0.75547427  0.11926888  1
  O  O302  1  0.25333433  0.74967959  0.61491595  1
  O  O303  1  0.75445864  0.25799745  0.11777447  1
  O  O304  1  0.75658976  0.25606052  0.62241432  1
  O  O305  1  0.75098470  0.76438413  0.11977534  1
  O  O306  1  0.74190930  0.76023479  0.61369623  1
  O  O307  1  0.25312894  0.25054141  0.38129123  1
  O  O308  1  0.24919303  0.23604970  0.87868495  1
  O  O309  1  0.25173815  0.74124567  0.38659117  1
  O  O310  1  0.24767287  0.74349029  0.88339537  1
  O  O311  1  0.74935363  0.24490868  0.38129508  1
  O  O312  1  0.74689106  0.24685055  0.88012566  1
  O  O313  1  0.74248248  0.74553940  0.38461609  1
  O  O314  1  0.73279911  0.74985404  0.87659468  1
  O  O315  1  -0.00193631  0.11019711  -0.00030109  1
  O  O316  1  0.00940938  0.13217024  0.50869557  1
  O  O317  1  -0.00376184  0.62225323  0.00515682  1
  O  O318  1  0.01091372  0.61826781  0.49263529  1
  O  O319  1  0.51054404  0.11982987  0.00573825  1
  O  O320  1  0.50212932  0.11792640  0.50423295  1
  O  O321  1  0.51034505  0.61672137  -0.00196006  1
  O  O322  1  0.50160200  0.61368152  0.49263306  1
  O  O323  1  0.49238390  0.38464629  0.49465028  1
  O  O324  1  0.49223005  0.38403524  0.99834486  1
  O  O325  1  0.49636656  0.88064056  0.49689723  1
  O  O326  1  0.49349675  0.88313353  1.00212903  1
  O  O327  1  0.99560991  0.38201945  0.49300504  1
  O  O328  1  1.00354693  0.38141007  0.98538943  1
  O  O329  1  0.98519313  0.86432833  0.50205388  1
  O  O330  1  0.99228471  0.87931563  0.98894346  1
  O  O331  1  0.50407818  0.49004522  0.38430243  1
  O  O332  1  0.49200571  0.49897378  0.88517707  1
  O  O333  1  0.50011569  0.98600801  0.38512260  1
  O  O334  1  0.48643288  1.00910059  0.88631350  1
  O  O335  1  0.99134651  0.49582382  0.38410913  1
  O  O336  1  0.98935283  0.49349633  0.87480333  1
  O  O337  1  0.98290915  0.99349060  0.37155552  1
  O  O338  1  0.98999242  0.99473727  0.87903870  1
  O  O339  1  -0.00337022  -0.00580248  0.11124921  1
  O  O340  1  0.01055943  0.01193580  0.62887853  1
  O  O341  1  0.01406854  0.50176518  0.12345741  1
  O  O342  1  0.00547709  0.49259249  0.61114126  1
  O  O343  1  0.49732183  0.00722201  0.11143567  1
  O  O344  1  0.50225754  0.00728273  0.61963402  1
  O  O345  1  0.50932376  0.49518320  0.11375868  1
  O  O346  1  0.50762479  0.49569513  0.61522053  1
  O  O347  1  0.24068385  0.38383956  0.24933245  1
  O  O348  1  0.23703682  0.37362854  0.74515441  1
  O  O349  1  0.25686234  0.87983058  0.23789677  1
  O  O350  1  0.24355819  0.88081081  0.74970787  1
  O  O351  1  0.73782647  0.37039858  0.24482962  1
  O  O352  1  0.74668157  0.37633827  0.73669428  1
  O  O353  1  0.73844799  0.87681618  0.24297705  1
  O  O354  1  0.73579033  0.86716131  0.74059941  1
  O  O355  1  0.25470996  0.10719689  0.26576924  1
  O  O356  1  0.25289793  0.12333474  0.76517423  1
  O  O357  1  0.25917773  0.61976619  0.25713014  1
  O  O358  1  0.24182745  0.62793039  0.75656572  1
  O  O359  1  0.74863252  0.12523245  0.26254489  1
  O  O360  1  0.74660565  0.13041926  0.76150820  1
  O  O361  1  0.75395306  0.63422588  0.26350324  1
  O  O362  1  0.75998394  0.62304040  0.75246723  1
  O  O363  1  0.44617606  0.14591073  0.33288325  1
  O  O364  1  0.36411119  0.11895927  0.87865522  1
  O  O365  1  0.36355842  0.62666748  0.36723016  1
  O  O366  1  0.36447252  0.61563203  0.87766463  1
  O  O367  1  0.87329196  0.11833393  0.36377128  1
  O  O368  1  0.87059489  0.11328519  0.87467658  1
  O  O369  1  0.86809624  0.62037446  0.36624553  1
  O  O370  1  0.86981861  0.61281191  0.86978691  1
  O  O371  1  0.12707029  0.38774947  0.13631435  1
  O  O372  1  0.12712829  0.38045709  0.62966114  1
  O  O373  1  0.14348993  0.86684761  0.12544064  1
  O  O374  1  0.12743963  0.88675709  0.63368301  1
  O  O375  1  0.63164070  0.38221028  0.13263490  1
  O  O376  1  0.63220647  0.38566651  0.62378721  1
  O  O377  1  0.62860608  0.87301535  0.13580770  1
  O  O378  1  0.63097483  0.87917890  0.63681773  1
  O  O379  1  0.12593102  0.27213895  0.24467196  1
  O  O380  1  0.11691044  0.25795108  0.75291775  1
  O  O381  1  0.11583754  0.75008645  0.25035736  1
  O  O382  1  0.13623981  0.76767531  0.77084663  1
  O  O383  1  0.62067522  0.26017708  0.25888097  1
  O  O384  1  0.61679166  0.25339965  0.75744130  1
  O  O385  1  0.61598366  0.75763681  0.25628472  1
  O  O386  1  0.61393841  0.75515743  0.75373876  1
  O  O387  1  0.38061816  0.25301984  0.23480004  1
  O  O388  1  0.38160947  0.24983769  0.74376642  1
  O  O389  1  0.37903973  0.74249700  0.24308079  1
  O  O390  1  0.38868152  0.75656902  0.74412970  1
  O  O391  1  0.86979308  0.23260523  0.24268861  1
  O  O392  1  0.88478861  0.25674893  0.73779650  1
  O  O393  1  0.87980761  0.74247016  0.24918089  1
  O  O394  1  0.87479000  0.73480452  0.75368120  1
  O  O395  1  0.38050364  0.49010118  0.50432819  1
  O  O396  1  0.38132579  0.49504314  0.99533012  1
  O  O397  1  0.38667434  0.99138696  0.50568860  1
  O  O398  1  0.38451625  0.99083429  0.99552549  1
  O  O399  1  0.88118534  0.49743016  0.49264777  1
  O  O400  1  0.87291495  0.50042922  0.98521298  1
  O  O401  1  0.86987251  0.98786567  0.49059915  1
  O  O402  1  0.88187455  0.98975029  0.98993487  1
  O  O403  1  0.10891646  -0.00544062  -0.00246283  1
  O  O404  1  0.13084260  0.00264442  0.51055808  1
  O  O405  1  0.12907430  0.49561903  0.01641893  1
  O  O406  1  0.11678763  0.50209441  0.50245418  1
  O  O407  1  0.61696392  0.00806666  -0.01270508  1
  O  O408  1  0.61307061  0.00651030  0.50097285  1
  O  O409  1  0.61734348  0.50638016  0.00587019  1
  O  O410  1  0.61550936  0.50732091  0.50664447  1
  O  O411  1  0.37372391  0.36807584  0.11789511  1
  O  O412  1  0.36923085  0.36769554  0.61315073  1
  O  O413  1  0.36876554  0.86642426  0.11400858  1
  O  O414  1  0.37537340  0.86563878  0.61432421  1
  O  O415  1  0.86108966  0.36908961  0.13722525  1
  O  O416  1  0.86795830  0.37257913  0.62191113  1
  O  O417  1  0.86460773  0.87485297  0.11430992  1
  O  O418  1  0.86690674  0.87866609  0.61966130  1
  O  O419  1  0.09613196  0.12981700  0.36275350  1
  O  O420  1  0.13937291  0.12645681  0.87580459  1
  O  O421  1  0.13604891  0.62383168  0.38155109  1
  O  O422  1  0.13219675  0.63514647  0.87204730  1
  O  O423  1  0.63363839  0.13229763  0.38213850  1
  O  O424  1  0.63248003  0.13549080  0.88011587  1
  O  O425  1  0.63183820  0.62969550  0.38097305  1
  O  O426  1  0.62502641  0.63252219  0.88289631  1
