# generated using pymatgen
data_V85Zn86O256
_symmetry_space_group_name_H-M   'P 1'
_cell_length_a   16.95375873
_cell_length_b   16.94558426
_cell_length_c   16.93851511
_cell_angle_alpha   90.12143837
_cell_angle_beta   90.09420269
_cell_angle_gamma   89.98264846
_symmetry_Int_Tables_number   1
_chemical_formula_structural   V85Zn86O256
_chemical_formula_sum   'V85 Zn86 O256'
_cell_volume   4866.27109842
_cell_formula_units_Z   1
loop_
 _symmetry_equiv_pos_site_id
 _symmetry_equiv_pos_as_xyz
  1  'x, y, z'
loop_
 _atom_site_type_symbol
 _atom_site_label
 _atom_site_symmetry_multiplicity
 _atom_site_fract_x
 _atom_site_fract_y
 _atom_site_fract_z
 _atom_site_occupancy
  V  V0  1  0.74840225  0.37733193  0.62650755  1
  V  V1  1  0.12815885  0.00067221  0.63132759  1
  V  V2  1  0.25324349  0.12142078  0.35763138  1
  V  V3  1  0.00736131  0.37894979  0.37590463  1
  V  V4  1  -0.00025549  0.75259689  0.74409614  1
  V  V5  1  0.87082526  0.12552409  0.25073076  1
  V  V6  1  0.24722300  0.13377561  0.87506429  1
  V  V7  1  0.13153832  0.87922986  0.25018012  1
  V  V8  1  0.86966449  0.86761833  0.49772004  1
  V  V9  1  0.24157977  0.37822057  0.62052542  1
  V  V10  1  0.50865673  0.87276070  0.37786839  1
  V  V11  1  0.74569096  0.48710360  0.24798970  1
  V  V12  1  0.37373133  0.49751926  0.87298297  1
  V  V13  1  0.49988702  0.74845305  0.75034712  1
  V  V14  1  0.49750237  0.00791435  0.50248140  1
  V  V15  1  0.54794379  0.43949789  0.45217825  1
  V  V16  1  0.86832469  0.00157582  0.37459847  1
  V  V17  1  0.00191322  0.00262042  0.00038872  1
  V  V18  1  0.49943820  0.87245790  0.87669620  1
  V  V19  1  0.49878142  0.49824373  -0.00547755  1
  V  V20  1  0.12308059  0.75103420  0.87633539  1
  V  V21  1  0.63676978  0.11822663  -0.00112686  1
  V  V22  1  0.87164270  0.62575455  0.75691240  1
  V  V23  1  0.00293660  0.25717535  0.25092005  1
  V  V24  1  0.10995683  0.61668450  0.00478453  1
  V  V25  1  0.50301861  0.26909401  0.25416213  1
  V  V26  1  -0.00094997  0.00028538  0.49918636  1
  V  V27  1  0.87822750  0.50224219  0.37948020  1
  V  V28  1  0.36632293  0.11713042  0.74602235  1
  V  V29  1  0.24857605  0.74854213  0.00358039  1
  V  V30  1  0.24841994  0.38349303  0.14583031  1
  V  V31  1  0.37393852  0.74972786  0.62326167  1
  V  V32  1  0.36642048  -0.00122712  0.87439687  1
  V  V33  1  0.88440622  0.38032732  0.50464712  1
  V  V34  1  0.74955913  0.25685485  -0.01169507  1
  V  V35  1  0.62079160  -0.00027256  0.62480903  1
  V  V36  1  -0.00037269  0.87599246  0.37261973  1
  V  V37  1  0.50939443  0.74643349  0.25539952  1
  V  V38  1  0.63405121  0.62259736  -0.00567308  1
  V  V39  1  0.49996239  0.61779209  0.61779512  1
  V  V40  1  0.37421172  0.87561670  0.49695605  1
  V  V41  1  0.87638401  0.62568092  0.24628392  1
  V  V42  1  0.12655331  0.36416998  0.75727755  1
  V  V43  1  0.24948408  0.87838113  0.63189681  1
  V  V44  1  0.88032274  0.38300735  0.00284034  1
  V  V45  1  0.53956021  0.16958472  0.68345807  1
  V  V46  1  0.74550977  0.63575368  0.37740910  1
  V  V47  1  0.37643122  0.38168955  0.49879481  1
  V  V48  1  0.87960794  0.74888559  0.12354529  1
  V  V49  1  0.74890230  0.86738053  0.62139337  1
  V  V50  1  0.37534004  0.74752421  0.12651009  1
  V  V51  1  0.37302382  0.62606162  0.74832258  1
  V  V52  1  0.37165376  0.00116008  0.36036136  1
  V  V53  1  0.62606649  0.64515641  0.49653749  1
  V  V54  1  0.86188942  0.25464098  0.12769427  1
  V  V55  1  0.12623450  0.12512179  0.49569702  1
  V  V56  1  0.62621246  0.47869786  0.12484138  1
  V  V57  1  0.12302479  0.74896817  0.37453409  1
  V  V58  1  0.23753885  0.50349748  0.74447211  1
  V  V59  1  0.74668535  0.50011626  0.75951466  1
  V  V60  1  0.13464144  0.00273440  0.12763254  1
  V  V61  1  0.50275281  0.00166035  0.00742890  1
  V  V62  1  0.87367525  0.87686783  0.00060400  1
  V  V63  1  0.25233745  0.24640922  0.49507139  1
  V  V64  1  0.12338557  0.13749818  -0.00342952  1
  V  V65  1  0.62490909  0.88107437  0.24121693  1
  V  V66  1  0.37503124  0.87326128  0.00174914  1
  V  V67  1  0.12119926  0.61116487  0.50302341  1
  V  V68  1  -0.00008491  0.12548965  0.62384308  1
  V  V69  1  0.36705009  0.37342770  -0.00293334  1
  V  V70  1  0.87319612  0.12840314  0.75221897  1
  V  V71  1  0.24902246  0.62539549  0.87681586  1
  V  V72  1  0.62501924  0.87376779  0.75159877  1
  V  V73  1  0.74950085  0.00006178  0.75370555  1
  V  V74  1  0.50574379  0.62243694  0.12620766  1
  V  V75  1  0.11591569  0.50072830  0.13919301  1
  V  V76  1  0.37041506  0.61717515  0.25280490  1
  V  V77  1  0.37268115  0.24431805  0.62848040  1
  V  V78  1  0.49904454  0.13040026  0.13062081  1
  V  V79  1  -0.00122634  0.12817915  0.12602832  1
  V  V80  1  0.24602743  0.74852312  0.49903326  1
  V  V81  1  0.62787105  0.13408492  0.49399908  1
  V  V82  1  0.87327061  0.00582086  0.87563081  1
  V  V83  1  0.87719209  0.25168084  0.61947821  1
  V  V84  1  0.00124240  0.61182230  0.62239557  1
  Zn  Zn85  1  0.74069232  0.00772581  0.24564411  1
  Zn  Zn86  1  0.75468494  0.74567231  -0.00577734  1
  Zn  Zn87  1  0.36960939  0.24549136  0.12789970  1
  Zn  Zn88  1  0.63394707  0.74255590  0.87078701  1
  Zn  Zn89  1  0.00593821  0.37358603  0.88287348  1
  Zn  Zn90  1  0.51340459  0.36698445  0.84264185  1
  Zn  Zn91  1  0.00353974  0.24802229  0.75668138  1
  Zn  Zn92  1  0.25480145  0.87887343  0.13125931  1
  Zn  Zn93  1  0.24518689  0.25734656  0.00101785  1
  Zn  Zn94  1  0.62690763  0.26421502  0.36967315  1
  Zn  Zn95  1  0.62812290  0.50374628  0.62497744  1
  Zn  Zn96  1  0.12692884  0.87957242  0.75390826  1
  Zn  Zn97  1  0.00084518  0.87764037  0.87184686  1
  Zn  Zn98  1  0.74836060  0.87768266  0.12316853  1
  Zn  Zn99  1  0.75170307  0.13986167  0.38194869  1
  Zn  Zn100  1  0.37533559  0.48929859  0.37015470  1
  Zn  Zn101  1  0.87257047  0.74696482  0.62109295  1
  Zn  Zn102  1  0.62023316  0.24699138  0.86202559  1
  Zn  Zn103  1  0.88161082  0.50356849  0.88119720  1
  Zn  Zn104  1  0.24344252  0.61613469  0.36768205  1
  Zn  Zn105  1  0.00310135  0.74663844  0.24271586  1
  Zn  Zn106  1  0.12923553  0.25416913  0.36868960  1
  Zn  Zn107  1  0.18601401  0.19452012  0.18336648  1
  Zn  Zn108  1  0.19155376  0.18465721  0.68546102  1
  Zn  Zn109  1  0.18573660  0.68571759  0.18498094  1
  Zn  Zn110  1  0.18285882  0.68865990  0.68577380  1
  Zn  Zn111  1  0.68050786  0.18761990  0.18472075  1
  Zn  Zn112  1  0.70282053  0.18775671  0.68100757  1
  Zn  Zn113  1  0.69301938  0.68757317  0.18314143  1
  Zn  Zn114  1  0.68719651  0.68497410  0.68759636  1
  Zn  Zn115  1  0.32412045  0.30587443  0.31284744  1
  Zn  Zn116  1  0.31528952  0.31202454  0.80935675  1
  Zn  Zn117  1  0.31486213  0.80815875  0.31266280  1
  Zn  Zn118  1  0.31099980  0.81220151  0.81301179  1
  Zn  Zn119  1  0.81341764  0.31038569  0.32033935  1
  Zn  Zn120  1  0.81430108  0.31519438  0.81375199  1
  Zn  Zn121  1  0.81088855  0.81151399  0.31042360  1
  Zn  Zn122  1  0.81285649  0.81223739  0.81531534  1
  Zn  Zn123  1  0.19346255  0.43867301  0.42970469  1
  Zn  Zn124  1  0.18538226  0.44323816  0.93684440  1
  Zn  Zn125  1  0.18902426  0.93906459  0.43854516  1
  Zn  Zn126  1  0.18811187  0.93810142  0.94180945  1
  Zn  Zn127  1  0.70991274  0.43815206  0.44146846  1
  Zn  Zn128  1  0.68534536  0.43119137  0.93362224  1
  Zn  Zn129  1  0.68603985  0.94018084  0.43617011  1
  Zn  Zn130  1  0.68867909  0.93567507  0.93570713  1
  Zn  Zn131  1  0.31409581  0.06562537  0.06017322  1
  Zn  Zn132  1  0.31228081  0.06147484  0.55697420  1
  Zn  Zn133  1  0.30885291  0.56032965  0.06562105  1
  Zn  Zn134  1  0.30880027  0.56153981  0.55803856  1
  Zn  Zn135  1  0.80961988  0.05970078  0.06880327  1
  Zn  Zn136  1  0.80952285  0.05862409  0.56431102  1
  Zn  Zn137  1  0.81032744  0.55965023  0.07005288  1
  Zn  Zn138  1  0.81377624  0.56383552  0.56329954  1
  Zn  Zn139  1  0.43733479  0.43593947  0.18008976  1
  Zn  Zn140  1  0.42238374  0.44311067  0.68356524  1
  Zn  Zn141  1  0.44226729  0.93621383  0.18588686  1
  Zn  Zn142  1  0.43610508  0.93911006  0.68802109  1
  Zn  Zn143  1  0.93323917  0.43727371  0.18827053  1
  Zn  Zn144  1  0.93915613  0.43959874  0.69659159  1
  Zn  Zn145  1  0.93928827  0.93777252  0.18721501  1
  Zn  Zn146  1  0.93773394  0.93650226  0.68610323  1
  Zn  Zn147  1  0.06081974  0.06436897  0.31141466  1
  Zn  Zn148  1  0.06138154  0.06603228  0.81343110  1
  Zn  Zn149  1  0.05871986  0.56411275  0.31337110  1
  Zn  Zn150  1  0.05681473  0.55993075  0.81506247  1
  Zn  Zn151  1  0.55835538  0.06206454  0.31502933  1
  Zn  Zn152  1  0.56436192  0.05629473  0.82682198  1
  Zn  Zn153  1  0.56718984  0.55943933  0.31038237  1
  Zn  Zn154  1  0.56167160  0.55866022  0.81039935  1
  Zn  Zn155  1  0.43843834  0.18952182  0.43139440  1
  Zn  Zn156  1  0.43670886  0.18742218  0.93740271  1
  Zn  Zn157  1  0.43853025  0.68710587  0.43591538  1
  Zn  Zn158  1  0.43959775  0.68504182  0.93742284  1
  Zn  Zn159  1  0.93776606  0.19072553  0.43675328  1
  Zn  Zn160  1  0.93869442  0.19494399  0.93536540  1
  Zn  Zn161  1  0.93863215  0.68603772  0.43669697  1
  Zn  Zn162  1  0.93821554  0.69131684  0.93491504  1
  Zn  Zn163  1  0.06117663  0.31853293  0.07242001  1
  Zn  Zn164  1  0.06355783  0.31122976  0.56237435  1
  Zn  Zn165  1  0.06033853  0.81468078  0.06326922  1
  Zn  Zn166  1  0.06119725  0.81320347  0.56145691  1
  Zn  Zn167  1  0.54847548  0.30032811  0.02642502  1
  Zn  Zn168  1  0.54096100  0.34071317  0.63400253  1
  Zn  Zn169  1  0.56225527  0.80712025  0.06210310  1
  Zn  Zn170  1  0.55991913  0.81381368  0.56456846  1
  O  O171  1  0.11881327  0.11965980  0.11845157  1
  O  O172  1  0.12250396  0.11813656  0.61771821  1
  O  O173  1  0.12794374  0.61506832  0.11338318  1
  O  O174  1  0.11071127  0.62950873  0.61772218  1
  O  O175  1  0.61325474  0.12431946  0.10949047  1
  O  O176  1  0.61861133  0.12023024  0.62062757  1
  O  O177  1  0.61895945  0.61838214  0.11606678  1
  O  O178  1  0.61856841  0.62513710  0.61319459  1
  O  O179  1  0.37815327  0.36950995  0.39268762  1
  O  O180  1  0.37453824  0.38266558  0.87961357  1
  O  O181  1  0.38138660  0.87947310  0.37979286  1
  O  O182  1  0.37828005  0.88041194  0.88005270  1
  O  O183  1  0.88211970  0.38313702  0.38622342  1
  O  O184  1  0.87228145  0.37455964  0.89410799  1
  O  O185  1  0.87682776  0.88205471  0.37875752  1
  O  O186  1  0.87943677  0.88917212  0.88055765  1
  O  O187  1  0.25977442  0.00859925  0.38056203  1
  O  O188  1  0.26202847  0.00714326  0.88379964  1
  O  O189  1  0.26343041  0.50666545  0.38019451  1
  O  O190  1  0.25309733  0.50849849  0.86559152  1
  O  O191  1  0.76088697  0.00211780  0.36920209  1
  O  O192  1  0.75759693  -0.00323848  0.86186229  1
  O  O193  1  0.75966649  0.50707011  0.36480516  1
  O  O194  1  0.75516974  0.49678663  0.86196500  1
  O  O195  1  0.24167227  0.48900561  0.12558863  1
  O  O196  1  0.25497056  0.49015164  0.63225027  1
  O  O197  1  0.23792157  0.99999706  0.11916354  1
  O  O198  1  0.24054198  0.98985417  0.61540347  1
  O  O199  1  0.74060638  0.49934476  0.13944024  1
  O  O200  1  0.75298615  0.49190638  0.63225708  1
  O  O201  1  0.75658520  0.99050916  0.13552745  1
  O  O202  1  0.74328995  0.99113448  0.63588029  1
  O  O203  1  -0.01048630  0.36718200  0.26204953  1
  O  O204  1  0.02184120  0.37305419  0.74087769  1
  O  O205  1  0.01061714  0.87226535  0.25697310  1
  O  O206  1  0.00377211  0.86749261  0.75081645  1
  O  O207  1  0.50225538  0.36843197  0.24608607  1
  O  O208  1  0.49326195  0.37209474  0.73140339  1
  O  O209  1  0.50922269  0.86722664  0.25555445  1
  O  O210  1  0.50406885  0.86870106  0.75460547  1
  O  O211  1  0.50582344  0.12096548  0.23172622  1
  O  O212  1  0.48692391  0.11365671  0.75506745  1
  O  O213  1  0.49794270  0.62956643  0.24430420  1
  O  O214  1  0.49433673  0.63076217  0.74276179  1
  O  O215  1  0.98788332  0.13310743  0.24818200  1
  O  O216  1  0.98852552  0.12296574  0.74244226  1
  O  O217  1  0.98063800  0.62937295  0.25917675  1
  O  O218  1  0.99632495  0.63228453  0.73915793  1
  O  O219  1  0.36950106  0.26164072  0.00538499  1
  O  O220  1  0.36917518  0.25047869  0.50838929  1
  O  O221  1  0.37061209  0.75205277  0.00626234  1
  O  O222  1  0.36578754  0.75435109  0.50271166  1
  O  O223  1  0.86326421  0.25209639  0.00805680  1
  O  O224  1  0.88139682  0.25744223  0.51354854  1
  O  O225  1  0.87758064  0.76021283  0.00383273  1
  O  O226  1  0.87832934  0.76417729  0.49961923  1
  O  O227  1  0.13517060  0.24390194  0.49584550  1
  O  O228  1  0.12242270  0.24018522  1.00723017  1
  O  O229  1  0.13047330  0.74737424  0.49294599  1
  O  O230  1  0.12811141  0.74270152  0.99616774  1
  O  O231  1  0.61515274  0.23074590  0.49921038  1
  O  O232  1  0.64443315  0.23826111  1.00657848  1
  O  O233  1  0.62587707  0.74458501  0.50096949  1
  O  O234  1  0.62321662  0.73207446  1.00045222  1
  O  O235  1  0.50042306  0.23948900  0.12525359  1
  O  O236  1  0.48864693  0.23738388  0.61931615  1
  O  O237  1  0.49578341  0.73692312  0.13006681  1
  O  O238  1  0.49212604  0.74431718  0.63162193  1
  O  O239  1  0.99008104  0.24667749  0.13336957  1
  O  O240  1  0.99531472  0.24194134  0.63062593  1
  O  O241  1  0.98639256  0.75284298  0.12531110  1
  O  O242  1  0.99929630  0.74772956  0.63511103  1
  O  O243  1  -0.00038420  0.26007335  0.36805071  1
  O  O244  1  -0.00158500  0.25939391  0.86885271  1
  O  O245  1  0.01096944  0.75685678  0.37603747  1
  O  O246  1  0.00780030  0.75257863  0.86389584  1
  O  O247  1  0.50535897  0.24905050  0.35898208  1
  O  O248  1  0.50962330  0.26714672  0.90896327  1
  O  O249  1  0.49564684  0.76001041  0.36600304  1
  O  O250  1  0.49987018  0.75598181  0.86731126  1
  O  O251  1  0.24604212  0.13464882  0.49418431  1
  O  O252  1  0.24049634  0.12916513  0.99398148  1
  O  O253  1  0.24030276  0.63749625  0.50383692  1
  O  O254  1  0.24419788  0.63205370  0.99509173  1
  O  O255  1  0.73247159  0.11924310  0.50398895  1
  O  O256  1  0.74101601  0.12800746  1.00299159  1
  O  O257  1  0.74182544  0.61927979  0.48694677  1
  O  O258  1  0.73617664  0.62023109  1.00272023  1
  O  O259  1  0.25839262  0.37881448  -0.00170183  1
  O  O260  1  0.25561825  0.36427235  0.50376017  1
  O  O261  1  0.25733170  0.86588143  0.00291337  1
  O  O262  1  0.25220240  0.86394288  0.50669923  1
  O  O263  1  0.75697957  0.36078199  0.00092342  1
  O  O264  1  0.77014127  0.37960951  0.51663112  1
  O  O265  1  0.76523321  0.87942833  -0.00042386  1
  O  O266  1  0.75759474  0.88400018  0.50839495  1
  O  O267  1  0.12840642  0.51437245  0.23774158  1
  O  O268  1  0.13525239  0.49362123  0.75077254  1
  O  O269  1  0.11782746  0.99253909  0.23936326  1
  O  O270  1  0.11997104  1.00023612  0.73553996  1
  O  O271  1  0.63674151  0.49814243  0.24241371  1
  O  O272  1  0.64214808  0.50855724  0.74528793  1
  O  O273  1  0.62122814  0.98433057  0.25383867  1
  O  O274  1  0.63144842  0.99680193  0.74810639  1
  O  O275  1  0.37712366  -0.00783617  0.26112299  1
  O  O276  1  0.37454700  0.00433121  0.76071569  1
  O  O277  1  0.38446664  0.51484306  0.24906931  1
  O  O278  1  0.36090882  0.50901546  0.75441246  1
  O  O279  1  0.87963860  0.00959135  0.25947136  1
  O  O280  1  0.86973731  0.00463838  0.75580148  1
  O  O281  1  0.86394664  0.50770645  0.25346404  1
  O  O282  1  0.86581142  0.50934831  0.75120262  1
  O  O283  1  0.11116477  0.37530588  0.38012613  1
  O  O284  1  0.13160122  0.37538388  0.85992417  1
  O  O285  1  0.12169201  0.87023809  0.36975905  1
  O  O286  1  0.12520488  0.86416956  0.87609156  1
  O  O287  1  0.61441429  0.38307042  0.39872662  1
  O  O288  1  0.62492010  0.36216364  0.87230013  1
  O  O289  1  0.61271508  0.87772460  0.36841044  1
  O  O290  1  0.61549869  0.87492180  0.86807850  1
  O  O291  1  0.39260751  0.12673050  0.11591894  1
  O  O292  1  0.36898740  0.12774867  0.63402180  1
  O  O293  1  0.38400361  0.62644811  0.13381728  1
  O  O294  1  0.38045196  0.63100034  0.62641445  1
  O  O295  1  0.88110374  0.13221764  0.13309437  1
  O  O296  1  0.87817176  0.13184253  0.62893724  1
  O  O297  1  0.86845661  0.63353785  0.13458467  1
  O  O298  1  0.88631830  0.62845658  0.63025135  1
  O  O299  1  0.24862831  0.26842357  0.12315790  1
  O  O300  1  0.25567432  0.25339042  0.61484964  1
  O  O301  1  0.25621408  0.75141465  0.11870686  1
  O  O302  1  0.25322376  0.75664736  0.61827522  1
  O  O303  1  0.75991807  0.24381645  0.11918488  1
  O  O304  1  0.76260104  0.26704497  0.62919686  1
  O  O305  1  0.76191989  0.75662797  0.11691209  1
  O  O306  1  0.75166359  0.76386139  0.62931137  1
  O  O307  1  0.25097252  0.24208780  0.37944325  1
  O  O308  1  0.25474996  0.23695644  0.87694705  1
  O  O309  1  0.23958524  0.74628405  0.38209836  1
  O  O310  1  0.24202239  0.74491931  0.88081324  1
  O  O311  1  0.73935983  0.25290643  0.37759439  1
  O  O312  1  0.75216089  0.24614128  0.88655750  1
  O  O313  1  0.75363810  0.73425044  0.37424935  1
  O  O314  1  0.74626068  0.75383466  0.88087799  1
  O  O315  1  0.00490718  0.12037771  0.00395640  1
  O  O316  1  0.00578235  0.12105386  0.50389834  1
  O  O317  1  0.01223094  0.62796493  -0.00171808  1
  O  O318  1  0.00548985  0.63019309  0.51400310  1
  O  O319  1  0.50786377  0.11647809  0.00553954  1
  O  O320  1  0.50584350  0.11218973  0.49366901  1
  O  O321  1  0.50371752  0.61402754  0.00755603  1
  O  O322  1  0.50992107  0.63299297  0.50700545  1
  O  O323  1  0.49477067  0.37913396  0.51871055  1
  O  O324  1  0.48071261  0.39362574  1.01286680  1
  O  O325  1  0.49557303  0.88090927  0.49290732  1
  O  O326  1  0.49576948  0.87945904  0.99713914  1
  O  O327  1  0.99218880  0.37271119  0.49490261  1
  O  O328  1  0.98334202  0.36971390  1.00458874  1
  O  O329  1  0.99171067  0.88136338  0.49343860  1
  O  O330  1  0.99131185  0.88571068  0.99789827  1
  O  O331  1  0.49740725  0.49762503  0.38308699  1
  O  O332  1  0.49362449  0.49471853  0.88005442  1
  O  O333  1  0.49097841  0.99184078  0.38217032  1
  O  O334  1  0.48852415  0.99164899  0.88696818  1
  O  O335  1  0.98670946  0.49385036  0.36903686  1
  O  O336  1  0.99438956  0.48707843  0.86888021  1
  O  O337  1  0.98999467  0.99579043  0.37970608  1
  O  O338  1  0.99512550  1.00068974  0.88575613  1
  O  O339  1  0.00503822  0.00756155  0.11510073  1
  O  O340  1  0.00581287  0.00533947  0.61789035  1
  O  O341  1  0.01615937  0.49310799  0.13101988  1
  O  O342  1  -0.00098685  0.51374929  0.62834099  1
  O  O343  1  0.49774859  0.00576730  0.11245455  1
  O  O344  1  0.50618035  -0.00601900  0.61476551  1
  O  O345  1  0.50742408  0.50927760  0.11967060  1
  O  O346  1  0.50064895  0.51554324  0.62950142  1
  O  O347  1  0.25621629  0.37457429  0.24393557  1
  O  O348  1  0.24304134  0.38102938  0.74196659  1
  O  O349  1  0.23599952  0.86895219  0.25064931  1
  O  O350  1  0.24768399  0.87077599  0.73603859  1
  O  O351  1  0.75656697  0.38939322  0.25487572  1
  O  O352  1  0.76097518  0.38918407  0.73905185  1
  O  O353  1  0.73016044  0.87068962  0.25429493  1
  O  O354  1  0.74568754  0.88223618  0.74265400  1
  O  O355  1  0.24474391  0.12972607  0.25848286  1
  O  O356  1  0.25838211  0.12219270  0.75806597  1
  O  O357  1  0.26788613  0.63290579  0.24857147  1
  O  O358  1  0.25128836  0.62060289  0.75281282  1
  O  O359  1  0.76119886  0.12722772  0.25075627  1
  O  O360  1  0.76485511  0.11480486  0.74418673  1
  O  O361  1  0.75555359  0.62021518  0.26067872  1
  O  O362  1  0.76056501  0.61334570  0.74115648  1
  O  O363  1  0.36578047  0.11382761  0.37830589  1
  O  O364  1  0.36823142  0.11784256  0.87051061  1
  O  O365  1  0.37792890  0.62696700  0.35888392  1
  O  O366  1  0.36936068  0.61966460  0.86808191  1
  O  O367  1  0.87238631  0.11932100  0.37029502  1
  O  O368  1  0.87962178  0.11380002  0.86707684  1
  O  O369  1  0.86568664  0.61927081  0.37311485  1
  O  O370  1  0.88094930  0.62512218  0.86089591  1
  O  O371  1  0.13670499  0.38906809  0.12449484  1
  O  O372  1  0.13807408  0.37028015  0.63051346  1
  O  O373  1  0.12572353  0.88433234  0.13223085  1
  O  O374  1  0.13240577  0.88299073  0.62410262  1
  O  O375  1  0.61491964  0.38300433  0.10661806  1
  O  O376  1  0.64553873  0.38045143  0.61778194  1
  O  O377  1  0.62171347  0.87155480  0.13804392  1
  O  O378  1  0.63060245  0.87975397  0.63147119  1
  O  O379  1  0.10747206  0.24647911  0.25041683  1
  O  O380  1  0.13049117  0.26142283  0.74681786  1
  O  O381  1  0.12278335  0.75364319  0.25761593  1
  O  O382  1  0.11835595  0.75134291  0.75966792  1
  O  O383  1  0.60881920  0.24754460  0.24908452  1
  O  O384  1  0.61074720  0.22636237  0.73994606  1
  O  O385  1  0.61374377  0.75489555  0.24425346  1
  O  O386  1  0.61660044  0.75390228  0.74990865  1
  O  O387  1  0.39561786  0.25067388  0.24289756  1
  O  O388  1  0.36889514  0.23832109  0.73633933  1
  O  O389  1  0.38730340  0.74290861  0.24378691  1
  O  O390  1  0.37858455  0.74435478  0.74435294  1
  O  O391  1  0.88002329  0.24516191  0.24470920  1
  O  O392  1  0.87473999  0.24224827  0.74150123  1
  O  O393  1  0.87502082  0.74473917  0.24153093  1
  O  O394  1  0.88336434  0.74517576  0.74663827  1
  O  O395  1  0.37617209  0.48557765  0.50507117  1
  O  O396  1  0.37914408  0.49989685  0.99156960  1
  O  O397  1  0.38209106  0.99246590  0.49508839  1
  O  O398  1  0.38189457  0.99312148  0.99434454  1
  O  O399  1  0.87424840  0.49503060  0.49040372  1
  O  O400  1  0.86722368  0.48617811  1.00342933  1
  O  O401  1  0.87878667  0.99434270  0.49218368  1
  O  O402  1  0.88205453  0.99926407  0.99325463  1
  O  O403  1  0.11703239  0.00653851  0.00720753  1
  O  O404  1  0.11856479  0.00498559  0.50732640  1
  O  O405  1  0.12577776  0.51342080  0.00573855  1
  O  O406  1  0.13006955  0.51264968  0.49771990  1
  O  O407  1  0.61904257  0.00972084  -0.00677893  1
  O  O408  1  0.61544017  0.00369339  0.50607514  1
  O  O409  1  0.61833121  0.50622531  0.00329650  1
  O  O410  1  0.61759462  0.50184111  0.49975777  1
  O  O411  1  0.35897964  0.37946914  0.11738340  1
  O  O412  1  0.36138322  0.36365109  0.61728771  1
  O  O413  1  0.37540314  0.86688820  0.12027943  1
  O  O414  1  0.36739980  0.87037193  0.61820677  1
  O  O415  1  0.87411116  0.36655940  0.11522546  1
  O  O416  1  0.87660718  0.37038271  0.62293987  1
  O  O417  1  0.87768667  0.86929576  0.11633009  1
  O  O418  1  0.86642496  0.87657782  0.61489670  1
  O  O419  1  0.13309979  0.12421209  0.38091881  1
  O  O420  1  0.13475305  0.11753572  0.88485292  1
  O  O421  1  0.12311694  0.63335282  0.38318783  1
  O  O422  1  0.12728095  0.63354291  0.88454747  1
  O  O423  1  0.62785382  0.11925803  0.38707533  1
  O  O424  1  0.62085807  0.13082182  0.89319615  1
  O  O425  1  0.63727656  0.62209447  0.38058659  1
  O  O426  1  0.61544080  0.62294483  0.89126560  1
