# generated using pymatgen
data_V85Zn86O256
_symmetry_space_group_name_H-M   'P 1'
_cell_length_a   16.90496686
_cell_length_b   16.90085468
_cell_length_c   16.90652637
_cell_angle_alpha   90.00066570
_cell_angle_beta   90.07070906
_cell_angle_gamma   90.05969911
_symmetry_Int_Tables_number   1
_chemical_formula_structural   V85Zn86O256
_chemical_formula_sum   'V85 Zn86 O256'
_cell_volume   4830.33010098
_cell_formula_units_Z   1
loop_
 _symmetry_equiv_pos_site_id
 _symmetry_equiv_pos_as_xyz
  1  'x, y, z'
loop_
 _atom_site_type_symbol
 _atom_site_label
 _atom_site_symmetry_multiplicity
 _atom_site_fract_x
 _atom_site_fract_y
 _atom_site_fract_z
 _atom_site_occupancy
  V  V0  1  0.24765397  0.12050872  0.36526181  1
  V  V1  1  -0.00069060  0.24948933  0.74761485  1
  V  V2  1  0.00622244  0.87720062  0.38029274  1
  V  V3  1  -0.00099685  0.00285255  0.00057300  1
  V  V4  1  0.00145152  0.11914168  0.62168407  1
  V  V5  1  0.87470089  0.75386077  0.62704257  1
  V  V6  1  0.25125305  0.12423065  0.87183881  1
  V  V7  1  0.50262055  0.12738723  0.13378652  1
  V  V8  1  0.61713272  0.12030050  -0.00185850  1
  V  V9  1  0.75077962  0.75532564  0.50186042  1
  V  V10  1  0.87587499  0.61901418  0.75314934  1
  V  V11  1  0.37723536  0.61846153  0.75260694  1
  V  V12  1  0.62505608  0.87389870  0.25217929  1
  V  V13  1  0.11933873  0.25145825  0.36852181  1
  V  V14  1  0.25566036  0.61877965  0.87610937  1
  V  V15  1  0.00693185  0.75486385  0.75101236  1
  V  V16  1  0.00033842  0.62585305  0.12647319  1
  V  V17  1  0.75010097  0.87501423  0.12873327  1
  V  V18  1  0.37962068  0.37418822  0.49185348  1
  V  V19  1  0.62459234  0.12283972  0.49944257  1
  V  V20  1  -0.00695660  0.50263187  -0.00501779  1
  V  V21  1  0.87369441  0.38382071  0.49939698  1
  V  V22  1  0.87689279  0.87452313  0.00222304  1
  V  V23  1  0.12557277  0.25116764  0.87082460  1
  V  V24  1  0.25131843  0.37353606  0.62502557  1
  V  V25  1  0.61907528  -0.00281714  0.12181921  1
  V  V26  1  0.37707620  0.50460151  0.37134956  1
  V  V27  1  0.61126125  0.37023245  0.25100738  1
  V  V28  1  0.24980457  0.37437209  0.12364441  1
  V  V29  1  0.75301213  0.61612749  0.87856670  1
  V  V30  1  0.25316028  0.75523563  0.51752758  1
  V  V31  1  0.37934310  0.12647654  0.75130394  1
  V  V32  1  0.00741819  0.75143142  0.25559061  1
  V  V33  1  0.12701928  -0.01091691  0.62832666  1
  V  V34  1  0.49635880  0.39000281  0.86847098  1
  V  V35  1  0.49871559  0.87739116  0.89007999  1
  V  V36  1  0.38515138  0.24944902  0.62703538  1
  V  V37  1  0.62470000  0.62518052  0.50047121  1
  V  V38  1  0.49943229  0.49896019  0.49490194  1
  V  V39  1  0.49223464  0.74327848  0.25307493  1
  V  V40  1  0.36953989  -0.00266014  0.37089365  1
  V  V41  1  0.12901275  0.88217004  0.25008243  1
  V  V42  1  0.12324852  0.11849360  0.50012300  1
  V  V43  1  0.74761260  0.24797191  -0.00367656  1
  V  V44  1  0.12671778  0.63018298  0.49561393  1
  V  V45  1  0.62636019  0.74857389  0.87905879  1
  V  V46  1  0.25028178  0.24764679  0.49810963  1
  V  V47  1  0.60883737  0.25452407  0.37759418  1
  V  V48  1  0.24914445  -0.01528743  0.74842771  1
  V  V49  1  0.62397841  0.50201492  0.62664097  1
  V  V50  1  -0.00288506  0.13366838  0.13104400  1
  V  V51  1  0.25059459  0.63739402  0.37083781  1
  V  V52  1  -0.00318845  0.38093541  0.87033280  1
  V  V53  1  0.38090058  0.25163277  0.12971929  1
  V  V54  1  0.62329490  0.49918147  0.12166359  1
  V  V55  1  0.75824225  0.61892980  0.37661117  1
  V  V56  1  0.87080029  0.24848084  0.61702633  1
  V  V57  1  0.64298080  -0.00703915  0.62548278  1
  V  V58  1  0.25906948  0.88481884  0.12558070  1
  V  V59  1  0.87680561  0.00282374  0.37521810  1
  V  V60  1  0.38259716  0.38727162  -0.00211541  1
  V  V61  1  0.26035674  0.75473815  0.00180215  1
  V  V62  1  0.12553914  0.12671609  -0.00184579  1
  V  V63  1  0.49920634  0.88232619  0.37920673  1
  V  V64  1  0.75054780  0.13817676  0.37631263  1
  V  V65  1  0.87619453  0.74920557  0.12988620  1
  V  V66  1  0.12493305  0.63056938  -0.00357360  1
  V  V67  1  0.62539478  0.74986861  0.37583914  1
  V  V68  1  0.49934177  0.11110352  0.62151739  1
  V  V69  1  0.86758472  0.12080901  0.74793479  1
  V  V70  1  0.37916308  -0.00348447  0.88588427  1
  V  V71  1  0.60939511  0.24703187  0.86865950  1
  V  V72  1  0.12590453  0.49920737  0.62162113  1
  V  V73  1  0.12421341  0.50100879  0.12441798  1
  V  V74  1  0.74621043  0.36975325  0.62145562  1
  V  V75  1  0.49570957  0.75499417  0.74912911  1
  V  V76  1  0.37624316  0.87713205  0.51376894  1
  V  V77  1  0.25118577  0.50612309  0.25035111  1
  V  V78  1  0.75512378  0.49477086  0.25386527  1
  V  V79  1  0.87092944  0.37548894  -0.00636793  1
  V  V80  1  0.86656921  -0.00109770  0.87113944  1
  V  V81  1  -0.00859799  0.37849795  0.36726780  1
  V  V82  1  0.49463272  0.63059287  0.62330590  1
  V  V83  1  0.49157416  0.61930297  0.12335568  1
  V  V84  1  0.87591777  0.88167233  0.50161267  1
  Zn  Zn85  1  0.00681047  0.87944565  0.86966367  1
  Zn  Zn86  1  0.74963036  0.74369980  0.00468770  1
  Zn  Zn87  1  0.75233907  0.49654860  0.75060130  1
  Zn  Zn88  1  0.00023122  0.62351779  0.62341425  1
  Zn  Zn89  1  0.87493632  0.25411299  0.12849157  1
  Zn  Zn90  1  0.63683934  0.88643231  0.75503224  1
  Zn  Zn91  1  0.62210909  0.61823080  0.00062158  1
  Zn  Zn92  1  0.12619514  0.37701037  0.74828045  1
  Zn  Zn93  1  0.11997794  0.37191359  0.24661399  1
  Zn  Zn94  1  0.61944854  0.36770038  0.74509942  1
  Zn  Zn95  1  0.13335219  0.75958188  0.86759419  1
  Zn  Zn96  1  0.37689940  0.12703041  0.25206795  1
  Zn  Zn97  1  0.88022880  0.61769496  0.25590148  1
  Zn  Zn98  1  0.25378675  0.25167200  -0.00286384  1
  Zn  Zn99  1  0.87554351  0.13217338  0.25335115  1
  Zn  Zn100  1  0.12888672  0.00472455  0.12887229  1
  Zn  Zn101  1  0.74264254  0.12096603  0.86988436  1
  Zn  Zn102  1  0.74832506  0.37292540  0.12580070  1
  Zn  Zn103  1  0.75043306  0.00314254  0.25141753  1
  Zn  Zn104  1  0.25328272  0.49763493  0.75303902  1
  Zn  Zn105  1  -0.00243570  0.50438758  0.49553040  1
  Zn  Zn106  1  0.37446408  0.75030530  0.12934088  1
  Zn  Zn107  1  0.18725903  0.18987179  0.18592283  1
  Zn  Zn108  1  0.19101436  0.18518062  0.68733799  1
  Zn  Zn109  1  0.18718614  0.69249394  0.18694388  1
  Zn  Zn110  1  0.18857047  0.68419037  0.68677217  1
  Zn  Zn111  1  0.68974140  0.19004896  0.18908739  1
  Zn  Zn112  1  0.68561475  0.18681503  0.68590138  1
  Zn  Zn113  1  0.68563998  0.68384253  0.19031846  1
  Zn  Zn114  1  0.70703316  0.72435603  0.70985819  1
  Zn  Zn115  1  0.31036070  0.31357804  0.31021537  1
  Zn  Zn116  1  0.31646902  0.31212665  0.81157806  1
  Zn  Zn117  1  0.31196403  0.81605692  0.31189594  1
  Zn  Zn118  1  0.31823979  0.80748298  0.81552656  1
  Zn  Zn119  1  0.81094893  0.31076227  0.30938021  1
  Zn  Zn120  1  0.80859391  0.30950453  0.80942193  1
  Zn  Zn121  1  0.81499947  0.81214296  0.31481640  1
  Zn  Zn122  1  0.81497346  0.81133534  0.81714515  1
  Zn  Zn123  1  0.18779818  0.43790446  0.43616916  1
  Zn  Zn124  1  0.18542223  0.43867804  0.93918922  1
  Zn  Zn125  1  0.18888326  0.93590771  0.44109747  1
  Zn  Zn126  1  0.18839469  0.93753210  0.93819848  1
  Zn  Zn127  1  0.68745604  0.43338154  0.43832480  1
  Zn  Zn128  1  0.68223021  0.43549117  0.93474544  1
  Zn  Zn129  1  0.68969151  0.94242260  0.44032322  1
  Zn  Zn130  1  0.68800757  0.93430232  0.94125605  1
  Zn  Zn131  1  0.31413742  0.06596426  0.06285998  1
  Zn  Zn132  1  0.31025443  0.05769312  0.56119307  1
  Zn  Zn133  1  0.31312399  0.56433743  0.06310282  1
  Zn  Zn134  1  0.31290319  0.56373269  0.56139306  1
  Zn  Zn135  1  0.80799993  0.06320368  0.06193181  1
  Zn  Zn136  1  0.81043275  0.06555226  0.55647671  1
  Zn  Zn137  1  0.81170781  0.56003712  0.06604939  1
  Zn  Zn138  1  0.81022087  0.56491942  0.56727764  1
  Zn  Zn139  1  0.43484393  0.43950091  0.18916512  1
  Zn  Zn140  1  0.43759529  0.43890075  0.68572582  1
  Zn  Zn141  1  0.44014462  0.93919792  0.19092932  1
  Zn  Zn142  1  0.44026438  0.93743490  0.69607166  1
  Zn  Zn143  1  0.93462997  0.43481880  0.18391129  1
  Zn  Zn144  1  0.93868493  0.43863762  0.68275194  1
  Zn  Zn145  1  0.93977103  0.94271124  0.19014119  1
  Zn  Zn146  1  0.93618976  0.93714264  0.68522194  1
  Zn  Zn147  1  0.06073293  0.05963725  0.31456185  1
  Zn  Zn148  1  0.06053486  0.05937499  0.81058664  1
  Zn  Zn149  1  0.06594543  0.55993299  0.31441914  1
  Zn  Zn150  1  0.06609569  0.56565162  0.80946980  1
  Zn  Zn151  1  0.56384205  0.06061227  0.31289526  1
  Zn  Zn152  1  0.56048426  0.05947414  0.80748666  1
  Zn  Zn153  1  0.56557203  0.56112157  0.31028348  1
  Zn  Zn154  1  0.56691269  0.56565451  0.80920078  1
  Zn  Zn155  1  0.43752123  0.18242207  0.43998908  1
  Zn  Zn156  1  0.43632250  0.18876265  0.94438104  1
  Zn  Zn157  1  0.43311662  0.69057034  0.43790099  1
  Zn  Zn158  1  0.43850279  0.68500976  0.93882363  1
  Zn  Zn159  1  0.93974182  0.19152294  0.43831763  1
  Zn  Zn160  1  0.93573596  0.18873568  0.93509777  1
  Zn  Zn161  1  0.93925645  0.69094799  0.43795008  1
  Zn  Zn162  1  0.93623870  0.68951622  0.93453334  1
  Zn  Zn163  1  0.06292770  0.31308778  0.05726888  1
  Zn  Zn164  1  0.06035129  0.31049847  0.55634726  1
  Zn  Zn165  1  0.06660551  0.81529558  0.06366901  1
  Zn  Zn166  1  0.06190513  0.80850051  0.56093070  1
  Zn  Zn167  1  0.56128985  0.31165454  0.05987266  1
  Zn  Zn168  1  0.56081324  0.30976439  0.55844702  1
  Zn  Zn169  1  0.56076000  0.80678491  0.06478668  1
  Zn  Zn170  1  0.56135062  0.81491323  0.56370258  1
  O  O171  1  0.11676774  0.12607828  0.11654524  1
  O  O172  1  0.11930610  0.12068620  0.61858911  1
  O  O173  1  0.11964427  0.62090303  0.11758032  1
  O  O174  1  0.12735756  0.61728053  0.61308190  1
  O  O175  1  0.62047396  0.11863548  0.12015139  1
  O  O176  1  0.61903576  0.11928944  0.61846235  1
  O  O177  1  0.61696903  0.61586631  0.12497852  1
  O  O178  1  0.61391684  0.61534009  0.61717128  1
  O  O179  1  0.36597399  0.38720226  0.38233931  1
  O  O180  1  0.38483550  0.37191310  0.88575984  1
  O  O181  1  0.38066657  0.88043177  0.38052745  1
  O  O182  1  0.38966384  0.88076957  0.87305132  1
  O  O183  1  0.88442573  0.36939862  0.38279161  1
  O  O184  1  0.88252465  0.37086942  0.88260879  1
  O  O185  1  0.88202952  0.88333313  0.38061096  1
  O  O186  1  0.87967790  0.88009788  0.88458923  1
  O  O187  1  0.25619341  0.00808355  0.37887906  1
  O  O188  1  0.25688188  0.00446187  0.86637875  1
  O  O189  1  0.25411775  0.50847988  0.36759779  1
  O  O190  1  0.24348229  0.51381297  0.87378667  1
  O  O191  1  0.76137270  0.00900738  0.37571417  1
  O  O192  1  0.76198829  -0.00047862  0.87830473  1
  O  O193  1  0.74253629  0.50755345  0.36804518  1
  O  O194  1  0.74090625  0.51105871  0.86926356  1
  O  O195  1  0.24555872  0.49617057  0.13056933  1
  O  O196  1  0.24618058  0.48990285  0.62361124  1
  O  O197  1  0.24958084  0.98909336  0.12159895  1
  O  O198  1  0.24356679  1.00296686  0.63988104  1
  O  O199  1  0.74096330  0.49744476  0.13513492  1
  O  O200  1  0.73927474  0.49322783  0.62595797  1
  O  O201  1  0.73950156  0.99364819  0.12772179  1
  O  O202  1  0.74220934  1.00081000  0.62377032  1
  O  O203  1  -0.00036225  0.37838557  0.26223750  1
  O  O204  1  0.00041956  0.37042532  0.75535017  1
  O  O205  1  0.00628585  0.87050092  0.25622483  1
  O  O206  1  -0.00608827  0.85882790  0.74962180  1
  O  O207  1  0.51222860  0.37991844  0.25173797  1
  O  O208  1  0.49590196  0.37555303  0.76358117  1
  O  O209  1  0.50651570  0.86712469  0.25931189  1
  O  O210  1  0.50762820  0.86669608  0.75788154  1
  O  O211  1  0.50054463  0.12282038  0.23815565  1
  O  O212  1  0.48647027  0.12102494  0.74097230  1
  O  O213  1  0.50737792  0.63365245  0.24018140  1
  O  O214  1  0.49433527  0.62875861  0.74279034  1
  O  O215  1  1.00233292  0.12138197  0.23339846  1
  O  O216  1  0.99118202  0.13058022  0.74309281  1
  O  O217  1  1.00141339  0.63276875  0.24866418  1
  O  O218  1  0.99270178  0.63341118  0.74859499  1
  O  O219  1  0.37231660  0.25985059  0.01161789  1
  O  O220  1  0.37073313  0.25643449  0.50365253  1
  O  O221  1  0.36342236  0.74641230  0.00434552  1
  O  O222  1  0.36267752  0.76170628  0.49796537  1
  O  O223  1  0.86544507  0.25689432  -0.00136587  1
  O  O224  1  0.87910377  0.25922287  0.51257160  1
  O  O225  1  0.87816895  0.75723965  0.01291521  1
  O  O226  1  0.86993680  0.75769476  0.50596050  1
  O  O227  1  0.13050436  0.24011773  0.49137262  1
  O  O228  1  0.12639189  0.24070892  0.99036649  1
  O  O229  1  0.14079579  0.74454268  0.50339905  1
  O  O230  1  0.13191275  0.73860734  1.00391370  1
  O  O231  1  0.62144619  0.24465636  0.48486366  1
  O  O232  1  0.62861808  0.24309621  0.99001914  1
  O  O233  1  0.63294769  0.74737807  0.49586856  1
  O  O234  1  0.62662163  0.74709037  0.99104604  1
  O  O235  1  0.49355697  0.24145948  0.12192029  1
  O  O236  1  0.48892511  0.24057994  0.62064175  1
  O  O237  1  0.49825200  0.73987355  0.13515602  1
  O  O238  1  0.50758411  0.74151507  0.63544148  1
  O  O239  1  0.99956897  0.23686802  0.11641935  1
  O  O240  1  0.99491107  0.24133364  0.62928536  1
  O  O241  1  0.99523477  0.74548277  0.13190570  1
  O  O242  1  0.99368565  0.74645261  0.63347775  1
  O  O243  1  0.00800235  0.26371338  0.37968954  1
  O  O244  1  0.00465430  0.25965673  0.86866529  1
  O  O245  1  -0.00572326  0.76221497  0.36510988  1
  O  O246  1  0.00004460  0.75087883  0.86012872  1
  O  O247  1  0.51009434  0.24478386  0.37239322  1
  O  O248  1  0.50620975  0.25632255  0.88009433  1
  O  O249  1  0.50534815  0.75548506  0.37029228  1
  O  O250  1  0.50370858  0.76014348  0.87406530  1
  O  O251  1  0.24333807  0.13000897  0.49278377  1
  O  O252  1  0.24113900  0.12659726  0.99256122  1
  O  O253  1  0.24836935  0.63777977  0.49529360  1
  O  O254  1  0.24388778  0.63092705  0.99605463  1
  O  O255  1  0.73608333  0.12514720  0.49168883  1
  O  O256  1  0.73779418  0.13107715  0.99613829  1
  O  O257  1  0.74435606  0.62925345  0.49321231  1
  O  O258  1  0.74874785  0.62358023  0.99375100  1
  O  O259  1  0.25883858  0.37689664  0.00807783  1
  O  O260  1  0.25886539  0.37006752  0.50748105  1
  O  O261  1  0.24555610  0.86790932  0.01550387  1
  O  O262  1  0.25939253  0.86283041  0.49837616  1
  O  O263  1  0.75616233  0.36894882  -0.00370662  1
  O  O264  1  0.75698079  0.37658741  0.51146492  1
  O  O265  1  0.76311746  0.87145042  0.00823785  1
  O  O266  1  0.76060445  0.86494810  0.49157686  1
  O  O267  1  0.13471334  0.49623235  0.24330070  1
  O  O268  1  0.12983061  0.49984159  0.73525537  1
  O  O269  1  0.12071224  0.98764538  0.24769618  1
  O  O270  1  0.13968017  1.00442690  0.74471811  1
  O  O271  1  0.63160984  0.48856128  0.24463656  1
  O  O272  1  0.62351692  0.49559565  0.73521335  1
  O  O273  1  0.62639908  0.99021293  0.24354203  1
  O  O274  1  0.62641782  1.00227642  0.73261305  1
  O  O275  1  0.37899365  0.00289948  0.26592594  1
  O  O276  1  0.36543415  0.00578262  0.75653782  1
  O  O277  1  0.36119484  0.49700101  0.25698383  1
  O  O278  1  0.37276223  0.51298760  0.74592419  1
  O  O279  1  0.87289909  0.00746968  0.25997870  1
  O  O280  1  0.88140396  0.00722337  0.75874126  1
  O  O281  1  0.86054840  0.49917664  0.24568928  1
  O  O282  1  0.87393585  0.51477240  0.74113573  1
  O  O283  1  0.11611586  0.36727971  0.37537926  1
  O  O284  1  0.11794300  0.36874431  0.87292584  1
  O  O285  1  0.11410633  0.88219973  0.36994883  1
  O  O286  1  0.11881006  0.87063071  0.88336415  1
  O  O287  1  0.62470176  0.36231055  0.36867750  1
  O  O288  1  0.60927754  0.36750895  0.87360914  1
  O  O289  1  0.61803687  0.87139026  0.37439375  1
  O  O290  1  0.61687489  0.86910278  0.87567120  1
  O  O291  1  0.38366972  0.13239952  0.12603357  1
  O  O292  1  0.38061187  0.12874633  0.62731756  1
  O  O293  1  0.38743136  0.62533815  0.12796241  1
  O  O294  1  0.38780059  0.62229320  0.62969782  1
  O  O295  1  0.88879049  0.12520016  0.12051250  1
  O  O296  1  0.88133337  0.12913401  0.62683689  1
  O  O297  1  0.88174239  0.63292329  0.12914567  1
  O  O298  1  0.87741552  0.63652426  0.63049805  1
  O  O299  1  0.25478240  0.25991195  0.12127246  1
  O  O300  1  0.25821789  0.25527574  0.61782980  1
  O  O301  1  0.25331989  0.75890499  0.11914496  1
  O  O302  1  0.25401622  0.74898555  0.61621333  1
  O  O303  1  0.74615467  0.25233280  0.10852902  1
  O  O304  1  0.75820676  0.25599572  0.62643857  1
  O  O305  1  0.75902716  0.75412981  0.12746295  1
  O  O306  1  0.75976460  0.74059077  0.60787988  1
  O  O307  1  0.24366765  0.24391989  0.38040400  1
  O  O308  1  0.24374525  0.24394317  0.87435668  1
  O  O309  1  0.25429244  0.73964955  0.37759718  1
  O  O310  1  0.25083386  0.74160648  0.88423649  1
  O  O311  1  0.73982357  0.24076066  0.37467536  1
  O  O312  1  0.73997914  0.24768926  0.88344577  1
  O  O313  1  0.74681631  0.74245803  0.38301182  1
  O  O314  1  0.74186307  0.73791290  0.88187896  1
  O  O315  1  0.00559731  0.12072679  0.00408045  1
  O  O316  1  0.00994901  0.12918795  0.50946346  1
  O  O317  1  0.00532843  0.62021400  0.00134298  1
  O  O318  1  0.01118809  0.62586789  0.49923767  1
  O  O319  1  0.51163815  0.12681273  0.01072370  1
  O  O320  1  0.51211314  0.12637216  0.50765778  1
  O  O321  1  0.50200697  0.62871799  0.01848184  1
  O  O322  1  0.50325085  0.62319848  0.50561143  1
  O  O323  1  0.48631619  0.38023868  0.50233817  1
  O  O324  1  0.48877108  0.37459398  0.99150200  1
  O  O325  1  0.48473756  0.86518582  0.49200552  1
  O  O326  1  0.50189225  0.87317019  0.98917688  1
  O  O327  1  0.99113108  0.37766823  0.49100311  1
  O  O328  1  0.99418171  0.38253633  0.99063901  1
  O  O329  1  0.99084438  0.86744659  0.48967905  1
  O  O330  1  0.98972439  0.88401882  1.00534211  1
  O  O331  1  0.48974584  0.50763898  0.38061025  1
  O  O332  1  0.50522450  0.48869179  0.87418081  1
  O  O333  1  0.49550394  0.98744806  0.37563740  1
  O  O334  1  0.49489382  0.98597865  0.87054216  1
  O  O335  1  1.00429805  0.48376208  0.37789008  1
  O  O336  1  1.00701768  0.48963046  0.87957401  1
  O  O337  1  0.98684929  0.99371922  0.37489666  1
  O  O338  1  0.99001620  1.00128335  0.88623281  1
  O  O339  1  0.00142927  0.01062507  0.11336634  1
  O  O340  1  0.00866959  0.01264651  0.63286402  1
  O  O341  1  0.00395743  0.50583915  0.11706067  1
  O  O342  1  0.01141120  0.50187239  0.61851063  1
  O  O343  1  0.51188483  0.00550011  0.12746914  1
  O  O344  1  0.50175259  0.00930810  0.62599887  1
  O  O345  1  0.50549006  0.51261824  0.13417941  1
  O  O346  1  0.50463926  0.50562243  0.61584178  1
  O  O347  1  0.24746941  0.38279405  0.23670583  1
  O  O348  1  0.25104212  0.37537590  0.73715389  1
  O  O349  1  0.24192229  0.86970947  0.23765635  1
  O  O350  1  0.25623676  0.88579247  0.75451298  1
  O  O351  1  0.73937742  0.38181328  0.24955401  1
  O  O352  1  0.74748978  0.37654892  0.73653360  1
  O  O353  1  0.74327618  0.87493259  0.24634365  1
  O  O354  1  0.73611767  0.83355141  0.74279338  1
  O  O355  1  0.25016674  0.12725609  0.26172456  1
  O  O356  1  0.26102710  0.11863977  0.75477317  1
  O  O357  1  0.24270621  0.61930174  0.25794434  1
  O  O358  1  0.25936083  0.62688343  0.75809797  1
  O  O359  1  0.74813275  0.12234570  0.26191371  1
  O  O360  1  0.76390676  0.12834145  0.74996836  1
  O  O361  1  0.75032530  0.61600864  0.26014142  1
  O  O362  1  0.75923655  0.62782419  0.75799557  1
  O  O363  1  0.36594181  0.11713485  0.37679439  1
  O  O364  1  0.37399529  0.12045364  0.86836434  1
  O  O365  1  0.36493639  0.61343535  0.38056782  1
  O  O366  1  0.36873026  0.62636962  0.86774067  1
  O  O367  1  0.86836611  0.12101316  0.38051292  1
  O  O368  1  0.87345190  0.11750981  0.86560293  1
  O  O369  1  0.86281606  0.62842078  0.37536356  1
  O  O370  1  0.86611179  0.62835509  0.86663283  1
  O  O371  1  0.13222569  0.38076194  0.12189859  1
  O  O372  1  0.13383767  0.37947359  0.62107354  1
  O  O373  1  0.13434395  0.88022472  0.13265866  1
  O  O374  1  0.11832531  0.89013471  0.61861401  1
  O  O375  1  0.62274666  0.37844751  0.13591890  1
  O  O376  1  0.62936182  0.37860011  0.62281954  1
  O  O377  1  0.62780159  0.87947367  0.12971557  1
  O  O378  1  0.62316105  0.89119272  0.62234055  1
  O  O379  1  0.12849781  0.25224796  0.26379497  1
  O  O380  1  0.11861223  0.25094255  0.75407466  1
  O  O381  1  0.11361911  0.76214641  0.24571483  1
  O  O382  1  0.11080969  0.74374884  0.74738625  1
  O  O383  1  0.62702625  0.26257164  0.25932992  1
  O  O384  1  0.62769875  0.24924302  0.76331886  1
  O  O385  1  0.61834601  0.75580574  0.25701082  1
  O  O386  1  0.60762486  0.73878404  0.76871473  1
  O  O387  1  0.37079818  0.25024621  0.23555164  1
  O  O388  1  0.36935667  0.23978156  0.73823618  1
  O  O389  1  0.38872135  0.75194961  0.25275144  1
  O  O390  1  0.38894378  0.73914897  0.75403436  1
  O  O391  1  0.86955761  0.24539415  0.24167710  1
  O  O392  1  0.88065260  0.24304195  0.73972857  1
  O  O393  1  0.88517606  0.75062218  0.24113233  1
  O  O394  1  0.88397028  0.74172721  0.74259268  1
  O  O395  1  0.37816539  0.49305303  0.49227552  1
  O  O396  1  0.37412388  0.48619085  1.00373130  1
  O  O397  1  0.36842289  0.98391062  0.49147757  1
  O  O398  1  0.37208363  1.00534468  0.98493424  1
  O  O399  1  0.87570675  0.48806924  0.50743284  1
  O  O400  1  0.88657480  0.49516509  1.00078184  1
  O  O401  1  0.87253288  0.98835702  0.49609380  1
  O  O402  1  0.87992151  0.99459652  0.99522448  1
  O  O403  1  0.11711161  0.01300063  0.00009996  1
  O  O404  1  0.13254431  0.01220177  0.50938907  1
  O  O405  1  0.11532184  0.51118206  0.00367353  1
  O  O406  1  0.12879383  0.50811205  0.50836733  1
  O  O407  1  0.62968770  0.00775314  0.00874964  1
  O  O408  1  0.62713428  0.00890474  0.51221872  1
  O  O409  1  0.62695242  0.49466043  0.01762328  1
  O  O410  1  0.61838850  0.50241874  0.50635969  1
  O  O411  1  0.37161702  0.37194285  0.11639288  1
  O  O412  1  0.37034513  0.36735649  0.61817072  1
  O  O413  1  0.36287648  0.87506537  0.13155643  1
  O  O414  1  0.38127751  0.88086368  0.61258778  1
  O  O415  1  0.87287484  0.37394603  0.10743656  1
  O  O416  1  0.86882767  0.36747155  0.61916625  1
  O  O417  1  0.87255696  0.87003311  0.12230230  1
  O  O418  1  0.87927859  0.86359570  0.61626228  1
  O  O419  1  0.12792123  0.12900021  0.38101183  1
  O  O420  1  0.12775942  0.12999470  0.87948090  1
  O  O421  1  0.13551825  0.61975082  0.38758943  1
  O  O422  1  0.13243843  0.63169688  0.88204801  1
  O  O423  1  0.62810004  0.13247074  0.37989509  1
  O  O424  1  0.62056350  0.12892062  0.88029847  1
  O  O425  1  0.63312445  0.63097732  0.38124233  1
  O  O426  1  0.63034896  0.62975434  0.88110774  1
