# generated using pymatgen
data_V85Zn86O256
_symmetry_space_group_name_H-M   'P 1'
_cell_length_a   16.93281742
_cell_length_b   16.94142576
_cell_length_c   16.93283079
_cell_angle_alpha   90.02738077
_cell_angle_beta   89.96451493
_cell_angle_gamma   90.01729539
_symmetry_Int_Tables_number   1
_chemical_formula_structural   V85Zn86O256
_chemical_formula_sum   'V85 Zn86 O256'
_cell_volume   4857.45290262
_cell_formula_units_Z   1
loop_
 _symmetry_equiv_pos_site_id
 _symmetry_equiv_pos_as_xyz
  1  'x, y, z'
loop_
 _atom_site_type_symbol
 _atom_site_label
 _atom_site_symmetry_multiplicity
 _atom_site_fract_x
 _atom_site_fract_y
 _atom_site_fract_z
 _atom_site_occupancy
  V  V0  1  0.12472210  0.37296151  0.74513532  1
  V  V1  1  0.50303092  0.87533475  0.86714855  1
  V  V2  1  0.37147692  0.11874290  0.24943001  1
  V  V3  1  0.25130901  0.37575985  0.61425044  1
  V  V4  1  0.24755012  0.74274154  0.50129861  1
  V  V5  1  0.69037408  0.43367874  0.68950426  1
  V  V6  1  0.10943074  0.87293052  0.75009422  1
  V  V7  1  0.24619591  0.50081944  0.74708681  1
  V  V8  1  0.38284066  0.74463284  0.12462334  1
  V  V9  1  0.12317159  0.24888064  0.87141822  1
  V  V10  1  0.87141812  0.62142360  0.24576927  1
  V  V11  1  0.13117307  0.87654555  0.25069990  1
  V  V12  1  0.25184910  0.87750041  0.12515240  1
  V  V13  1  -0.00138859  0.37698965  0.38397722  1
  V  V14  1  0.86723959  0.11888867  0.24783402  1
  V  V15  1  0.24908546  0.11656133  0.37174613  1
  V  V16  1  0.74617920  0.37190704  0.11281744  1
  V  V17  1  0.84066323  0.56245763  0.83253875  1
  V  V18  1  0.62691063  0.74649439  0.87326219  1
  V  V19  1  0.38053654  0.13069625  0.74610429  1
  V  V20  1  0.62855743  0.12705471  0.50435959  1
  V  V21  1  0.50262671  0.76317972  0.25339782  1
  V  V22  1  0.63100563  0.13941653  -0.00089971  1
  V  V23  1  0.37359379  0.49854640  0.38621459  1
  V  V24  1  0.61694660  0.63124532  0.00590803  1
  V  V25  1  0.00006033  -0.00361593  0.49919051  1
  V  V26  1  0.51452859  0.51085291  0.50473915  1
  V  V27  1  0.38064449  0.62330505  0.25031231  1
  V  V28  1  0.25256186  0.75274681  -0.00315279  1
  V  V29  1  0.37702975  0.87660005  -0.00093488  1
  V  V30  1  0.74807485  0.74779325  0.50397100  1
  V  V31  1  0.12676434  0.12386094  0.49866834  1
  V  V32  1  0.62144285  0.37303421  0.24863477  1
  V  V33  1  0.12467395  0.62655459  0.00339008  1
  V  V34  1  0.86951760  0.49927394  0.38496043  1
  V  V35  1  0.25310613  0.87409471  0.62694155  1
  V  V36  1  0.87969382  0.73543652  0.63891935  1
  V  V37  1  0.74932552  0.74879246  -0.00237578  1
  V  V38  1  0.37977578  0.25365868  0.61786220  1
  V  V39  1  -0.00369776  0.24684178  0.75080730  1
  V  V40  1  0.38256855  0.74258155  0.62322324  1
  V  V41  1  0.62056749  0.50357348  0.12327827  1
  V  V42  1  0.75040693  0.15181830  0.87726243  1
  V  V43  1  0.55235537  0.31530723  0.81706858  1
  V  V44  1  0.12604647  0.37676213  0.25039592  1
  V  V45  1  0.49606280  0.37282466  0.38642563  1
  V  V46  1  -0.00251762  0.24902733  0.25086598  1
  V  V47  1  0.00062605  0.87371639  0.37347449  1
  V  V48  1  -0.00069000  0.12256878  0.62433137  1
  V  V49  1  0.11441666  0.51345912  0.62458898  1
  V  V50  1  0.88659188  0.37011959  0.00100492  1
  V  V51  1  0.37499135  0.37627700  -0.00545240  1
  V  V52  1  0.87248985  0.74825557  0.12235223  1
  V  V53  1  0.74943460  0.88245807  0.62893947  1
  V  V54  1  -0.00072006  0.12165691  0.12525151  1
  V  V55  1  0.12354403  0.74107338  0.37991474  1
  V  V56  1  -0.00032283  0.51924175  0.50169421  1
  V  V57  1  0.73542650  0.62509386  0.37351889  1
  V  V58  1  0.12572845  0.24833774  0.37487919  1
  V  V59  1  0.86598271  0.00085630  0.87352395  1
  V  V60  1  0.12888274  -0.00040013  0.12598837  1
  V  V61  1  0.74696907  0.12386002  0.37387957  1
  V  V62  1  0.25070507  0.37896223  0.12440818  1
  V  V63  1  0.25189491  0.12444192  0.87121865  1
  V  V64  1  0.37463103  0.24941272  0.12665600  1
  V  V65  1  0.37717050  -0.00742088  0.37588889  1
  V  V66  1  0.62863781  -0.00121118  0.13968154  1
  V  V67  1  0.50672434  -0.00689760  0.50243630  1
  V  V68  1  0.86976878  -0.00506122  0.36934997  1
  V  V69  1  0.49506213  0.50757543  -0.00064735  1
  V  V70  1  0.62181946  0.76962203  0.37359451  1
  V  V71  1  0.00002581  -0.00337017  -0.00771920  1
  V  V72  1  0.24963680  0.62867698  0.86881580  1
  V  V73  1  0.51271562  0.12744286  0.62925528  1
  V  V74  1  0.74753859  0.87909395  0.13581924  1
  V  V75  1  0.11049137  0.75482550  0.87256691  1
  V  V76  1  0.87658578  0.87239064  -0.00567568  1
  V  V77  1  0.37896421  0.49867005  0.86898643  1
  V  V78  1  0.87769278  0.26227719  0.61314655  1
  V  V79  1  0.37796313  0.00107902  0.87160998  1
  V  V80  1  0.00042661  0.74842103  0.24792629  1
  V  V81  1  0.25011850  0.25104272  -0.00202366  1
  V  V82  1  0.86677844  0.24811106  0.12814651  1
  V  V83  1  0.50789353  0.00145719  -0.00211348  1
  V  V84  1  0.50161122  0.12598398  0.12574571  1
  Zn  Zn85  1  0.50631932  0.74475757  0.74448079  1
  Zn  Zn86  1  0.87645723  0.87050532  0.50341448  1
  Zn  Zn87  1  0.24907198  0.62346855  0.37614348  1
  Zn  Zn88  1  0.74806185  0.50080532  0.24377961  1
  Zn  Zn89  1  0.74048600  0.01619547  0.74222486  1
  Zn  Zn90  1  0.37865623  0.87147362  0.49742014  1
  Zn  Zn91  1  0.12536965  0.12311374  -0.00102518  1
  Zn  Zn92  1  0.62764443  0.88138443  0.74629592  1
  Zn  Zn93  1  0.49780499  0.25011745  0.25374263  1
  Zn  Zn94  1  -0.03413947  0.41909682  0.83688778  1
  Zn  Zn95  1  0.25337433  0.25209322  0.49624378  1
  Zn  Zn96  1  0.38580831  0.62262603  0.74426908  1
  Zn  Zn97  1  0.74717621  0.27231465  0.50904363  1
  Zn  Zn98  1  0.54365162  0.62343448  0.62401297  1
  Zn  Zn99  1  0.87318071  0.12574286  0.74917711  1
  Zn  Zn100  1  0.12612799  -0.00300163  0.62553758  1
  Zn  Zn101  1  0.00122271  0.49670948  0.00278010  1
  Zn  Zn102  1  0.25266376  0.50269543  0.25413079  1
  Zn  Zn103  1  0.12526715  0.50549258  0.12989263  1
  Zn  Zn104  1  0.24976928  -0.00126642  0.74622514  1
  Zn  Zn105  1  -0.00204329  0.62330187  0.12169099  1
  Zn  Zn106  1  0.62269900  0.24970518  0.37671248  1
  Zn  Zn107  1  0.18908798  0.18687765  0.18909721  1
  Zn  Zn108  1  0.19044304  0.18662609  0.68370651  1
  Zn  Zn109  1  0.19441185  0.69078837  0.18960715  1
  Zn  Zn110  1  0.18574816  0.69294229  0.68870186  1
  Zn  Zn111  1  0.68596356  0.18698047  0.19071405  1
  Zn  Zn112  1  0.70771790  0.23643254  0.71541213  1
  Zn  Zn113  1  0.68387523  0.68981714  0.18697402  1
  Zn  Zn114  1  0.70708519  0.68710018  0.70837794  1
  Zn  Zn115  1  0.31359618  0.31014572  0.31446588  1
  Zn  Zn116  1  0.31647365  0.31288700  0.80654759  1
  Zn  Zn117  1  0.31119613  0.81045733  0.31172440  1
  Zn  Zn118  1  0.31505325  0.81061002  0.80670532  1
  Zn  Zn119  1  0.79498212  0.33098094  0.33940913  1
  Zn  Zn120  1  0.80140014  0.38294699  0.82731569  1
  Zn  Zn121  1  0.81107315  0.80919123  0.31289170  1
  Zn  Zn122  1  0.81469314  0.81214021  0.81200923  1
  Zn  Zn123  1  0.18175965  0.44304564  0.43855433  1
  Zn  Zn124  1  0.16265894  0.44870944  0.92323673  1
  Zn  Zn125  1  0.18943335  0.93321915  0.43997679  1
  Zn  Zn126  1  0.18661409  0.93722763  0.93391594  1
  Zn  Zn127  1  0.68458217  0.43879965  0.43669064  1
  Zn  Zn128  1  0.66809730  0.45743341  0.90594144  1
  Zn  Zn129  1  0.69040268  0.93883714  0.44340128  1
  Zn  Zn130  1  0.68783410  0.93680261  0.93881918  1
  Zn  Zn131  1  0.31245406  0.06220650  0.05917918  1
  Zn  Zn132  1  0.31541502  0.06197715  0.56137190  1
  Zn  Zn133  1  0.30876504  0.56456603  0.06172213  1
  Zn  Zn134  1  0.30941970  0.56199818  0.56100341  1
  Zn  Zn135  1  0.80825448  0.06200700  0.05826886  1
  Zn  Zn136  1  0.81607644  0.06476307  0.55944247  1
  Zn  Zn137  1  0.81197351  0.56274258  0.04186258  1
  Zn  Zn138  1  0.75369933  0.58360492  0.58719414  1
  Zn  Zn139  1  0.43877799  0.43941709  0.18836984  1
  Zn  Zn140  1  0.43980053  0.43663232  0.68327699  1
  Zn  Zn141  1  0.43867959  0.93973121  0.18670076  1
  Zn  Zn142  1  0.43736120  0.93990941  0.68385874  1
  Zn  Zn143  1  0.93977247  0.43888694  0.18523407  1
  Zn  Zn144  1  0.88940790  0.47102979  0.65815948  1
  Zn  Zn145  1  0.93886486  0.93453787  0.18337426  1
  Zn  Zn146  1  0.92799494  0.93716618  0.68613778  1
  Zn  Zn147  1  0.06004304  0.05951279  0.30999751  1
  Zn  Zn148  1  0.06281651  0.05863194  0.81159444  1
  Zn  Zn149  1  0.05931141  0.56155820  0.30929219  1
  Zn  Zn150  1  0.05325665  0.56540924  0.81873417  1
  Zn  Zn151  1  0.55787229  0.06190301  0.31637449  1
  Zn  Zn152  1  0.57130587  0.07119583  0.81085588  1
  Zn  Zn153  1  0.55526546  0.56242405  0.30873400  1
  Zn  Zn154  1  0.56627304  0.56186498  0.80513316  1
  Zn  Zn155  1  0.43834439  0.18388100  0.43992930  1
  Zn  Zn156  1  0.43920553  0.18718045  0.93821875  1
  Zn  Zn157  1  0.44104620  0.68586093  0.43792221  1
  Zn  Zn158  1  0.43718592  0.68755874  0.93243374  1
  Zn  Zn159  1  0.93749564  0.18429682  0.43477553  1
  Zn  Zn160  1  0.93654182  0.18797362  0.94026359  1
  Zn  Zn161  1  0.92815262  0.68767482  0.43455757  1
  Zn  Zn162  1  0.93900109  0.67336925  0.91907487  1
  Zn  Zn163  1  0.06683051  0.30452547  0.06756793  1
  Zn  Zn164  1  0.06244047  0.31375645  0.56226620  1
  Zn  Zn165  1  0.06040056  0.81106221  0.06029988  1
  Zn  Zn166  1  0.05926470  0.80694226  0.56576035  1
  Zn  Zn167  1  0.55593449  0.31859144  0.05733136  1
  Zn  Zn168  1  0.56412742  0.31306329  0.56571516  1
  Zn  Zn169  1  0.56180201  0.81789702  0.06522587  1
  Zn  Zn170  1  0.56843248  0.81098610  0.56147291  1
  O  O171  1  0.12125628  0.11563730  0.12500557  1
  O  O172  1  0.11651073  0.12118661  0.61745926  1
  O  O173  1  0.12763176  0.63201972  0.11637803  1
  O  O174  1  0.12307719  0.61229347  0.63530193  1
  O  O175  1  0.62218547  0.11755535  0.11896464  1
  O  O176  1  0.61511850  0.13070990  0.61939232  1
  O  O177  1  0.62040416  0.61894077  0.11552981  1
  O  O178  1  0.65623926  0.61827515  0.63615797  1
  O  O179  1  0.38478594  0.38504621  0.36703070  1
  O  O180  1  0.35981688  0.38798114  0.88348730  1
  O  O181  1  0.36692347  0.88921826  0.37533901  1
  O  O182  1  0.38271175  0.88008895  0.87865210  1
  O  O183  1  0.89220201  0.39243416  0.35196436  1
  O  O184  1  0.88736474  0.35268810  0.89754320  1
  O  O185  1  0.88153664  0.88038451  0.37403703  1
  O  O186  1  0.87003430  0.88348326  0.88678759  1
  O  O187  1  0.25686718  0.01017644  0.38115253  1
  O  O188  1  0.25705417  0.01169095  0.87611324  1
  O  O189  1  0.25786633  0.50128442  0.37534384  1
  O  O190  1  0.25138645  0.51030015  0.86671782  1
  O  O191  1  0.76313065  0.00609373  0.37969313  1
  O  O192  1  0.76090267  0.00414385  0.87941233  1
  O  O193  1  0.75559150  0.50998740  0.36807855  1
  O  O194  1  0.77147337  0.48468353  0.87674375  1
  O  O195  1  0.25278031  0.48762845  0.13084391  1
  O  O196  1  0.23963801  0.49522272  0.62827021  1
  O  O197  1  0.23671945  0.99478938  0.11654140  1
  O  O198  1  0.24822496  0.98966054  0.62309469  1
  O  O199  1  0.73507288  0.49329796  0.11921286  1
  O  O200  1  0.77004752  0.48111362  0.63793442  1
  O  O201  1  0.73963461  0.99221049  0.11924934  1
  O  O202  1  0.76046537  0.98780023  0.62477706  1
  O  O203  1  0.01341621  0.37034802  0.25240223  1
  O  O204  1  0.01725126  0.36142474  0.75013646  1
  O  O205  1  0.00884452  0.86781753  0.25267055  1
  O  O206  1  0.01124872  0.88035677  0.74593221  1
  O  O207  1  0.50854938  0.37410734  0.25463216  1
  O  O208  1  0.50198024  0.38256454  0.75880498  1
  O  O209  1  0.49362592  0.86296140  0.25055954  1
  O  O210  1  0.50057593  0.87580207  0.75973663  1
  O  O211  1  0.49121215  0.12739476  0.24319542  1
  O  O212  1  0.49049358  0.11823813  0.74116069  1
  O  O213  1  0.48657767  0.63794756  0.25327793  1
  O  O214  1  0.50349698  0.62523513  0.73757077  1
  O  O215  1  0.98981752  0.12754183  0.24536965  1
  O  O216  1  1.00256439  0.12844003  0.73960799  1
  O  O217  1  0.99073378  0.63234862  0.24771088  1
  O  O218  1  0.94507653  0.60324011  0.81914140  1
  O  O219  1  0.36941225  0.25805117  0.00560220  1
  O  O220  1  0.37075603  0.24297053  0.51263279  1
  O  O221  1  0.37368716  0.75546938  0.00625960  1
  O  O222  1  0.36862898  0.75240815  0.50352282  1
  O  O223  1  0.88204687  0.25382159  0.02048204  1
  O  O224  1  0.87834490  0.24468438  0.51032811  1
  O  O225  1  0.86662510  0.75656468  0.00158385  1
  O  O226  1  0.85819752  0.75272035  0.49581867  1
  O  O227  1  0.12464203  0.24145942  0.49129445  1
  O  O228  1  0.13171885  0.24664456  0.98961239  1
  O  O229  1  0.13217190  0.75706016  0.48995948  1
  O  O230  1  0.13318741  0.74651963  0.99323435  1
  O  O231  1  0.63087154  0.24241716  0.49793314  1
  O  O232  1  0.61882535  0.23760835  1.00928120  1
  O  O233  1  0.63454049  0.75435345  0.48409462  1
  O  O234  1  0.62616667  0.74676804  0.99838963  1
  O  O235  1  0.48971468  0.24395822  0.12438976  1
  O  O236  1  0.49133752  0.24123627  0.61914355  1
  O  O237  1  0.48897454  0.75644352  0.13184997  1
  O  O238  1  0.49604541  0.74493966  0.62120538  1
  O  O239  1  0.99587324  0.23907764  0.13413187  1
  O  O240  1  0.99903067  0.24039753  0.62823058  1
  O  O241  1  0.99048004  0.74873748  0.13031367  1
  O  O242  1  0.97819866  0.74572998  0.61380183  1
  O  O243  1  0.00369623  0.25722778  0.36948266  1
  O  O244  1  0.01229012  0.23776787  0.86520297  1
  O  O245  1  0.00505408  0.75552750  0.37012592  1
  O  O246  1  0.01176068  0.75509358  0.88493259  1
  O  O247  1  0.49802802  0.25922171  0.37570933  1
  O  O248  1  0.48205494  0.26192192  0.86883433  1
  O  O249  1  0.51453125  0.75078657  0.37168717  1
  O  O250  1  0.50591826  0.76003174  0.87280490  1
  O  O251  1  0.24117236  0.12440131  0.49273196  1
  O  O252  1  0.25027898  0.13252957  0.99005478  1
  O  O253  1  0.24831513  0.63828560  0.49760207  1
  O  O254  1  0.24752258  0.63442103  0.98857119  1
  O  O255  1  0.73859111  0.12010667  0.49335546  1
  O  O256  1  0.74310655  0.12791746  0.98986952  1
  O  O257  1  0.75085679  0.63557267  0.48425852  1
  O  O258  1  0.73117556  0.64345891  1.01304654  1
  O  O259  1  0.25719459  0.37111324  0.00870286  1
  O  O260  1  0.24308052  0.37538930  0.51068836  1
  O  O261  1  0.25740471  0.87159893  0.00229765  1
  O  O262  1  0.25096676  0.86536046  0.51176789  1
  O  O263  1  0.76373879  0.36986962  0.01355883  1
  O  O264  1  0.76527735  0.36539421  0.44877327  1
  O  O265  1  0.75599830  0.86683561  0.00817228  1
  O  O266  1  0.75316413  0.86907973  0.50963346  1
  O  O267  1  0.13046761  0.49081597  0.25052686  1
  O  O268  1  0.12333408  0.49196451  0.74401148  1
  O  O269  1  0.11865665  0.98915028  0.23847463  1
  O  O270  1  0.12879319  0.98629088  0.74909089  1
  O  O271  1  0.62065847  0.49492401  0.23779579  1
  O  O272  1  0.64311151  0.48776148  0.76423674  1
  O  O273  1  0.61872857  1.00422919  0.23862563  1
  O  O274  1  0.63144991  0.99393915  0.75918200  1
  O  O275  1  0.38092300  0.01113954  0.25774295  1
  O  O276  1  0.37253002  0.00884287  0.75527415  1
  O  O277  1  0.37714120  0.50868407  0.25804652  1
  O  O278  1  0.36616610  0.50196648  0.75453610  1
  O  O279  1  0.88411924  0.00633677  0.25772084  1
  O  O280  1  0.87022380  0.00628610  0.76012229  1
  O  O281  1  0.87420390  0.51273392  0.25117138  1
  O  O282  1  0.88062060  0.46974363  0.77334019  1
  O  O283  1  0.11933056  0.37030538  0.36781858  1
  O  O284  1  0.14283999  0.35421119  0.86161414  1
  O  O285  1  0.12062050  0.87029930  0.36626539  1
  O  O286  1  0.13093119  0.86832227  0.85985993  1
  O  O287  1  0.61191997  0.37533966  0.36400957  1
  O  O288  1  0.61228957  0.36359632  0.88603878  1
  O  O289  1  0.63076190  0.86775830  0.37182177  1
  O  O290  1  0.61548492  0.86508386  0.88043159  1
  O  O291  1  0.37781323  0.12682598  0.13176612  1
  O  O292  1  0.38194706  0.13140024  0.63034713  1
  O  O293  1  0.36934909  0.63593837  0.13178094  1
  O  O294  1  0.36741129  0.63833470  0.62466404  1
  O  O295  1  0.87622118  0.12643179  0.13091843  1
  O  O296  1  0.88961648  0.12896071  0.62430482  1
  O  O297  1  0.87106033  0.63097751  0.12815276  1
  O  O298  1  0.85790477  0.63690924  0.62364229  1
  O  O299  1  0.25469883  0.25809311  0.12001818  1
  O  O300  1  0.25511898  0.25907755  0.62021403  1
  O  O301  1  0.26193216  0.75906918  0.11818742  1
  O  O302  1  0.25542514  0.75527568  0.61877255  1
  O  O303  1  0.75691777  0.25761688  0.13312330  1
  O  O304  1  0.77213895  0.24543022  0.62061686  1
  O  O305  1  0.75347108  0.75908023  0.11984817  1
  O  O306  1  0.75855468  0.75860908  0.61834443  1
  O  O307  1  0.24465758  0.23811504  0.37645318  1
  O  O308  1  0.24912191  0.23820535  0.87563902  1
  O  O309  1  0.24084350  0.75178850  0.38363040  1
  O  O310  1  0.24737656  0.74460397  0.87789217  1
  O  O311  1  0.74881392  0.22825528  0.36886829  1
  O  O312  1  0.75884735  0.24774745  0.87654424  1
  O  O313  1  0.73858556  0.74550266  0.37728406  1
  O  O314  1  0.73964671  0.75874416  0.88616154  1
  O  O315  1  0.00205202  0.11606737  0.00845556  1
  O  O316  1  0.00746616  0.11648934  0.50270355  1
  O  O317  1  0.01395594  0.62319008  -0.00032837  1
  O  O318  1  0.00009193  0.61705892  0.49127030  1
  O  O319  1  0.50580641  0.11833623  0.00439463  1
  O  O320  1  0.51220593  0.11925764  0.50543569  1
  O  O321  1  0.49921692  0.61587016  0.00071225  1
  O  O322  1  0.50457915  0.61486658  0.50368361  1
  O  O323  1  0.50487180  0.38423862  0.48953821  1
  O  O324  1  0.48165002  0.38848919  1.00276106  1
  O  O325  1  0.50079620  0.89002809  0.50604595  1
  O  O326  1  0.49597448  0.88387125  0.99095345  1
  O  O327  1  1.00345865  0.37885038  0.48585098  1
  O  O328  1  0.98988881  0.36906361  1.01486012  1
  O  O329  1  0.99941140  0.88187128  0.49318301  1
  O  O330  1  0.98952847  0.88452052  1.00505975  1
  O  O331  1  0.49340716  0.49560786  0.38502270  1
  O  O332  1  0.48444476  0.50864392  0.88085816  1
  O  O333  1  0.49008753  1.00642805  0.39058067  1
  O  O334  1  0.49782960  0.99598142  0.88131302  1
  O  O335  1  0.99722801  0.49618672  0.38353345  1
  O  O336  1  1.04317347  0.47776481  0.89442031  1
  O  O337  1  0.99256825  0.99357848  0.37996416  1
  O  O338  1  0.98820758  1.00908396  0.88686084  1
  O  O339  1  0.00961493  0.00225139  0.11574745  1
  O  O340  1  -0.00053761  0.00475410  0.61570965  1
  O  O341  1  0.00792646  0.50532989  0.12201322  1
  O  O342  1  -0.00412903  0.50100216  0.60870697  1
  O  O343  1  0.50692095  0.00531999  0.11621886  1
  O  O344  1  0.49310172  0.01164567  0.61007291  1
  O  O345  1  0.51104639  0.49537694  0.11412009  1
  O  O346  1  0.49532883  0.50187939  0.60652901  1
  O  O347  1  0.24033800  0.37180867  0.24449062  1
  O  O348  1  0.24112483  0.37961289  0.73813024  1
  O  O349  1  0.23808059  0.87128895  0.24333359  1
  O  O350  1  0.24671942  0.87482331  0.73719783  1
  O  O351  1  0.73404958  0.37955321  0.24546518  1
  O  O352  1  0.73776405  0.35491710  0.73940567  1
  O  O353  1  0.75865511  0.87413671  0.23504773  1
  O  O354  1  0.75269146  0.87675898  0.73651624  1
  O  O355  1  0.25787406  0.12472804  0.25862780  1
  O  O356  1  0.25737511  0.12131643  0.75500761  1
  O  O357  1  0.26448987  0.62644246  0.25468852  1
  O  O358  1  0.24795880  0.62229289  0.75947375  1
  O  O359  1  0.76057859  0.11967574  0.25411922  1
  O  O360  1  0.75317909  0.13509908  0.76554019  1
  O  O361  1  0.75536590  0.62467295  0.25375687  1
  O  O362  1  0.77874436  0.61875061  0.77906620  1
  O  O363  1  0.36772137  0.11760423  0.36885255  1
  O  O364  1  0.37055847  0.12156491  0.86644388  1
  O  O365  1  0.37467656  0.61659772  0.36915535  1
  O  O366  1  0.36534615  0.61832871  0.87052409  1
  O  O367  1  0.87016885  0.11569918  0.36695669  1
  O  O368  1  0.86283481  0.12110774  0.87865564  1
  O  O369  1  0.86529542  0.61751014  0.36371094  1
  O  O370  1  0.84786235  0.60545792  0.92976240  1
  O  O371  1  0.13506929  0.37379066  0.13266179  1
  O  O372  1  0.12986796  0.38221809  0.63006277  1
  O  O373  1  0.12977434  0.87973947  0.13027227  1
  O  O374  1  0.13061112  0.87210555  0.63588774  1
  O  O375  1  0.62848477  0.38044872  0.12723831  1
  O  O376  1  0.63061138  0.38656348  0.62368387  1
  O  O377  1  0.63430811  0.88655021  0.12103269  1
  O  O378  1  0.64448656  0.86982269  0.62530843  1
  O  O379  1  0.11960830  0.25534114  0.25600317  1
  O  O380  1  0.12049373  0.25231929  0.75177182  1
  O  O381  1  0.12040502  0.75797798  0.25571843  1
  O  O382  1  0.12374199  0.76264516  0.75742218  1
  O  O383  1  0.61946216  0.25834955  0.25284857  1
  O  O384  1  0.60524729  0.24912931  0.75852536  1
  O  O385  1  0.61664181  0.74873185  0.26188226  1
  O  O386  1  0.62806271  0.75653995  0.76187175  1
  O  O387  1  0.37438040  0.23759164  0.24389710  1
  O  O388  1  0.36776303  0.23771098  0.73615292  1
  O  O389  1  0.38076046  0.74597801  0.24390106  1
  O  O390  1  0.38206715  0.74621439  0.73877392  1
  O  O391  1  0.88019223  0.23814462  0.24221690  1
  O  O392  1  0.89301149  0.24665509  0.73828387  1
  O  O393  1  0.87905876  0.73939587  0.24514210  1
  O  O394  1  0.87561675  0.75025947  0.73918643  1
  O  O395  1  0.38066640  0.50415506  0.48910016  1
  O  O396  1  0.37691590  0.49664137  0.99363833  1
  O  O397  1  0.38515586  0.99858628  0.49234386  1
  O  O398  1  0.38753757  0.99801706  0.99347959  1
  O  O399  1  0.88671705  0.50185778  0.48644334  1
  O  O400  1  0.88150799  0.47385310  1.01252608  1
  O  O401  1  0.88716226  0.99947433  0.48959633  1
  O  O402  1  0.88090909  0.99259318  0.99596716  1
  O  O403  1  0.11660028  -0.00075402  0.00387900  1
  O  O404  1  0.11395010  0.00337752  0.49879170  1
  O  O405  1  0.14137111  0.51952326  0.01045459  1
  O  O406  1  0.10837363  0.49981380  0.50870608  1
  O  O407  1  0.61576525  0.00756161  0.00235890  1
  O  O408  1  0.61309501  0.00712416  0.49673382  1
  O  O409  1  0.61392193  0.51142553  -0.00199596  1
  O  O410  1  0.61415923  0.50423562  0.49501584  1
  O  O411  1  0.36806608  0.37036902  0.12093611  1
  O  O412  1  0.36454946  0.36587387  0.62889917  1
  O  O413  1  0.37053489  0.87229910  0.11797540  1
  O  O414  1  0.36911385  0.86369547  0.62331696  1
  O  O415  1  0.86633250  0.36442833  0.12891200  1
  O  O416  1  0.89063751  0.35947254  0.62014296  1
  O  O417  1  0.86884154  0.86985452  0.11438176  1
  O  O418  1  0.86506681  0.86572687  0.62221244  1
  O  O419  1  0.13113462  0.12620523  0.37667705  1
  O  O420  1  0.13539269  0.13114739  0.87264325  1
  O  O421  1  0.12614365  0.63862375  0.36665293  1
  O  O422  1  0.13149306  0.63627614  0.87951852  1
  O  O423  1  0.63152702  0.12391277  0.38235616  1
  O  O424  1  0.64051744  0.12946746  0.88549065  1
  O  O425  1  0.63396923  0.62730408  0.36539841  1
  O  O426  1  0.61638444  0.63883887  0.88825650  1
