# generated using pymatgen
data_V85Zn86O256
_symmetry_space_group_name_H-M   'P 1'
_cell_length_a   16.93142084
_cell_length_b   16.94649672
_cell_length_c   16.93940233
_cell_angle_alpha   89.95270161
_cell_angle_beta   89.96924249
_cell_angle_gamma   89.92578901
_symmetry_Int_Tables_number   1
_chemical_formula_structural   V85Zn86O256
_chemical_formula_sum   'V85 Zn86 O256'
_cell_volume   4860.38693930
_cell_formula_units_Z   1
loop_
 _symmetry_equiv_pos_site_id
 _symmetry_equiv_pos_as_xyz
  1  'x, y, z'
loop_
 _atom_site_type_symbol
 _atom_site_label
 _atom_site_symmetry_multiplicity
 _atom_site_fract_x
 _atom_site_fract_y
 _atom_site_fract_z
 _atom_site_occupancy
  V  V0  1  0.86878428  0.37041946  0.01669430  1
  V  V1  1  0.24750916  -0.01456858  0.74911446  1
  V  V2  1  0.74736679  0.24626200  0.01255473  1
  V  V3  1  0.36987142  0.12630146  0.75234941  1
  V  V4  1  0.75002903  0.25121482  0.50209634  1
  V  V5  1  0.86972474  0.49703372  0.87797729  1
  V  V6  1  0.12933171  -0.01565687  0.62651914  1
  V  V7  1  0.49567399  0.87136775  0.37318132  1
  V  V8  1  0.50090310  0.01441811  0.00354972  1
  V  V9  1  0.62100887  0.88067600  0.74183556  1
  V  V10  1  0.49789329  0.62813399  0.62402734  1
  V  V11  1  0.62306324  0.49008539  0.62524149  1
  V  V12  1  0.87795520  0.50216090  0.37154705  1
  V  V13  1  0.00386101  0.37389140  0.87499302  1
  V  V14  1  0.13032110  0.13089948  -0.01591789  1
  V  V15  1  0.25337547  0.37424969  0.12631884  1
  V  V16  1  0.87736031  0.00141215  0.37362308  1
  V  V17  1  0.13357017  0.87864215  0.24670098  1
  V  V18  1  0.61836773  0.01437844  0.12452812  1
  V  V19  1  0.00791228  0.36524220  0.37679127  1
  V  V20  1  0.36830724  0.87652968  0.00421743  1
  V  V21  1  0.62584640  0.25307240  0.37521063  1
  V  V22  1  0.75453934  0.12812716  0.37547067  1
  V  V23  1  0.24182608  0.24971047  0.49784082  1
  V  V24  1  0.24799508  0.62189084  0.36786069  1
  V  V25  1  0.50737772  0.26235165  0.75235139  1
  V  V26  1  0.37239642  0.37505991  0.49853116  1
  V  V27  1  0.75776318  0.49954397  0.23920475  1
  V  V28  1  0.62390356  0.62411633  0.49803630  1
  V  V29  1  0.11964277  0.74534833  0.37287941  1
  V  V30  1  -0.00036366  0.87209805  0.36683788  1
  V  V31  1  0.86907126  0.62947132  0.75543753  1
  V  V32  1  -0.00155141  0.62414190  0.62787003  1
  V  V33  1  0.50503171  0.87493865  0.87960196  1
  V  V34  1  0.35575428  0.75130939  0.12604882  1
  V  V35  1  0.13191271  0.36695251  0.25078567  1
  V  V36  1  0.87474116  0.12195377  0.75981734  1
  V  V37  1  0.50469282  0.74927381  0.75613554  1
  V  V38  1  0.01414331  0.75492037  0.75552664  1
  V  V39  1  0.37804522  0.24543966  0.62294743  1
  V  V40  1  0.49783507  0.49980684  0.49622486  1
  V  V41  1  0.24561332  0.74643818  -0.01953909  1
  V  V42  1  0.75137643  -0.00043128  0.24810855  1
  V  V43  1  0.00529466  0.25133805  0.75604261  1
  V  V44  1  0.62458170  0.74788816  0.36988695  1
  V  V45  1  0.50235088  0.49855217  -0.00505672  1
  V  V46  1  0.87312724  0.87468547  0.49931072  1
  V  V47  1  0.38116412  0.37426490  -0.00470096  1
  V  V48  1  0.87106856  0.74992189  0.62704390  1
  V  V49  1  0.62702302  0.25789693  0.87587207  1
  V  V50  1  0.37077430  -0.00258484  0.37546336  1
  V  V51  1  -0.00955888  -0.00110365  0.00068456  1
  V  V52  1  0.00362339  0.12126865  0.62842617  1
  V  V53  1  0.37007670  0.00446436  0.87602787  1
  V  V54  1  0.12651764  0.49645397  0.64356848  1
  V  V55  1  0.37144378  0.87559526  0.50859874  1
  V  V56  1  0.24918870  0.75146132  0.50454567  1
  V  V57  1  -0.00076452  0.50443084  0.00600337  1
  V  V58  1  0.13171073  0.00021024  0.11952287  1
  V  V59  1  0.87574542  0.24952470  0.62816209  1
  V  V60  1  0.00431687  0.49964537  0.50371563  1
  V  V61  1  0.73055511  0.63105602  0.88395364  1
  V  V62  1  0.50303136  0.24828806  0.24445408  1
  V  V63  1  0.37768430  0.24333015  0.12128547  1
  V  V64  1  0.24654150  0.37644819  0.63984044  1
  V  V65  1  0.00177319  0.13399602  0.12187302  1
  V  V66  1  0.50135877  0.62904770  0.11855378  1
  V  V67  1  0.12855312  0.50298482  0.12506557  1
  V  V68  1  0.74898278  0.74912817  0.49896725  1
  V  V69  1  0.62647757  0.50522150  0.12037123  1
  V  V70  1  0.63095652  0.37696814  0.24291794  1
  V  V71  1  0.74019984  0.76622586  -0.00059603  1
  V  V72  1  0.37062162  0.49820397  0.36305955  1
  V  V73  1  0.00345594  0.86928667  0.88337291  1
  V  V74  1  0.37070157  0.61911310  0.75569819  1
  V  V75  1  0.38556055  0.12201173  0.24912891  1
  V  V76  1  0.87618472  0.37537083  0.50296881  1
  V  V77  1  0.74242898  0.00379100  0.74467338  1
  V  V78  1  0.62676986  0.87424476  0.24222348  1
  V  V79  1  0.49757543  0.74746929  0.24413240  1
  V  V80  1  0.87811178  0.13395593  0.24502986  1
  V  V81  1  0.00087844  -0.00140161  0.50189380  1
  V  V82  1  0.24385741  0.12882376  0.37157682  1
  V  V83  1  0.75401836  0.62530841  0.36800248  1
  V  V84  1  0.74348154  0.49483303  0.75125245  1
  Zn  Zn85  1  0.62556141  0.11744113  0.50685332  1
  Zn  Zn86  1  0.12948687  0.62336856  0.50506238  1
  Zn  Zn87  1  0.74764344  0.37314735  0.63020578  1
  Zn  Zn88  1  0.12436924  0.12465161  0.49668218  1
  Zn  Zn89  1  0.16877340  0.30262902  0.82062963  1
  Zn  Zn90  1  0.00284922  0.25058834  0.24861900  1
  Zn  Zn91  1  0.74439429  0.87845461  0.62310295  1
  Zn  Zn92  1  0.50503887  0.00161144  0.50512104  1
  Zn  Zn93  1  0.37413833  0.49670252  0.87407225  1
  Zn  Zn94  1  0.88058864  0.75599207  0.11952189  1
  Zn  Zn95  1  0.73825017  0.12248234  0.88099250  1
  Zn  Zn96  1  0.36585173  0.62095855  0.24323639  1
  Zn  Zn97  1  0.76233431  0.88372123  0.11539621  1
  Zn  Zn98  1  0.49875201  0.37581028  0.37179533  1
  Zn  Zn99  1  0.22927602  0.60675621  0.86407632  1
  Zn  Zn100  1  0.10650577  0.64447075  -0.00215631  1
  Zn  Zn101  1  0.51297343  0.11461564  0.63016690  1
  Zn  Zn102  1  0.86770310  -0.01160258  0.87863931  1
  Zn  Zn103  1  0.95207316  0.66165288  0.20203553  1
  Zn  Zn104  1  0.24991575  0.24805406  -0.01307330  1
  Zn  Zn105  1  0.36928450  0.75127473  0.62814181  1
  Zn  Zn106  1  0.25310629  0.00158688  0.24228400  1
  Zn  Zn107  1  0.19099595  0.18694458  0.18271866  1
  Zn  Zn108  1  0.19034440  0.17947059  0.68393830  1
  Zn  Zn109  1  0.14102146  0.67242512  0.20062450  1
  Zn  Zn110  1  0.18784136  0.68459478  0.68545067  1
  Zn  Zn111  1  0.68904280  0.18664302  0.18948100  1
  Zn  Zn112  1  0.68639844  0.18776125  0.69034405  1
  Zn  Zn113  1  0.69884262  0.68614973  0.17996765  1
  Zn  Zn114  1  0.68360559  0.68598259  0.68943237  1
  Zn  Zn115  1  0.31298900  0.30939991  0.31069883  1
  Zn  Zn116  1  0.32985969  0.31416175  0.81498833  1
  Zn  Zn117  1  0.30780040  0.80889593  0.31351730  1
  Zn  Zn118  1  0.32173068  0.81331943  0.81183437  1
  Zn  Zn119  1  0.81541952  0.31718963  0.31208558  1
  Zn  Zn120  1  0.81251611  0.31131982  0.81693811  1
  Zn  Zn121  1  0.81922654  0.81102369  0.30186619  1
  Zn  Zn122  1  0.80921299  0.81496087  0.81865650  1
  Zn  Zn123  1  0.18874559  0.43707041  0.44085142  1
  Zn  Zn124  1  0.19273214  0.44027845  0.94288051  1
  Zn  Zn125  1  0.18761346  0.93756918  0.43773627  1
  Zn  Zn126  1  0.18258459  0.93485535  0.93313512  1
  Zn  Zn127  1  0.68953062  0.43665240  0.43526972  1
  Zn  Zn128  1  0.68700505  0.43365547  0.93920465  1
  Zn  Zn129  1  0.68784455  0.93475326  0.43246684  1
  Zn  Zn130  1  0.67973473  0.94475408  0.93243396  1
  Zn  Zn131  1  0.31150350  0.06626159  0.06002279  1
  Zn  Zn132  1  0.31331640  0.06197215  0.56331930  1
  Zn  Zn133  1  0.31032668  0.56398921  0.05840183  1
  Zn  Zn134  1  0.31012213  0.56152962  0.56268319  1
  Zn  Zn135  1  0.81154548  0.06529073  0.06634319  1
  Zn  Zn136  1  0.81165675  0.06432680  0.56599568  1
  Zn  Zn137  1  0.81823196  0.57280835  0.05999683  1
  Zn  Zn138  1  0.81183798  0.56216458  0.56240924  1
  Zn  Zn139  1  0.44253768  0.43388264  0.18212048  1
  Zn  Zn140  1  0.43591036  0.43802449  0.68257196  1
  Zn  Zn141  1  0.43702434  0.93525944  0.18451872  1
  Zn  Zn142  1  0.43775637  0.93948030  0.68748550  1
  Zn  Zn143  1  0.94416005  0.43841952  0.19008317  1
  Zn  Zn144  1  0.93578057  0.43722202  0.69221929  1
  Zn  Zn145  1  0.94015858  0.93848067  0.18400012  1
  Zn  Zn146  1  0.93380484  0.93487327  0.69088812  1
  Zn  Zn147  1  0.06319602  0.06139245  0.30928746  1
  Zn  Zn148  1  0.06176684  0.05238070  0.81301565  1
  Zn  Zn149  1  0.07179931  0.54781897  0.31674986  1
  Zn  Zn150  1  0.05510964  0.56684323  0.82084289  1
  Zn  Zn151  1  0.57206348  0.05272583  0.33732896  1
  Zn  Zn152  1  0.55951850  0.06941070  0.81421240  1
  Zn  Zn153  1  0.56111190  0.56293240  0.30732721  1
  Zn  Zn154  1  0.55905317  0.55764687  0.80875827  1
  Zn  Zn155  1  0.43910254  0.18451494  0.43604199  1
  Zn  Zn156  1  0.43999951  0.18945816  0.93142552  1
  Zn  Zn157  1  0.43243037  0.68649764  0.43454308  1
  Zn  Zn158  1  0.43792786  0.68934131  0.93951216  1
  Zn  Zn159  1  0.93855600  0.18665946  0.44055872  1
  Zn  Zn160  1  0.93622533  0.18932634  0.94085880  1
  Zn  Zn161  1  0.93777115  0.68596715  0.43568881  1
  Zn  Zn162  1  0.92892190  0.69183038  0.94055826  1
  Zn  Zn163  1  0.06331843  0.31423575  0.05818222  1
  Zn  Zn164  1  0.06393588  0.31272792  0.56900678  1
  Zn  Zn165  1  0.05807165  0.81283610  0.07029919  1
  Zn  Zn166  1  0.05832353  0.80928153  0.55998712  1
  Zn  Zn167  1  0.56658974  0.31216727  0.06347943  1
  Zn  Zn168  1  0.55918969  0.30680300  0.56073993  1
  Zn  Zn169  1  0.56497599  0.81277459  0.05833478  1
  Zn  Zn170  1  0.55859703  0.81320639  0.56140093  1
  O  O171  1  0.11864719  0.11807620  0.11898137  1
  O  O172  1  0.11282593  0.11643423  0.62339212  1
  O  O173  1  0.13747377  0.60578963  0.10814393  1
  O  O174  1  0.11725994  0.61540510  0.62373294  1
  O  O175  1  0.62146388  0.11331240  0.13459500  1
  O  O176  1  0.62693222  0.12935696  0.61915382  1
  O  O177  1  0.61616031  0.61532821  0.13162884  1
  O  O178  1  0.61420338  0.61743577  0.61859709  1
  O  O179  1  0.37357391  0.38114040  0.38150906  1
  O  O180  1  0.38584300  0.37633318  0.89191110  1
  O  O181  1  0.37622924  0.87975817  0.37912237  1
  O  O182  1  0.38441084  0.88684614  0.87986739  1
  O  O183  1  0.88448103  0.38498020  0.38238497  1
  O  O184  1  0.87835781  0.38632598  0.87979565  1
  O  O185  1  0.88127969  0.88103689  0.37778321  1
  O  O186  1  0.89281219  0.87501979  0.86759179  1
  O  O187  1  0.25839064  0.00753071  0.37218608  1
  O  O188  1  0.25640674  -0.00501714  0.86139208  1
  O  O189  1  0.25911742  0.50839826  0.38212383  1
  O  O190  1  0.26056619  0.49885589  0.87910239  1
  O  O191  1  0.76066266  0.00625497  0.36718232  1
  O  O192  1  0.75099683  0.00482112  0.86445134  1
  O  O193  1  0.75968221  0.50537467  0.36851420  1
  O  O194  1  0.75137367  0.50615292  0.86926223  1
  O  O195  1  0.24020351  0.48874203  0.11697314  1
  O  O196  1  0.23975548  0.48953997  0.62250909  1
  O  O197  1  0.23661185  1.00371528  0.12235483  1
  O  O198  1  0.24245196  1.00344317  0.63623591  1
  O  O199  1  0.74377867  0.50643732  0.13546012  1
  O  O200  1  0.74001694  0.50139058  0.63181702  1
  O  O201  1  0.73960056  1.00045419  0.13100490  1
  O  O202  1  0.75366764  0.99727925  0.63925257  1
  O  O203  1  0.00889271  0.37129372  0.26003106  1
  O  O204  1  -0.00732761  0.36360528  0.76086027  1
  O  O205  1  0.01113055  0.88602136  0.26376177  1
  O  O206  1  -0.00388694  0.85793919  0.75308180  1
  O  O207  1  0.50953130  0.36620084  0.25164304  1
  O  O208  1  0.49279752  0.36071938  0.74616986  1
  O  O209  1  0.50486206  0.86555769  0.25322803  1
  O  O210  1  0.50188215  0.86845987  0.75657456  1
  O  O211  1  0.48958360  0.13076549  0.26075214  1
  O  O212  1  0.48700012  0.13410656  0.74770467  1
  O  O213  1  0.49548160  0.63270503  0.23932707  1
  O  O214  1  0.49564477  0.63145391  0.74233910  1
  O  O215  1  0.99588417  0.12808963  0.24230999  1
  O  O216  1  0.99446919  0.12718052  0.74580493  1
  O  O217  1  1.04371417  0.63306976  0.25284242  1
  O  O218  1  0.98749538  0.63619878  0.74893132  1
  O  O219  1  0.38104540  0.25503951  0.00775805  1
  O  O220  1  0.37019929  0.25675583  0.50633183  1
  O  O221  1  0.36465881  0.75808437  0.00484755  1
  O  O222  1  0.36679552  0.75727739  0.49915737  1
  O  O223  1  0.86445931  0.26332892  -0.00258815  1
  O  O224  1  0.87033018  0.25474757  0.50764665  1
  O  O225  1  0.84623222  0.74066501  -0.00116064  1
  O  O226  1  0.86865580  0.75416474  0.50450830  1
  O  O227  1  0.13830096  0.24794681  0.50573108  1
  O  O228  1  0.12423979  0.23481726  0.99971999  1
  O  O229  1  0.13067107  0.74980868  0.49050748  1
  O  O230  1  0.14493974  0.75729840  1.00434859  1
  O  O231  1  0.63316115  0.25425711  0.48902622  1
  O  O232  1  0.63865166  0.25578214  0.99364787  1
  O  O233  1  0.62880121  0.74422607  0.49200248  1
  O  O234  1  0.63859635  0.74996877  0.99666537  1
  O  O235  1  0.49687744  0.25054750  0.13734937  1
  O  O236  1  0.49276209  0.24941145  0.63473206  1
  O  O237  1  0.49490051  0.74449079  0.12681722  1
  O  O238  1  0.49758623  0.74000339  0.62994961  1
  O  O239  1  1.00357176  0.23764293  0.12370897  1
  O  O240  1  0.99424274  0.24138030  0.63114639  1
  O  O241  1  0.99779724  0.73187569  0.11104057  1
  O  O242  1  0.99235658  0.74475940  0.63601639  1
  O  O243  1  -0.00002304  0.26253078  0.37860175  1
  O  O244  1  -0.00679208  0.25891746  0.86705138  1
  O  O245  1  0.00791800  0.75988888  0.38250383  1
  O  O246  1  -0.00402375  0.75619890  0.86650709  1
  O  O247  1  0.50870909  0.25252516  0.36412601  1
  O  O248  1  0.50774222  0.25073649  0.86115129  1
  O  O249  1  0.50316767  0.75119984  0.36490427  1
  O  O250  1  0.49310086  0.76089019  0.86781293  1
  O  O251  1  0.25097231  0.13331243  0.49208808  1
  O  O252  1  0.23447948  0.12595944  0.99825202  1
  O  O253  1  0.25167001  0.63300148  0.49126106  1
  O  O254  1  0.25715948  0.64209706  0.99128564  1
  O  O255  1  0.75199799  0.13414907  0.49262737  1
  O  O256  1  0.75940314  0.14241056  0.99785295  1
  O  O257  1  0.74465550  0.62692777  0.48856107  1
  O  O258  1  0.74208991  0.61829092  0.98419912  1
  O  O259  1  0.26235927  0.36946237  0.01166124  1
  O  O260  1  0.25894085  0.36797604  0.50544025  1
  O  O261  1  0.26179783  0.86718606  -0.01036192  1
  O  O262  1  0.25942326  0.86441986  0.49158343  1
  O  O263  1  0.76267981  0.36679129  -0.00083053  1
  O  O264  1  0.75840399  0.36909034  0.50178349  1
  O  O265  1  0.74478437  0.87004335  -0.00723875  1
  O  O266  1  0.75375693  0.86888700  0.49945614  1
  O  O267  1  0.12586848  0.48347737  0.23234914  1
  O  O268  1  0.11370368  0.50295211  0.74189366  1
  O  O269  1  0.12871451  0.99626896  0.23975422  1
  O  O270  1  0.14010568  1.00280056  0.74342044  1
  O  O271  1  0.63249356  0.49402041  0.24378870  1
  O  O272  1  0.63101386  0.50258609  0.73813505  1
  O  O273  1  0.62881653  0.99237527  0.24826784  1
  O  O274  1  0.62989300  0.99319036  0.75509066  1
  O  O275  1  0.37246457  0.00641156  0.25233328  1
  O  O276  1  0.36673554  0.00522235  0.75644710  1
  O  O277  1  0.37953934  0.49716163  0.26020951  1
  O  O278  1  0.38591512  0.51577024  0.75065136  1
  O  O279  1  0.87345816  0.01093155  0.25644962  1
  O  O280  1  0.86749525  0.00802979  0.75176591  1
  O  O281  1  0.87018853  0.49442146  0.25955257  1
  O  O282  1  0.86793835  0.51074096  0.75746045  1
  O  O283  1  0.11954275  0.38309438  0.36521933  1
  O  O284  1  0.10848482  0.37908142  0.88211053  1
  O  O285  1  0.11704008  0.87032196  0.37146564  1
  O  O286  1  0.10354240  0.88036430  0.86766637  1
  O  O287  1  0.62498025  0.36753134  0.36495661  1
  O  O288  1  0.62644753  0.36003501  0.87579263  1
  O  O289  1  0.61759024  0.86512387  0.36189881  1
  O  O290  1  0.60921014  0.87980654  0.86410886  1
  O  O291  1  0.37195685  0.13528847  0.13293742  1
  O  O292  1  0.37379911  0.13754308  0.62956454  1
  O  O293  1  0.38040403  0.63323223  0.12628319  1
  O  O294  1  0.38470037  0.62364052  0.63204494  1
  O  O295  1  0.88707546  0.12042453  0.13493485  1
  O  O296  1  0.88592337  0.12864656  0.63413284  1
  O  O297  1  0.86201812  0.63382299  0.13765235  1
  O  O298  1  0.87807269  0.62835590  0.63425632  1
  O  O299  1  0.26187534  0.25473786  0.11887735  1
  O  O300  1  0.25774051  0.25533152  0.61834289  1
  O  O301  1  0.25727838  0.74458466  0.12299590  1
  O  O302  1  0.24966342  0.74437953  0.60947443  1
  O  O303  1  0.74501029  0.25007925  0.11191793  1
  O  O304  1  0.75878477  0.25360763  0.62154427  1
  O  O305  1  0.74299848  0.76243984  0.10980586  1
  O  O306  1  0.75335993  0.74801745  0.61680804  1
  O  O307  1  0.25768510  0.24105493  0.38524687  1
  O  O308  1  0.25365145  0.25640833  0.87384586  1
  O  O309  1  0.24228711  0.74116034  0.38392522  1
  O  O310  1  0.25280613  0.74984789  0.87957861  1
  O  O311  1  0.74657974  0.25007467  0.38116766  1
  O  O312  1  0.74103592  0.24855113  0.88119649  1
  O  O313  1  0.74629340  0.74150423  0.37804062  1
  O  O314  1  0.74717506  0.73728698  0.88030969  1
  O  O315  1  0.00665245  0.11935414  0.00480522  1
  O  O316  1  0.00092422  0.11763240  0.50973500  1
  O  O317  1  -0.00810567  0.60706142  -0.00753742  1
  O  O318  1  -0.00077123  0.61568832  0.50906486  1
  O  O319  1  0.49243372  0.11319456  -0.00051201  1
  O  O320  1  0.50392298  0.12389886  0.50299993  1
  O  O321  1  0.49507347  0.61881752  0.01221878  1
  O  O322  1  0.50203290  0.62118270  0.50557859  1
  O  O323  1  0.48683543  0.37765918  0.49716857  1
  O  O324  1  0.49229714  0.38606069  1.01513699  1
  O  O325  1  0.49058541  0.87329301  0.48832625  1
  O  O326  1  0.48909003  0.87880445  0.99334145  1
  O  O327  1  0.99746106  0.38018063  0.49651110  1
  O  O328  1  0.98573510  0.37890011  0.99456768  1
  O  O329  1  0.99236279  0.88026006  0.49093846  1
  O  O330  1  1.00512744  0.88317808  0.99069901  1
  O  O331  1  0.49162924  0.49952475  0.37972039  1
  O  O332  1  0.50020732  0.50521091  0.89158924  1
  O  O333  1  0.48025933  0.98854540  0.36781787  1
  O  O334  1  0.49226330  0.99487064  0.88303458  1
  O  O335  1  0.99569902  0.49187040  0.38425794  1
  O  O336  1  0.98658176  0.49120849  0.88078831  1
  O  O337  1  0.99508323  0.99522234  0.38135080  1
  O  O338  1  0.99464090  0.98977493  0.88305243  1
  O  O339  1  0.01029301  0.00976004  0.11677902  1
  O  O340  1  0.00491107  0.00469781  0.62408765  1
  O  O341  1  0.01336140  0.49449501  0.11821528  1
  O  O342  1  0.00366328  0.50264971  0.62080878  1
  O  O343  1  0.50586098  -0.00384062  0.11564863  1
  O  O344  1  0.49546707  0.00143871  0.61805234  1
  O  O345  1  0.50810383  0.50962306  0.12110733  1
  O  O346  1  0.50555278  0.50641107  0.61704957  1
  O  O347  1  0.24734456  0.36914700  0.23691384  1
  O  O348  1  0.25078308  0.36585139  0.74127191  1
  O  O349  1  0.23747405  0.88206013  0.25740218  1
  O  O350  1  0.25899948  0.88677657  0.74620487  1
  O  O351  1  0.74368489  0.38728938  0.25476514  1
  O  O352  1  0.75869839  0.39119792  0.74908564  1
  O  O353  1  0.74105218  0.88395017  0.25254080  1
  O  O354  1  0.73720091  0.88161237  0.75106219  1
  O  O355  1  0.26223541  0.12738796  0.25665999  1
  O  O356  1  0.26492865  0.11777246  0.74583276  1
  O  O357  1  0.24397658  0.62885329  0.26472000  1
  O  O358  1  0.26702316  0.63065928  0.74990240  1
  O  O359  1  0.76001256  0.12031184  0.25451910  1
  O  O360  1  0.75863057  0.11959732  0.75279877  1
  O  O361  1  0.74191004  0.61528175  0.26334695  1
  O  O362  1  0.75270398  0.61719301  0.75805890  1
  O  O363  1  0.36761968  0.11650483  0.36808195  1
  O  O364  1  0.37795672  0.11231487  0.86853710  1
  O  O365  1  0.36680841  0.61564894  0.36920410  1
  O  O366  1  0.38113356  0.62485314  0.85982623  1
  O  O367  1  0.87326260  0.12015131  0.36987034  1
  O  O368  1  0.87643241  0.12398667  0.86455042  1
  O  O369  1  0.86905310  0.61104681  0.38011685  1
  O  O370  1  0.86631832  0.61387598  0.86957625  1
  O  O371  1  0.13511914  0.37692566  0.12751981  1
  O  O372  1  0.13466655  0.38331780  0.62432029  1
  O  O373  1  0.11830710  0.88619362  0.13634061  1
  O  O374  1  0.11791003  0.88554949  0.62146109  1
  O  O375  1  0.62344101  0.38514591  0.13734359  1
  O  O376  1  0.62507769  0.38713872  0.61648688  1
  O  O377  1  0.62326413  0.88229206  0.13646396  1
  O  O378  1  0.62326659  0.87188455  0.63710214  1
  O  O379  1  0.12500551  0.26207199  0.24461824  1
  O  O380  1  0.11017911  0.24401165  0.74188799  1
  O  O381  1  0.13241048  0.76485827  0.26717712  1
  O  O382  1  0.11159081  0.74564859  0.74660298  1
  O  O383  1  0.62212978  0.25854669  0.25263599  1
  O  O384  1  0.61460546  0.25470661  0.75544273  1
  O  O385  1  0.62054062  0.75510538  0.25036696  1
  O  O386  1  0.61099807  0.75669539  0.74671731  1
  O  O387  1  0.38540343  0.24379793  0.24399982  1
  O  O388  1  0.38483352  0.24400393  0.74222126  1
  O  O389  1  0.37922958  0.75023341  0.24126469  1
  O  O390  1  0.38655898  0.74072845  0.74601784  1
  O  O391  1  0.87827617  0.23813800  0.25633843  1
  O  O392  1  0.88183270  0.24198489  0.74555946  1
  O  O393  1  0.87784055  0.74229622  0.24280199  1
  O  O394  1  0.87004167  0.73921269  0.74686773  1
  O  O395  1  0.37907237  0.49172587  0.49356007  1
  O  O396  1  0.38578223  0.49104440  1.00605367  1
  O  O397  1  0.37134000  0.99123252  0.49040901  1
  O  O398  1  0.37669738  0.99458891  0.99438661  1
  O  O399  1  0.88529749  0.49520498  0.49626368  1
  O  O400  1  0.87542304  0.48984058  0.99574673  1
  O  O401  1  0.87931183  0.99489427  0.49487532  1
  O  O402  1  0.88712391  1.00722713  0.99921427  1
  O  O403  1  0.11756409  0.00800171  0.00332696  1
  O  O404  1  0.11942623  0.00164862  0.50815462  1
  O  O405  1  0.11228072  0.48863160  0.01197819  1
  O  O406  1  0.11261716  0.49868580  0.50671577  1
  O  O407  1  0.61308782  -0.00257357  0.01107402  1
  O  O408  1  0.61166025  0.01339389  0.45261565  1
  O  O409  1  0.61987416  0.49202844  0.01349786  1
  O  O410  1  0.61903497  0.50556383  0.50257844  1
  O  O411  1  0.37107225  0.36310572  0.12279561  1
  O  O412  1  0.36748472  0.36723363  0.61812978  1
  O  O413  1  0.37613251  0.86562248  0.11440710  1
  O  O414  1  0.37744023  0.87109416  0.61139396  1
  O  O415  1  0.87777233  0.37723638  0.11483602  1
  O  O416  1  0.87576518  0.36875145  0.61898532  1
  O  O417  1  0.87448901  0.87336471  0.12552525  1
  O  O418  1  0.87105269  0.86668575  0.61813843  1
  O  O419  1  0.13942079  0.11993176  0.37496834  1
  O  O420  1  0.11862615  0.12181819  0.88612697  1
  O  O421  1  0.13187479  0.62997989  0.38511045  1
  O  O422  1  0.12108108  0.62565345  0.88597652  1
  O  O423  1  0.63782694  0.14506160  0.36490378  1
  O  O424  1  0.62390576  0.14490036  0.87127134  1
  O  O425  1  0.63123713  0.62858350  0.37852119  1
  O  O426  1  0.63329765  0.62295406  0.86833714  1
