# generated using pymatgen
data_V85Zn86O256
_symmetry_space_group_name_H-M   'P 1'
_cell_length_a   16.94363464
_cell_length_b   16.96502201
_cell_length_c   16.96116778
_cell_angle_alpha   90.01110161
_cell_angle_beta   90.00162852
_cell_angle_gamma   90.02635195
_symmetry_Int_Tables_number   1
_chemical_formula_structural   V85Zn86O256
_chemical_formula_sum   'V85 Zn86 O256'
_cell_volume   4875.47239007
_cell_formula_units_Z   1
loop_
 _symmetry_equiv_pos_site_id
 _symmetry_equiv_pos_as_xyz
  1  'x, y, z'
loop_
 _atom_site_type_symbol
 _atom_site_label
 _atom_site_symmetry_multiplicity
 _atom_site_fract_x
 _atom_site_fract_y
 _atom_site_fract_z
 _atom_site_occupancy
  V  V0  1  0.49389086  0.75856227  0.75263940  1
  V  V1  1  -0.00008534  0.49788807  -0.00079719  1
  V  V2  1  0.12479156  0.62305254  -0.00054013  1
  V  V3  1  0.62188419  -0.00813047  0.12159969  1
  V  V4  1  0.87172216  0.24771273  0.62504201  1
  V  V5  1  0.50145946  0.37633584  0.87101681  1
  V  V6  1  0.24959823  0.12575938  0.37579151  1
  V  V7  1  0.36173702  0.87150008  0.50405146  1
  V  V8  1  0.00763322  0.12414083  0.62113793  1
  V  V9  1  0.24876698  0.25425588  0.50721044  1
  V  V10  1  0.25166982  0.24754462  0.01502964  1
  V  V11  1  0.62895783  0.25450971  0.86807656  1
  V  V12  1  0.00111553  0.61765148  0.62972263  1
  V  V13  1  0.87169493  0.74598932  0.12560056  1
  V  V14  1  0.87184637  0.12211923  0.25006192  1
  V  V15  1  0.75254982  0.11768428  0.88047697  1
  V  V16  1  0.13730626  0.37538200  0.24855728  1
  V  V17  1  0.62002721  0.12357676  0.50012374  1
  V  V18  1  0.38105707  0.23136616  0.62657289  1
  V  V19  1  0.13450915  0.37174915  0.74818876  1
  V  V20  1  0.62616887  0.37729392  0.25103227  1
  V  V21  1  0.35565901  0.75505507  0.62456824  1
  V  V22  1  0.87735405  0.24686999  0.12629262  1
  V  V23  1  0.18880173  0.93414640  0.06537750  1
  V  V24  1  -0.00147749  0.74761038  0.25024963  1
  V  V25  1  0.49836279  0.25077139  0.24563401  1
  V  V26  1  0.85981270  0.61613158  0.75698861  1
  V  V27  1  0.87675947  0.37349795  0.00078768  1
  V  V28  1  0.37661243  0.37135861  0.01188754  1
  V  V29  1  0.62107259  0.50263802  0.12503304  1
  V  V30  1  0.13276426  0.49560381  0.62378159  1
  V  V31  1  0.13437364  0.49592581  0.12368731  1
  V  V32  1  0.12652592  0.25132282  0.37676300  1
  V  V33  1  0.39709635  0.88581059  -0.00619640  1
  V  V34  1  0.49900993  0.37606284  0.37693310  1
  V  V35  1  0.49859954  0.62539280  0.11648850  1
  V  V36  1  0.24681190  0.62877643  0.38888106  1
  V  V37  1  0.62952517  0.63832264  0.49669811  1
  V  V38  1  0.12386699  0.74940553  0.87048397  1
  V  V39  1  0.87404449  0.12103807  0.75272377  1
  V  V40  1  0.00167539  0.37568259  0.37480101  1
  V  V41  1  0.25256017  -0.00457683  0.24227419  1
  V  V42  1  0.00071563  0.37707387  0.87251915  1
  V  V43  1  0.75363747  -0.00407084  0.75402817  1
  V  V44  1  -0.00481160  0.62061785  0.12927088  1
  V  V45  1  0.37249896  0.62406885  0.75215649  1
  V  V46  1  0.74559902  0.37731865  0.63072956  1
  V  V47  1  0.37669873  0.49710535  0.88133108  1
  V  V48  1  -0.00215148  0.74704801  0.75272612  1
  V  V49  1  0.74874656  0.73788764  -0.00549656  1
  V  V50  1  0.24355258  -0.00777050  0.74294362  1
  V  V51  1  0.00438361  0.50027471  0.50079411  1
  V  V52  1  0.86834113  0.87990841  -0.00465065  1
  V  V53  1  0.62097190  0.87620919  0.75779072  1
  V  V54  1  0.87429013  0.00236076  0.38411202  1
  V  V55  1  0.62410499  0.74387167  0.87362646  1
  V  V56  1  0.50234225  0.12550380  0.11858130  1
  V  V57  1  0.50126581  0.50463285  0.49841836  1
  V  V58  1  0.87047148  0.74544752  0.61900756  1
  V  V59  1  0.37139424  0.62744647  0.24839384  1
  V  V60  1  0.62798520  0.50152871  0.62867784  1
  V  V61  1  0.37727318  -0.00229368  0.37421858  1
  V  V62  1  0.50668441  0.75733594  0.25161121  1
  V  V63  1  0.37329166  0.37738075  0.51315828  1
  V  V64  1  0.74527218  -0.01104360  0.25153644  1
  V  V65  1  0.00173252  0.24880569  0.75093505  1
  V  V66  1  0.00129914  0.88844392  0.36543064  1
  V  V67  1  0.05622426  -0.05163845  0.55589352  1
  V  V68  1  0.49564267  0.00191738  0.50563521  1
  V  V69  1  0.37211644  0.75883059  0.12192784  1
  V  V70  1  0.00133305  0.24866828  0.24838603  1
  V  V71  1  0.49778904  0.63053788  0.62251013  1
  V  V72  1  -0.00693478  0.87861460  0.87208640  1
  V  V73  1  0.87499402  0.50343089  0.36885424  1
  V  V74  1  0.13258122  0.87270832  0.24588603  1
  V  V75  1  0.24826008  0.75254722  0.00256609  1
  V  V76  1  0.38807676  0.00882184  0.86835251  1
  V  V77  1  0.61957058  0.00011628  0.62704823  1
  V  V78  1  0.87290555  0.37489338  0.49952382  1
  V  V79  1  0.74799163  0.24732117  0.00526666  1
  V  V80  1  0.24815677  0.12885577  0.86673663  1
  V  V81  1  0.74662526  0.24838106  0.50207283  1
  V  V82  1  0.74839454  0.87080914  0.61662071  1
  V  V83  1  0.76251709  0.63596478  0.37405479  1
  V  V84  1  0.37709820  0.12846455  0.24499489  1
  Zn  Zn85  1  0.62183164  0.12150718  -0.00033590  1
  Zn  Zn86  1  0.62386847  0.24911587  0.37600413  1
  Zn  Zn87  1  0.13660543  0.75149814  0.38532237  1
  Zn  Zn88  1  0.25416427  0.50016416  0.24944797  1
  Zn  Zn89  1  0.00039504  0.00341232  -0.00398224  1
  Zn  Zn90  1  0.68492359  0.43887220  0.79569726  1
  Zn  Zn91  1  0.25421414  0.49419116  0.74850395  1
  Zn  Zn92  1  0.63499584  0.75901683  0.37269462  1
  Zn  Zn93  1  0.62314150  0.61595198  -0.00833358  1
  Zn  Zn94  1  0.85478536  0.49835631  0.87440634  1
  Zn  Zn95  1  0.50479982  0.87510506  0.37522472  1
  Zn  Zn96  1  0.75206430  0.50617366  0.25053731  1
  Zn  Zn97  1  0.37375048  0.50159733  0.37395874  1
  Zn  Zn98  1  0.74707584  0.12491987  0.37536810  1
  Zn  Zn99  1  0.87499014  0.87270679  0.49911437  1
  Zn  Zn100  1  0.24990268  0.62164948  0.87628024  1
  Zn  Zn101  1  0.49314186  0.24568603  0.74791207  1
  Zn  Zn102  1  0.02721250  0.11947010  0.10192407  1
  Zn  Zn103  1  0.74480323  0.86838881  0.12711564  1
  Zn  Zn104  1  0.12099641  0.12104017  0.49830660  1
  Zn  Zn105  1  0.75124977  0.37723562  0.13083480  1
  Zn  Zn106  1  0.12418001  0.24669526  0.88552272  1
  Zn  Zn107  1  0.19143561  0.18791711  0.18755438  1
  Zn  Zn108  1  0.19084792  0.18559357  0.69008912  1
  Zn  Zn109  1  0.18619510  0.68797853  0.18548115  1
  Zn  Zn110  1  0.18487966  0.68075399  0.69129998  1
  Zn  Zn111  1  0.68577029  0.18496223  0.18874555  1
  Zn  Zn112  1  0.66382177  0.17870835  0.69733153  1
  Zn  Zn113  1  0.68843464  0.68366138  0.18949934  1
  Zn  Zn114  1  0.68499473  0.68862812  0.68631720  1
  Zn  Zn115  1  0.31672085  0.31182659  0.31690180  1
  Zn  Zn116  1  0.31646795  0.30975874  0.81119648  1
  Zn  Zn117  1  0.31573698  0.81062553  0.31360956  1
  Zn  Zn118  1  0.31390871  0.81732296  0.81867911  1
  Zn  Zn119  1  0.81041658  0.31297485  0.31514872  1
  Zn  Zn120  1  0.81412646  0.30793262  0.81476321  1
  Zn  Zn121  1  0.81915535  0.81287589  0.31160288  1
  Zn  Zn122  1  0.80930261  0.80515588  0.80979770  1
  Zn  Zn123  1  0.19096143  0.44139877  0.43604309  1
  Zn  Zn124  1  0.19320773  0.43145700  0.93678072  1
  Zn  Zn125  1  0.19010474  0.93554609  0.42594960  1
  Zn  Zn126  1  0.18036039  0.94114805  0.89101051  1
  Zn  Zn127  1  0.68747306  0.44248598  0.43962019  1
  Zn  Zn128  1  0.68622366  0.43460068  0.95633118  1
  Zn  Zn129  1  0.68484796  0.93530690  0.43538096  1
  Zn  Zn130  1  0.68515914  0.93321604  0.94033733  1
  Zn  Zn131  1  0.32152440  0.06960783  0.05322575  1
  Zn  Zn132  1  0.30545166  0.06036978  0.56262835  1
  Zn  Zn133  1  0.31524626  0.56368485  0.05978916  1
  Zn  Zn134  1  0.31453598  0.56342361  0.56393284  1
  Zn  Zn135  1  0.81547911  0.05862598  0.06780048  1
  Zn  Zn136  1  0.80852826  0.06270012  0.56627215  1
  Zn  Zn137  1  0.81117589  0.55926867  0.06319723  1
  Zn  Zn138  1  0.81275219  0.56325250  0.55771071  1
  Zn  Zn139  1  0.43929387  0.44192395  0.18888712  1
  Zn  Zn140  1  0.44376539  0.43822935  0.69113136  1
  Zn  Zn141  1  0.43756635  0.93800950  0.18203455  1
  Zn  Zn142  1  0.43211876  0.94052383  0.68802412  1
  Zn  Zn143  1  0.94228382  0.43427743  0.18863913  1
  Zn  Zn144  1  0.93483472  0.43557581  0.68909288  1
  Zn  Zn145  1  0.93825659  0.93975469  0.18056469  1
  Zn  Zn146  1  0.93194302  0.93233608  0.69241065  1
  Zn  Zn147  1  0.07360721  0.07233933  0.27847354  1
  Zn  Zn148  1  0.06309306  0.06528741  0.81724895  1
  Zn  Zn149  1  0.06606157  0.56304970  0.31167177  1
  Zn  Zn150  1  0.06171797  0.55984664  0.81091974  1
  Zn  Zn151  1  0.56382553  0.06023155  0.31164044  1
  Zn  Zn152  1  0.56512233  0.07249808  0.80882296  1
  Zn  Zn153  1  0.56278766  0.56953697  0.31163873  1
  Zn  Zn154  1  0.55226672  0.56555435  0.81238008  1
  Zn  Zn155  1  0.43718774  0.18831116  0.43804461  1
  Zn  Zn156  1  0.43613675  0.19259679  0.93558232  1
  Zn  Zn157  1  0.43231856  0.69063724  0.43518028  1
  Zn  Zn158  1  0.43590779  0.69355520  0.93485018  1
  Zn  Zn159  1  0.93763815  0.18506343  0.43679988  1
  Zn  Zn160  1  0.93816399  0.18550165  0.93763471  1
  Zn  Zn161  1  0.97095929  0.70154307  0.45185051  1
  Zn  Zn162  1  0.93414915  0.68338956  0.93714546  1
  Zn  Zn163  1  0.06529596  0.31099982  0.06417072  1
  Zn  Zn164  1  0.06219519  0.31246912  0.56442878  1
  Zn  Zn165  1  0.05329222  0.80812611  0.05643732  1
  Zn  Zn166  1  0.08553120  0.78102378  0.57303130  1
  Zn  Zn167  1  0.55956407  0.31385552  0.06154696  1
  Zn  Zn168  1  0.56200892  0.31477343  0.56422029  1
  Zn  Zn169  1  0.56378831  0.80849860  0.06307386  1
  Zn  Zn170  1  0.55458502  0.81775135  0.56502450  1
  O  O171  1  0.10964757  0.11684923  0.17575880  1
  O  O172  1  0.11072540  0.12798698  0.62627389  1
  O  O173  1  0.11479765  0.61758802  0.11941264  1
  O  O174  1  0.10924806  0.61331541  0.63293353  1
  O  O175  1  0.61857172  0.11699339  0.12264322  1
  O  O176  1  0.63815510  0.10834081  0.60824407  1
  O  O177  1  0.61574982  0.61917842  0.12596133  1
  O  O178  1  0.61948102  0.62101148  0.61665797  1
  O  O179  1  0.38739397  0.37781955  0.38351344  1
  O  O180  1  0.38084361  0.38070083  0.87929142  1
  O  O181  1  0.37847037  0.88199776  0.38563587  1
  O  O182  1  0.37407088  0.89067034  0.88706972  1
  O  O183  1  0.88120285  0.38134962  0.38040823  1
  O  O184  1  0.88381947  0.37531992  0.88087653  1
  O  O185  1  0.88259676  0.88386809  0.37825804  1
  O  O186  1  0.87834007  0.86136615  0.88663191  1
  O  O187  1  0.26142321  0.00700753  0.36762856  1
  O  O188  1  0.26326881  0.01595950  0.87445494  1
  O  O189  1  0.25413789  0.51316322  0.37119251  1
  O  O190  1  0.26219332  0.50036515  0.87147946  1
  O  O191  1  0.75712748  0.00037792  0.36777866  1
  O  O192  1  0.74171065  0.00760501  0.86785048  1
  O  O193  1  0.75958329  0.50794074  0.37455612  1
  O  O194  1  0.74210787  0.49003874  0.87708239  1
  O  O195  1  0.23718696  0.50577227  0.12533653  1
  O  O196  1  0.23633037  0.50583408  0.62630453  1
  O  O197  1  0.24955277  0.99938635  0.11947575  1
  O  O198  1  0.25021024  1.00406133  0.64315379  1
  O  O199  1  0.74136946  0.49835450  0.13234779  1
  O  O200  1  0.73926277  0.49212228  0.61579311  1
  O  O201  1  0.73968477  0.99692662  0.13342026  1
  O  O202  1  0.74286597  0.99090281  0.63404428  1
  O  O203  1  0.00923577  0.36732918  0.25723441  1
  O  O204  1  0.00482239  0.36961793  0.75716462  1
  O  O205  1  0.00770446  0.87131762  0.24902084  1
  O  O206  1  -0.01260768  0.85647045  0.75799158  1
  O  O207  1  0.50539747  0.36974176  0.25709078  1
  O  O208  1  0.49730790  0.36750673  0.76447532  1
  O  O209  1  0.49108430  0.85988303  0.24955934  1
  O  O210  1  0.50846924  0.86973392  0.74247053  1
  O  O211  1  0.49571456  0.13301670  0.24637386  1
  O  O212  1  0.55492141  0.15307814  0.73471315  1
  O  O213  1  0.48863448  0.63594156  0.24392119  1
  O  O214  1  0.48673897  0.63501666  0.74338402  1
  O  O215  1  0.97816608  0.13622610  0.26391276  1
  O  O216  1  0.99155431  0.12686103  0.74722117  1
  O  O217  1  1.00563581  0.63440820  0.24121455  1
  O  O218  1  0.98989795  0.62858533  0.74636231  1
  O  O219  1  0.36647226  0.26222293  -0.00215289  1
  O  O220  1  0.36955915  0.25698188  0.50774670  1
  O  O221  1  0.36623755  0.76691838  -0.00287047  1
  O  O222  1  0.37955210  0.76400934  0.50936873  1
  O  O223  1  0.86990886  0.25272538  0.00898544  1
  O  O224  1  0.86613254  0.25340504  0.50546232  1
  O  O225  1  0.86770435  0.75093882  0.00697708  1
  O  O226  1  0.88516295  0.75103416  0.51605503  1
  O  O227  1  0.13300456  0.25035280  0.49473290  1
  O  O228  1  0.14565268  0.25918278  1.00084832  1
  O  O229  1  0.08063897  0.72916954  0.47988937  1
  O  O230  1  0.12968350  0.74350064  0.99462999  1
  O  O231  1  0.62808805  0.24066509  0.50165743  1
  O  O232  1  0.63586016  0.25033810  0.99516721  1
  O  O233  1  0.61594296  0.73997674  0.50230113  1
  O  O234  1  0.63106412  0.74911451  0.99026344  1
  O  O235  1  0.50659020  0.24306197  0.13933340  1
  O  O236  1  0.48286993  0.25482153  0.62006341  1
  O  O237  1  0.49420474  0.74582728  0.13374492  1
  O  O238  1  0.49138247  0.74646328  0.63546262  1
  O  O239  1  0.99341854  0.24476229  0.13074517  1
  O  O240  1  0.99200298  0.24188461  0.63084040  1
  O  O241  1  0.99311334  0.74111503  0.13026967  1
  O  O242  1  0.99400123  0.73601096  0.63673080  1
  O  O243  1  0.00679733  0.25581206  0.37125577  1
  O  O244  1  0.00204203  0.26039293  0.86920340  1
  O  O245  1  -0.01338372  0.76531318  0.35453410  1
  O  O246  1  0.00323308  0.75110264  0.86998349  1
  O  O247  1  0.50169767  0.25887879  0.36798649  1
  O  O248  1  0.51215306  0.25463691  0.87143008  1
  O  O249  1  0.49657382  0.74961896  0.35893907  1
  O  O250  1  0.50267485  0.75166241  0.85954427  1
  O  O251  1  0.24527382  0.13105547  0.49113478  1
  O  O252  1  0.25866934  0.14189367  0.99040536  1
  O  O253  1  0.25283374  0.62352123  0.48784111  1
  O  O254  1  0.24445331  0.63483573  0.99678779  1
  O  O255  1  0.74350583  0.13337132  0.49865579  1
  O  O256  1  0.75387998  0.12924803  0.99463505  1
  O  O257  1  0.74071500  0.62200791  0.48710605  1
  O  O258  1  0.74526720  0.63420657  1.00380488  1
  O  O259  1  0.26494078  0.36171813  -0.00413662  1
  O  O260  1  0.26129729  0.36597414  0.49278204  1
  O  O261  1  0.24488930  0.87405126  0.00168953  1
  O  O262  1  0.26268406  0.87851754  0.49485030  1
  O  O263  1  0.75995164  0.36325636  0.00959631  1
  O  O264  1  0.75283220  0.36895581  0.50730593  1
  O  O265  1  0.75629995  0.86064602  0.00099705  1
  O  O266  1  0.75196538  0.88038103  0.51388564  1
  O  O267  1  0.12658851  0.49175861  0.24147081  1
  O  O268  1  0.12624219  0.49021341  0.74279880  1
  O  O269  1  0.13804680  0.98003441  0.25577464  1
  O  O270  1  0.14277475  0.99930994  0.76759802  1
  O  O271  1  0.62327281  0.49353822  0.24445505  1
  O  O272  1  0.61454710  0.50537002  0.73399343  1
  O  O273  1  0.63579061  1.00663455  0.23932742  1
  O  O274  1  0.63242724  0.99290126  0.74399423  1
  O  O275  1  0.37256506  0.00419450  0.25680758  1
  O  O276  1  0.36681789  -0.00207382  0.76336592  1
  O  O277  1  0.37393029  0.51116112  0.25174525  1
  O  O278  1  0.37502345  0.50891730  0.75498762  1
  O  O279  1  0.86545734  0.00726636  0.25517234  1
  O  O280  1  0.86187134  0.00505966  0.74805539  1
  O  O281  1  0.87779632  0.49405770  0.26525001  1
  O  O282  1  0.87710488  0.51257091  0.75175654  1
  O  O283  1  0.12038991  0.37255905  0.36889965  1
  O  O284  1  0.11806096  0.37195599  0.86656006  1
  O  O285  1  0.11792652  0.86858606  0.36446464  1
  O  O286  1  0.10863317  0.85612986  0.87801847  1
  O  O287  1  0.61400828  0.37744949  0.37098472  1
  O  O288  1  0.61708436  0.37260565  0.88051940  1
  O  O289  1  0.61813772  0.86999470  0.37763450  1
  O  O290  1  0.62735333  0.86657186  0.86275301  1
  O  O291  1  0.38568879  0.11591442  0.13801903  1
  O  O292  1  0.37884393  0.13302512  0.61725717  1
  O  O293  1  0.38073394  0.63429809  0.12812729  1
  O  O294  1  0.37797289  0.63419816  0.63192037  1
  O  O295  1  0.86911965  0.13741797  0.13433788  1
  O  O296  1  0.87925768  0.12760841  0.63561024  1
  O  O297  1  0.88743909  0.62892220  0.12002670  1
  O  O298  1  0.88046111  0.62607029  0.63269335  1
  O  O299  1  0.25560128  0.24466258  0.11469572  1
  O  O300  1  0.26016025  0.24229118  0.61254052  1
  O  O301  1  0.25433915  0.74807117  0.10990536  1
  O  O302  1  0.25583908  0.74642576  0.62827296  1
  O  O303  1  0.75552727  0.25028659  0.11886617  1
  O  O304  1  0.74975127  0.25655143  0.61580744  1
  O  O305  1  0.75586617  0.74805587  0.11956061  1
  O  O306  1  0.75775009  0.75809919  0.62970898  1
  O  O307  1  0.24881964  0.24274525  0.38521388  1
  O  O308  1  0.25367157  0.23801834  0.87638270  1
  O  O309  1  0.25246852  0.73573709  0.37367294  1
  O  O310  1  0.24067702  0.75031235  0.88435038  1
  O  O311  1  0.74562285  0.25176073  0.39019410  1
  O  O312  1  0.75173301  0.24305397  0.89081994  1
  O  O313  1  0.75541861  0.74042823  0.37516454  1
  O  O314  1  0.73752137  0.74995121  0.88145804  1
  O  O315  1  0.00756207  0.11928126  -0.00913896  1
  O  O316  1  0.00211245  0.12785308  0.51165207  1
  O  O317  1  0.00521438  0.61754115  0.00620952  1
  O  O318  1  -0.01279845  0.60450413  0.51485408  1
  O  O319  1  0.49897201  0.13484872  0.01561235  1
  O  O320  1  0.50527141  0.11251773  0.49606083  1
  O  O321  1  0.49958623  0.63599548  0.01308195  1
  O  O322  1  0.50320459  0.62089440  0.50171795  1
  O  O323  1  0.49600271  0.38404814  0.49384390  1
  O  O324  1  0.48570585  0.36542336  0.98774601  1
  O  O325  1  0.48911548  0.88908490  0.49987720  1
  O  O326  1  0.49472286  0.87314863  0.99434516  1
  O  O327  1  0.99369131  0.38125315  0.49525763  1
  O  O328  1  0.99645761  0.37691663  0.99326779  1
  O  O329  1  0.99980586  0.88983872  0.49005504  1
  O  O330  1  0.98377123  0.87317037  0.99065876  1
  O  O331  1  0.49956229  0.49627738  0.38269577  1
  O  O332  1  0.48739323  0.49234138  0.87296558  1
  O  O333  1  0.48781042  1.00153143  0.38013986  1
  O  O334  1  0.48836956  1.01177035  0.86596552  1
  O  O335  1  0.99643761  0.49822967  0.38265139  1
  O  O336  1  1.00041409  0.48743538  0.88009532  1
  O  O337  1  0.99175915  0.99185486  0.35888146  1
  O  O338  1  1.00220907  0.98210058  0.87371672  1
  O  O339  1  -0.01718627  0.01062896  0.10949016  1
  O  O340  1  -0.00357317  0.00356048  0.62258273  1
  O  O341  1  0.00645314  0.50553541  0.12079820  1
  O  O342  1  0.00532129  0.50078602  0.62032423  1
  O  O343  1  0.51487478  0.00910362  0.13336258  1
  O  O344  1  0.50867162  -0.00224944  0.61965741  1
  O  O345  1  0.50654680  0.51546027  0.13271789  1
  O  O346  1  0.50468882  0.50867177  0.61677326  1
  O  O347  1  0.24141118  0.37683466  0.25719620  1
  O  O348  1  0.23803637  0.37335603  0.75278319  1
  O  O349  1  0.24566182  0.87867124  0.24985530  1
  O  O350  1  0.24958469  0.89177338  0.76219536  1
  O  O351  1  0.73578848  0.37664829  0.25256405  1
  O  O352  1  0.76240628  0.37690316  0.73409702  1
  O  O353  1  0.75614486  0.88552628  0.24654280  1
  O  O354  1  0.74324752  0.87993282  0.74377165  1
  O  O355  1  0.26247048  0.11889477  0.25647688  1
  O  O356  1  0.25291833  0.11902248  0.76161990  1
  O  O357  1  0.26303669  0.62680258  0.24693675  1
  O  O358  1  0.26240277  0.62352382  0.75461195  1
  O  O359  1  0.75793116  0.11985423  0.25411019  1
  O  O360  1  0.75427836  0.11539570  0.75643554  1
  O  O361  1  0.74853119  0.62372721  0.26908962  1
  O  O362  1  0.76133778  0.62490330  0.74468112  1
  O  O363  1  0.36749880  0.11893435  0.36967251  1
  O  O364  1  0.36988372  0.11549078  0.87827621  1
  O  O365  1  0.36549570  0.62531067  0.36603660  1
  O  O366  1  0.37636412  0.61768568  0.86924947  1
  O  O367  1  0.86889412  0.11839017  0.37027446  1
  O  O368  1  0.86471354  0.12988795  0.86173444  1
  O  O369  1  0.86536308  0.61939303  0.38469229  1
  O  O370  1  0.87429422  0.62083036  0.86128087  1
  O  O371  1  0.11983533  0.38423816  0.13636132  1
  O  O372  1  0.11823983  0.38302501  0.63623854  1
  O  O373  1  0.12583285  0.87445466  0.12422119  1
  O  O374  1  0.10700247  0.88296113  0.61205946  1
  O  O375  1  0.62168270  0.38260080  0.13544420  1
  O  O376  1  0.63328804  0.38618229  0.62015203  1
  O  O377  1  0.62424904  0.88740928  0.12377063  1
  O  O378  1  0.63021350  0.88160759  0.63242715  1
  O  O379  1  0.12381849  0.26049526  0.25899563  1
  O  O380  1  0.11806821  0.25612207  0.74937553  1
  O  O381  1  0.11722069  0.75971441  0.24720621  1
  O  O382  1  0.11237952  0.74103311  0.75859596  1
  O  O383  1  0.61837126  0.25849304  0.25447823  1
  O  O384  1  0.65711989  0.26765764  0.77230323  1
  O  O385  1  0.60940212  0.74585306  0.24899074  1
  O  O386  1  0.61619148  0.75653551  0.75366859  1
  O  O387  1  0.38415063  0.23975722  0.25573095  1
  O  O388  1  0.37347880  0.24906973  0.73059650  1
  O  O389  1  0.38091812  0.74598043  0.24078309  1
  O  O390  1  0.37695742  0.74847746  0.74578863  1
  O  O391  1  0.87617799  0.24650522  0.24398956  1
  O  O392  1  0.87962954  0.24115040  0.74344804  1
  O  O393  1  0.88179408  0.75501258  0.23250639  1
  O  O394  1  0.87855843  0.73608067  0.74211401  1
  O  O395  1  0.38564624  0.49547264  0.49997234  1
  O  O396  1  0.36923112  0.48626976  0.99283112  1
  O  O397  1  0.37710472  0.99411825  0.49501437  1
  O  O398  1  0.38030145  0.99200481  0.98913936  1
  O  O399  1  0.88065383  0.49144866  0.49066240  1
  O  O400  1  0.88184565  0.49146900  0.99893023  1
  O  O401  1  0.86972262  1.00183422  0.48684787  1
  O  O402  1  0.86239572  0.98092540  0.99527440  1
  O  O403  1  0.13255104  -0.01625302  -0.00181026  1
  O  O404  1  0.12393970  0.00053910  0.49779333  1
  O  O405  1  0.12088312  0.50053891  0.00549297  1
  O  O406  1  0.11509186  0.49088038  0.50919978  1
  O  O407  1  0.63041813  0.00218613  0.01642843  1
  O  O408  1  0.61535551  0.00323555  0.50678596  1
  O  O409  1  0.61973501  0.50107261  0.01944996  1
  O  O410  1  0.61455666  0.50969755  0.50631505  1
  O  O411  1  0.38337983  0.37880526  0.11069682  1
  O  O412  1  0.37761786  0.37722338  0.61451016  1
  O  O413  1  0.37994332  0.87369698  0.10485104  1
  O  O414  1  0.37392762  0.86955940  0.61347849  1
  O  O415  1  0.87636713  0.36244917  0.12295781  1
  O  O416  1  0.86916317  0.36831363  0.61773830  1
  O  O417  1  0.87215600  0.86365084  0.11014790  1
  O  O418  1  0.86612720  0.86459333  0.62454490  1
  O  O419  1  0.13809778  0.12991756  0.36994721  1
  O  O420  1  0.14303824  0.12895142  0.87497327  1
  O  O421  1  0.14448678  0.62696412  0.36458666  1
  O  O422  1  0.12401764  0.63229816  0.88099958  1
  O  O423  1  0.62634827  0.12446303  0.38761481  1
  O  O424  1  0.63882440  0.13468729  0.88219047  1
  O  O425  1  0.63451690  0.63213858  0.38194952  1
  O  O426  1  0.61404150  0.63853725  0.87493743  1
