# generated using pymatgen
data_V85Zn86O256
_symmetry_space_group_name_H-M   'P 1'
_cell_length_a   16.93467313
_cell_length_b   16.93746630
_cell_length_c   16.93007814
_cell_angle_alpha   90.00796960
_cell_angle_beta   89.95905546
_cell_angle_gamma   90.09036005
_symmetry_Int_Tables_number   1
_chemical_formula_structural   V85Zn86O256
_chemical_formula_sum   'V85 Zn86 O256'
_cell_volume   4856.05469987
_cell_formula_units_Z   1
loop_
 _symmetry_equiv_pos_site_id
 _symmetry_equiv_pos_as_xyz
  1  'x, y, z'
loop_
 _atom_site_type_symbol
 _atom_site_label
 _atom_site_symmetry_multiplicity
 _atom_site_fract_x
 _atom_site_fract_y
 _atom_site_fract_z
 _atom_site_occupancy
  V  V0  1  0.86742449  0.50923545  0.87777490  1
  V  V1  1  0.12885907  0.75274832  0.87028363  1
  V  V2  1  0.00529844  0.74986821  0.23858435  1
  V  V3  1  0.62327590  0.37879403  0.25534433  1
  V  V4  1  0.37422805  0.00037551  0.37449942  1
  V  V5  1  0.74588982  0.50452857  0.75622529  1
  V  V6  1  0.50962114  0.49689793  0.50297545  1
  V  V7  1  0.00539775  0.75218946  0.74047702  1
  V  V8  1  0.24595360  -0.00097971  0.75533187  1
  V  V9  1  0.74833795  0.25126972  0.50073781  1
  V  V10  1  0.62498146  0.87414582  0.25057805  1
  V  V11  1  0.74500087  0.00024646  0.74912802  1
  V  V12  1  0.62130895  -0.00126023  0.62858195  1
  V  V13  1  0.74607328  0.25133046  -0.00101861  1
  V  V14  1  0.12747483  0.61891505  0.01179508  1
  V  V15  1  0.87586011  0.50450559  0.37489019  1
  V  V16  1  0.74687058  0.12807458  0.87468822  1
  V  V17  1  0.87208802  0.25067056  0.12537856  1
  V  V18  1  0.49849247  0.86264980  0.86132773  1
  V  V19  1  0.65436751  0.63703340  -0.02981602  1
  V  V20  1  0.38243420  0.48718621  0.88043316  1
  V  V21  1  0.50162048  0.87375635  0.37890424  1
  V  V22  1  0.74860407  -0.00253835  0.25032380  1
  V  V23  1  0.25034746  0.62319688  0.37604536  1
  V  V24  1  0.87417938  0.12423076  0.25232611  1
  V  V25  1  -0.00028445  0.25125537  0.24909278  1
  V  V26  1  0.12590127  0.75452532  0.37047561  1
  V  V27  1  0.38030623  0.74623995  0.12419358  1
  V  V28  1  0.61940350  0.25176521  0.37570695  1
  V  V29  1  0.12577599  0.13043100  0.49982585  1
  V  V30  1  0.11809631  0.62001693  0.50305056  1
  V  V31  1  0.51336160  0.62350235  0.62305677  1
  V  V32  1  0.62010484  0.00030226  0.12406227  1
  V  V33  1  0.50476021  0.74700785  0.25331974  1
  V  V34  1  0.74947979  0.63201634  0.38627356  1
  V  V35  1  0.12881591  0.25251423  0.37664435  1
  V  V36  1  0.87318997  0.74052842  0.62308161  1
  V  V37  1  0.36894222  0.24627512  0.61868820  1
  V  V38  1  0.00216173  0.11965741  0.11873196  1
  V  V39  1  0.12431308  0.25457579  0.87604916  1
  V  V40  1  0.25066722  0.13007922  0.37597924  1
  V  V41  1  0.49804862  0.00310420  0.50549376  1
  V  V42  1  0.00083484  0.38050063  0.87190017  1
  V  V43  1  0.24986714  0.87221436  0.13761085  1
  V  V44  1  0.25355184  0.25124531  -0.00161653  1
  V  V45  1  0.61932282  0.12696980  0.50415461  1
  V  V46  1  0.74755683  0.37907891  0.12739519  1
  V  V47  1  0.37249880  0.87179404  -0.00245993  1
  V  V48  1  0.87127214  0.75907005  0.11447409  1
  V  V49  1  0.50800999  0.62356425  0.11637960  1
  V  V50  1  0.25024836  0.74851624  0.50263419  1
  V  V51  1  0.00127033  0.37866896  0.37645134  1
  V  V52  1  0.49704575  0.25038761  0.74317151  1
  V  V53  1  -0.00229353  -0.00111258  0.49973833  1
  V  V54  1  0.37839924  0.62132848  0.25109183  1
  V  V55  1  0.61924656  0.37949721  0.74386541  1
  V  V56  1  0.37314535  0.61167179  0.74621903  1
  V  V57  1  0.24943787  0.49986279  0.24704836  1
  V  V58  1  0.75127906  0.87257489  0.61598676  1
  V  V59  1  0.49335676  0.00052539  -0.00315510  1
  V  V60  1  0.00137540  0.87674209  0.36730015  1
  V  V61  1  0.62942697  0.74863866  0.39155045  1
  V  V62  1  0.74765378  0.38305174  0.62369564  1
  V  V63  1  0.24390606  0.37622378  0.63952443  1
  V  V64  1  0.38009882  0.49395342  0.37663762  1
  V  V65  1  0.37562233  0.24972980  0.11857743  1
  V  V66  1  0.87425606  0.25295855  0.62540204  1
  V  V67  1  0.12116359  0.49924128  0.64103510  1
  V  V68  1  0.87714871  0.62859898  0.23934324  1
  V  V69  1  0.12510782  0.38200329  0.24272874  1
  V  V70  1  0.49739893  0.25306469  0.25080237  1
  V  V71  1  0.87534636  0.12527989  0.74961580  1
  V  V72  1  0.00518548  0.25387219  0.74926361  1
  V  V73  1  0.24916172  0.61433370  0.86911471  1
  V  V74  1  0.36554530  0.37445131  0.49936497  1
  V  V75  1  0.00411674  0.50090928  0.01234090  1
  V  V76  1  0.37707092  0.12393111  0.74729775  1
  V  V77  1  0.25248868  0.37975013  0.11812008  1
  V  V78  1  0.24569315  0.87298683  0.63032409  1
  V  V79  1  0.12134069  -0.00347476  0.62965487  1
  V  V80  1  0.61395301  0.25431784  0.87426178  1
  V  V81  1  0.87228713  0.37789391  -0.00108927  1
  V  V82  1  0.87988213  -0.00548543  0.88762040  1
  V  V83  1  0.37612386  0.74514031  0.63433562  1
  V  V84  1  0.68155296  0.81902239  0.80247352  1
  Zn  Zn85  1  0.87269248  -0.00244094  0.37624022  1
  Zn  Zn86  1  0.49364871  0.12522248  0.12292996  1
  Zn  Zn87  1  0.37231597  0.12503442  0.24721355  1
  Zn  Zn88  1  0.75063562  0.87667211  0.11151872  1
  Zn  Zn89  1  0.74700431  0.50683912  0.24982544  1
  Zn  Zn90  1  0.11352785  -0.01604626  0.12503430  1
  Zn  Zn91  1  0.61840264  0.12578482  -0.00064385  1
  Zn  Zn92  1  0.87524448  0.37578068  0.49903538  1
  Zn  Zn93  1  0.37486062  0.87355226  0.50241019  1
  Zn  Zn94  1  -0.00104871  0.50275236  0.50641615  1
  Zn  Zn95  1  0.12029396  0.11976823  -0.00394628  1
  Zn  Zn96  1  0.25181395  0.74454889  -0.00149331  1
  Zn  Zn97  1  0.74850036  0.12428513  0.37614979  1
  Zn  Zn98  1  0.87567052  0.62710372  0.75152073  1
  Zn  Zn99  1  0.37280068  -0.00148147  0.87185442  1
  Zn  Zn100  1  0.50279779  0.49388579  -0.00338548  1
  Zn  Zn101  1  -0.00009394  0.12550875  0.62416550  1
  Zn  Zn102  1  -0.00275716  0.87410001  0.88182507  1
  Zn  Zn103  1  0.23752371  -0.00506446  0.25598096  1
  Zn  Zn104  1  0.62636442  0.50651962  0.12153068  1
  Zn  Zn105  1  0.87466830  0.86895866  0.49753856  1
  Zn  Zn106  1  0.24667925  0.12698012  0.87213003  1
  Zn  Zn107  1  0.18827989  0.18907442  0.19081605  1
  Zn  Zn108  1  0.18807309  0.18813380  0.68536611  1
  Zn  Zn109  1  0.19168096  0.68900660  0.18829561  1
  Zn  Zn110  1  0.18675036  0.68028017  0.68907388  1
  Zn  Zn111  1  0.68454220  0.18547739  0.18769407  1
  Zn  Zn112  1  0.68487414  0.18802526  0.68483760  1
  Zn  Zn113  1  0.69218705  0.69079038  0.19154564  1
  Zn  Zn114  1  0.69340297  0.68366251  0.68185560  1
  Zn  Zn115  1  0.31236277  0.31371443  0.31078301  1
  Zn  Zn116  1  0.31295800  0.31281743  0.81090327  1
  Zn  Zn117  1  0.31912115  0.80911203  0.31631493  1
  Zn  Zn118  1  0.30813757  0.80828345  0.81267061  1
  Zn  Zn119  1  0.80966019  0.31339817  0.31433947  1
  Zn  Zn120  1  0.81125930  0.31715798  0.81151846  1
  Zn  Zn121  1  0.81513048  0.81208884  0.31000970  1
  Zn  Zn122  1  0.81032145  0.80823834  0.94219162  1
  Zn  Zn123  1  0.18902884  0.43827959  0.43893168  1
  Zn  Zn124  1  0.18828437  0.43814958  0.93360247  1
  Zn  Zn125  1  0.18649173  0.93744088  0.44103540  1
  Zn  Zn126  1  0.15814783  0.92697112  0.95676613  1
  Zn  Zn127  1  0.69067770  0.43916128  0.43435778  1
  Zn  Zn128  1  0.66343830  0.43451993  0.94430172  1
  Zn  Zn129  1  0.68589930  0.93937211  0.43749667  1
  Zn  Zn130  1  0.68226608  0.94375580  0.93749622  1
  Zn  Zn131  1  0.28595336  0.04858453  0.05106208  1
  Zn  Zn132  1  0.30782652  0.06272795  0.56149724  1
  Zn  Zn133  1  0.31627451  0.55969230  0.05808930  1
  Zn  Zn134  1  0.30707186  0.55784338  0.56380569  1
  Zn  Zn135  1  0.80775961  0.06466312  0.06475293  1
  Zn  Zn136  1  0.81059780  0.06346306  0.56260938  1
  Zn  Zn137  1  0.80944784  0.56723319  0.05895599  1
  Zn  Zn138  1  0.81170598  0.56057544  0.56172698  1
  Zn  Zn139  1  0.43886234  0.43592437  0.18403997  1
  Zn  Zn140  1  0.43714327  0.43688263  0.68469854  1
  Zn  Zn141  1  0.43537626  0.93573527  0.18872773  1
  Zn  Zn142  1  0.43217755  0.93681141  0.68430861  1
  Zn  Zn143  1  0.93390493  0.43867917  0.19068387  1
  Zn  Zn144  1  0.93543890  0.43936927  0.69006002  1
  Zn  Zn145  1  0.93767874  0.93688441  0.18748941  1
  Zn  Zn146  1  0.93508572  0.92998499  0.69391389  1
  Zn  Zn147  1  0.06504889  0.06012855  0.30752186  1
  Zn  Zn148  1  0.06118873  0.06625362  0.81150512  1
  Zn  Zn149  1  0.06207133  0.56642876  0.31028334  1
  Zn  Zn150  1  0.05683322  0.56942537  0.81577230  1
  Zn  Zn151  1  0.55927312  0.06694189  0.31343365  1
  Zn  Zn152  1  0.55725045  0.06347505  0.81290596  1
  Zn  Zn153  1  0.56382126  0.56281795  0.31641610  1
  Zn  Zn154  1  0.56077087  0.56756990  0.80834646  1
  Zn  Zn155  1  0.43794821  0.18948508  0.43772835  1
  Zn  Zn156  1  0.43169578  0.18709457  0.93440010  1
  Zn  Zn157  1  0.43908973  0.68297837  0.44240995  1
  Zn  Zn158  1  0.43701193  0.68377111  0.93291400  1
  Zn  Zn159  1  0.93878478  0.18842565  0.43723933  1
  Zn  Zn160  1  0.93473006  0.18874015  0.93676912  1
  Zn  Zn161  1  0.93839312  0.69025327  0.43571156  1
  Zn  Zn162  1  0.94924638  0.68322860  0.93531501  1
  Zn  Zn163  1  0.06316562  0.31220027  0.06080021  1
  Zn  Zn164  1  0.06404303  0.31526640  0.56291379  1
  Zn  Zn165  1  0.06302124  0.80808678  0.05417745  1
  Zn  Zn166  1  0.06253651  0.81421176  0.55888517  1
  Zn  Zn167  1  0.56010988  0.31643549  0.06199075  1
  Zn  Zn168  1  0.55591077  0.31618553  0.56386722  1
  Zn  Zn169  1  0.56613627  0.81198976  0.05543138  1
  Zn  Zn170  1  0.55979906  0.81428946  0.57130472  1
  O  O171  1  0.10491943  0.13751450  0.12722345  1
  O  O172  1  0.12419590  0.11809224  0.61529211  1
  O  O173  1  0.13388156  0.62576214  0.11071901  1
  O  O174  1  0.13150230  0.60718438  0.61764460  1
  O  O175  1  0.61949343  0.11189789  0.12408874  1
  O  O176  1  0.62867287  0.11259645  0.61613206  1
  O  O177  1  0.61332016  0.62657514  0.13836058  1
  O  O178  1  0.61176297  0.62728721  0.62301506  1
  O  O179  1  0.37018863  0.38553882  0.38196512  1
  O  O180  1  0.37514000  0.38860182  0.86854679  1
  O  O181  1  0.38212982  0.88199924  0.38124433  1
  O  O182  1  0.38072436  0.87435325  0.88076768  1
  O  O183  1  0.88261556  0.38539936  0.37225217  1
  O  O184  1  0.88094820  0.38126168  0.88254319  1
  O  O185  1  0.88498404  0.87620151  0.37785579  1
  O  O186  1  0.87546791  0.89082440  0.88282917  1
  O  O187  1  0.25796245  0.00354388  0.37509362  1
  O  O188  1  0.24479461  -0.00240889  0.85910097  1
  O  O189  1  0.25799216  0.50434252  0.36817392  1
  O  O190  1  0.26225803  0.50710343  0.87831269  1
  O  O191  1  0.75103202  0.00333139  0.36535197  1
  O  O192  1  0.75394347  0.01178872  0.86810465  1
  O  O193  1  0.75849798  0.51181349  0.37268813  1
  O  O194  1  0.75728237  0.48734339  0.86851771  1
  O  O195  1  0.26004804  0.48989654  0.13264632  1
  O  O196  1  0.23731568  0.48603270  0.62311436  1
  O  O197  1  0.27298685  0.97651522  0.14038422  1
  O  O198  1  0.24207794  0.99194375  0.63025756  1
  O  O199  1  0.74900046  0.49293099  0.12761281  1
  O  O200  1  0.75405049  0.48807380  0.63106095  1
  O  O201  1  0.73953552  0.99882854  0.13183615  1
  O  O202  1  0.74433429  0.99455314  0.63197300  1
  O  O203  1  0.00568356  0.37292014  0.25777441  1
  O  O204  1  -0.00707443  0.36786847  0.76403361  1
  O  O205  1  -0.00181912  0.86823862  0.26003218  1
  O  O206  1  -0.00264506  0.85818308  0.75994251  1
  O  O207  1  0.50973915  0.36339983  0.24525924  1
  O  O208  1  0.50816922  0.36626753  0.74336647  1
  O  O209  1  0.50445343  0.86804146  0.25905987  1
  O  O210  1  0.49162864  0.87805534  0.76278311  1
  O  O211  1  0.49755768  0.13907447  0.24645293  1
  O  O212  1  0.48451267  0.12957533  0.74865486  1
  O  O213  1  0.49430256  0.62894100  0.24667370  1
  O  O214  1  0.49121171  0.61979609  0.73037819  1
  O  O215  1  0.99070573  0.13179632  0.24276657  1
  O  O216  1  0.99019559  0.13391134  0.74654672  1
  O  O217  1  0.98980408  0.63775902  0.25521026  1
  O  O218  1  0.99367945  0.64428274  0.75634858  1
  O  O219  1  0.36870023  0.25525064  0.00523281  1
  O  O220  1  0.38125494  0.25948862  0.50880967  1
  O  O221  1  0.37604062  0.75327254  0.00818954  1
  O  O222  1  0.36087417  0.74558785  0.50649866  1
  O  O223  1  0.86624319  0.25755840  0.00429017  1
  O  O224  1  0.86844975  0.25052315  0.50602745  1
  O  O225  1  0.88657235  0.74874751  0.01045263  1
  O  O226  1  0.88959076  0.75350430  0.51742627  1
  O  O227  1  0.11798963  0.23782185  0.49440997  1
  O  O228  1  0.13211933  0.24816475  0.99149940  1
  O  O229  1  0.13476645  0.74293023  0.49586395  1
  O  O230  1  0.12955714  0.73267337  0.99118210  1
  O  O231  1  0.62379702  0.24587730  0.49542111  1
  O  O232  1  0.62826729  0.24489784  0.98914805  1
  O  O233  1  0.62173653  0.75660530  0.49031462  1
  O  O234  1  0.62010123  0.72758665  1.00451753  1
  O  O235  1  0.49343100  0.25112511  0.12871044  1
  O  O236  1  0.48657043  0.25213370  0.63486851  1
  O  O237  1  0.49395627  0.74415130  0.13046384  1
  O  O238  1  0.48818161  0.73381415  0.61371781  1
  O  O239  1  0.98951252  0.24786121  0.13076621  1
  O  O240  1  0.99406477  0.25214778  0.63311016  1
  O  O241  1  0.99433225  0.75759328  0.13334225  1
  O  O242  1  0.99824853  0.75563512  0.63397634  1
  O  O243  1  0.00560533  0.25817774  0.36777417  1
  O  O244  1  0.00422122  0.25704900  0.86964139  1
  O  O245  1  0.00802409  0.75751263  0.36598033  1
  O  O246  1  0.01269177  0.75341182  0.86923987  1
  O  O247  1  0.51095090  0.24943588  0.36798927  1
  O  O248  1  0.50550360  0.24417650  0.86156881  1
  O  O249  1  0.50728197  0.75145630  0.37401315  1
  O  O250  1  0.49608795  0.76381666  0.87452337  1
  O  O251  1  0.23860466  0.11891054  0.48673476  1
  O  O252  1  0.25327263  0.14349831  0.99416358  1
  O  O253  1  0.24124759  0.63008357  0.49533379  1
  O  O254  1  0.24213786  0.62150044  0.99317955  1
  O  O255  1  0.73825660  0.13149736  0.49920318  1
  O  O256  1  0.74573164  0.13246234  0.99112827  1
  O  O257  1  0.75335655  0.62418274  0.48522266  1
  O  O258  1  0.75434255  0.63747366  0.98816815  1
  O  O259  1  0.24199036  0.36776679  0.01131796  1
  O  O260  1  0.26113663  0.37749623  0.50686522  1
  O  O261  1  0.26439171  0.86914884  0.01023343  1
  O  O262  1  0.25096349  0.86650156  0.51045515  1
  O  O263  1  0.74963540  0.37062868  0.00938641  1
  O  O264  1  0.75097559  0.37052084  0.50631768  1
  O  O265  1  0.73999577  0.87308550  -0.00058905  1
  O  O266  1  0.75356813  0.88390855  0.51219633  1
  O  O267  1  0.13071932  0.49022471  0.25528844  1
  O  O268  1  0.11914910  0.50417818  0.73976715  1
  O  O269  1  0.12578027  1.00085412  0.23706339  1
  O  O270  1  0.12941769  1.00751465  0.73713780  1
  O  O271  1  0.62579556  0.49079812  0.25032693  1
  O  O272  1  0.63040914  0.48824219  0.75646380  1
  O  O273  1  0.62828555  0.99647804  0.24506231  1
  O  O274  1  0.63500655  1.01087598  0.74274159  1
  O  O275  1  0.38088423  0.00296735  0.26703144  1
  O  O276  1  0.36488448  0.00787590  0.74634618  1
  O  O277  1  0.37360573  0.50166462  0.25894507  1
  O  O278  1  0.37687351  0.50681561  0.75586850  1
  O  O279  1  0.86612589  0.00706010  0.24946722  1
  O  O280  1  0.86183850  0.00730644  0.75385401  1
  O  O281  1  0.87564216  0.51078957  0.25928401  1
  O  O282  1  0.86719875  0.50033090  0.76080574  1
  O  O283  1  0.11922384  0.37200990  0.36897417  1
  O  O284  1  0.11533022  0.36505579  0.87815187  1
  O  O285  1  0.12057582  0.86146267  0.38065473  1
  O  O286  1  0.15208263  0.85130705  0.86938469  1
  O  O287  1  0.63087053  0.36727560  0.36369071  1
  O  O288  1  0.63843063  0.35610414  0.85560206  1
  O  O289  1  0.62086678  0.86885257  0.37108140  1
  O  O290  1  0.61517214  0.87513205  0.86578320  1
  O  O291  1  0.37124878  0.14046854  0.12689842  1
  O  O292  1  0.36383212  0.13849102  0.62841984  1
  O  O293  1  0.38195888  0.62998734  0.13074680  1
  O  O294  1  0.37249027  0.62740915  0.63059784  1
  O  O295  1  0.88135176  0.12972743  0.13386775  1
  O  O296  1  0.87323588  0.13182312  0.63638843  1
  O  O297  1  0.87266080  0.63540596  0.13394980  1
  O  O298  1  0.87224117  0.63640346  0.62407616  1
  O  O299  1  0.25517175  0.25645028  0.11806092  1
  O  O300  1  0.25422153  0.26390776  0.62606748  1
  O  O301  1  0.26559282  0.75479094  0.12576378  1
  O  O302  1  0.25219069  0.75447196  0.62044571  1
  O  O303  1  0.75311286  0.25545854  0.12103815  1
  O  O304  1  0.75442687  0.25917225  0.62057231  1
  O  O305  1  0.76818257  0.75436620  0.12897889  1
  O  O306  1  0.76373933  0.75756858  0.62602765  1
  O  O307  1  0.24174066  0.24290771  0.37166693  1
  O  O308  1  0.24125147  0.25493459  0.88041233  1
  O  O309  1  0.24523968  0.74589377  0.38263261  1
  O  O310  1  0.24995812  0.73119229  0.87644743  1
  O  O311  1  0.73820389  0.24873207  0.38187653  1
  O  O312  1  0.74507289  0.24098656  0.87581630  1
  O  O313  1  0.74592200  0.74102700  0.37362197  1
  O  O314  1  0.74699223  0.76526137  0.85462096  1
  O  O315  1  -0.00108189  0.13205182  0.01458880  1
  O  O316  1  0.00677658  0.11739791  0.50122411  1
  O  O317  1  0.01690177  0.61453706  -0.00142766  1
  O  O318  1  0.01505452  0.62531214  0.49391599  1
  O  O319  1  0.49601341  0.11369491  -0.00021825  1
  O  O320  1  0.51099596  0.11886052  0.49669299  1
  O  O321  1  0.49342444  0.62279438  0.01294896  1
  O  O322  1  0.49448679  0.61035928  0.51197378  1
  O  O323  1  0.48497485  0.38984165  0.50946135  1
  O  O324  1  0.55827700  0.39578753  0.98707784  1
  O  O325  1  0.49824863  0.88474838  0.49597125  1
  O  O326  1  0.49035891  0.88024240  0.99273343  1
  O  O327  1  0.99898448  0.37484918  0.48531836  1
  O  O328  1  0.99446508  0.37954450  0.99065120  1
  O  O329  1  1.00151567  0.88371416  0.48742818  1
  O  O330  1  1.04741001  0.89197827  0.98304591  1
  O  O331  1  0.49007785  0.50700401  0.38882036  1
  O  O332  1  0.48518937  0.50739504  0.87364846  1
  O  O333  1  0.49543113  0.99713300  0.38610767  1
  O  O334  1  0.49783124  0.99044752  0.88347207  1
  O  O335  1  0.99348438  0.49426859  0.37465194  1
  O  O336  1  0.99222550  0.49348305  0.88170516  1
  O  O337  1  1.00007706  0.99350600  0.38109294  1
  O  O338  1  0.98161684  1.00404176  0.86677892  1
  O  O339  1  -0.00368013  0.01556333  0.12481680  1
  O  O340  1  0.00527372  -0.00177896  0.62022885  1
  O  O341  1  -0.00279439  0.49071167  0.11163199  1
  O  O342  1  0.01560408  0.48856938  0.62279971  1
  O  O343  1  0.50183389  -0.00031452  0.11580368  1
  O  O344  1  0.50462470  -0.00368500  0.61418007  1
  O  O345  1  0.50332026  0.50806656  0.12142885  1
  O  O346  1  0.49606107  0.50998384  0.61335600  1
  O  O347  1  0.24217337  0.37948115  0.24158845  1
  O  O348  1  0.24813760  0.37508450  0.73807906  1
  O  O349  1  0.25651634  0.86808948  0.24112143  1
  O  O350  1  0.25650696  0.88196908  0.73692592  1
  O  O351  1  0.74467338  0.37871727  0.24363354  1
  O  O352  1  0.74442323  0.38182490  0.74059260  1
  O  O353  1  0.74578302  0.88593255  0.24732106  1
  O  O354  1  0.74025451  0.88551954  0.73989403  1
  O  O355  1  0.25123101  0.12245084  0.26303083  1
  O  O356  1  0.25686684  0.11740196  0.74849023  1
  O  O357  1  0.25773366  0.61927912  0.25537695  1
  O  O358  1  0.25938106  0.62213491  0.75684676  1
  O  O359  1  0.75629710  0.11529141  0.24912884  1
  O  O360  1  0.75536958  0.12179745  0.75521688  1
  O  O361  1  0.76292051  0.62648541  0.25887043  1
  O  O362  1  0.75346907  0.60754036  0.74274545  1
  O  O363  1  0.36664046  0.11959745  0.37672596  1
  O  O364  1  0.36766369  0.12065187  0.86255660  1
  O  O365  1  0.36932422  0.61604855  0.37195893  1
  O  O366  1  0.36911074  0.61767787  0.86491551  1
  O  O367  1  0.87381851  0.12467184  0.36216176  1
  O  O368  1  0.86676307  0.12341505  0.86441854  1
  O  O369  1  0.86802076  0.62321758  0.36927199  1
  O  O370  1  0.87820341  0.61205848  0.87635062  1
  O  O371  1  0.13333502  0.36936632  0.13522693  1
  O  O372  1  0.13576913  0.38321045  0.62193462  1
  O  O373  1  0.14797247  0.86619286  0.12201445  1
  O  O374  1  0.13300884  0.88515435  0.61951575  1
  O  O375  1  0.63726419  0.37311290  0.13889314  1
  O  O376  1  0.63345580  0.36819722  0.63448863  1
  O  O377  1  0.62147449  0.88571550  0.13094410  1
  O  O378  1  0.63115260  0.89020770  0.62085096  1
  O  O379  1  0.11925188  0.26117062  0.25629833  1
  O  O380  1  0.11146332  0.24599801  0.75498652  1
  O  O381  1  0.11806099  0.74315706  0.25835921  1
  O  O382  1  0.11520400  0.74282935  0.75371780  1
  O  O383  1  0.61975845  0.25438041  0.25767874  1
  O  O384  1  0.61323547  0.25170976  0.75068580  1
  O  O385  1  0.62163639  0.75807592  0.25847930  1
  O  O386  1  0.62986099  0.75829639  0.74320616  1
  O  O387  1  0.38374281  0.25058283  0.24475873  1
  O  O388  1  0.37811904  0.24387803  0.74256634  1
  O  O389  1  0.38455649  0.74225845  0.24502392  1
  O  O390  1  0.37037390  0.73925790  0.73781147  1
  O  O391  1  0.87733715  0.24352709  0.24612348  1
  O  O392  1  0.88288197  0.24453687  0.74743474  1
  O  O393  1  0.88439884  0.74661543  0.23964008  1
  O  O394  1  0.88728728  0.74813883  0.73087133  1
  O  O395  1  0.37724722  0.49398620  0.49307683  1
  O  O396  1  0.38034636  0.49659954  0.98582301  1
  O  O397  1  0.38188096  1.00152193  0.49305727  1
  O  O398  1  0.37686880  0.99072726  0.99607090  1
  O  O399  1  0.87970739  0.49941925  0.48796481  1
  O  O400  1  0.88073198  0.49553442  0.99576911  1
  O  O401  1  0.88787788  1.00283540  0.49927990  1
  O  O402  1  0.87131005  1.01271518  0.98482314  1
  O  O403  1  0.16615786  0.01732177  0.02535613  1
  O  O404  1  0.11501555  0.00781891  0.50694626  1
  O  O405  1  0.11903837  0.50949000  -0.00387757  1
  O  O406  1  0.12258172  0.50723281  0.50318981  1
  O  O407  1  0.61154830  0.00328534  0.00746596  1
  O  O408  1  0.61717096  0.00829697  0.50542285  1
  O  O409  1  0.63225702  0.53378613  0.00256821  1
  O  O410  1  0.60813909  0.49128754  0.49466691  1
  O  O411  1  0.36398635  0.36259133  0.13121874  1
  O  O412  1  0.36194944  0.36975394  0.62088378  1
  O  O413  1  0.37576852  0.86203849  0.11945479  1
  O  O414  1  0.36794928  0.86296472  0.62141929  1
  O  O415  1  0.86364565  0.37123216  0.12242043  1
  O  O416  1  0.86731861  0.36939764  0.62289431  1
  O  O417  1  0.87515010  0.86301699  0.12402245  1
  O  O418  1  0.86611331  0.86863948  0.62293665  1
  O  O419  1  0.12938395  0.13111377  0.38034639  1
  O  O420  1  0.12461603  0.13827332  0.87700705  1
  O  O421  1  0.13155561  0.63450886  0.38088631  1
  O  O422  1  0.13496649  0.62786846  0.87918448  1
  O  O423  1  0.62636206  0.13408487  0.38290695  1
  O  O424  1  0.63123730  0.13452090  0.87251909  1
  O  O425  1  0.64101121  0.63338898  0.37020325  1
  O  O426  1  0.63083841  0.63095313  0.87216898  1
