# generated using pymatgen
data_V85Zn86O256
_symmetry_space_group_name_H-M   'P 1'
_cell_length_a   16.94938798
_cell_length_b   16.94791096
_cell_length_c   16.94835502
_cell_angle_alpha   89.98654918
_cell_angle_beta   90.01594221
_cell_angle_gamma   89.95905448
_symmetry_Int_Tables_number   1
_chemical_formula_structural   V85Zn86O256
_chemical_formula_sum   'V85 Zn86 O256'
_cell_volume   4868.52727949
_cell_formula_units_Z   1
loop_
 _symmetry_equiv_pos_site_id
 _symmetry_equiv_pos_as_xyz
  1  'x, y, z'
loop_
 _atom_site_type_symbol
 _atom_site_label
 _atom_site_symmetry_multiplicity
 _atom_site_fract_x
 _atom_site_fract_y
 _atom_site_fract_z
 _atom_site_occupancy
  V  V0  1  0.37508712  0.74449743  0.13875514  1
  V  V1  1  0.12375796  -0.00865840  0.12869335  1
  V  V2  1  0.25015057  0.87193101  0.62293276  1
  V  V3  1  0.62487634  0.25136708  0.36144369  1
  V  V4  1  0.12129843  0.87913504  0.75234327  1
  V  V5  1  0.75164004  0.12396880  0.38073713  1
  V  V6  1  0.50343349  0.37039123  0.36104963  1
  V  V7  1  0.87786032  0.75177236  0.14029690  1
  V  V8  1  0.25099424  0.25026612  0.00239472  1
  V  V9  1  0.37407089  0.87197733  0.00041002  1
  V  V10  1  0.75137188  0.75068790  0.00184801  1
  V  V11  1  0.37855343  0.51177980  0.37216185  1
  V  V12  1  0.24945580  -0.00385245  0.25106488  1
  V  V13  1  0.73001954  0.00010098  0.24812382  1
  V  V14  1  0.38414538  0.24799462  0.12653666  1
  V  V15  1  0.73378917  0.87820137  0.12831365  1
  V  V16  1  0.23547918  0.62513804  0.38694895  1
  V  V17  1  0.25075614  0.49828600  0.74601957  1
  V  V18  1  0.00275927  0.12389557  0.12867058  1
  V  V19  1  0.63001741  0.37116085  0.73934925  1
  V  V20  1  -0.00465468  0.37278509  0.37680928  1
  V  V21  1  0.87584531  0.11343355  0.25464653  1
  V  V22  1  0.87197570  0.51794286  0.36453186  1
  V  V23  1  0.12841314  0.37309346  0.25148737  1
  V  V24  1  -0.01218229  0.87600728  0.87560429  1
  V  V25  1  -0.00947464  -0.00105937  0.00048764  1
  V  V26  1  0.50019722  0.24654375  0.74520229  1
  V  V27  1  0.37252831  -0.00113554  0.87766888  1
  V  V28  1  0.87132110  0.75350447  0.62103660  1
  V  V29  1  0.37955288  -0.00607865  0.37638517  1
  V  V30  1  0.12060477  0.62401715  0.00515897  1
  V  V31  1  -0.00635996  0.62518627  0.61742491  1
  V  V32  1  0.37142153  0.37410093  0.49753358  1
  V  V33  1  0.37481744  0.12520090  0.75028633  1
  V  V34  1  0.37986100  0.86837532  0.50039898  1
  V  V35  1  0.12441843  0.50371511  0.62283575  1
  V  V36  1  0.50158470  0.37338998  0.87232174  1
  V  V37  1  0.24951292  0.62444982  0.86958598  1
  V  V38  1  0.24583126  0.12510623  0.87601970  1
  V  V39  1  0.12565626  0.12496463  0.00463158  1
  V  V40  1  0.74113836  0.50429093  0.24946326  1
  V  V41  1  0.63119475  0.24317128  0.87204217  1
  V  V42  1  0.75408647  0.61815073  0.87555214  1
  V  V43  1  0.62799708  0.12183706  0.00349757  1
  V  V44  1  0.06638149  0.82051677  0.31310742  1
  V  V45  1  -0.00429104  0.12798848  0.62528746  1
  V  V46  1  0.62536403  0.73682824  0.36315521  1
  V  V47  1  0.38244640  0.12741984  0.25130325  1
  V  V48  1  0.62230927  0.62367442  -0.00022543  1
  V  V49  1  0.25132511  0.37462714  0.12670924  1
  V  V50  1  0.87251169  0.38409335  -0.00212775  1
  V  V51  1  0.50497693  0.50085769  0.49955704  1
  V  V52  1  0.62305829  0.74788457  0.86610163  1
  V  V53  1  -0.00608838  0.75135973  0.74885847  1
  V  V54  1  0.50349449  -0.00053997  0.00703303  1
  V  V55  1  0.74192178  0.73994345  0.49544874  1
  V  V56  1  0.00113656  0.50147723  0.49825579  1
  V  V57  1  0.49733227  0.86906147  0.87097698  1
  V  V58  1  0.87534521  0.25117631  0.12781245  1
  V  V59  1  0.12314082  0.74875534  0.87124467  1
  V  V60  1  0.12290688  0.00253764  0.62241671  1
  V  V61  1  0.51063202  0.86821011  0.36136953  1
  V  V62  1  0.75289979  0.24523417  -0.00421158  1
  V  V63  1  0.12181033  0.25384866  0.87522175  1
  V  V64  1  0.25013428  0.74894107  0.00037851  1
  V  V65  1  -0.00186575  0.38674002  0.87590226  1
  V  V66  1  0.25411843  0.13119946  0.38485410  1
  V  V67  1  0.00197632  0.24865905  0.25349317  1
  V  V68  1  0.50685891  0.62916651  0.62851565  1
  V  V69  1  0.37625403  0.49831259  0.87166126  1
  V  V70  1  0.86651705  0.25712469  0.62352508  1
  V  V71  1  0.36659713  0.25227883  0.62135894  1
  V  V72  1  0.87106264  0.62280705  0.75076773  1
  V  V73  1  0.87431614  0.88080309  0.48510080  1
  V  V74  1  0.24391724  0.00023297  0.75128733  1
  V  V75  1  0.25267881  0.51131647  0.24754206  1
  V  V76  1  0.63342864  0.49834839  0.61578853  1
  V  V77  1  0.62272687  0.88192326  0.74523350  1
  V  V78  1  0.49631694  0.62701514  0.13640868  1
  V  V79  1  0.75426163  0.49376350  0.75043280  1
  V  V80  1  0.74608287  0.88934027  0.61980484  1
  V  V81  1  0.24744113  0.86909854  0.12820507  1
  V  V82  1  0.50103314  0.49968420  -0.00071585  1
  V  V83  1  0.75861510  0.00101801  0.76836119  1
  V  V84  1  -0.00338239  0.00071996  0.48846738  1
  Zn  Zn85  1  0.24154013  0.37149834  0.61446137  1
  Zn  Zn86  1  0.50887776  0.12132559  0.13388557  1
  Zn  Zn87  1  0.11794575  0.49979194  0.12424211  1
  Zn  Zn88  1  0.73942042  0.26078649  0.50379258  1
  Zn  Zn89  1  0.50249393  0.11458537  0.62052469  1
  Zn  Zn90  1  -0.02540630  0.61392370  0.15731267  1
  Zn  Zn91  1  0.37500092  0.37344847  -0.00006463  1
  Zn  Zn92  1  0.86642876  0.12809916  0.76112088  1
  Zn  Zn93  1  -0.00673674  0.50708640  0.00282867  1
  Zn  Zn94  1  0.61809089  0.49237251  0.13285414  1
  Zn  Zn95  1  0.38220689  0.74992732  0.63418863  1
  Zn  Zn96  1  0.73916351  0.36983630  0.13566857  1
  Zn  Zn97  1  0.38460058  0.63222861  0.75194137  1
  Zn  Zn98  1  0.51808828  -0.00804029  0.51021040  1
  Zn  Zn99  1  0.13427793  0.25711930  0.38719039  1
  Zn  Zn100  1  0.86789188  0.87921731  0.00065343  1
  Zn  Zn101  1  0.24572503  0.74879654  0.49408592  1
  Zn  Zn102  1  0.62016445  0.12355532  0.50349462  1
  Zn  Zn103  1  -0.00226306  0.25272089  0.74837567  1
  Zn  Zn104  1  0.12915520  0.13322864  0.50289727  1
  Zn  Zn105  1  0.86772201  0.37954376  0.50224410  1
  Zn  Zn106  1  0.12323442  0.37588508  0.74874587  1
  Zn  Zn107  1  0.19299973  0.18594664  0.19305414  1
  Zn  Zn108  1  0.18446162  0.18800766  0.68869289  1
  Zn  Zn109  1  0.14570686  0.67532519  0.21123132  1
  Zn  Zn110  1  0.15029472  0.71733279  0.64184333  1
  Zn  Zn111  1  0.68953821  0.18718295  0.18681064  1
  Zn  Zn112  1  0.68915293  0.17667071  0.68703693  1
  Zn  Zn113  1  0.69162624  0.67821157  0.18555670  1
  Zn  Zn114  1  0.68620407  0.68756637  0.68351776  1
  Zn  Zn115  1  0.31958227  0.31421262  0.31099153  1
  Zn  Zn116  1  0.31049066  0.31416862  0.81036500  1
  Zn  Zn117  1  0.30702225  0.80873556  0.31429361  1
  Zn  Zn118  1  0.31245642  0.80837341  0.80627099  1
  Zn  Zn119  1  0.81062664  0.31407928  0.31333474  1
  Zn  Zn120  1  0.81540489  0.31094557  0.81226056  1
  Zn  Zn121  1  0.80179869  0.81446275  0.31117418  1
  Zn  Zn122  1  0.80654322  0.81251792  0.81070600  1
  Zn  Zn123  1  0.18668958  0.44225263  0.43670395  1
  Zn  Zn124  1  0.18709401  0.43885187  0.93996435  1
  Zn  Zn125  1  0.19143679  0.94381684  0.44073990  1
  Zn  Zn126  1  0.18072219  0.93611820  0.93942298  1
  Zn  Zn127  1  0.69034546  0.43465296  0.43119466  1
  Zn  Zn128  1  0.68633920  0.43152247  0.93769891  1
  Zn  Zn129  1  0.68875825  0.93808465  0.43153991  1
  Zn  Zn130  1  0.68330756  0.93443110  0.93899677  1
  Zn  Zn131  1  0.31396560  0.06144107  0.06518394  1
  Zn  Zn132  1  0.32990087  0.05595131  0.56569887  1
  Zn  Zn133  1  0.31202736  0.56344770  0.06048890  1
  Zn  Zn134  1  0.32020039  0.56236338  0.56353690  1
  Zn  Zn135  1  0.80954215  0.06436835  0.06798741  1
  Zn  Zn136  1  0.81354716  0.06455021  0.56340532  1
  Zn  Zn137  1  0.80719951  0.56423420  0.07019811  1
  Zn  Zn138  1  0.81284002  0.55779860  0.55887170  1
  Zn  Zn139  1  0.43359296  0.44121950  0.18576043  1
  Zn  Zn140  1  0.43984847  0.43714807  0.68375352  1
  Zn  Zn141  1  0.43614766  0.93396339  0.18815736  1
  Zn  Zn142  1  0.43457461  0.93390481  0.69105924  1
  Zn  Zn143  1  0.93648863  0.43406834  0.18726691  1
  Zn  Zn144  1  0.93746213  0.43583848  0.69003269  1
  Zn  Zn145  1  0.93352881  0.92911228  0.18694727  1
  Zn  Zn146  1  0.93521631  0.93875618  0.68163190  1
  Zn  Zn147  1  0.06883973  0.06232893  0.31307046  1
  Zn  Zn148  1  0.02939082  0.07924935  0.82994897  1
  Zn  Zn149  1  0.06262209  0.55832800  0.31448200  1
  Zn  Zn150  1  0.06270856  0.56429257  0.80892614  1
  Zn  Zn151  1  0.56173495  0.06213281  0.32436721  1
  Zn  Zn152  1  0.56282017  0.05994989  0.81500332  1
  Zn  Zn153  1  0.56347820  0.56360566  0.31577948  1
  Zn  Zn154  1  0.56862909  0.55872499  0.80906747  1
  Zn  Zn155  1  0.44196345  0.18879733  0.43931307  1
  Zn  Zn156  1  0.43968003  0.18551388  0.93753908  1
  Zn  Zn157  1  0.44325315  0.68808904  0.44148148  1
  Zn  Zn158  1  0.43666317  0.68635269  0.93786330  1
  Zn  Zn159  1  0.93636820  0.18789454  0.44018948  1
  Zn  Zn160  1  0.93617550  0.19017966  0.93855066  1
  Zn  Zn161  1  0.93686659  0.69370370  0.43316905  1
  Zn  Zn162  1  0.93441369  0.68851564  0.93986711  1
  Zn  Zn163  1  0.06096286  0.31561309  0.06257407  1
  Zn  Zn164  1  0.06115622  0.31233974  0.55975093  1
  Zn  Zn165  1  0.05956888  0.80972913  0.06253892  1
  Zn  Zn166  1  0.06556954  0.80941624  0.47927189  1
  Zn  Zn167  1  0.56382138  0.31236680  0.06141550  1
  Zn  Zn168  1  0.56136017  0.30590873  0.55697500  1
  Zn  Zn169  1  0.56014887  0.80678039  0.06044432  1
  Zn  Zn170  1  0.56559401  0.81442464  0.55877174  1
  O  O171  1  0.12180467  0.11817893  0.12397834  1
  O  O172  1  0.12473554  0.11450286  0.62269319  1
  O  O173  1  0.13963827  0.62427319  0.10697687  1
  O  O174  1  0.10689418  0.61069314  0.63395211  1
  O  O175  1  0.62309647  0.13264430  0.10876166  1
  O  O176  1  0.61189278  0.14336855  0.61824848  1
  O  O177  1  0.61526725  0.61921342  0.11594672  1
  O  O178  1  0.61776827  0.61263131  0.62619139  1
  O  O179  1  0.38505579  0.38153226  0.38020965  1
  O  O180  1  0.37994266  0.38557223  0.87393319  1
  O  O181  1  0.38203684  0.87559662  0.37975668  1
  O  O182  1  0.38057345  0.87853783  0.87989095  1
  O  O183  1  0.88970317  0.37939743  0.37277706  1
  O  O184  1  0.88625062  0.36718838  0.88615599  1
  O  O185  1  0.86897494  0.87372077  0.38704374  1
  O  O186  1  0.88487956  0.87047248  0.87624003  1
  O  O187  1  0.25816678  0.00534150  0.36711594  1
  O  O188  1  0.25021639  0.00395458  0.87034841  1
  O  O189  1  0.25863698  0.50930309  0.36979335  1
  O  O190  1  0.25802715  0.50384677  0.87032674  1
  O  O191  1  0.74813397  0.00928214  0.35684792  1
  O  O192  1  0.75495407  -0.00999378  0.86696477  1
  O  O193  1  0.76548485  0.49950031  0.36574262  1
  O  O194  1  0.74082521  0.50857273  0.86553355  1
  O  O195  1  0.25269496  0.49271341  0.13265538  1
  O  O196  1  0.24127868  0.50370217  0.63069476  1
  O  O197  1  0.24433617  0.99279302  0.13142189  1
  O  O198  1  0.24820455  0.99393893  0.63245128  1
  O  O199  1  0.74614152  0.49590656  0.13702000  1
  O  O200  1  0.74036599  0.50408839  0.63211290  1
  O  O201  1  0.75076114  0.99339038  0.13713212  1
  O  O202  1  0.75201585  0.99059405  0.63001702  1
  O  O203  1  0.00934894  0.36898773  0.25587199  1
  O  O204  1  0.00164923  0.37315586  0.76170850  1
  O  O205  1  0.00556260  0.87845996  0.25787591  1
  O  O206  1  0.00181037  0.87434463  0.75673426  1
  O  O207  1  0.49408303  0.38053254  0.26313495  1
  O  O208  1  0.50848973  0.36852167  0.75413562  1
  O  O209  1  0.49687523  0.87173606  0.26313035  1
  O  O210  1  0.50722773  0.88006499  0.76308866  1
  O  O211  1  0.48685703  0.11571403  0.25080084  1
  O  O212  1  0.49243656  0.13214168  0.75336089  1
  O  O213  1  0.50019830  0.61557700  0.23519185  1
  O  O214  1  0.50445443  0.61576003  0.73297690  1
  O  O215  1  0.99600281  0.12958526  0.24788580  1
  O  O216  1  1.01227885  0.13048484  0.72963470  1
  O  O217  1  1.04071934  0.63803278  0.24201460  1
  O  O218  1  0.98858741  0.62877216  0.74328270  1
  O  O219  1  0.36655774  0.24848069  0.00518731  1
  O  O220  1  0.38014859  0.26006488  0.51026132  1
  O  O221  1  0.36631648  0.75648217  -0.00133528  1
  O  O222  1  0.37128144  0.75868088  0.50476034  1
  O  O223  1  0.86950481  0.25277959  0.00706852  1
  O  O224  1  0.87385077  0.25120627  0.51478085  1
  O  O225  1  0.85884220  0.75273576  -0.00020915  1
  O  O226  1  0.86756421  0.76151106  0.50323368  1
  O  O227  1  0.12900478  0.24736929  0.50006427  1
  O  O228  1  0.13178692  0.24560948  0.99685830  1
  O  O229  1  0.13862019  0.75055512  0.53376429  1
  O  O230  1  0.13066284  0.74389561  0.99247474  1
  O  O231  1  0.62396264  0.24701834  0.48302981  1
  O  O232  1  0.63314370  0.24442050  0.99010822  1
  O  O233  1  0.63935572  0.75270079  0.49500437  1
  O  O234  1  0.63418053  0.74401541  0.98997847  1
  O  O235  1  0.48645687  0.24444352  0.11527756  1
  O  O236  1  0.48781325  0.25604050  0.63814587  1
  O  O237  1  0.48791277  0.73881179  0.11688299  1
  O  O238  1  0.50670808  0.73175211  0.61615119  1
  O  O239  1  0.99608586  0.24456980  0.13199628  1
  O  O240  1  0.99077008  0.24361698  0.62484042  1
  O  O241  1  0.97953219  0.75458356  0.12199474  1
  O  O242  1  0.98219299  0.74135845  0.62994177  1
  O  O243  1  0.00314420  0.25701190  0.37044345  1
  O  O244  1  0.01382751  0.26195244  0.88040764  1
  O  O245  1  0.01522534  0.75727931  0.38193702  1
  O  O246  1  0.00319350  0.75691820  0.86861482  1
  O  O247  1  0.50321551  0.26398241  0.37358541  1
  O  O248  1  0.50457449  0.25411039  0.86412088  1
  O  O249  1  0.51306378  0.75787921  0.37963258  1
  O  O250  1  0.51046828  0.75770608  0.88192996  1
  O  O251  1  0.25811850  0.11563156  0.48580948  1
  O  O252  1  0.24479116  0.12894385  0.99555602  1
  O  O253  1  0.25606510  0.62241043  0.48933572  1
  O  O254  1  0.24567597  0.62813118  0.98595601  1
  O  O255  1  0.75632359  0.12800790  0.48539272  1
  O  O256  1  0.74526627  0.13538496  1.00181445  1
  O  O257  1  0.75653586  0.64236892  0.50252641  1
  O  O258  1  0.74262846  0.62874682  0.99296662  1
  O  O259  1  0.25245241  0.36919878  0.00833302  1
  O  O260  1  0.26559046  0.38414156  0.49738270  1
  O  O261  1  0.25446414  0.86970168  0.00430782  1
  O  O262  1  0.25850446  0.87507630  0.50881626  1
  O  O263  1  0.75791342  0.36165315  -0.00183793  1
  O  O264  1  0.75567819  0.37320865  0.49605279  1
  O  O265  1  0.74829851  0.86763724  0.00687096  1
  O  O266  1  0.75838918  0.87110946  0.50470539  1
  O  O267  1  0.13455409  0.48576565  0.24805637  1
  O  O268  1  0.13359121  0.49895486  0.74321247  1
  O  O269  1  0.13531881  1.00462479  0.23864076  1
  O  O270  1  0.13482969  1.00094472  0.74697015  1
  O  O271  1  0.63706267  0.50041490  0.25411993  1
  O  O272  1  0.63471853  0.48915111  0.74142743  1
  O  O273  1  0.63182619  1.00818989  0.24622865  1
  O  O274  1  0.63493468  0.98737221  0.75896606  1
  O  O275  1  0.37030072  0.00328627  0.25939483  1
  O  O276  1  0.36133989  0.00260856  0.75895584  1
  O  O277  1  0.36327400  0.49549873  0.25975870  1
  O  O278  1  0.36968370  0.50233080  0.75542502  1
  O  O279  1  0.87559073  0.01274131  0.24255848  1
  O  O280  1  0.86035456  -0.00277766  0.74774594  1
  O  O281  1  0.88227321  0.50424136  0.26248240  1
  O  O282  1  0.86075039  0.50359549  0.74479104  1
  O  O283  1  0.11615199  0.37733851  0.36850162  1
  O  O284  1  0.11832396  0.36966138  0.87664568  1
  O  O285  1  0.11801616  0.87524271  0.38624661  1
  O  O286  1  0.11836959  0.86547644  0.86943929  1
  O  O287  1  0.61041812  0.36969882  0.37381738  1
  O  O288  1  0.61976974  0.36246067  0.86615517  1
  O  O289  1  0.61447071  0.86548999  0.37368280  1
  O  O290  1  0.61673796  0.86650574  0.86903152  1
  O  O291  1  0.37539325  0.13086249  0.13412340  1
  O  O292  1  0.37461933  0.13634620  0.63445642  1
  O  O293  1  0.38246959  0.63430987  0.11710902  1
  O  O294  1  0.39233529  0.62380776  0.62829002  1
  O  O295  1  0.88272436  0.13503214  0.13116892  1
  O  O296  1  0.88230336  0.13200632  0.63062006  1
  O  O297  1  0.87135505  0.64468741  0.11993553  1
  O  O298  1  0.87587539  0.63071305  0.62999946  1
  O  O299  1  0.25740254  0.25433318  0.12056102  1
  O  O300  1  0.26256565  0.25537629  0.63542915  1
  O  O301  1  0.25795577  0.75566657  0.11519179  1
  O  O302  1  0.25590112  0.76817830  0.63695227  1
  O  O303  1  0.76041914  0.25045617  0.11807611  1
  O  O304  1  0.76395277  0.24299545  0.62521732  1
  O  O305  1  0.75299364  0.75530823  0.11854286  1
  O  O306  1  0.75552801  0.75688753  0.61517179  1
  O  O307  1  0.25654298  0.23401639  0.37016935  1
  O  O308  1  0.24076293  0.24805733  0.88162178  1
  O  O309  1  0.25289360  0.72949319  0.37574506  1
  O  O310  1  0.24308369  0.74181248  0.87772151  1
  O  O311  1  0.74192177  0.24223854  0.37198448  1
  O  O312  1  0.74267883  0.24965285  0.88138812  1
  O  O313  1  0.73768422  0.75475134  0.38584026  1
  O  O314  1  0.74153878  0.74338420  0.88115276  1
  O  O315  1  0.00716547  0.11744136  0.01064539  1
  O  O316  1  -0.00009968  0.11777063  0.51029295  1
  O  O317  1  0.01117338  0.62555308  -0.00503587  1
  O  O318  1  -0.00898741  0.62074090  0.51169454  1
  O  O319  1  0.50774540  0.11495369  0.00023177  1
  O  O320  1  0.49712719  0.11298009  0.49757553  1
  O  O321  1  0.50499427  0.61617587  0.00132911  1
  O  O322  1  0.49717376  0.60841747  0.50995027  1
  O  O323  1  0.49112432  0.38451397  0.49402213  1
  O  O324  1  0.49631324  0.38158004  0.98955347  1
  O  O325  1  0.49315388  0.87366955  0.49079605  1
  O  O326  1  0.49610323  0.87983439  0.99027729  1
  O  O327  1  0.99465217  0.38464990  0.49220052  1
  O  O328  1  0.99084705  0.37893205  0.99446180  1
  O  O329  1  0.98216190  0.88484078  0.50486318  1
  O  O330  1  0.99563870  0.88092513  0.99344839  1
  O  O331  1  0.49604441  0.49228710  0.38050774  1
  O  O332  1  0.49409686  0.49576161  0.87692527  1
  O  O333  1  0.49345508  0.98347586  0.37495718  1
  O  O334  1  0.49214752  0.99156940  0.88380815  1
  O  O335  1  0.99363921  0.49499748  0.38106031  1
  O  O336  1  1.00317105  0.49009625  0.87727357  1
  O  O337  1  1.00329136  1.00989776  0.38934455  1
  O  O338  1  1.01675720  0.98403169  0.89170192  1
  O  O339  1  0.00776525  0.00037548  0.12033507  1
  O  O340  1  0.00758497  0.00624094  0.61876151  1
  O  O341  1  -0.00064054  0.50528738  0.12253160  1
  O  O342  1  0.00034421  0.50548389  0.61787631  1
  O  O343  1  0.49298158  -0.00123330  0.11054758  1
  O  O344  1  0.47580285  0.00345678  0.61693022  1
  O  O345  1  0.49592923  0.50648092  0.11359301  1
  O  O346  1  0.51178279  0.50288571  0.61754484  1
  O  O347  1  0.24495474  0.38021985  0.24699503  1
  O  O348  1  0.24839078  0.38938398  0.74794518  1
  O  O349  1  0.25937854  0.88918803  0.24457250  1
  O  O350  1  0.24250173  0.88412505  0.74785395  1
  O  O351  1  0.76578624  0.39503220  0.24774690  1
  O  O352  1  0.74164779  0.38175488  0.75623190  1
  O  O353  1  0.74875968  0.89244887  0.24434000  1
  O  O354  1  0.74266686  0.88366531  0.74252742  1
  O  O355  1  0.26151322  0.11342278  0.25705825  1
  O  O356  1  0.25373332  0.11964453  0.75785323  1
  O  O357  1  0.23789449  0.61347616  0.25985138  1
  O  O358  1  0.25209534  0.61310791  0.76370246  1
  O  O359  1  0.75740926  0.11561124  0.25216199  1
  O  O360  1  0.74889327  0.10601460  0.75471079  1
  O  O361  1  0.75605538  0.60512353  0.24633604  1
  O  O362  1  0.75148225  0.61807923  0.75684119  1
  O  O363  1  0.36994946  0.11611948  0.36951670  1
  O  O364  1  0.36620575  0.11943611  0.87088580  1
  O  O365  1  0.37717935  0.61366685  0.37847499  1
  O  O366  1  0.36956575  0.61320525  0.87424613  1
  O  O367  1  0.86617838  0.13341475  0.36382516  1
  O  O368  1  0.92152040  0.11600601  0.85943234  1
  O  O369  1  0.87997681  0.61601415  0.37335101  1
  O  O370  1  0.86046732  0.63003652  0.86971692  1
  O  O371  1  0.13396223  0.37498550  0.13281967  1
  O  O372  1  0.12364280  0.38970435  0.62677658  1
  O  O373  1  0.13187437  0.88395539  0.11617218  1
  O  O374  1  0.13344888  0.89249265  0.63544997  1
  O  O375  1  0.62764165  0.38052685  0.11752198  1
  O  O376  1  0.61977867  0.37801961  0.63478434  1
  O  O377  1  0.63444117  0.86908693  0.12061831  1
  O  O378  1  0.63269234  0.86879526  0.63519581  1
  O  O379  1  0.12444348  0.25992465  0.25517131  1
  O  O380  1  0.12430969  0.25518691  0.76141426  1
  O  O381  1  0.13758855  0.77945988  0.25430437  1
  O  O382  1  0.11140538  0.75795235  0.74771474  1
  O  O383  1  0.62530400  0.24644145  0.26050390  1
  O  O384  1  0.62021213  0.25374451  0.75438541  1
  O  O385  1  0.63429092  0.74180690  0.26383891  1
  O  O386  1  0.63310233  0.76076074  0.76062947  1
  O  O387  1  0.37113807  0.23919700  0.23963450  1
  O  O388  1  0.38244223  0.24656519  0.74747832  1
  O  O389  1  0.37010778  0.75035839  0.23740290  1
  O  O390  1  0.38287124  0.74631125  0.74976195  1
  O  O391  1  0.88097745  0.24409737  0.24199500  1
  O  O392  1  0.87705501  0.24618008  0.73951325  1
  O  O393  1  0.86863995  0.75409748  0.23948567  1
  O  O394  1  0.87340483  0.74591064  0.74071463  1
  O  O395  1  0.38443340  0.49307824  0.49194687  1
  O  O396  1  0.38492750  0.49884358  0.99000260  1
  O  O397  1  0.37052617  0.98525022  0.48408777  1
  O  O398  1  0.37900137  0.99263634  0.99487392  1
  O  O399  1  0.88459887  0.50067392  0.48809573  1
  O  O400  1  0.86889378  0.48691699  1.00511433  1
  O  O401  1  0.87986901  0.98856094  0.50363162  1
  O  O402  1  0.88716742  1.00056026  1.00764420  1
  O  O403  1  0.12009497  0.00618611  0.01228577  1
  O  O404  1  0.11727445  0.00429463  0.50867629  1
  O  O405  1  0.12277511  0.51026768  0.00189856  1
  O  O406  1  0.11009580  0.49818362  0.50684794  1
  O  O407  1  0.61614840  0.00961737  -0.00739711  1
  O  O408  1  0.62984589  0.00710067  0.49411861  1
  O  O409  1  0.61112583  0.50353859  -0.00692051  1
  O  O410  1  0.62007150  0.49268339  0.50737873  1
  O  O411  1  0.36834425  0.36560827  0.12410724  1
  O  O412  1  0.37230807  0.37075751  0.61567364  1
  O  O413  1  0.36980158  0.86633818  0.11771144  1
  O  O414  1  0.36782434  0.87260119  0.61671999  1
  O  O415  1  0.87719168  0.36141096  0.11647497  1
  O  O416  1  0.87924892  0.36035221  0.62551358  1
  O  O417  1  0.86141574  0.86454851  0.12207225  1
  O  O418  1  0.86429571  0.86731934  0.61938536  1
  O  O419  1  0.14541487  0.12510289  0.37553073  1
  O  O420  1  0.12642083  0.13478665  0.88344441  1
  O  O421  1  0.13756175  0.61459660  0.38679482  1
  O  O422  1  0.13200320  0.62984907  0.87906575  1
  O  O423  1  0.63482160  0.13437357  0.37378701  1
  O  O424  1  0.61852774  0.13748149  0.88360007  1
  O  O425  1  0.61855411  0.63847816  0.38133629  1
  O  O426  1  0.63182456  0.63146400  0.87684921  1
