# generated using pymatgen
data_V85Zn86O256
_symmetry_space_group_name_H-M   'P 1'
_cell_length_a   16.95917846
_cell_length_b   16.96384785
_cell_length_c   16.93924082
_cell_angle_alpha   90.04198628
_cell_angle_beta   89.95938667
_cell_angle_gamma   89.96688439
_symmetry_Int_Tables_number   1
_chemical_formula_structural   V85Zn86O256
_chemical_formula_sum   'V85 Zn86 O256'
_cell_volume   4873.29635829
_cell_formula_units_Z   1
loop_
 _symmetry_equiv_pos_site_id
 _symmetry_equiv_pos_as_xyz
  1  'x, y, z'
loop_
 _atom_site_type_symbol
 _atom_site_label
 _atom_site_symmetry_multiplicity
 _atom_site_fract_x
 _atom_site_fract_y
 _atom_site_fract_z
 _atom_site_occupancy
  V  V0  1  0.37917741  0.24991598  0.12531516  1
  V  V1  1  0.25048836  0.74733737  0.49871872  1
  V  V2  1  0.62052306  0.37742158  0.25573972  1
  V  V3  1  0.50247135  0.37414135  0.87501885  1
  V  V4  1  0.36477963  0.49540235  0.37179899  1
  V  V5  1  0.74946731  0.12187216  0.87716446  1
  V  V6  1  0.86504587  0.37572770  0.49854638  1
  V  V7  1  0.37359051  0.49853681  0.87180842  1
  V  V8  1  0.75966605  0.61235257  0.36008840  1
  V  V9  1  0.12660042  0.62519344  0.00278654  1
  V  V10  1  0.37311692  0.62335908  0.74403361  1
  V  V11  1  0.24160039  0.49322721  0.74835351  1
  V  V12  1  0.62524089  0.23989385  0.87971194  1
  V  V13  1  0.00379194  0.37770917  0.86506796  1
  V  V14  1  0.87456209  0.49976452  0.87443705  1
  V  V15  1  0.13010252  0.50704536  0.13671170  1
  V  V16  1  0.89802483  0.13153554  0.24722079  1
  V  V17  1  0.11912431  0.12317282  0.49585850  1
  V  V18  1  -0.01128981  0.63212633  0.13246417  1
  V  V19  1  0.37343915  0.00122428  0.87784645  1
  V  V20  1  0.00355449  0.88144620  0.36689065  1
  V  V21  1  0.74862339  0.24764653  0.00706372  1
  V  V22  1  -0.00617360  0.50526655  0.49567315  1
  V  V23  1  0.24820500  0.24533830  0.00332194  1
  V  V24  1  0.87760388  0.87090046  -0.00486296  1
  V  V25  1  0.61130960  0.11558224  0.50333789  1
  V  V26  1  0.13659858  0.24910200  0.38037140  1
  V  V27  1  0.25132532  0.75170505  0.00025454  1
  V  V28  1  0.62478586  0.24948536  0.37736032  1
  V  V29  1  0.12024996  0.37140733  0.25376995  1
  V  V30  1  0.75049739  0.23711925  0.49900318  1
  V  V31  1  0.37644574  0.87673549  0.00417147  1
  V  V32  1  0.50956413  0.00526299  -0.00084352  1
  V  V33  1  0.62549493  0.62502005  0.00078298  1
  V  V34  1  0.12437919  0.25336647  0.86574002  1
  V  V35  1  0.37585044  0.12329190  0.25027381  1
  V  V36  1  0.51206464  0.12706383  0.12220959  1
  V  V37  1  0.11597029  0.50753768  0.62630883  1
  V  V38  1  -0.00288497  0.11585647  0.62358268  1
  V  V39  1  0.62307710  0.87292141  0.24250026  1
  V  V40  1  0.74968386  0.49712148  0.74400062  1
  V  V41  1  0.38036171  0.75232180  0.12794406  1
  V  V42  1  0.12182260  0.74837327  0.36671379  1
  V  V43  1  0.75383861  0.62473971  0.87382741  1
  V  V44  1  0.87393115  0.00794924  0.38025804  1
  V  V45  1  0.24525256  0.00502844  0.24943697  1
  V  V46  1  0.36891738  0.62074044  0.25128441  1
  V  V47  1  0.88229966  0.87704408  0.50163280  1
  V  V48  1  0.62562329  0.75302813  0.37559063  1
  V  V49  1  0.06739195  0.16705508  0.05741875  1
  V  V50  1  0.37397894  0.37483089  0.00079969  1
  V  V51  1  0.62594704  0.49372543  0.62041492  1
  V  V52  1  0.00437602  -0.00608917  -0.00448915  1
  V  V53  1  0.75254763  0.01955156  0.24665971  1
  V  V54  1  0.87404176  0.37127084  -0.00077477  1
  V  V55  1  0.87138055  0.25357330  0.62598554  1
  V  V56  1  0.25164232  0.38003038  0.13407973  1
  V  V57  1  0.63250106  0.63029767  0.49715195  1
  V  V58  1  0.11741398  0.75789055  0.87406790  1
  V  V59  1  0.23758691  0.37043676  0.62297068  1
  V  V60  1  0.87949237  0.74239572  0.61687996  1
  V  V61  1  0.50023944  0.49709859  0.49005027  1
  V  V62  1  0.24915502  0.87465170  0.13460844  1
  V  V63  1  0.50113467  0.24834990  0.74441293  1
  V  V64  1  0.24177824  0.12497339  0.87946689  1
  V  V65  1  0.50058993  0.74867522  0.74685511  1
  V  V66  1  0.62743368  0.37392839  0.74806422  1
  V  V67  1  0.00063400  0.50342845  0.00074332  1
  V  V68  1  0.37172993  0.25309550  0.62341625  1
  V  V69  1  0.30854101  0.06713660  0.42148744  1
  V  V70  1  0.62057591  0.49689820  0.12936408  1
  V  V71  1  0.87824113  -0.00409527  0.87101714  1
  V  V72  1  0.24241150  -0.00458525  0.75200037  1
  V  V73  1  0.74578920  0.87110926  0.61673968  1
  V  V74  1  0.37384117  0.37408407  0.49875341  1
  V  V75  1  0.24831528  0.62425291  0.87469487  1
  V  V76  1  0.37306183  0.12610995  0.75051119  1
  V  V77  1  -0.00748367  0.36884679  0.37469522  1
  V  V78  1  0.75184830  0.75508616  -0.00052861  1
  V  V79  1  0.12104267  -0.00341226  0.12473051  1
  V  V80  1  0.49924039  0.50127118  -0.00289593  1
  V  V81  1  0.77626297  0.40616616  0.14686677  1
  V  V82  1  0.80952521  0.81526226  0.17468393  1
  V  V83  1  0.62558173  0.74892236  0.87338288  1
  V  V84  1  0.49886385  0.87336184  0.87502041  1
  Zn  Zn85  1  0.11399056  0.87757449  0.74776934  1
  Zn  Zn86  1  0.24526769  0.87220513  0.62509768  1
  Zn  Zn87  1  0.00127912  0.25310124  0.74374180  1
  Zn  Zn88  1  0.49338886  0.75136972  0.26313166  1
  Zn  Zn89  1  0.63657262  -0.00171389  0.11798373  1
  Zn  Zn90  1  0.50009769  0.90964851  0.39484632  1
  Zn  Zn91  1  0.88910927  0.24268967  0.12514773  1
  Zn  Zn92  1  -0.00735091  0.75068962  0.24805783  1
  Zn  Zn93  1  0.37331108  0.75200483  0.62210962  1
  Zn  Zn94  1  0.50104241  0.62391415  0.62083677  1
  Zn  Zn95  1  0.63051473  0.87326295  0.74710933  1
  Zn  Zn96  1  0.87547279  0.12720058  0.74920344  1
  Zn  Zn97  1  0.75224142  -0.00108833  0.74468098  1
  Zn  Zn98  1  0.49813187  0.62593639  0.12780779  1
  Zn  Zn99  1  0.24265775  0.61993563  0.37154152  1
  Zn  Zn100  1  0.11836458  0.62768220  0.49940685  1
  Zn  Zn101  1  0.49785171  0.25423246  0.26035412  1
  Zn  Zn102  1  0.61504768  -0.00133990  0.62461448  1
  Zn  Zn103  1  0.37840298  0.87782125  0.49559681  1
  Zn  Zn104  1  0.88176368  0.62102079  0.73848676  1
  Zn  Zn105  1  0.11924002  -0.00504879  0.61486611  1
  Zn  Zn106  1  -0.00262240  0.74835275  0.74476669  1
  Zn  Zn107  1  0.19158200  0.19150933  0.19784951  1
  Zn  Zn108  1  0.18512476  0.18474584  0.68502855  1
  Zn  Zn109  1  0.18973947  0.69020049  0.19136662  1
  Zn  Zn110  1  0.18544079  0.68522274  0.68688879  1
  Zn  Zn111  1  0.68885184  0.19446212  0.18852648  1
  Zn  Zn112  1  0.68976824  0.18472450  0.68568683  1
  Zn  Zn113  1  0.68074749  0.68124373  0.19111194  1
  Zn  Zn114  1  0.69230395  0.68781308  0.68180228  1
  Zn  Zn115  1  0.31409975  0.31367197  0.31328752  1
  Zn  Zn116  1  0.31018872  0.31375085  0.81168249  1
  Zn  Zn117  1  0.31563155  0.81600612  0.31924327  1
  Zn  Zn118  1  0.31116244  0.81194442  0.81256986  1
  Zn  Zn119  1  0.81189144  0.30592250  0.31515481  1
  Zn  Zn120  1  0.81092111  0.31211795  0.81167061  1
  Zn  Zn121  1  0.81012203  0.80612020  0.34036916  1
  Zn  Zn122  1  0.81754207  0.81298063  0.80473694  1
  Zn  Zn123  1  0.18498182  0.43586328  0.44232662  1
  Zn  Zn124  1  0.18692712  0.43725113  0.94205976  1
  Zn  Zn125  1  0.18239642  0.93089796  0.44111818  1
  Zn  Zn126  1  0.18736377  0.93743170  0.94304241  1
  Zn  Zn127  1  0.69227348  0.43944076  0.43331509  1
  Zn  Zn128  1  0.68856563  0.43396638  0.93888014  1
  Zn  Zn129  1  0.69201139  0.93861344  0.43417214  1
  Zn  Zn130  1  0.68824411  0.93509471  0.93199974  1
  Zn  Zn131  1  0.31551917  0.06242804  0.06593342  1
  Zn  Zn132  1  0.30928543  0.06535864  0.58061339  1
  Zn  Zn133  1  0.31289206  0.56383633  0.06462017  1
  Zn  Zn134  1  0.30659021  0.56199769  0.55930240  1
  Zn  Zn135  1  0.81850368  0.06438328  0.06283614  1
  Zn  Zn136  1  0.81109899  0.06001065  0.56403604  1
  Zn  Zn137  1  0.81495613  0.56172301  0.07231776  1
  Zn  Zn138  1  0.80918842  0.55885178  0.55649653  1
  Zn  Zn139  1  0.44002994  0.43815581  0.19102223  1
  Zn  Zn140  1  0.43908829  0.43702828  0.68272095  1
  Zn  Zn141  1  0.45753839  0.95926828  0.22058153  1
  Zn  Zn142  1  0.43799801  0.93062193  0.66893681  1
  Zn  Zn143  1  0.94339181  0.43972730  0.18695004  1
  Zn  Zn144  1  0.93453000  0.43715528  0.68264320  1
  Zn  Zn145  1  0.94076039  0.94686208  0.18955050  1
  Zn  Zn146  1  0.93932263  0.92952521  0.69160280  1
  Zn  Zn147  1  0.06584790  0.06144560  0.31565678  1
  Zn  Zn148  1  0.05842681  0.06693952  0.81299809  1
  Zn  Zn149  1  0.05628249  0.56118509  0.31438053  1
  Zn  Zn150  1  0.06120902  0.56874662  0.80935169  1
  Zn  Zn151  1  0.57189761  0.07157227  0.31424754  1
  Zn  Zn152  1  0.54267872  0.04296315  0.77585884  1
  Zn  Zn153  1  0.55783989  0.56518768  0.31312464  1
  Zn  Zn154  1  0.56407989  0.56358903  0.81049544  1
  Zn  Zn155  1  0.44532088  0.19504864  0.44222193  1
  Zn  Zn156  1  0.43788855  0.18634955  0.93568857  1
  Zn  Zn157  1  0.43794671  0.68439298  0.43646767  1
  Zn  Zn158  1  0.43558918  0.68643597  0.93576016  1
  Zn  Zn159  1  0.94114375  0.18922469  0.43684688  1
  Zn  Zn160  1  0.93324479  0.18862195  0.92946344  1
  Zn  Zn161  1  0.93375826  0.69146437  0.43621315  1
  Zn  Zn162  1  0.93746404  0.68578076  0.94037151  1
  Zn  Zn163  1  0.06642740  0.33056389  0.05686603  1
  Zn  Zn164  1  0.05746869  0.30841319  0.55654806  1
  Zn  Zn165  1  0.06326034  0.81337845  0.06329814  1
  Zn  Zn166  1  0.06282385  0.81479934  0.55862384  1
  Zn  Zn167  1  0.56717986  0.31621232  0.06572097  1
  Zn  Zn168  1  0.56172456  0.31249738  0.56109579  1
  Zn  Zn169  1  0.56512873  0.81698523  0.06516120  1
  Zn  Zn170  1  0.55686312  0.81259695  0.55802814  1
  O  O171  1  0.13218653  0.11946679  0.12420725  1
  O  O172  1  0.11570386  0.12486460  0.61631587  1
  O  O173  1  0.12617256  0.61983728  0.12160209  1
  O  O174  1  0.12475401  0.61080888  0.62182124  1
  O  O175  1  0.61464692  0.12659275  0.12775809  1
  O  O176  1  0.63246812  0.12381703  0.60718673  1
  O  O177  1  0.61824847  0.61711583  0.11754647  1
  O  O178  1  0.62711558  0.61533730  0.61250279  1
  O  O179  1  0.37229361  0.38047048  0.38564176  1
  O  O180  1  0.37901519  0.38002604  0.88183297  1
  O  O181  1  0.39080092  0.86567339  0.38165801  1
  O  O182  1  0.37922954  0.87933833  0.88332646  1
  O  O183  1  0.88213614  0.36906318  0.38201928  1
  O  O184  1  0.88146323  0.38014045  0.88117862  1
  O  O185  1  0.88315128  0.88221945  0.38211493  1
  O  O186  1  0.86858479  0.88423642  0.88315926  1
  O  O187  1  0.24940941  -0.00128937  0.36702060  1
  O  O188  1  0.25326151  0.00955872  0.87702419  1
  O  O189  1  0.26085877  0.49923118  0.38025669  1
  O  O190  1  0.25226506  0.50204192  0.86852640  1
  O  O191  1  0.76385707  -0.00778980  0.35651119  1
  O  O192  1  0.75953306  0.00824828  0.87931887  1
  O  O193  1  0.75275859  0.51198428  0.37185118  1
  O  O194  1  0.75330127  0.50717064  0.87093206  1
  O  O195  1  0.24200373  0.49085139  0.11846548  1
  O  O196  1  0.23985629  0.49261251  0.63108186  1
  O  O197  1  0.24111599  0.99493511  0.12831590  1
  O  O198  1  0.24114373  0.99952643  0.63992000  1
  O  O199  1  0.72330436  0.49711623  0.09870068  1
  O  O200  1  0.74084320  0.50226961  0.63356634  1
  O  O201  1  0.75327978  1.00639227  0.13996058  1
  O  O202  1  0.74935906  0.98523545  0.62453779  1
  O  O203  1  0.00773340  0.38279978  0.25969876  1
  O  O204  1  -0.00319162  0.37588246  0.76223913  1
  O  O205  1  -0.00768565  0.87278162  0.26293411  1
  O  O206  1  0.00178032  0.86207105  0.75346042  1
  O  O207  1  0.51346111  0.36800211  0.24127890  1
  O  O208  1  0.50457701  0.36744443  0.75603064  1
  O  O209  1  0.51570805  0.86351118  0.23899328  1
  O  O210  1  0.49625646  0.85783054  0.75671297  1
  O  O211  1  0.49246120  0.13492686  0.23875718  1
  O  O212  1  0.48417129  0.14186534  0.76913308  1
  O  O213  1  0.48663847  0.62984474  0.24698293  1
  O  O214  1  0.49118704  0.63209427  0.75091910  1
  O  O215  1  0.99638474  0.12459445  0.24655454  1
  O  O216  1  0.99803773  0.13239648  0.74018838  1
  O  O217  1  0.99652111  0.62479426  0.23705070  1
  O  O218  1  0.99298601  0.63467342  0.75427161  1
  O  O219  1  0.36822997  0.25647834  0.00550439  1
  O  O220  1  0.38010223  0.25713679  0.51517645  1
  O  O221  1  0.36866608  0.75405556  0.00578390  1
  O  O222  1  0.35919628  0.73988000  0.50037081  1
  O  O223  1  0.86839560  0.25711687  -0.00260561  1
  O  O224  1  0.86742823  0.25489735  0.50338579  1
  O  O225  1  0.86979061  0.76255781  -0.00464934  1
  O  O226  1  0.87296062  0.76170677  0.50681793  1
  O  O227  1  0.12680001  0.23861721  0.49317548  1
  O  O228  1  0.12906937  0.24206263  0.99978386  1
  O  O229  1  0.13115556  0.74745993  0.48902165  1
  O  O230  1  0.13306717  0.74583344  0.99337148  1
  O  O231  1  0.63165104  0.24556449  0.49780225  1
  O  O232  1  0.63568435  0.25968546  0.99123780  1
  O  O233  1  0.62148198  0.73421400  0.49784226  1
  O  O234  1  0.63234453  0.74498374  0.99564523  1
  O  O235  1  0.48915391  0.24630133  0.11829684  1
  O  O236  1  0.49135959  0.25618688  0.63831498  1
  O  O237  1  0.48603267  0.74888717  0.11843472  1
  O  O238  1  0.49625589  0.74294112  0.63368835  1
  O  O239  1  1.01184505  0.23995893  0.10747194  1
  O  O240  1  0.98819157  0.24321579  0.62399106  1
  O  O241  1  1.01007942  0.73594536  0.12920537  1
  O  O242  1  0.98300600  0.75167129  0.61724317  1
  O  O243  1  0.01126078  0.26500095  0.38025083  1
  O  O244  1  0.00805710  0.25889196  0.87440097  1
  O  O245  1  0.00263520  0.75976444  0.36992973  1
  O  O246  1  0.01715791  0.74648286  0.88359597  1
  O  O247  1  0.51692248  0.25508204  0.37801610  1
  O  O248  1  0.50781055  0.25695540  0.87268232  1
  O  O249  1  0.51789176  0.74178224  0.37772300  1
  O  O250  1  0.50532403  0.75125631  0.86906412  1
  O  O251  1  0.25104804  0.12016859  0.48706252  1
  O  O252  1  0.25714704  0.13729110  0.99530196  1
  O  O253  1  0.24244284  0.63328423  0.49480617  1
  O  O254  1  0.24568505  0.63028325  0.99569703  1
  O  O255  1  0.75079927  0.13551772  0.49761987  1
  O  O256  1  0.75687611  0.13402045  0.98872152  1
  O  O257  1  0.73429268  0.61588223  0.49077872  1
  O  O258  1  0.74728281  0.63542834  0.99468649  1
  O  O259  1  0.25208353  0.36411890  0.01048665  1
  O  O260  1  0.26256182  0.38035100  0.51166002  1
  O  O261  1  0.25774879  0.87197449  0.01060598  1
  O  O262  1  0.25109694  0.85856503  0.49854341  1
  O  O263  1  0.76373252  0.37206704  0.00722078  1
  O  O264  1  0.76173545  0.36998353  0.49672301  1
  O  O265  1  0.75522224  0.86180968  -0.00290691  1
  O  O266  1  0.76208468  0.87885716  0.50790144  1
  O  O267  1  0.12286946  0.49248969  0.24122368  1
  O  O268  1  0.13136094  0.50113316  0.74221268  1
  O  O269  1  0.13681015  1.00551556  0.24128281  1
  O  O270  1  0.13519501  1.00029824  0.75936682  1
  O  O271  1  0.61579259  0.49379916  0.23928540  1
  O  O272  1  0.62989351  0.49674371  0.74108388  1
  O  O273  1  0.64478497  0.99241655  0.24893880  1
  O  O274  1  0.63811013  0.98981775  0.75253908  1
  O  O275  1  0.35925450  0.01729705  0.23636984  1
  O  O276  1  0.36024830  0.01120752  0.76033522  1
  O  O277  1  0.37915027  0.50500841  0.26017406  1
  O  O278  1  0.36910802  0.50444480  0.75399082  1
  O  O279  1  0.86953537  0.01405443  0.25402035  1
  O  O280  1  0.87291780  0.00090092  0.76097049  1
  O  O281  1  0.84156430  0.48664530  0.17774884  1
  O  O282  1  0.86620206  0.50062922  0.75399057  1
  O  O283  1  0.11947592  0.37141171  0.37002163  1
  O  O284  1  0.11476680  0.36565061  0.88675930  1
  O  O285  1  0.10806672  0.86974861  0.37830287  1
  O  O286  1  0.13229739  0.85927489  0.87835726  1
  O  O287  1  0.63157022  0.37267393  0.36131008  1
  O  O288  1  0.62065134  0.36811826  0.86802261  1
  O  O289  1  0.62564452  0.86857856  0.36568825  1
  O  O290  1  0.61711805  0.86419625  0.87338125  1
  O  O291  1  0.38113014  0.13475784  0.13145835  1
  O  O292  1  0.36986062  0.13756204  0.64248225  1
  O  O293  1  0.37522687  0.63310897  0.13095199  1
  O  O294  1  0.37428070  0.62080917  0.63676977  1
  O  O295  1  0.87791588  0.12670286  0.14098219  1
  O  O296  1  0.88139400  0.13126291  0.62510890  1
  O  O297  1  0.89141524  0.63386364  0.11565711  1
  O  O298  1  0.86425380  0.63942072  0.61747718  1
  O  O299  1  0.26006892  0.25584926  0.12091980  1
  O  O300  1  0.25837177  0.25990497  0.63458853  1
  O  O301  1  0.25683226  0.75809529  0.12119231  1
  O  O302  1  0.24752060  0.74642808  0.61140323  1
  O  O303  1  0.75299685  0.24975416  0.11145516  1
  O  O304  1  0.76260964  0.24646607  0.61697543  1
  O  O305  1  0.75066048  0.74855656  0.11929043  1
  O  O306  1  0.75860546  0.76305222  0.62145370  1
  O  O307  1  0.23605580  0.25595825  0.37240522  1
  O  O308  1  0.24211423  0.24850461  0.88404587  1
  O  O309  1  0.23995833  0.74793839  0.38170789  1
  O  O310  1  0.24612284  0.74225328  0.88246682  1
  O  O311  1  0.73716676  0.25602550  0.38715016  1
  O  O312  1  0.74413807  0.24638040  0.88421867  1
  O  O313  1  0.73234304  0.73627045  0.37847364  1
  O  O314  1  0.74719560  0.74264898  0.87914611  1
  O  O315  1  -0.00124432  0.11663634  -0.00285696  1
  O  O316  1  0.00774318  0.12810556  0.50945731  1
  O  O317  1  0.00827154  0.62107394  0.00864458  1
  O  O318  1  -0.00443036  0.60836591  0.49249469  1
  O  O319  1  0.49233074  0.11552418  0.00787240  1
  O  O320  1  0.51209449  0.12357463  0.50272747  1
  O  O321  1  0.50449117  0.61579841  -0.00170532  1
  O  O322  1  0.51080717  0.61350079  0.50037765  1
  O  O323  1  0.48506100  0.38412320  0.50895553  1
  O  O324  1  0.49477085  0.38259694  0.99565488  1
  O  O325  1  0.49545453  0.88718273  0.50556305  1
  O  O326  1  0.49459906  0.88233407  0.99522437  1
  O  O327  1  0.98976395  0.38035707  0.49178476  1
  O  O328  1  0.98968125  0.38348595  0.99153712  1
  O  O329  1  0.98875026  0.87544447  0.48772968  1
  O  O330  1  0.99129199  0.88269677  1.00356327  1
  O  O331  1  0.49102106  0.50013640  0.38624245  1
  O  O332  1  0.49470785  0.49485155  0.87825146  1
  O  O333  1  0.49258764  0.99768872  0.32607592  1
  O  O334  1  0.49165456  0.99517855  0.87971781  1
  O  O335  1  1.00354925  0.48734771  0.38857652  1
  O  O336  1  0.99660948  0.49476259  0.88049898  1
  O  O337  1  0.99155418  0.98821871  0.36787401  1
  O  O338  1  0.99159158  1.00445920  0.88526295  1
  O  O339  1  0.01366337  -0.00082730  0.11779731  1
  O  O340  1  -0.00142709  0.01233947  0.63017380  1
  O  O341  1  0.01069731  0.51304635  0.12083390  1
  O  O342  1  0.00674054  0.49107254  0.61134073  1
  O  O343  1  0.50470985  0.01125919  0.11814284  1
  O  O344  1  0.50754533  0.01215683  0.66677291  1
  O  O345  1  0.50493603  0.49968942  0.11364701  1
  O  O346  1  0.50897380  0.50328765  0.61704767  1
  O  O347  1  0.24436524  0.37332712  0.23816158  1
  O  O348  1  0.25357557  0.38729709  0.74243603  1
  O  O349  1  0.25702357  0.88491849  0.23955815  1
  O  O350  1  0.24665503  0.88479354  0.75212500  1
  O  O351  1  0.74608658  0.36850420  0.23928678  1
  O  O352  1  0.74257678  0.38913547  0.75780119  1
  O  O353  1  0.75303524  0.87011211  0.24270338  1
  O  O354  1  0.75175868  0.87367231  0.73222013  1
  O  O355  1  0.25977253  0.11840989  0.25195175  1
  O  O356  1  0.25307787  0.12160701  0.76047136  1
  O  O357  1  0.26350387  0.62571519  0.25133651  1
  O  O358  1  0.25581275  0.61355645  0.75367652  1
  O  O359  1  0.75084725  0.11956469  0.25354875  1
  O  O360  1  0.75249104  0.12630175  0.76516291  1
  O  O361  1  0.74657792  0.62257465  0.26019492  1
  O  O362  1  0.75108500  0.61427263  0.75778334  1
  O  O363  1  0.37480066  0.13097360  0.37005327  1
  O  O364  1  0.36094353  0.12583143  0.86938486  1
  O  O365  1  0.37231334  0.61398230  0.36782523  1
  O  O366  1  0.36825271  0.61766243  0.86524543  1
  O  O367  1  0.88577403  0.11725616  0.36305965  1
  O  O368  1  0.86747137  0.11522876  0.87209080  1
  O  O369  1  0.85795065  0.63285864  0.37551846  1
  O  O370  1  0.86374029  0.61904287  0.87831700  1
  O  O371  1  0.13176560  0.38420479  0.13331850  1
  O  O372  1  0.13426099  0.37850487  0.61692821  1
  O  O373  1  0.13602811  0.88437379  0.12097566  1
  O  O374  1  0.12675470  0.87927435  0.62711766  1
  O  O375  1  0.63377272  0.38259678  0.13508209  1
  O  O376  1  0.62099147  0.38609057  0.63095503  1
  O  O377  1  0.63173107  0.87791454  0.13551240  1
  O  O378  1  0.63716503  0.87273268  0.62123580  1
  O  O379  1  0.12582787  0.26539550  0.25570319  1
  O  O380  1  0.12574098  0.25141646  0.76298624  1
  O  O381  1  0.12373117  0.75057467  0.26292830  1
  O  O382  1  0.12996320  0.74732905  0.76695049  1
  O  O383  1  0.62509711  0.25737971  0.25970967  1
  O  O384  1  0.61804339  0.25278042  0.75451625  1
  O  O385  1  0.62389213  0.75796447  0.25690820  1
  O  O386  1  0.61710500  0.74704941  0.75397291  1
  O  O387  1  0.37532007  0.24326350  0.24234406  1
  O  O388  1  0.38029504  0.24768287  0.74589061  1
  O  O389  1  0.37419432  0.74332194  0.24173626  1
  O  O390  1  0.37953990  0.73842522  0.75010849  1
  O  O391  1  0.87656919  0.23433310  0.25002299  1
  O  O392  1  0.87585034  0.25108240  0.74038995  1
  O  O393  1  0.86644818  0.76264372  0.24002574  1
  O  O394  1  0.87202204  0.74472922  0.73059111  1
  O  O395  1  0.38088031  0.49474921  0.49462540  1
  O  O396  1  0.38275428  0.49620502  0.99437769  1
  O  O397  1  0.36175420  1.01294445  0.48858379  1
  O  O398  1  0.38251497  0.99518892  0.99635030  1
  O  O399  1  0.88570153  0.49005782  0.50625811  1
  O  O400  1  0.88019344  0.49280599  0.99483521  1
  O  O401  1  0.87064177  0.99594033  0.48623561  1
  O  O402  1  0.88303069  0.99021246  0.99604355  1
  O  O403  1  0.11441162  0.00043374  0.00642579  1
  O  O404  1  0.13121125  0.01671212  0.49720878  1
  O  O405  1  0.12002809  0.50451972  0.01169618  1
  O  O406  1  0.11134878  0.50014207  0.50723037  1
  O  O407  1  0.61331879  -0.00524698  -0.00069377  1
  O  O408  1  0.62897667  0.01293172  0.49754983  1
  O  O409  1  0.61070659  0.50219869  -0.00121992  1
  O  O410  1  0.61846467  0.50106497  0.50374899  1
  O  O411  1  0.36908298  0.37059055  0.12159458  1
  O  O412  1  0.36528695  0.36965450  0.62171278  1
  O  O413  1  0.36806700  0.86719787  0.11968742  1
  O  O414  1  0.36375000  0.86993457  0.61617727  1
  O  O415  1  0.87921720  0.35927197  0.11570626  1
  O  O416  1  0.87897345  0.36410151  0.61302375  1
  O  O417  1  0.87251304  0.87685675  0.11983398  1
  O  O418  1  0.86928430  0.86970669  0.61601664  1
  O  O419  1  0.11775465  0.13739690  0.38164184  1
  O  O420  1  0.13534790  0.13488975  0.87589075  1
  O  O421  1  0.12258496  0.63245929  0.37542594  1
  O  O422  1  0.13249378  0.63015183  0.88443802  1
  O  O423  1  0.62626555  0.13582317  0.38960645  1
  O  O424  1  0.63146498  0.13851815  0.87468499  1
  O  O425  1  0.62993725  0.62556116  0.38333030  1
  O  O426  1  0.63597001  0.62774941  0.88046661  1
