# generated using pymatgen
data_V85Zn86O256
_symmetry_space_group_name_H-M   'P 1'
_cell_length_a   16.95471848
_cell_length_b   16.93630170
_cell_length_c   16.94955182
_cell_angle_alpha   90.03108000
_cell_angle_beta   89.93076696
_cell_angle_gamma   89.97042534
_symmetry_Int_Tables_number   1
_chemical_formula_structural   V85Zn86O256
_chemical_formula_sum   'V85 Zn86 O256'
_cell_volume   4867.06274040
_cell_formula_units_Z   1
loop_
 _symmetry_equiv_pos_site_id
 _symmetry_equiv_pos_as_xyz
  1  'x, y, z'
loop_
 _atom_site_type_symbol
 _atom_site_label
 _atom_site_symmetry_multiplicity
 _atom_site_fract_x
 _atom_site_fract_y
 _atom_site_fract_z
 _atom_site_occupancy
  V  V0  1  0.75244518  0.01709448  0.75331874  1
  V  V1  1  0.12355793  -0.00018965  0.62800221  1
  V  V2  1  0.26345701  0.00204411  0.75260605  1
  V  V3  1  0.62787520  0.37963311  0.24437451  1
  V  V4  1  0.12715237  -0.00840273  0.12174054  1
  V  V5  1  0.87863423  0.24318033  0.12701632  1
  V  V6  1  0.49396976  0.12466676  0.62595119  1
  V  V7  1  0.25178099  0.87430109  0.62878829  1
  V  V8  1  0.86656054  0.87227425  0.01058359  1
  V  V9  1  0.25050446  0.75390715  0.00902352  1
  V  V10  1  -0.00613630  0.12848744  0.63827060  1
  V  V11  1  0.87710722  0.37051068  0.00077007  1
  V  V12  1  0.12429590  0.62561342  -0.00164131  1
  V  V13  1  0.25077572  0.62609549  0.87215852  1
  V  V14  1  0.37559403  0.62572782  0.74957634  1
  V  V15  1  0.74957229  0.38262576  0.12241876  1
  V  V16  1  0.12629840  0.87616831  0.75271346  1
  V  V17  1  0.50649883  0.50093388  0.50634513  1
  V  V18  1  -0.01212785  0.62703020  0.12423050  1
  V  V19  1  -0.00576388  -0.01421367  0.49568276  1
  V  V20  1  -0.00177526  0.49846357  -0.00591847  1
  V  V21  1  0.49378241  0.24686689  0.75087497  1
  V  V22  1  0.37859575  0.61792909  0.24788333  1
  V  V23  1  0.62743455  0.76199350  0.87976525  1
  V  V24  1  0.74178623  0.50262992  0.74978837  1
  V  V25  1  0.37423559  0.37861104  -0.00432965  1
  V  V26  1  0.12448886  0.75095845  0.87421647  1
  V  V27  1  -0.05936589  0.54607013  0.43832931  1
  V  V28  1  0.49572084  0.88195671  0.87923318  1
  V  V29  1  0.25258978  0.24997197  0.49940100  1
  V  V30  1  0.62581998  0.23890985  0.88032541  1
  V  V31  1  0.25027341  0.11887566  0.37274212  1
  V  V32  1  0.37707661  0.87438709  0.49907295  1
  V  V33  1  0.61940601  0.37745859  0.74644222  1
  V  V34  1  0.37811685  0.74940852  0.62610872  1
  V  V35  1  0.50246389  0.74986027  0.24613397  1
  V  V36  1  -0.00353297  -0.00081859  0.00378001  1
  V  V37  1  -0.04757743  0.31806918  0.81736777  1
  V  V38  1  0.74671429  -0.00290502  0.25144502  1
  V  V39  1  0.50037917  -0.00123572  0.50138371  1
  V  V40  1  0.50566517  0.37702057  0.37777546  1
  V  V41  1  0.12580589  0.75690377  0.37285509  1
  V  V42  1  -0.00123581  0.75010722  0.74937986  1
  V  V43  1  0.74898020  0.37644211  0.62359980  1
  V  V44  1  0.11865959  0.12381682  0.50088502  1
  V  V45  1  0.74782539  0.87165378  0.63956996  1
  V  V46  1  0.12025683  0.12506491  0.00265641  1
  V  V47  1  0.63645645  0.62649213  0.49977029  1
  V  V48  1  0.62572413  -0.00492542  0.63165974  1
  V  V49  1  0.62873072  0.00983551  0.11667410  1
  V  V50  1  0.62888442  0.12688566  0.50166465  1
  V  V51  1  0.87863447  0.50258146  0.87105639  1
  V  V52  1  0.62586903  0.74699853  0.37768775  1
  V  V53  1  0.12290094  0.37116777  0.24794783  1
  V  V54  1  0.50791889  0.62161115  0.62829692  1
  V  V55  1  0.62483334  0.62156957  0.00694107  1
  V  V56  1  -0.00469785  0.75707883  0.24545651  1
  V  V57  1  0.50265152  0.49786794  0.00852037  1
  V  V58  1  0.49388001  0.01640302  0.00568213  1
  V  V59  1  0.37821874  -0.00020742  0.36590428  1
  V  V60  1  0.75228708  0.75370794  0.01979413  1
  V  V61  1  0.87093086  0.00859927  0.87344571  1
  V  V62  1  0.24642237  0.37670853  0.12044437  1
  V  V63  1  0.25749078  0.12136912  0.87011396  1
  V  V64  1  0.25209820  -0.01062234  0.24406131  1
  V  V65  1  0.24586321  0.48890745  0.74273026  1
  V  V66  1  0.63263858  0.25245632  0.37407463  1
  V  V67  1  0.12456483  0.25850979  0.86188955  1
  V  V68  1  0.25089387  0.74777251  0.50031797  1
  V  V69  1  0.12033692  0.48796584  0.62044826  1
  V  V70  1  0.36963888  0.24856169  0.62304537  1
  V  V71  1  -0.00220165  0.37010188  0.37524943  1
  V  V72  1  0.80384599  0.81318518  0.45053146  1
  V  V73  1  0.12077512  0.50124277  0.12346724  1
  V  V74  1  0.88281936  0.12073665  0.25266022  1
  V  V75  1  0.87129542  0.75478653  0.62869224  1
  V  V76  1  0.12793481  0.24768442  0.37086439  1
  V  V77  1  0.50598566  0.75536727  0.75465279  1
  V  V78  1  0.75618198  0.50337469  0.26836172  1
  V  V79  1  0.37297934  0.37401049  0.50291106  1
  V  V80  1  0.37410637  0.87891696  0.00783685  1
  V  V81  1  0.24763170  0.25019215  -0.00187417  1
  V  V82  1  0.25169590  0.62251739  0.37459320  1
  V  V83  1  0.74789851  0.62894266  0.87721688  1
  V  V84  1  0.88169953  0.36876063  0.50012705  1
  Zn  Zn85  1  0.25160472  0.49791118  0.25067108  1
  Zn  Zn86  1  0.38750808  0.23492124  0.12927973  1
  Zn  Zn87  1  0.50381961  0.61631891  0.12925093  1
  Zn  Zn88  1  0.12671698  0.87208355  0.24511288  1
  Zn  Zn89  1  -0.00616681  0.87566140  0.87529753  1
  Zn  Zn90  1  0.74658285  0.23739462  0.00239777  1
  Zn  Zn91  1  0.87544529  0.61956512  0.25675731  1
  Zn  Zn92  1  0.87582847  -0.00889495  0.37763384  1
  Zn  Zn93  1  0.50236381  0.37763750  0.87461955  1
  Zn  Zn94  1  0.87849865  0.24886086  0.63812836  1
  Zn  Zn95  1  0.37466021  0.75036288  0.12770541  1
  Zn  Zn96  1  0.62729560  0.87319474  0.24353106  1
  Zn  Zn97  1  0.50325061  0.87339349  0.37300798  1
  Zn  Zn98  1  0.37731102  0.50090460  0.87232969  1
  Zn  Zn99  1  0.00874822  0.23633954  0.24062046  1
  Zn  Zn100  1  0.12575992  0.62004816  0.50022782  1
  Zn  Zn101  1  0.75432311  0.24809934  0.50554208  1
  Zn  Zn102  1  0.87321535  0.62770704  0.74979964  1
  Zn  Zn103  1  0.75498478  0.12317472  0.37734704  1
  Zn  Zn104  1  0.37629557  0.49786327  0.37590706  1
  Zn  Zn105  1  0.50367942  0.22894535  0.23630650  1
  Zn  Zn106  1  0.00083277  0.62326677  0.62315196  1
  Zn  Zn107  1  0.21469103  0.17166193  0.17434570  1
  Zn  Zn108  1  0.18600510  0.18591001  0.68735187  1
  Zn  Zn109  1  0.18550412  0.68426030  0.18891441  1
  Zn  Zn110  1  0.18455220  0.68255107  0.68427195  1
  Zn  Zn111  1  0.69314980  0.18561557  0.18603170  1
  Zn  Zn112  1  0.68258614  0.19134321  0.68608135  1
  Zn  Zn113  1  0.68695592  0.67840536  0.19183882  1
  Zn  Zn114  1  0.68545392  0.68964398  0.69022961  1
  Zn  Zn115  1  0.31640723  0.30848703  0.31104883  1
  Zn  Zn116  1  0.31233974  0.31004973  0.81163707  1
  Zn  Zn117  1  0.31608532  0.80974061  0.31173613  1
  Zn  Zn118  1  0.31668385  0.81309835  0.81788368  1
  Zn  Zn119  1  0.81509465  0.31153983  0.31042504  1
  Zn  Zn120  1  0.79077309  0.31121460  0.81422270  1
  Zn  Zn121  1  0.81138107  0.80980045  0.28624303  1
  Zn  Zn122  1  0.81063789  0.82099868  0.81863592  1
  Zn  Zn123  1  0.18745391  0.43589896  0.43910809  1
  Zn  Zn124  1  0.18596653  0.43944133  0.93078774  1
  Zn  Zn125  1  0.18753166  0.93656589  0.43999052  1
  Zn  Zn126  1  0.18924143  0.93758946  0.93696490  1
  Zn  Zn127  1  0.68909971  0.43988969  0.44262324  1
  Zn  Zn128  1  0.68661831  0.43467399  0.93558979  1
  Zn  Zn129  1  0.68121059  0.94209858  0.43318870  1
  Zn  Zn130  1  0.68548332  1.06507330  0.93625239  1
  Zn  Zn131  1  0.31386073  0.06362434  0.06304159  1
  Zn  Zn132  1  0.31055159  0.06159285  0.55995196  1
  Zn  Zn133  1  0.31370276  0.56200020  0.06230856  1
  Zn  Zn134  1  0.31464654  0.56006965  0.56410198  1
  Zn  Zn135  1  0.81403299  0.06102654  0.06837657  1
  Zn  Zn136  1  0.81571839  0.05973378  0.56609632  1
  Zn  Zn137  1  0.80919508  0.55998957  0.06003445  1
  Zn  Zn138  1  0.81134236  0.56368715  0.57262847  1
  Zn  Zn139  1  0.42780202  0.40986072  0.19701652  1
  Zn  Zn140  1  0.43365563  0.43721506  0.68590206  1
  Zn  Zn141  1  0.44372266  0.93653263  0.18352905  1
  Zn  Zn142  1  0.44079334  0.93434071  0.68909173  1
  Zn  Zn143  1  0.93653923  0.43587147  0.18742050  1
  Zn  Zn144  1  0.93451084  0.44246895  0.68180140  1
  Zn  Zn145  1  0.93791781  0.94127120  0.18506488  1
  Zn  Zn146  1  0.93501592  0.93828002  0.68646100  1
  Zn  Zn147  1  0.06372896  0.05490498  0.31348001  1
  Zn  Zn148  1  0.06556780  0.06160868  0.81929490  1
  Zn  Zn149  1  0.07014065  0.56812061  0.30599137  1
  Zn  Zn150  1  0.06349195  0.56159612  0.80590196  1
  Zn  Zn151  1  0.56376584  0.06581648  0.31067608  1
  Zn  Zn152  1  0.55267431  0.05892067  0.80828059  1
  Zn  Zn153  1  0.56832709  0.55998734  0.31458774  1
  Zn  Zn154  1  0.56188967  0.56454802  0.82181121  1
  Zn  Zn155  1  0.45239464  0.17490274  0.40995011  1
  Zn  Zn156  1  0.43289501  0.19501484  0.93500897  1
  Zn  Zn157  1  0.44158987  0.68495609  0.43531289  1
  Zn  Zn158  1  0.43741638  0.68754114  0.94056696  1
  Zn  Zn159  1  0.93927971  0.18616433  0.43620872  1
  Zn  Zn160  1  0.93496196  0.18141840  0.94437992  1
  Zn  Zn161  1  0.94531742  0.70794502  0.43564358  1
  Zn  Zn162  1  0.93535660  0.68984612  0.93714546  1
  Zn  Zn163  1  0.05934432  0.31090779  0.05722165  1
  Zn  Zn164  1  0.06221048  0.30980585  0.56349791  1
  Zn  Zn165  1  0.05791124  0.81363086  0.06093266  1
  Zn  Zn166  1  0.06643925  0.80857265  0.56559864  1
  Zn  Zn167  1  0.56021870  0.31109032  0.06420762  1
  Zn  Zn168  1  0.56290245  0.31114851  0.56371139  1
  Zn  Zn169  1  0.56636866  0.81980108  0.06475087  1
  Zn  Zn170  1  0.56616461  0.81100141  0.56310809  1
  O  O171  1  0.13308227  0.11449983  0.10841675  1
  O  O172  1  0.11814389  0.11938373  0.61817961  1
  O  O173  1  0.11906601  0.61379273  0.11962669  1
  O  O174  1  0.12015844  0.61756969  0.61845963  1
  O  O175  1  0.61869934  0.10798762  0.14420618  1
  O  O176  1  0.61435281  0.12075973  0.61925863  1
  O  O177  1  0.62439562  0.62390577  0.11120625  1
  O  O178  1  0.61266351  0.63234916  0.62002380  1
  O  O179  1  0.38795544  0.37522489  0.38725628  1
  O  O180  1  0.37300134  0.37598779  0.88536397  1
  O  O181  1  0.37652659  0.88099680  0.38414222  1
  O  O182  1  0.38801418  0.86920292  0.88866976  1
  O  O183  1  0.89001618  0.37041100  0.38004978  1
  O  O184  1  0.87888805  0.37520092  0.87596025  1
  O  O185  1  0.86277165  0.86520965  0.38558136  1
  O  O186  1  0.87440711  0.88822321  0.88579574  1
  O  O187  1  0.25639837  0.00104088  0.37131927  1
  O  O188  1  0.24627782  0.01330408  0.86849890  1
  O  O189  1  0.25084656  0.51147070  0.37498879  1
  O  O190  1  0.24802200  0.51180107  0.86308406  1
  O  O191  1  0.75385590  0.00169667  0.36693146  1
  O  O192  1  0.75123598  0.00419526  0.85982620  1
  O  O193  1  0.75607534  0.49535053  0.36697851  1
  O  O194  1  0.75911243  0.50388078  0.86919294  1
  O  O195  1  0.23831865  0.49179684  0.12131170  1
  O  O196  1  0.24253999  0.50424380  0.63661400  1
  O  O197  1  0.24231945  0.99896712  0.13389717  1
  O  O198  1  0.24379080  0.99558305  0.63220680  1
  O  O199  1  0.75349538  0.48545174  0.12682026  1
  O  O200  1  0.75304070  0.48765072  0.63699409  1
  O  O201  1  0.73578670  1.00307059  0.13425294  1
  O  O202  1  0.74514966  0.99417997  0.63409112  1
  O  O203  1  0.01098401  0.37445439  0.25538191  1
  O  O204  1  0.00075130  0.37823441  0.75637721  1
  O  O205  1  0.00155733  0.86050347  0.24182214  1
  O  O206  1  0.00622062  0.86633842  0.74968421  1
  O  O207  1  0.52004812  0.39027116  0.26428139  1
  O  O208  1  0.50489575  0.36935852  0.74897344  1
  O  O209  1  0.50135341  0.86365474  0.25329054  1
  O  O210  1  0.49559937  0.86654706  0.76255880  1
  O  O211  1  0.48336787  0.14054630  0.30154500  1
  O  O212  1  0.49938518  0.13346365  0.73807550  1
  O  O213  1  0.49513763  0.62627772  0.24970043  1
  O  O214  1  0.49615267  0.62995695  0.74572433  1
  O  O215  1  0.98873069  0.11932237  0.25429841  1
  O  O216  1  1.00584042  0.11630899  0.73592923  1
  O  O217  1  0.99882354  0.63000556  0.23953631  1
  O  O218  1  0.99767008  0.63993595  0.75008585  1
  O  O219  1  0.35916204  0.25866791  0.00031000  1
  O  O220  1  0.37208186  0.25494516  0.50525755  1
  O  O221  1  0.36652519  0.75472134  0.00415880  1
  O  O222  1  0.37409060  0.75868563  0.50285433  1
  O  O223  1  0.87234854  0.25574382  0.00568013  1
  O  O224  1  0.87413844  0.25953370  0.50188336  1
  O  O225  1  0.86677339  0.76179180  -0.00391546  1
  O  O226  1  0.86829576  0.75215034  0.50667730  1
  O  O227  1  0.13171735  0.24212041  0.49315945  1
  O  O228  1  0.12972991  0.24381073  0.99161081  1
  O  O229  1  0.13184254  0.74556532  0.49234418  1
  O  O230  1  0.13090112  0.74586238  0.99392443  1
  O  O231  1  0.63071358  0.24303213  0.49752793  1
  O  O232  1  0.62330581  0.25815976  0.98166325  1
  O  O233  1  0.61975633  0.73939788  0.49173110  1
  O  O234  1  0.63343122  0.74659143  0.99786013  1
  O  O235  1  0.49929336  0.24315895  0.12467891  1
  O  O236  1  0.49202462  0.24228556  0.62943720  1
  O  O237  1  0.50356721  0.74550342  0.13732102  1
  O  O238  1  0.49679541  0.74667825  0.63574931  1
  O  O239  1  0.98511050  0.25628940  0.12575044  1
  O  O240  1  1.00080450  0.23363750  0.62468432  1
  O  O241  1  1.00907286  0.73952118  0.13568565  1
  O  O242  1  0.99177349  0.74918544  0.63163514  1
  O  O243  1  0.01043827  0.25589079  0.37042345  1
  O  O244  1  0.00715778  0.24968910  0.87526705  1
  O  O245  1  0.01269166  0.74773585  0.35767937  1
  O  O246  1  0.00574653  0.75253727  0.86700396  1
  O  O247  1  0.51795953  0.26978172  0.38867250  1
  O  O248  1  0.50503601  0.25350637  0.86608537  1
  O  O249  1  0.50865595  0.74828622  0.36406970  1
  O  O250  1  0.50490237  0.75454983  0.87156879  1
  O  O251  1  0.23598167  0.12667162  0.49469193  1
  O  O252  1  0.24265344  0.13307176  0.98624622  1
  O  O253  1  0.25624536  0.63178700  0.49154602  1
  O  O254  1  0.24464781  0.62971579  0.99123264  1
  O  O255  1  0.73994069  0.12466658  0.50527266  1
  O  O256  1  0.74650799  0.12451037  1.00697443  1
  O  O257  1  0.73520864  0.61767804  0.50853745  1
  O  O258  1  0.74476038  0.63291147  0.99602285  1
  O  O259  1  0.25142326  0.37158485  0.00075273  1
  O  O260  1  0.26201194  0.36429780  0.49155206  1
  O  O261  1  0.26000569  0.86459591  -0.00921933  1
  O  O262  1  0.25796275  0.86857519  0.50748282  1
  O  O263  1  0.75990472  0.37177609  0.00413985  1
  O  O264  1  0.75918825  0.37585408  0.50916215  1
  O  O265  1  0.76271229  0.86513257  0.00129985  1
  O  O266  1  0.74824129  0.87689640  0.50860526  1
  O  O267  1  0.12775926  0.49296956  0.23887619  1
  O  O268  1  0.13821882  0.50448028  0.73892257  1
  O  O269  1  0.13089686  0.99411732  0.24025721  1
  O  O270  1  0.13134992  0.99176824  0.74691884  1
  O  O271  1  0.64340127  0.49302648  0.25440556  1
  O  O272  1  0.63344098  0.49374254  0.75846800  1
  O  O273  1  0.63378890  0.99797822  0.25334278  1
  O  O274  1  0.63441901  1.00707072  0.73903918  1
  O  O275  1  0.37090072  -0.00653211  0.26040341  1
  O  O276  1  0.36283604  -0.00268942  0.74494569  1
  O  O277  1  0.37270860  0.50269457  0.25316462  1
  O  O278  1  0.36346886  0.50738325  0.74869450  1
  O  O279  1  0.86892065  0.00304457  0.25345907  1
  O  O280  1  0.86097025  -0.00386075  0.75683085  1
  O  O281  1  0.86185262  0.49838249  0.24756488  1
  O  O282  1  0.86401633  0.50170543  0.75613709  1
  O  O283  1  0.11885343  0.37099080  0.36673320  1
  O  O284  1  0.12494070  0.35787516  0.87843246  1
  O  O285  1  0.13337065  0.86025748  0.37335384  1
  O  O286  1  0.12363942  0.86862935  0.86782186  1
  O  O287  1  0.62534613  0.37125013  0.37147602  1
  O  O288  1  0.62554757  0.36499852  0.86067770  1
  O  O289  1  0.62323970  0.86041454  0.37513961  1
  O  O290  1  0.61042813  0.86228057  0.88245063  1
  O  O291  1  0.32219034  0.14625495  0.13557923  1
  O  O292  1  0.38754160  0.13015112  0.61354528  1
  O  O293  1  0.37618603  0.62539234  0.13769211  1
  O  O294  1  0.38586084  0.63162703  0.62925595  1
  O  O295  1  0.87418646  0.13258673  0.13669361  1
  O  O296  1  0.88945639  0.12805815  0.62443224  1
  O  O297  1  0.88633354  0.62005611  0.12204089  1
  O  O298  1  0.87774113  0.63883596  0.62874417  1
  O  O299  1  0.22964835  0.27044587  0.11037066  1
  O  O300  1  0.26362227  0.24026792  0.62117748  1
  O  O301  1  0.24812425  0.74349264  0.11164058  1
  O  O302  1  0.25806661  0.75366167  0.62100910  1
  O  O303  1  0.76135156  0.26056007  0.12598036  1
  O  O304  1  0.75621790  0.26276070  0.62960279  1
  O  O305  1  0.74752509  0.74657102  0.11916125  1
  O  O306  1  0.75601468  0.75897111  0.63243954  1
  O  O307  1  0.24877872  0.23911918  0.37599148  1
  O  O308  1  0.23971365  0.24395300  0.87740997  1
  O  O309  1  0.24752616  0.73975762  0.37852876  1
  O  O310  1  0.24533662  0.73991717  0.88001262  1
  O  O311  1  0.74192301  0.25145751  0.37962345  1
  O  O312  1  0.73101970  0.24189434  0.87599433  1
  O  O313  1  0.74887507  0.75818042  0.38171390  1
  O  O314  1  0.74165609  0.74759552  0.87920711  1
  O  O315  1  0.00939602  0.11422242  -0.00191266  1
  O  O316  1  0.00999936  0.11843984  0.50491846  1
  O  O317  1  0.00545600  0.62118275  0.00488938  1
  O  O318  1  -0.00337509  0.61552983  0.49448268  1
  O  O319  1  0.48650037  0.11436937  -0.00519495  1
  O  O320  1  0.51212606  0.11897245  0.50341558  1
  O  O321  1  0.50721787  0.61753993  0.00282000  1
  O  O322  1  0.50479944  0.61840877  0.50903750  1
  O  O323  1  0.49849336  0.38422902  0.49904051  1
  O  O324  1  0.49017738  0.37991722  0.99732321  1
  O  O325  1  0.49234469  0.88000642  0.50151638  1
  O  O326  1  0.49205043  0.88283906  0.99590211  1
  O  O327  1  0.99372484  0.37216618  0.49075264  1
  O  O328  1  0.98557466  0.38216675  1.00049706  1
  O  O329  1  1.00529352  0.88764896  0.50761621  1
  O  O330  1  0.98884776  0.87996060  0.99685415  1
  O  O331  1  0.50162426  0.49212024  0.38670429  1
  O  O332  1  0.49562282  0.49670365  0.88577473  1
  O  O333  1  0.49254898  0.99452915  0.38435654  1
  O  O334  1  0.50501126  0.99205839  0.88859645  1
  O  O335  1  1.00540522  0.49418740  0.37586536  1
  O  O336  1  0.98700416  0.50729797  0.87588470  1
  O  O337  1  0.99973296  0.99600392  0.39079343  1
  O  O338  1  0.99335288  0.99737289  0.88545159  1
  O  O339  1  0.00823546  -0.00216897  0.11134325  1
  O  O340  1  0.00426180  0.00755155  0.61766750  1
  O  O341  1  0.00451305  0.50573026  0.11739527  1
  O  O342  1  0.01560409  0.50429957  0.63173747  1
  O  O343  1  0.50269768  0.00606854  0.11217629  1
  O  O344  1  0.50705012  0.00492516  0.62281628  1
  O  O345  1  0.49346600  0.49497711  0.11086060  1
  O  O346  1  0.49680527  0.51052616  0.62036345  1
  O  O347  1  0.23756067  0.37614874  0.24003573  1
  O  O348  1  0.25351173  0.39090894  0.75359768  1
  O  O349  1  0.24979289  0.88497057  0.25414017  1
  O  O350  1  0.24757783  0.88029267  0.74891528  1
  O  O351  1  0.74639008  0.38264283  0.24470536  1
  O  O352  1  0.74064092  0.38383359  0.74409992  1
  O  O353  1  0.74800456  0.89084275  0.24651120  1
  O  O354  1  0.74732534  0.88475234  0.74206494  1
  O  O355  1  0.24030947  0.10728415  0.26861748  1
  O  O356  1  0.24313005  0.11639646  0.76147780  1
  O  O357  1  0.25817795  0.62264515  0.25733343  1
  O  O358  1  0.25626052  0.62333933  0.75647183  1
  O  O359  1  0.76156180  0.11365109  0.25238637  1
  O  O360  1  0.75135058  0.11545131  0.74020759  1
  O  O361  1  0.75573142  0.60857905  0.25052772  1
  O  O362  1  0.74822652  0.61758307  0.75694385  1
  O  O363  1  0.35900454  0.10673376  0.39573720  1
  O  O364  1  0.35570916  0.13469490  0.87344574  1
  O  O365  1  0.37052266  0.62242295  0.36466190  1
  O  O366  1  0.36626424  0.62531287  0.86911908  1
  O  O367  1  0.87294757  0.12221163  0.36816395  1
  O  O368  1  0.87703812  0.10906475  0.87930985  1
  O  O369  1  0.88798804  0.61299720  0.38314843  1
  O  O370  1  0.86645861  0.61810191  0.87373340  1
  O  O371  1  0.12219776  0.38547008  0.12788909  1
  O  O372  1  0.12342759  0.38789737  0.62163056  1
  O  O373  1  0.12494977  0.88720669  0.12033787  1
  O  O374  1  0.13380876  0.87806712  0.63319618  1
  O  O375  1  0.63476988  0.36930483  0.13546727  1
  O  O376  1  0.63214534  0.36988516  0.63749752  1
  O  O377  1  0.61484008  0.90037215  0.12948185  1
  O  O378  1  0.63192722  0.88529026  0.62248690  1
  O  O379  1  0.12664808  0.25597112  0.25276034  1
  O  O380  1  0.12614271  0.24841578  0.76268132  1
  O  O381  1  0.11897592  0.75127633  0.25486150  1
  O  O382  1  0.11909274  0.75631958  0.75288468  1
  O  O383  1  0.62589458  0.25865315  0.25972779  1
  O  O384  1  0.61310458  0.25556631  0.75614596  1
  O  O385  1  0.62127537  0.74828649  0.25769166  1
  O  O386  1  0.61236431  0.74531530  0.76191505  1
  O  O387  1  0.39609292  0.29426865  0.23509419  1
  O  O388  1  0.38554929  0.25643430  0.74031474  1
  O  O389  1  0.38445540  0.73966123  0.24898140  1
  O  O390  1  0.38537783  0.74439897  0.74788190  1
  O  O391  1  0.87885731  0.24010366  0.24396024  1
  O  O392  1  0.88510216  0.26446800  0.76096051  1
  O  O393  1  0.89060291  0.73895177  0.25227937  1
  O  O394  1  0.88190124  0.75318018  0.74626096  1
  O  O395  1  0.38507148  0.49167170  0.50052939  1
  O  O396  1  0.37991343  0.49484425  0.99487608  1
  O  O397  1  0.37752616  0.98713246  0.49682993  1
  O  O398  1  0.38315018  0.99406002  1.00478677  1
  O  O399  1  0.87874010  0.49274113  0.50265048  1
  O  O400  1  0.87630187  0.49136055  0.98881671  1
  O  O401  1  0.89010659  1.00038919  0.49989861  1
  O  O402  1  0.87952243  0.99189181  0.99709292  1
  O  O403  1  0.11869121  0.00442517  0.00217317  1
  O  O404  1  0.11846035  0.00557801  0.50679709  1
  O  O405  1  0.11791380  0.50456159  0.00269287  1
  O  O406  1  0.13383355  0.50161337  0.51577398  1
  O  O407  1  0.61116677  0.00910643  0.00970832  1
  O  O408  1  0.62115014  0.00733230  0.51036990  1
  O  O409  1  0.61719004  0.50834767  -0.00763261  1
  O  O410  1  0.61380256  0.50786531  0.49889517  1
  O  O411  1  0.35844636  0.38111017  0.10738822  1
  O  O412  1  0.38070485  0.36412286  0.61167743  1
  O  O413  1  0.37865707  0.86992731  0.11267662  1
  O  O414  1  0.37146226  0.86917256  0.61890961  1
  O  O415  1  0.86933685  0.36947337  0.11654507  1
  O  O416  1  0.87082583  0.37133536  0.61708845  1
  O  O417  1  0.87695823  0.87857429  0.10999833  1
  O  O418  1  0.86533782  0.86402016  0.62789017  1
  O  O419  1  0.12964923  0.12589215  0.38310638  1
  O  O420  1  0.13071839  0.13421944  0.88393042  1
  O  O421  1  0.13535320  0.63346382  0.37724559  1
  O  O422  1  0.13135373  0.63019855  0.87800926  1
  O  O423  1  0.63232779  0.13482675  0.38567247  1
  O  O424  1  0.61571086  0.13541522  0.87100481  1
  O  O425  1  0.62430449  0.63642689  0.38433004  1
  O  O426  1  0.62909298  0.63643471  0.88746648  1
