# generated using pymatgen
data_V85Zn86O256
_symmetry_space_group_name_H-M   'P 1'
_cell_length_a   16.99568239
_cell_length_b   16.99104547
_cell_length_c   16.97976688
_cell_angle_alpha   89.90513117
_cell_angle_beta   89.98206750
_cell_angle_gamma   90.01666028
_symmetry_Int_Tables_number   1
_chemical_formula_structural   V85Zn86O256
_chemical_formula_sum   'V85 Zn86 O256'
_cell_volume   4903.31503111
_cell_formula_units_Z   1
loop_
 _symmetry_equiv_pos_site_id
 _symmetry_equiv_pos_as_xyz
  1  'x, y, z'
loop_
 _atom_site_type_symbol
 _atom_site_label
 _atom_site_symmetry_multiplicity
 _atom_site_fract_x
 _atom_site_fract_y
 _atom_site_fract_z
 _atom_site_occupancy
  V  V0  1  0.62505763  0.10018144  0.00433944  1
  V  V1  1  0.86751713  0.01111244  0.36853627  1
  V  V2  1  0.87454284  0.49782756  0.37408325  1
  V  V3  1  0.76357551  0.49531695  0.74556849  1
  V  V4  1  0.49318845  0.88899163  0.37020707  1
  V  V5  1  0.87505263  0.01017045  0.87792408  1
  V  V6  1  0.00470380  0.37186788  0.87189414  1
  V  V7  1  0.37851469  0.88597467  0.50105692  1
  V  V8  1  0.74913540  0.37419112  0.12132061  1
  V  V9  1  0.24732823  0.87347891  0.62590012  1
  V  V10  1  0.87643088  0.36736567  0.50326946  1
  V  V11  1  0.63105833  0.24590118  0.37329572  1
  V  V12  1  0.00017041  0.25425748  0.74217111  1
  V  V13  1  0.12232874  0.74988323  0.37719091  1
  V  V14  1  0.50126583  0.24467846  0.24803491  1
  V  V15  1  0.75281475  0.24491012  0.49814496  1
  V  V16  1  0.25289477  0.75139740  0.00053567  1
  V  V17  1  0.00261270  0.24701807  0.25151121  1
  V  V18  1  0.87114168  0.74983487  0.61933820  1
  V  V19  1  0.87280775  0.24920704  0.12287420  1
  V  V20  1  0.75458866  0.61828119  0.87119647  1
  V  V21  1  0.12446808  0.61922838  0.50722207  1
  V  V22  1  -0.00486630  0.61948755  0.63003953  1
  V  V23  1  0.73041573  0.00177776  0.24546414  1
  V  V24  1  -0.00400504  0.13306999  0.61805833  1
  V  V25  1  0.00095417  0.87642155  0.87672722  1
  V  V26  1  0.62347496  0.11880674  0.50078269  1
  V  V27  1  0.50312113  0.37735618  0.38081820  1
  V  V28  1  0.48577399  0.88997602  0.86733865  1
  V  V29  1  -0.00242562  0.49751848  -0.00057638  1
  V  V30  1  0.37275418  0.12276344  0.75795142  1
  V  V31  1  0.24029175  0.37081306  0.62727618  1
  V  V32  1  0.25751630  -0.00082453  0.26165414  1
  V  V33  1  0.14013874  0.13025847  0.49162643  1
  V  V34  1  0.24053495  0.12250138  0.87894284  1
  V  V35  1  0.00430463  0.49602960  0.50546693  1
  V  V36  1  0.75090528  0.63178080  0.37773527  1
  V  V37  1  0.12541253  0.62570405  0.00038570  1
  V  V38  1  0.37354047  0.24654773  0.62357532  1
  V  V39  1  0.24820074  0.87572675  0.12514738  1
  V  V40  1  0.12619500  0.50093443  0.12653062  1
  V  V41  1  0.37892510  0.50035472  0.37958597  1
  V  V42  1  0.50007488  0.50414413  0.00156326  1
  V  V43  1  0.65607770  0.78251877  0.84821641  1
  V  V44  1  0.37452242  0.37704748  -0.00160792  1
  V  V45  1  0.12434171  0.74966320  0.87474752  1
  V  V46  1  0.37693344  0.24741586  0.11847999  1
  V  V47  1  0.59665517  0.73859364  0.37655345  1
  V  V48  1  0.62437020  0.60635277  0.50590512  1
  V  V49  1  0.75152296  0.74633603  0.00022783  1
  V  V50  1  0.25102209  0.37764653  0.12147864  1
  V  V51  1  0.12725707  0.00538648  0.12494661  1
  V  V52  1  0.73433117  0.11398125  0.84811998  1
  V  V53  1  0.31993650  0.17118101  0.30571336  1
  V  V54  1  0.37946775  0.74800956  0.13387885  1
  V  V55  1  0.00152985  0.74952964  0.25054797  1
  V  V56  1  0.24848835  0.62133924  0.37642342  1
  V  V57  1  0.75551751  0.36994756  0.62973277  1
  V  V58  1  0.12588747  0.37635876  0.25062296  1
  V  V59  1  0.25075073  -0.00040873  0.75517584  1
  V  V60  1  -0.00417582  0.87576486  0.37577878  1
  V  V61  1  0.12056878  0.87581000  0.74977805  1
  V  V62  1  0.12041977  0.00232372  0.62520987  1
  V  V63  1  0.62678662  0.25935196  0.87860014  1
  V  V64  1  0.87477833  0.75054253  0.13102413  1
  V  V65  1  0.23707903  0.49936948  0.74484079  1
  V  V66  1  0.87056581  0.87630809  0.00495867  1
  V  V67  1  0.24974019  0.75148119  0.50220321  1
  V  V68  1  0.00061494  0.00296891  0.49580936  1
  V  V69  1  0.37537402  0.37357078  0.50431915  1
  V  V70  1  0.00461755  0.00227437  0.00291924  1
  V  V71  1  0.49919516  0.10873118  0.12072836  1
  V  V72  1  0.24427371  0.24748027  -0.00201882  1
  V  V73  1  0.48549247  0.73650701  0.76014750  1
  V  V74  1  0.62456415  0.37385802  0.24710916  1
  V  V75  1  -0.00408069  0.74585191  0.75050107  1
  V  V76  1  0.25506335  0.62520218  0.86895567  1
  V  V77  1  0.50536818  0.24838447  0.75220617  1
  V  V78  1  0.00119283  0.62530830  0.12674697  1
  V  V79  1  0.50307140  0.10824837  0.62387523  1
  V  V80  1  0.00410491  0.37217871  0.37547786  1
  V  V81  1  0.37573786  0.50357223  0.86969617  1
  V  V82  1  0.57817090  0.43534803  0.68973902  1
  V  V83  1  0.00113156  0.12771402  0.11840579  1
  V  V84  1  0.62666573  0.50569081  0.12245586  1
  Zn  Zn85  1  0.37703552  0.88886991  -0.00048827  1
  Zn  Zn86  1  0.71287042  0.78447016  0.53879173  1
  Zn  Zn87  1  0.12479829  0.25063412  0.87344006  1
  Zn  Zn88  1  0.87940783  0.49885130  0.87059017  1
  Zn  Zn89  1  0.50367629  0.38039344  0.87227817  1
  Zn  Zn90  1  0.86575619  0.88029436  0.50509201  1
  Zn  Zn91  1  0.73594655  0.87208996  0.13924967  1
  Zn  Zn92  1  0.86508354  0.12790864  0.25068958  1
  Zn  Zn93  1  0.87320944  0.37246785  -0.00460146  1
  Zn  Zn94  1  0.50363360  0.63006966  0.13215342  1
  Zn  Zn95  1  0.38613158  0.63542207  0.26545686  1
  Zn  Zn96  1  0.25258867  0.50469089  0.24818132  1
  Zn  Zn97  1  0.14248711  0.24749499  0.37348187  1
  Zn  Zn98  1  0.75108581  0.49873776  0.25009751  1
  Zn  Zn99  1  0.86618757  0.11180158  0.72130720  1
  Zn  Zn100  1  0.62035503  0.64149116  -0.00131918  1
  Zn  Zn101  1  0.74643536  0.24089983  -0.00017313  1
  Zn  Zn102  1  0.12506444  0.87745062  0.25314631  1
  Zn  Zn103  1  0.56309533  0.81317410  0.19810816  1
  Zn  Zn104  1  0.87472814  0.62290024  0.25186888  1
  Zn  Zn105  1  0.37088505  0.73982940  0.63154016  1
  Zn  Zn106  1  0.50339801  0.61731455  0.62625217  1
  Zn  Zn107  1  0.18235557  0.18946592  0.18081647  1
  Zn  Zn108  1  0.18192430  0.18844450  0.68751709  1
  Zn  Zn109  1  0.18945864  0.68821905  0.19135587  1
  Zn  Zn110  1  0.18322598  0.68447282  0.68779426  1
  Zn  Zn111  1  0.68516514  0.18077687  0.18409504  1
  Zn  Zn112  1  0.68422084  0.18731161  0.68287988  1
  Zn  Zn113  1  0.69043161  0.68522883  0.19496627  1
  Zn  Zn114  1  0.68628453  0.67745616  0.69157082  1
  Zn  Zn115  1  0.31754814  0.33372792  0.30628862  1
  Zn  Zn116  1  0.31363409  0.31228455  0.81220635  1
  Zn  Zn117  1  0.31211951  0.81597353  0.31752566  1
  Zn  Zn118  1  0.31297144  0.81261100  0.81158037  1
  Zn  Zn119  1  0.81383222  0.31335288  0.31022758  1
  Zn  Zn120  1  0.81712441  0.30279321  0.81127799  1
  Zn  Zn121  1  0.77769982  0.84334447  0.35245890  1
  Zn  Zn122  1  0.82742909  0.81019911  0.81435354  1
  Zn  Zn123  1  0.19003535  0.43489109  0.44239062  1
  Zn  Zn124  1  0.18501839  0.43815102  0.93543054  1
  Zn  Zn125  1  0.18342038  0.93715887  0.43939137  1
  Zn  Zn126  1  0.18878575  0.93869644  0.93961948  1
  Zn  Zn127  1  0.69255595  0.43356782  0.43685514  1
  Zn  Zn128  1  0.68858850  0.43846743  0.93775316  1
  Zn  Zn129  1  0.65430938  0.91365942  0.47664665  1
  Zn  Zn130  1  0.68797046  0.94696970  0.81552706  1
  Zn  Zn131  1  0.30874635  0.06715596  0.06846569  1
  Zn  Zn132  1  0.31198134  0.06098641  0.57088641  1
  Zn  Zn133  1  0.31354039  0.56624987  0.06055901  1
  Zn  Zn134  1  0.31531975  0.55875583  0.56331489  1
  Zn  Zn135  1  0.80858552  0.06000288  0.06632383  1
  Zn  Zn136  1  0.81244376  0.06447510  0.55681266  1
  Zn  Zn137  1  0.81443410  0.56366351  0.06270597  1
  Zn  Zn138  1  0.81141229  0.55867062  0.56115075  1
  Zn  Zn139  1  0.43972228  0.44127081  0.19111256  1
  Zn  Zn140  1  0.41572416  0.43999338  0.69067121  1
  Zn  Zn141  1  0.42790377  0.93609695  0.19075505  1
  Zn  Zn142  1  0.43229896  0.93164382  0.69185518  1
  Zn  Zn143  1  0.93802238  0.43458476  0.18653377  1
  Zn  Zn144  1  0.93889194  0.43062048  0.68563492  1
  Zn  Zn145  1  0.93590226  0.93542026  0.19049258  1
  Zn  Zn146  1  0.90873367  0.95192456  0.67535261  1
  Zn  Zn147  1  0.06657602  0.06474432  0.31101079  1
  Zn  Zn148  1  0.05758949  0.06741397  0.80842492  1
  Zn  Zn149  1  0.06196179  0.56160963  0.31557617  1
  Zn  Zn150  1  0.06371333  0.56159203  0.81401492  1
  Zn  Zn151  1  0.55805026  0.06645768  0.31399173  1
  Zn  Zn152  1  0.56227870  0.07331363  0.81249150  1
  Zn  Zn153  1  0.56246436  0.56139189  0.31004730  1
  Zn  Zn154  1  0.56764310  0.57156798  0.81933864  1
  Zn  Zn155  1  0.44359325  0.19096851  0.44400522  1
  Zn  Zn156  1  0.43455546  0.06267702  0.93973964  1
  Zn  Zn157  1  0.42898708  0.67348060  0.46865094  1
  Zn  Zn158  1  0.43675758  0.69171635  0.94239882  1
  Zn  Zn159  1  0.94200938  0.18721370  0.43749884  1
  Zn  Zn160  1  0.93379924  0.18927087  0.93453318  1
  Zn  Zn161  1  0.93602789  0.68450592  0.43935335  1
  Zn  Zn162  1  0.93446604  0.68460601  0.93845838  1
  Zn  Zn163  1  0.06326737  0.31455669  0.06091732  1
  Zn  Zn164  1  0.06999415  0.30880788  0.55733284  1
  Zn  Zn165  1  0.06422989  0.81466303  0.06352545  1
  Zn  Zn166  1  0.05788726  0.81258216  0.56287991  1
  Zn  Zn167  1  0.56080194  0.31388264  0.05853768  1
  Zn  Zn168  1  0.56013930  0.30219266  0.55972083  1
  Zn  Zn169  1  0.59659070  0.87095808  0.01317494  1
  Zn  Zn170  1  0.54671658  0.82324443  0.58731873  1
  O  O171  1  0.11480344  0.11726117  0.12453676  1
  O  O172  1  0.11863822  0.12074153  0.61323625  1
  O  O173  1  0.12127573  0.62090939  0.12104803  1
  O  O174  1  0.11353792  0.62820992  0.61293454  1
  O  O175  1  0.61224095  0.12850857  0.11131750  1
  O  O176  1  0.61490306  0.12744665  0.61515326  1
  O  O177  1  0.62661665  0.61917620  0.11945521  1
  O  O178  1  0.62473026  0.62547277  0.61072382  1
  O  O179  1  0.38288981  0.37834919  0.38545169  1
  O  O180  1  0.37682232  0.38592960  0.87984455  1
  O  O181  1  0.38349111  0.87225523  0.38777814  1
  O  O182  1  0.38153181  0.87831406  0.87371508  1
  O  O183  1  0.88403881  0.37979208  0.37951021  1
  O  O184  1  0.88840446  0.37502420  0.87760759  1
  O  O185  1  0.89001339  0.88884296  0.37294033  1
  O  O186  1  0.88473953  0.88147824  0.88753856  1
  O  O187  1  0.24143369  -0.00433800  0.35976852  1
  O  O188  1  0.24284138  0.00560394  0.86310882  1
  O  O189  1  0.25664107  0.50696056  0.37722157  1
  O  O190  1  0.25341069  0.50635918  0.86761039  1
  O  O191  1  0.76792536  0.00424840  0.36210473  1
  O  O192  1  0.76489880  0.00893432  0.88095617  1
  O  O193  1  0.76166165  0.50118420  0.37216242  1
  O  O194  1  0.75528136  0.50047546  0.86760213  1
  O  O195  1  0.24391687  0.49773427  0.12444949  1
  O  O196  1  0.25775462  0.49139268  0.63780595  1
  O  O197  1  0.24231680  0.99450034  0.13323421  1
  O  O198  1  0.24010858  0.99383587  0.63688871  1
  O  O199  1  0.74336756  0.49300495  0.12389444  1
  O  O200  1  0.75446649  0.48527988  0.63224101  1
  O  O201  1  0.75507589  0.99222580  0.14244675  1
  O  O202  1  0.81987397  1.02177383  0.65736347  1
  O  O203  1  0.00655011  0.36422902  0.25214017  1
  O  O204  1  0.00092398  0.36351867  0.75468655  1
  O  O205  1  0.00424007  0.86710896  0.25742103  1
  O  O206  1  0.00602400  0.86445663  0.75885020  1
  O  O207  1  0.50427951  0.36403211  0.25582776  1
  O  O208  1  0.50872099  0.37489733  0.74315337  1
  O  O209  1  0.48794253  0.87108597  0.26610957  1
  O  O210  1  0.49256373  0.86117819  0.76110419  1
  O  O211  1  0.50542798  0.13921519  0.23943744  1
  O  O212  1  0.49011902  0.13309762  0.74519807  1
  O  O213  1  0.49404825  0.61760405  0.24398229  1
  O  O214  1  0.49862549  0.63285443  0.75041604  1
  O  O215  1  1.00362845  0.13758900  0.24025554  1
  O  O216  1  0.99525561  0.13004101  0.73309034  1
  O  O217  1  0.99920659  0.63178592  0.24623524  1
  O  O218  1  1.00843749  0.63093627  0.74058044  1
  O  O219  1  0.36326010  0.26272515  0.00861705  1
  O  O220  1  0.37668625  0.25426877  0.51618924  1
  O  O221  1  0.36192163  0.75176640  0.01057277  1
  O  O222  1  0.35630644  0.76105181  0.49762321  1
  O  O223  1  0.87202406  0.25082557  0.01290653  1
  O  O224  1  0.86802672  0.26066009  0.48726065  1
  O  O225  1  0.87457731  0.75573541  0.01115414  1
  O  O226  1  0.88308606  0.75052999  0.51586812  1
  O  O227  1  0.13014859  0.23576779  0.49307174  1
  O  O228  1  0.14044950  0.25576347  0.99963464  1
  O  O229  1  0.13125475  0.74341734  0.49675248  1
  O  O230  1  0.13453326  0.74694332  0.99535409  1
  O  O231  1  0.63384636  0.24598092  0.49051417  1
  O  O232  1  0.62435890  0.25001478  0.98955158  1
  O  O233  1  0.63037733  0.72828153  0.47864877  1
  O  O234  1  0.64369507  0.76034386  0.97314453  1
  O  O235  1  0.49080662  0.25296397  0.13186030  1
  O  O236  1  0.49185411  0.24543437  0.63659493  1
  O  O237  1  0.48122016  0.75284940  0.12720717  1
  O  O238  1  0.49454677  0.74774832  0.64679616  1
  O  O239  1  0.99510204  0.24468882  0.12829658  1
  O  O240  1  1.01154993  0.24788826  0.63443906  1
  O  O241  1  0.99732737  0.74449347  0.12901186  1
  O  O242  1  0.99516976  0.74027337  0.63235049  1
  O  O243  1  0.00254391  0.25565712  0.36444157  1
  O  O244  1  0.00333044  0.25531889  0.86964486  1
  O  O245  1  0.00126996  0.75672064  0.37233439  1
  O  O246  1  0.00303717  0.75161734  0.86923512  1
  O  O247  1  0.50482227  0.26018999  0.36690236  1
  O  O248  1  0.50576202  0.26055209  0.85845612  1
  O  O249  1  0.49786233  0.73398397  0.38232968  1
  O  O250  1  0.49598258  0.75262177  0.86444686  1
  O  O251  1  0.23775076  0.11771159  0.50447231  1
  O  O252  1  0.25427908  0.13585847  0.99049400  1
  O  O253  1  0.24128978  0.62942865  0.49476754  1
  O  O254  1  0.24291602  0.63244283  0.99294323  1
  O  O255  1  0.74518691  0.13938068  0.50367132  1
  O  O256  1  0.73282576  0.12175965  1.00472162  1
  O  O257  1  0.74278478  0.61653512  0.48936848  1
  O  O258  1  0.75111593  0.63691252  0.99890538  1
  O  O259  1  0.25546202  0.37283618  0.00334588  1
  O  O260  1  0.26139498  0.37768028  0.51561148  1
  O  O261  1  0.25016757  0.86718533  0.00771000  1
  O  O262  1  0.25069042  0.86798290  0.50509071  1
  O  O263  1  0.75235091  0.37299996  0.01191326  1
  O  O264  1  0.75992802  0.36691196  0.50506424  1
  O  O265  1  0.76757906  0.86250028  0.00301797  1
  O  O266  1  0.75907151  0.86379971  0.46510050  1
  O  O267  1  0.12580102  0.49463136  0.24498932  1
  O  O268  1  0.13863279  0.49784331  0.75302171  1
  O  O269  1  0.13103243  0.99959234  0.23877006  1
  O  O270  1  0.12604116  0.99568605  0.74356707  1
  O  O271  1  0.62539652  0.49148107  0.23569263  1
  O  O272  1  0.63259400  0.49396242  0.75313023  1
  O  O273  1  0.63202228  1.00239370  0.25380169  1
  O  O274  1  0.66563431  1.04941075  0.77857135  1
  O  O275  1  0.35657609  0.00381992  0.25013647  1
  O  O276  1  0.36029263  0.00918969  0.74201736  1
  O  O277  1  0.37078513  0.49600850  0.26767096  1
  O  O278  1  0.36335666  0.50483673  0.76534733  1
  O  O279  1  0.88657414  0.00723577  0.26285701  1
  O  O280  1  0.90582362  0.00026405  0.78044646  1
  O  O281  1  0.88098545  0.49812782  0.26407924  1
  O  O282  1  0.86735511  0.49612610  0.74967287  1
  O  O283  1  0.12295461  0.36967085  0.37119406  1
  O  O284  1  0.11006271  0.37361763  0.87954820  1
  O  O285  1  0.11216729  0.86856296  0.37640983  1
  O  O286  1  0.12001869  0.86818868  0.87198450  1
  O  O287  1  0.61902693  0.36801683  0.36984849  1
  O  O288  1  0.62393765  0.36388922  0.87786821  1
  O  O289  1  0.59608713  0.85384836  0.38653142  1
  O  O290  1  0.60709839  0.87816317  0.87553666  1
  O  O291  1  0.38400728  0.14093758  0.12041425  1
  O  O292  1  0.37972093  0.13128740  0.63329356  1
  O  O293  1  0.36979311  0.64132555  0.12659095  1
  O  O294  1  0.39287112  0.63396240  0.58903167  1
  O  O295  1  0.88250047  0.13272398  0.12804017  1
  O  O296  1  0.89717258  0.14546122  0.60085300  1
  O  O297  1  0.88445704  0.63190059  0.12631725  1
  O  O298  1  0.88946060  0.63088105  0.61816421  1
  O  O299  1  0.25683927  0.25452475  0.11865751  1
  O  O300  1  0.25740648  0.26304527  0.63614009  1
  O  O301  1  0.25046989  0.75773366  0.11839301  1
  O  O302  1  0.24772592  0.75382344  0.61925934  1
  O  O303  1  0.75713459  0.25593223  0.12524841  1
  O  O304  1  0.74374882  0.26217751  0.61276615  1
  O  O305  1  0.75968775  0.74914265  0.12035734  1
  O  O306  1  0.76807799  0.73605313  0.62985217  1
  O  O307  1  0.26355638  0.24018007  0.35673211  1
  O  O308  1  0.24906753  0.24257916  0.88053565  1
  O  O309  1  0.24256496  0.74340050  0.38312569  1
  O  O310  1  0.24649465  0.74362937  0.88081398  1
  O  O311  1  0.74090728  0.25817038  0.38169262  1
  O  O312  1  0.73963798  0.24110304  0.87905345  1
  O  O313  1  0.75728058  0.73111156  0.36828226  1
  O  O314  1  0.75944000  0.73822343  0.88205983  1
  O  O315  1  -0.00474202  0.11845128  0.01082878  1
  O  O316  1  0.01369186  0.11940321  0.49943949  1
  O  O317  1  0.00708766  0.61831671  0.00480414  1
  O  O318  1  0.00648940  0.61443395  0.50503929  1
  O  O319  1  0.51145101  0.11928150  0.00755236  1
  O  O320  1  0.50937756  0.13008741  0.51306836  1
  O  O321  1  0.50152883  0.61700333  0.00555766  1
  O  O322  1  0.52159584  0.61326698  0.49797687  1
  O  O323  1  0.48876952  0.36626218  0.49292327  1
  O  O324  1  0.49179926  0.38905037  0.99852373  1
  O  O325  1  0.48168193  0.87097885  0.49602122  1
  O  O326  1  0.49061614  0.87067183  0.97227537  1
  O  O327  1  0.99619036  0.37770245  0.49757876  1
  O  O328  1  0.99843846  0.38286370  0.99447174  1
  O  O329  1  0.99818270  0.88599336  0.49366426  1
  O  O330  1  0.99450464  0.88241249  0.99753217  1
  O  O331  1  0.49449974  0.48411007  0.37132794  1
  O  O332  1  0.49257222  0.50236893  0.88125696  1
  O  O333  1  0.50008977  0.98687282  0.37333896  1
  O  O334  1  0.49407621  0.99492290  0.86148552  1
  O  O335  1  0.99590543  0.49304119  0.38633285  1
  O  O336  1  1.00016289  0.49397830  0.88259172  1
  O  O337  1  1.00230056  0.99551483  0.38242760  1
  O  O338  1  1.00424851  1.00039277  0.89328433  1
  O  O339  1  0.00540678  0.00623010  0.11986607  1
  O  O340  1  -0.00008695  0.00940653  0.61105835  1
  O  O341  1  0.00616584  0.50430048  0.11910797  1
  O  O342  1  -0.00469259  0.50382194  0.61393625  1
  O  O343  1  0.49197774  0.01077753  0.13442494  1
  O  O344  1  0.49663179  0.00950305  0.63528925  1
  O  O345  1  0.50743948  0.49989614  0.11661985  1
  O  O346  1  0.50948605  0.49319434  0.64112434  1
  O  O347  1  0.24239994  0.38108459  0.23880415  1
  O  O348  1  0.25641477  0.38610553  0.73848999  1
  O  O349  1  0.24750454  0.88482133  0.24484083  1
  O  O350  1  0.24211145  0.88111913  0.74708449  1
  O  O351  1  0.74444718  0.37687628  0.23790320  1
  O  O352  1  0.75756865  0.37630909  0.74011765  1
  O  O353  1  0.75300553  0.89459639  0.25523000  1
  O  O354  1  0.72493061  0.84663066  0.78569553  1
  O  O355  1  0.25060815  0.11727945  0.24757410  1
  O  O356  1  0.25362682  0.11831189  0.75428381  1
  O  O357  1  0.25130735  0.62445456  0.26741913  1
  O  O358  1  0.24448903  0.61356186  0.75664251  1
  O  O359  1  0.74995106  0.11046807  0.24578207  1
  O  O360  1  0.76617576  0.15749506  0.75757978  1
  O  O361  1  0.75567898  0.61562370  0.26014885  1
  O  O362  1  0.74832685  0.60881285  0.75882877  1
  O  O363  1  0.37956931  0.12710352  0.37108943  1
  O  O364  1  0.36465635  0.12332755  0.86164779  1
  O  O365  1  0.36610652  0.61561920  0.38341901  1
  O  O366  1  0.36045980  0.61954439  0.88528201  1
  O  O367  1  0.88287157  0.11454337  0.37097466  1
  O  O368  1  0.85998880  0.11913670  0.88207452  1
  O  O369  1  0.87001254  0.61377228  0.37731667  1
  O  O370  1  0.86201390  0.61721501  0.88291500  1
  O  O371  1  0.13066516  0.38179971  0.12937127  1
  O  O372  1  0.14219467  0.37352503  0.61961485  1
  O  O373  1  0.13610323  0.88051322  0.12832077  1
  O  O374  1  0.12706850  0.88088864  0.62994584  1
  O  O375  1  0.63198824  0.38040946  0.12714198  1
  O  O376  1  0.62971265  0.37507834  0.62435284  1
  O  O377  1  0.62489201  0.86073013  0.11944179  1
  O  O378  1  0.64455209  0.86745261  0.58100917  1
  O  O379  1  0.11938891  0.25630596  0.25169047  1
  O  O380  1  0.10761817  0.24014241  0.75694992  1
  O  O381  1  0.11941373  0.75115982  0.25967270  1
  O  O382  1  0.11635657  0.75412229  0.75556184  1
  O  O383  1  0.61939557  0.25469884  0.25400835  1
  O  O384  1  0.61566783  0.23977893  0.76262298  1
  O  O385  1  0.62230710  0.74350540  0.27073965  1
  O  O386  1  0.61421359  0.73725077  0.76502823  1
  O  O387  1  0.37783855  0.24390173  0.24679169  1
  O  O388  1  0.38109003  0.24312073  0.74339478  1
  O  O389  1  0.36133998  0.74948486  0.23720004  1
  O  O390  1  0.38067091  0.74189122  0.75119085  1
  O  O391  1  0.88335543  0.24909521  0.23988763  1
  O  O392  1  0.89778120  0.24233579  0.75339618  1
  O  O393  1  0.88386853  0.74778680  0.23629888  1
  O  O394  1  0.89011803  0.74951312  0.74005177  1
  O  O395  1  0.37375720  0.48735329  0.48904406  1
  O  O396  1  0.38016808  0.49779541  0.99206228  1
  O  O397  1  0.36467722  0.98404910  0.50446552  1
  O  O398  1  0.36839941  1.00091018  1.00340616  1
  O  O399  1  0.88253689  0.48827716  0.49070530  1
  O  O400  1  0.88980422  0.49773602  1.00295277  1
  O  O401  1  0.88343977  1.00100604  0.48418185  1
  O  O402  1  0.88387109  0.99323561  0.99892004  1
  O  O403  1  0.11868215  -0.00622579  0.01526566  1
  O  O404  1  0.11811020  0.00770158  0.50499001  1
  O  O405  1  0.11541145  0.50549622  0.00513400  1
  O  O406  1  0.11627728  0.50712593  0.49652676  1
  O  O407  1  0.62508262  0.00344635  -0.00164377  1
  O  O408  1  0.63332607  0.02256051  0.48115526  1
  O  O409  1  0.61676981  0.49906337  0.00967874  1
  O  O410  1  0.63184757  0.50693163  0.49741357  1
  O  O411  1  0.36965900  0.36887050  0.12233627  1
  O  O412  1  0.36964525  0.36633534  0.61954270  1
  O  O413  1  0.36221713  0.86526607  0.12385553  1
  O  O414  1  0.36578048  0.86891163  0.61562942  1
  O  O415  1  0.86719603  0.36684734  0.12432920  1
  O  O416  1  0.86936137  0.37234561  0.61287274  1
  O  O417  1  0.87825852  0.86624197  0.11945652  1
  O  O418  1  0.87991155  0.85536373  0.62140146  1
  O  O419  1  0.12773592  0.12663989  0.38677471  1
  O  O420  1  0.13766169  0.12415663  0.87312303  1
  O  O421  1  0.12954232  0.62841184  0.38676108  1
  O  O422  1  0.13451653  0.63067567  0.88059924  1
  O  O423  1  0.61379975  0.14277232  0.37991881  1
  O  O424  1  0.62698779  0.13554601  0.89380475  1
  O  O425  1  0.63264511  0.62447562  0.37764318  1
  O  O426  1  0.64468658  0.62308445  0.88463868  1
