# generated using pymatgen
data_V85Zn86O256
_symmetry_space_group_name_H-M   'P 1'
_cell_length_a   16.92748781
_cell_length_b   16.93086585
_cell_length_c   16.93273463
_cell_angle_alpha   89.98046734
_cell_angle_beta   89.85572668
_cell_angle_gamma   89.99173306
_symmetry_Int_Tables_number   1
_chemical_formula_structural   V85Zn86O256
_chemical_formula_sum   'V85 Zn86 O256'
_cell_volume   4852.85565807
_cell_formula_units_Z   1
loop_
 _symmetry_equiv_pos_site_id
 _symmetry_equiv_pos_as_xyz
  1  'x, y, z'
loop_
 _atom_site_type_symbol
 _atom_site_label
 _atom_site_symmetry_multiplicity
 _atom_site_fract_x
 _atom_site_fract_y
 _atom_site_fract_z
 _atom_site_occupancy
  V  V0  1  0.88030134  0.38021950  0.50517226  1
  V  V1  1  0.62729843  0.75486905  0.36607922  1
  V  V2  1  -0.00387144  0.61368657  0.62453180  1
  V  V3  1  0.00071521  0.12544594  0.12517555  1
  V  V4  1  0.87820062  0.87225377  0.50188116  1
  V  V5  1  0.49639345  0.75720495  0.75167153  1
  V  V6  1  0.12689717  0.11897319  0.00408049  1
  V  V7  1  0.37971998  0.26199334  0.61613802  1
  V  V8  1  0.12587102  0.24668137  0.86932025  1
  V  V9  1  0.13049471  0.37450825  0.74594588  1
  V  V10  1  0.86965678  0.62512393  0.24871140  1
  V  V11  1  0.13063889  0.49271302  0.12225001  1
  V  V12  1  0.13012939  0.23541073  0.37560224  1
  V  V13  1  0.74959814  0.62260283  0.37976593  1
  V  V14  1  0.74696661  0.87170511  0.12623629  1
  V  V15  1  0.62693327  0.25092067  0.87786537  1
  V  V16  1  0.87407141  -0.00082634  0.37587494  1
  V  V17  1  0.49933416  0.37765617  0.87914514  1
  V  V18  1  0.11763269  0.00655804  0.62440076  1
  V  V19  1  0.12018731  0.88764827  0.24863049  1
  V  V20  1  0.74960773  0.74855103  0.50479162  1
  V  V21  1  0.36538522  0.12233599  0.25282170  1
  V  V22  1  0.37699553  0.74436018  0.62096880  1
  V  V23  1  -0.00150532  -0.00550547  0.00476717  1
  V  V24  1  0.61969832  0.12639865  0.00559977  1
  V  V25  1  0.37993483  0.87375062  0.00075586  1
  V  V26  1  -0.00231901  0.49702736  -0.00109165  1
  V  V27  1  0.37176303  0.25001427  0.12679883  1
  V  V28  1  0.61292500  0.62771070  0.50490248  1
  V  V29  1  0.37131087  0.50669589  0.37074849  1
  V  V30  1  0.62094867  0.62394751  0.00441365  1
  V  V31  1  -0.00236745  0.62494180  0.12294591  1
  V  V32  1  0.88500292  0.50075810  0.37847294  1
  V  V33  1  0.49206922  0.49106457  0.50313779  1
  V  V34  1  0.37158370  0.87505385  0.49835605  1
  V  V35  1  0.13788010  0.37270589  0.24833886  1
  V  V36  1  0.75092001  0.12386459  0.87614081  1
  V  V37  1  0.63364090  0.37878349  0.74836749  1
  V  V38  1  0.37799771  -0.00615128  0.87373695  1
  V  V39  1  0.61599978  0.75557453  0.87812949  1
  V  V40  1  0.12326353  0.62850483  -0.00590479  1
  V  V41  1  0.12662543  0.49625694  0.61202906  1
  V  V42  1  0.00242535  0.86763689  0.87815364  1
  V  V43  1  0.49698147  0.50388160  0.00953554  1
  V  V44  1  0.49933021  0.00124147  -0.00167675  1
  V  V45  1  0.88567579  0.24905323  0.62309708  1
  V  V46  1  0.25015259  0.12436066  0.87245525  1
  V  V47  1  0.25435007  0.51713572  0.24852000  1
  V  V48  1  0.87172156  0.75319374  0.12277583  1
  V  V49  1  0.37331568  0.74552556  0.13662777  1
  V  V50  1  0.50231743  -0.00165840  0.49804383  1
  V  V51  1  0.88218594  0.12322013  0.74505159  1
  V  V52  1  0.87215855  0.12932986  0.24254856  1
  V  V53  1  0.74727261  0.75227434  0.00307917  1
  V  V54  1  -0.00239982  0.37134818  0.87185896  1
  V  V55  1  0.75386886  0.62269013  0.86920366  1
  V  V56  1  0.74746444  0.87410127  0.62968926  1
  V  V57  1  0.50531718  0.87822035  0.36343072  1
  V  V58  1  0.37735675  0.12490529  0.75120411  1
  V  V59  1  0.24286024  0.74218203  0.48990238  1
  V  V60  1  0.74719325  0.12715113  0.37605238  1
  V  V61  1  0.62333314  0.49181708  0.13118557  1
  V  V62  1  0.75939213  0.24929885  0.00811216  1
  V  V63  1  -0.00044379  0.01275688  0.50295002  1
  V  V64  1  0.62861000  0.50210016  0.62509100  1
  V  V65  1  0.24704107  0.62869107  0.87149000  1
  V  V66  1  0.24859983  0.25730768  0.00348212  1
  V  V67  1  0.50193658  0.12349408  0.62572897  1
  V  V68  1  0.12445736  0.86269749  0.75149646  1
  V  V69  1  0.74998682  -0.00052147  0.75184355  1
  V  V70  1  0.74570805  0.49009006  0.25307632  1
  V  V71  1  0.61737826  -0.00257762  0.13023777  1
  V  V72  1  0.38202704  0.62395576  0.74669940  1
  V  V73  1  0.74488422  -0.00512528  0.25067001  1
  V  V74  1  0.50280315  0.25132299  0.75343937  1
  V  V75  1  0.87484237  -0.00738566  0.88025559  1
  V  V76  1  -0.00330567  0.25654926  0.24581980  1
  V  V77  1  0.87706568  0.74421367  0.63865046  1
  V  V78  1  0.24084074  0.89179818  0.12334813  1
  V  V79  1  0.75107014  0.25506632  0.50864764  1
  V  V80  1  0.24556965  0.75237343  -0.00086879  1
  V  V81  1  0.50743619  0.24928819  0.24016603  1
  V  V82  1  0.62637378  0.26245748  0.37317678  1
  V  V83  1  0.24820662  -0.00311959  0.74761269  1
  V  V84  1  0.37467835  0.50145165  0.87679643  1
  Zn  Zn85  1  0.25630542  0.24407829  0.48462073  1
  Zn  Zn86  1  0.25172496  0.50064467  0.74596473  1
  Zn  Zn87  1  0.49483907  0.37421044  0.37107251  1
  Zn  Zn88  1  0.62536318  0.00032849  0.62749118  1
  Zn  Zn89  1  -0.00005339  0.87183968  0.37503380  1
  Zn  Zn90  1  0.12361274  0.74323151  0.36264021  1
  Zn  Zn91  1  0.24525337  0.87126996  0.62403850  1
  Zn  Zn92  1  0.48157635  0.73709830  0.25488952  1
  Zn  Zn93  1  0.76170249  0.50074433  0.74025307  1
  Zn  Zn94  1  0.62601367  0.12661788  0.50075495  1
  Zn  Zn95  1  0.87932201  0.50472464  0.86912441  1
  Zn  Zn96  1  0.25748599  0.37824565  0.61060419  1
  Zn  Zn97  1  0.75550126  0.36887510  0.13309481  1
  Zn  Zn98  1  0.36801003  0.37838494  0.00585861  1
  Zn  Zn99  1  0.00928405  0.24076266  0.74137200  1
  Zn  Zn100  1  0.00576808  0.37816623  0.37729969  1
  Zn  Zn101  1  -0.00098727  0.75067951  0.25046167  1
  Zn  Zn102  1  0.61903932  0.87864327  0.75649308  1
  Zn  Zn103  1  0.00207239  0.74023362  0.75780931  1
  Zn  Zn104  1  0.12138459  0.61452292  0.48822205  1
  Zn  Zn105  1  0.87804564  0.37101337  0.00619756  1
  Zn  Zn106  1  0.36118243  0.01275641  0.37650928  1
  Zn  Zn107  1  0.18668524  0.18497278  0.18728486  1
  Zn  Zn108  1  0.20912746  0.16899812  0.64873808  1
  Zn  Zn109  1  0.18295613  0.69382610  0.18204042  1
  Zn  Zn110  1  0.18816425  0.68246617  0.67949801  1
  Zn  Zn111  1  0.68354059  0.18324045  0.18710142  1
  Zn  Zn112  1  0.69032226  0.18814424  0.68880343  1
  Zn  Zn113  1  0.65462218  0.66878066  0.20500454  1
  Zn  Zn114  1  0.68131448  0.68756440  0.68917409  1
  Zn  Zn115  1  0.31505202  0.31704413  0.31330300  1
  Zn  Zn116  1  0.31385542  0.31208914  0.81097115  1
  Zn  Zn117  1  0.29636357  0.84811261  0.32480681  1
  Zn  Zn118  1  0.31050652  0.81128336  0.81323479  1
  Zn  Zn119  1  0.81634787  0.31330193  0.31749597  1
  Zn  Zn120  1  0.81542073  0.31122380  0.81230221  1
  Zn  Zn121  1  0.81004213  0.81140935  0.31260164  1
  Zn  Zn122  1  0.80980308  0.81211412  0.81755376  1
  Zn  Zn123  1  0.19779638  0.42708058  0.43163243  1
  Zn  Zn124  1  0.18503790  0.43897780  0.93260450  1
  Zn  Zn125  1  0.18459098  0.93815565  0.43897645  1
  Zn  Zn126  1  0.18548270  0.93738859  0.93556493  1
  Zn  Zn127  1  0.69089152  0.43854935  0.44367213  1
  Zn  Zn128  1  0.68723512  0.43676731  0.94008619  1
  Zn  Zn129  1  0.68705373  0.93834665  0.44203015  1
  Zn  Zn130  1  0.68686059  0.93524645  0.94110391  1
  Zn  Zn131  1  0.31717406  0.07115460  0.06520945  1
  Zn  Zn132  1  0.31262861  0.06306217  0.55856197  1
  Zn  Zn133  1  0.31116610  0.56625804  0.06605952  1
  Zn  Zn134  1  0.31137672  0.56335480  0.56137637  1
  Zn  Zn135  1  0.81146039  0.06162855  0.06354798  1
  Zn  Zn136  1  0.81326660  0.06311134  0.56329229  1
  Zn  Zn137  1  0.80919828  0.56093575  0.06169789  1
  Zn  Zn138  1  0.81325258  0.56269891  0.56428048  1
  Zn  Zn139  1  0.43374076  0.43044253  0.19040422  1
  Zn  Zn140  1  0.44724146  0.44249185  0.68983872  1
  Zn  Zn141  1  0.43241406  0.93713979  0.18518945  1
  Zn  Zn142  1  0.43585888  0.93463330  0.68377590  1
  Zn  Zn143  1  0.93471061  0.43589069  0.18581195  1
  Zn  Zn144  1  0.93841318  0.43329846  0.68914522  1
  Zn  Zn145  1  0.93363193  0.93884491  0.18571999  1
  Zn  Zn146  1  0.93875176  0.93324468  0.69037107  1
  Zn  Zn147  1  0.05802339  0.05990139  0.31245412  1
  Zn  Zn148  1  0.06330968  0.05630366  0.81222243  1
  Zn  Zn149  1  0.06505849  0.56687480  0.30689552  1
  Zn  Zn150  1  0.06265638  0.55853898  0.80665756  1
  Zn  Zn151  1  0.55807717  0.06918012  0.31154680  1
  Zn  Zn152  1  0.56333896  0.06091349  0.81599036  1
  Zn  Zn153  1  0.55613546  0.56387867  0.31624663  1
  Zn  Zn154  1  0.56364452  0.56599457  0.81504025  1
  Zn  Zn155  1  0.44138513  0.18581235  0.43254577  1
  Zn  Zn156  1  0.43653373  0.18653464  0.94004913  1
  Zn  Zn157  1  0.43572231  0.68755899  0.43164833  1
  Zn  Zn158  1  0.43510519  0.68772787  0.93990006  1
  Zn  Zn159  1  0.93742653  0.19159035  0.43078135  1
  Zn  Zn160  1  0.93921403  0.18172885  0.93310941  1
  Zn  Zn161  1  0.94216410  0.68818870  0.44102290  1
  Zn  Zn162  1  0.93236527  0.68846370  0.94154090  1
  Zn  Zn163  1  0.06254876  0.30931827  0.06208399  1
  Zn  Zn164  1  0.06468633  0.31204123  0.55683426  1
  Zn  Zn165  1  0.06206130  0.81218438  0.06435343  1
  Zn  Zn166  1  0.06033459  0.81086960  0.56677574  1
  Zn  Zn167  1  0.56280829  0.31485704  0.06448380  1
  Zn  Zn168  1  0.56571898  0.31450391  0.56378341  1
  Zn  Zn169  1  0.55871923  0.81398891  0.06823600  1
  Zn  Zn170  1  0.56050323  0.81190571  0.56403034  1
  O  O171  1  0.11557906  0.12709412  0.11470466  1
  O  O172  1  0.11388820  0.10485438  0.64262705  1
  O  O173  1  0.12008173  0.61637462  0.11112678  1
  O  O174  1  0.11776025  0.61300663  0.61780270  1
  O  O175  1  0.62886527  0.11250792  0.11285510  1
  O  O176  1  0.61276608  0.12726276  0.62572811  1
  O  O177  1  0.63259182  0.61061841  0.10840398  1
  O  O178  1  0.62538570  0.61925379  0.61573030  1
  O  O179  1  0.37905950  0.39559352  0.36609759  1
  O  O180  1  0.38269968  0.38258431  0.87762455  1
  O  O181  1  0.39349117  0.86492779  0.39221178  1
  O  O182  1  0.36666120  0.88708209  0.88417479  1
  O  O183  1  0.87938583  0.38527939  0.38223190  1
  O  O184  1  0.89014822  0.36913611  0.88058597  1
  O  O185  1  0.87110919  0.88082222  0.38571818  1
  O  O186  1  0.88061680  0.88649025  0.87229049  1
  O  O187  1  0.26629679  -0.04485985  0.36662034  1
  O  O188  1  0.25634572  0.00566043  0.86852206  1
  O  O189  1  0.25548602  0.50126734  0.35828117  1
  O  O190  1  0.25616809  0.51175754  0.87437537  1
  O  O191  1  0.75121931  0.00683684  0.36935848  1
  O  O192  1  0.75653315  0.00239408  0.87394542  1
  O  O193  1  0.75375839  0.50730765  0.37154531  1
  O  O194  1  0.74809703  0.51627639  0.88133306  1
  O  O195  1  0.24111193  0.50178597  0.13201014  1
  O  O196  1  0.24405807  0.49558235  0.62674982  1
  O  O197  1  0.24991432  0.98985060  0.11314488  1
  O  O198  1  0.23760044  0.99528502  0.63106084  1
  O  O199  1  0.74276763  0.49982783  0.13647741  1
  O  O200  1  0.73472641  0.50332840  0.62501788  1
  O  O201  1  0.74244096  0.99342583  0.13090213  1
  O  O202  1  0.74985916  0.99110787  0.63197729  1
  O  O203  1  0.00715068  0.36740729  0.24829419  1
  O  O204  1  0.01314705  0.36665489  0.75659559  1
  O  O205  1  0.00881854  0.87498342  0.24421199  1
  O  O206  1  0.00687034  0.87029601  0.76064860  1
  O  O207  1  0.49830875  0.35573471  0.25177573  1
  O  O208  1  0.50952809  0.37310654  0.76388038  1
  O  O209  1  0.49591719  0.87576643  0.26203467  1
  O  O210  1  0.49909359  0.86263955  0.74841677  1
  O  O211  1  0.49160010  0.14365137  0.25438619  1
  O  O212  1  0.49797277  0.12935986  0.74571776  1
  O  O213  1  0.54584018  0.64631287  0.24404261  1
  O  O214  1  0.48778308  0.63532973  0.75696800  1
  O  O215  1  0.99151065  0.12917504  0.24213757  1
  O  O216  1  0.98577178  0.12425844  0.75970350  1
  O  O217  1  0.98807390  0.62510727  0.23791787  1
  O  O218  1  1.00747471  0.62693825  0.73362646  1
  O  O219  1  0.36494757  0.24794466  0.00616680  1
  O  O220  1  0.38293100  0.24674402  0.51443080  1
  O  O221  1  0.36709039  0.75970106  0.00405624  1
  O  O222  1  0.36949805  0.75179981  0.50469529  1
  O  O223  1  0.86121901  0.24223041  -0.00379017  1
  O  O224  1  0.86985675  0.25382737  0.50508090  1
  O  O225  1  0.86211979  0.74581692  0.01397119  1
  O  O226  1  0.86861745  0.75645622  0.51181950  1
  O  O227  1  0.11747575  0.24923076  0.47677290  1
  O  O228  1  0.13012257  0.24086554  0.99002897  1
  O  O229  1  0.13840280  0.75358221  0.50172736  1
  O  O230  1  0.13229709  0.74051411  1.00294647  1
  O  O231  1  0.63369391  0.24913925  0.49377434  1
  O  O232  1  0.62982387  0.24206161  0.99683809  1
  O  O233  1  0.63006274  0.74328953  0.49827344  1
  O  O234  1  0.62481866  0.74324034  0.99805231  1
  O  O235  1  0.49761896  0.24968629  0.13426355  1
  O  O236  1  0.49595663  0.24511006  0.63179476  1
  O  O237  1  0.47782890  0.76283092  0.12994398  1
  O  O238  1  0.48617908  0.75198887  0.63231531  1
  O  O239  1  1.00268183  0.23751609  0.13277641  1
  O  O240  1  0.99026075  0.24784743  0.62348990  1
  O  O241  1  0.98692318  0.74395579  0.12127881  1
  O  O242  1  0.99088737  0.74175429  0.63058779  1
  O  O243  1  0.00798391  0.25024193  0.35911072  1
  O  O244  1  0.01005276  0.25359370  0.87444465  1
  O  O245  1  -0.00215593  0.75537343  0.36978378  1
  O  O246  1  -0.00825225  0.76306181  0.87786897  1
  O  O247  1  0.51136212  0.25306642  0.36941186  1
  O  O248  1  0.50617375  0.25771078  0.87436200  1
  O  O249  1  0.51072431  0.75839906  0.37257174  1
  O  O250  1  0.50510938  0.74717376  0.86839164  1
  O  O251  1  0.24215044  0.14489574  0.53831087  1
  O  O252  1  0.24246695  0.13081372  0.99333634  1
  O  O253  1  0.24647496  0.63886562  0.50152640  1
  O  O254  1  0.24250816  0.63223322  0.99371433  1
  O  O255  1  0.75072285  0.13228113  0.49101989  1
  O  O256  1  0.74302546  0.13248497  0.99660992  1
  O  O257  1  0.74313344  0.62855935  0.49527862  1
  O  O258  1  0.74169208  0.63454597  0.99342945  1
  O  O259  1  0.24785192  0.36119121  -0.00858340  1
  O  O260  1  0.25146193  0.35780772  0.49995817  1
  O  O261  1  0.25281263  0.87003199  0.00435577  1
  O  O262  1  0.25825327  0.86316837  0.50504016  1
  O  O263  1  0.75200778  0.35706648  -0.00529916  1
  O  O264  1  0.76282911  0.36365517  0.49484599  1
  O  O265  1  0.74505235  0.86067303  0.00801908  1
  O  O266  1  0.75938480  0.87207764  0.51028537  1
  O  O267  1  0.13276056  0.49395372  0.24010523  1
  O  O268  1  0.12780062  0.48930469  0.73845738  1
  O  O269  1  0.11819544  0.98755667  0.24597781  1
  O  O270  1  0.12731952  0.98826614  0.74318659  1
  O  O271  1  0.63228091  0.50199793  0.24240528  1
  O  O272  1  0.62262848  0.49556254  0.74262249  1
  O  O273  1  0.63015214  1.00857048  0.24000607  1
  O  O274  1  0.63329119  0.99745411  0.75006430  1
  O  O275  1  0.38576531  0.01959321  0.24909033  1
  O  O276  1  0.37195727  0.00150856  0.75707404  1
  O  O277  1  0.35997279  0.50079380  0.24651584  1
  O  O278  1  0.37693696  0.50817309  0.75630398  1
  O  O279  1  0.86606949  0.00784941  0.25607657  1
  O  O280  1  0.86948809  0.00476627  0.75610816  1
  O  O281  1  0.86555320  0.50674575  0.25893887  1
  O  O282  1  0.87215778  0.49089300  0.75736498  1
  O  O283  1  0.12170343  0.37025639  0.36059854  1
  O  O284  1  0.11697579  0.36672344  0.86949551  1
  O  O285  1  0.12104619  0.87177843  0.35768172  1
  O  O286  1  0.11410265  0.87911358  0.86605497  1
  O  O287  1  0.62841037  0.36414281  0.37811037  1
  O  O288  1  0.61716300  0.37121042  0.87253609  1
  O  O289  1  0.61560824  0.86677512  0.38793284  1
  O  O290  1  0.62875747  0.85977727  0.87643353  1
  O  O291  1  0.37792905  0.13825452  0.13434176  1
  O  O292  1  0.38921426  0.13300987  0.63295291  1
  O  O293  1  0.36994054  0.64639117  0.12252246  1
  O  O294  1  0.37192617  0.63094433  0.63567689  1
  O  O295  1  0.87841558  0.12289713  0.13661598  1
  O  O296  1  0.87014928  0.13216884  0.63549876  1
  O  O297  1  0.87512569  0.63141629  0.12816485  1
  O  O298  1  0.88521086  0.62989755  0.62476289  1
  O  O299  1  0.25557706  0.24510181  0.11345386  1
  O  O300  1  0.27753617  0.26163796  0.64462049  1
  O  O301  1  0.25560761  0.75863882  0.11210817  1
  O  O302  1  0.26178050  0.75014644  0.61701840  1
  O  O303  1  0.74334904  0.24826292  0.11125890  1
  O  O304  1  0.75758436  0.24431483  0.61266885  1
  O  O305  1  0.74897309  0.75624604  0.12039897  1
  O  O306  1  0.75515186  0.75433318  0.62472600  1
  O  O307  1  0.23532617  0.24974951  0.36677595  1
  O  O308  1  0.24546571  0.24216290  0.87994299  1
  O  O309  1  0.25013471  0.75652589  0.38824212  1
  O  O310  1  0.25543680  0.73881334  0.88628472  1
  O  O311  1  0.74584288  0.24337433  0.38146256  1
  O  O312  1  0.74501555  0.24253149  0.88263006  1
  O  O313  1  0.74979171  0.74264711  0.38705491  1
  O  O314  1  0.74237759  0.74181056  0.88344761  1
  O  O315  1  0.00640506  0.11927887  0.00602380  1
  O  O316  1  -0.01067476  0.11156180  0.49580924  1
  O  O317  1  0.00604246  0.61807940  0.00013713  1
  O  O318  1  0.00270962  0.62863278  0.51902586  1
  O  O319  1  0.50909971  0.11617724  -0.00327283  1
  O  O320  1  0.50021637  0.11435155  0.50707331  1
  O  O321  1  0.50659596  0.61491198  -0.00380816  1
  O  O322  1  0.51059149  0.61803592  0.49452544  1
  O  O323  1  0.50418110  0.38881918  0.49736979  1
  O  O324  1  0.49888704  0.38197661  0.99082707  1
  O  O325  1  0.49577802  0.88685446  0.50056360  1
  O  O326  1  0.48596349  0.88087562  1.00190778  1
  O  O327  1  0.98543912  0.37033962  0.49518200  1
  O  O328  1  1.00239232  0.38080382  0.99198714  1
  O  O329  1  0.98624433  0.87835973  0.50341096  1
  O  O330  1  1.00567453  0.88696348  0.99533833  1
  O  O331  1  0.50022194  0.49512119  0.38689617  1
  O  O332  1  0.49585881  0.49491335  0.88473808  1
  O  O333  1  0.50004709  0.99481153  0.38314783  1
  O  O334  1  0.49249120  1.00026256  0.88686325  1
  O  O335  1  0.98698740  0.50184800  0.36867784  1
  O  O336  1  1.00371736  0.48957656  0.88162201  1
  O  O337  1  0.99174032  0.99439098  0.38398658  1
  O  O338  1  0.99241889  0.99146354  0.88290488  1
  O  O339  1  -0.00844405  0.01215685  0.11532249  1
  O  O340  1  0.00844882  -0.00686538  0.61886139  1
  O  O341  1  0.00706020  0.50569484  0.11610259  1
  O  O342  1  0.00706718  0.50736935  0.62663189  1
  O  O343  1  0.50798970  -0.00801278  0.11291963  1
  O  O344  1  0.50104013  0.00775685  0.61987851  1
  O  O345  1  0.50492300  0.49206491  0.11655333  1
  O  O346  1  0.50848981  0.50070290  0.61031012  1
  O  O347  1  0.23970282  0.38103055  0.24599142  1
  O  O348  1  0.23800630  0.37822607  0.75497841  1
  O  O349  1  0.23430861  0.87379175  0.22905451  1
  O  O350  1  0.24255999  0.87970425  0.75004325  1
  O  O351  1  0.75242048  0.38645997  0.25488445  1
  O  O352  1  0.73644615  0.37859900  0.76163856  1
  O  O353  1  0.75276108  0.88978515  0.24567826  1
  O  O354  1  0.74804056  0.88054048  0.74514579  1
  O  O355  1  0.26578360  0.12545381  0.24363168  1
  O  O356  1  0.25893119  0.11676165  0.75104946  1
  O  O357  1  0.24382703  0.61485192  0.24225972  1
  O  O358  1  0.25824006  0.62597874  0.75778590  1
  O  O359  1  0.75477684  0.11783059  0.25438853  1
  O  O360  1  0.75734044  0.11861448  0.75685321  1
  O  O361  1  0.75065883  0.61674769  0.26214643  1
  O  O362  1  0.74062373  0.62329449  0.76655313  1
  O  O363  1  0.37290291  0.12777310  0.36155224  1
  O  O364  1  0.37130033  0.11373874  0.87119157  1
  O  O365  1  0.39171899  0.60800254  0.36402040  1
  O  O366  1  0.36696302  0.62017530  0.86970281  1
  O  O367  1  0.86344607  0.12117125  0.36555147  1
  O  O368  1  0.86898860  0.11338381  0.86868302  1
  O  O369  1  0.86518891  0.62004252  0.37473997  1
  O  O370  1  0.85753712  0.62789567  0.87821611  1
  O  O371  1  0.11901207  0.38620157  0.12900075  1
  O  O372  1  0.12633188  0.37701373  0.63120283  1
  O  O373  1  0.13385073  0.87796767  0.12574652  1
  O  O374  1  0.12366950  0.88087290  0.63626588  1
  O  O375  1  0.63423022  0.38816095  0.11772483  1
  O  O376  1  0.61960605  0.38467167  0.63751390  1
  O  O377  1  0.63508884  0.88456595  0.12208302  1
  O  O378  1  0.63800880  0.87312875  0.62773737  1
  O  O379  1  0.11834923  0.25670372  0.25119372  1
  O  O380  1  0.12831387  0.25225128  0.76166913  1
  O  O381  1  0.11881075  0.76369874  0.24283411  1
  O  O382  1  0.12678622  0.75913274  0.74563017  1
  O  O383  1  0.61601012  0.24551232  0.25572796  1
  O  O384  1  0.62232465  0.25769500  0.75685238  1
  O  O385  1  0.65037772  0.76595654  0.26940482  1
  O  O386  1  0.61321925  0.75015389  0.75951291  1
  O  O387  1  0.38133359  0.24483290  0.24402846  1
  O  O388  1  0.38828344  0.24415802  0.75136738  1
  O  O389  1  0.36517709  0.76089447  0.23850401  1
  O  O390  1  0.37849762  0.74519925  0.74380330  1
  O  O391  1  0.88334324  0.24148074  0.25561154  1
  O  O392  1  0.87569467  0.24162664  0.74056733  1
  O  O393  1  0.87004990  0.74386133  0.23798332  1
  O  O394  1  0.87441658  0.75281742  0.74102251  1
  O  O395  1  0.38751550  0.50697577  0.49347748  1
  O  O396  1  0.38062178  0.49993569  0.99806470  1
  O  O397  1  0.38123037  0.99264193  0.49882950  1
  O  O398  1  0.38143232  0.99735039  0.99480781  1
  O  O399  1  0.86758507  0.49160242  0.49163212  1
  O  O400  1  0.88837578  0.50138793  0.99365397  1
  O  O401  1  0.87898755  0.99189666  0.49719071  1
  O  O402  1  0.88433570  1.00638058  0.99131003  1
  O  O403  1  0.11532103  0.01249214  -0.00787766  1
  O  O404  1  0.11560915  -0.00724219  0.51429416  1
  O  O405  1  0.11727649  0.50414284  0.00440269  1
  O  O406  1  0.12998715  0.49240116  0.50885178  1
  O  O407  1  0.61764960  0.00518288  0.00450512  1
  O  O408  1  0.61703550  0.00504951  0.50603395  1
  O  O409  1  0.61646956  0.50547527  0.00477520  1
  O  O410  1  0.61821185  0.50679301  0.50590830  1
  O  O411  1  0.37810063  0.35723657  0.12074819  1
  O  O412  1  0.38642560  0.36442410  0.63000040  1
  O  O413  1  0.35946868  0.87369613  0.11662991  1
  O  O414  1  0.37328340  0.86675889  0.61303128  1
  O  O415  1  0.86820012  0.37844619  0.11874523  1
  O  O416  1  0.87691243  0.36354085  0.61745539  1
  O  O417  1  0.85870860  0.86801585  0.12893909  1
  O  O418  1  0.86546057  0.86750098  0.62254936  1
  O  O419  1  0.12380594  0.13632062  0.36483974  1
  O  O420  1  0.12931708  0.13004211  0.87912572  1
  O  O421  1  0.12083324  0.63025141  0.37694422  1
  O  O422  1  0.13204305  0.61786278  0.88484479  1
  O  O423  1  0.63683538  0.13283943  0.37548228  1
  O  O424  1  0.63112053  0.12888440  0.88564332  1
  O  O425  1  0.63636080  0.63337675  0.38658929  1
  O  O426  1  0.63126625  0.63406154  0.88560012  1
