# generated using pymatgen
data_V85Zn86O256
_symmetry_space_group_name_H-M   'P 1'
_cell_length_a   16.93480373
_cell_length_b   16.92577428
_cell_length_c   16.93719480
_cell_angle_alpha   90.01841060
_cell_angle_beta   89.94216725
_cell_angle_gamma   89.96708446
_symmetry_Int_Tables_number   1
_chemical_formula_structural   V85Zn86O256
_chemical_formula_sum   'V85 Zn86 O256'
_cell_volume   4854.78363967
_cell_formula_units_Z   1
loop_
 _symmetry_equiv_pos_site_id
 _symmetry_equiv_pos_as_xyz
  1  'x, y, z'
loop_
 _atom_site_type_symbol
 _atom_site_label
 _atom_site_symmetry_multiplicity
 _atom_site_fract_x
 _atom_site_fract_y
 _atom_site_fract_z
 _atom_site_occupancy
  V  V0  1  0.38282217  0.12957556  0.75095866  1
  V  V1  1  0.12278237  0.74846892  0.38084508  1
  V  V2  1  0.63322317  0.87546753  0.24722221  1
  V  V3  1  0.24630411  0.37808279  0.12463150  1
  V  V4  1  0.24940981  0.62666742  0.38417146  1
  V  V5  1  -0.00304706  0.00235904  0.50058379  1
  V  V6  1  0.87041489  0.13407472  0.24935415  1
  V  V7  1  0.36811089  0.75071976  0.11724204  1
  V  V8  1  0.75591004  0.37098725  0.11861140  1
  V  V9  1  0.37402451  0.62585655  0.25112050  1
  V  V10  1  0.74095456  0.88499160  0.64126065  1
  V  V11  1  0.37042191  0.75871055  0.62550076  1
  V  V12  1  -0.01234770  0.24603693  0.74810411  1
  V  V13  1  0.49968704  0.62900155  0.62520593  1
  V  V14  1  -0.01205375  0.12822950  0.62974144  1
  V  V15  1  0.50197229  0.50048803  0.50104406  1
  V  V16  1  0.63468759  -0.00398822  0.12219139  1
  V  V17  1  0.86487896  0.00768946  0.37442986  1
  V  V18  1  0.75082088  0.62740758  0.87025026  1
  V  V19  1  0.62619352  0.62423304  0.50088482  1
  V  V20  1  -0.00056718  0.50281360  0.49005870  1
  V  V21  1  0.62309058  0.76592155  0.87132916  1
  V  V22  1  0.61941611  0.49748434  0.12318207  1
  V  V23  1  0.49782556  0.75209139  0.24845123  1
  V  V24  1  0.24217982  0.87924229  0.11785415  1
  V  V25  1  0.50344490  0.11953251  0.12175983  1
  V  V26  1  0.12686164  0.61798898  0.00478442  1
  V  V27  1  0.75655621  0.24471979  0.50203513  1
  V  V28  1  0.24618434  0.24991498  0.50579302  1
  V  V29  1  0.37773238  0.37745328  0.50593404  1
  V  V30  1  0.87843355  0.87845991  -0.00396894  1
  V  V31  1  0.24757925  0.49856156  0.24770103  1
  V  V32  1  0.54657830  0.44450647  -0.06081755  1
  V  V33  1  0.25026419  -0.00446921  0.74512269  1
  V  V34  1  0.00368174  0.62002858  0.12709717  1
  V  V35  1  0.74757547  0.49875029  0.25345496  1
  V  V36  1  0.12374290  0.37471077  0.75186894  1
  V  V37  1  -0.00169382  0.75147682  0.75790699  1
  V  V38  1  0.12628111  0.11898427  0.00711066  1
  V  V39  1  0.63120629  0.24446083  0.37592755  1
  V  V40  1  0.87235380  0.62677740  0.25194204  1
  V  V41  1  0.00184127  -0.00233146  0.00474659  1
  V  V42  1  0.74723928  0.12142584  0.85515028  1
  V  V43  1  0.87708888  0.37849792  0.48496609  1
  V  V44  1  0.87207551  0.75720107  0.12595415  1
  V  V45  1  0.60559085  0.00733114  0.62614963  1
  V  V46  1  0.86891423  0.87646207  0.50138006  1
  V  V47  1  -0.00240978  0.87629407  0.37542076  1
  V  V48  1  0.50349437  0.25763818  0.77065579  1
  V  V49  1  0.12410250  0.24602137  0.87203149  1
  V  V50  1  0.12544461  0.75386708  0.88305780  1
  V  V51  1  0.49945920  0.88068082  0.37992919  1
  V  V52  1  0.24513023  0.76086144  0.50524439  1
  V  V53  1  0.87360286  0.61673889  0.74843140  1
  V  V54  1  0.74875141  0.75731571  0.00400107  1
  V  V55  1  0.12156620  0.50644931  0.62441368  1
  V  V56  1  0.62454118  0.75034797  0.37585256  1
  V  V57  1  0.50250288  -0.01096967  -0.00503558  1
  V  V58  1  0.37678218  0.25041311  0.12240953  1
  V  V59  1  0.37733075  0.37551591  -0.00517597  1
  V  V60  1  0.37637114  -0.00009070  0.37809897  1
  V  V61  1  0.75932714  0.37541692  0.63442105  1
  V  V62  1  0.37370023  0.12274544  0.24638791  1
  V  V63  1  0.75230391  0.24397943  -0.00929689  1
  V  V64  1  0.24348942  0.12456725  0.37173090  1
  V  V65  1  0.12332206  0.87399898  0.75272308  1
  V  V66  1  0.12135180  0.12659390  0.50194742  1
  V  V67  1  0.50183081  0.76450707  0.75319521  1
  V  V68  1  0.37371286  0.50043025  0.87830786  1
  V  V69  1  0.00042363  0.75127643  0.25150927  1
  V  V70  1  0.11744821  0.26335432  0.36947548  1
  V  V71  1  0.12504876  -0.00592072  0.62369544  1
  V  V72  1  0.75324760  0.62131204  0.37726187  1
  V  V73  1  0.43432267  0.19444045  0.57965009  1
  V  V74  1  0.87827576  0.00391428  0.86188762  1
  V  V75  1  0.37462722  0.62611625  0.75065991  1
  V  V76  1  0.50377138  0.25221822  0.24709146  1
  V  V77  1  0.63104999  0.49910331  0.63471835  1
  V  V78  1  0.38139788  -0.01001997  0.87181636  1
  V  V79  1  0.62075560  0.62692499  -0.00176922  1
  V  V80  1  0.24926205  0.62995330  0.88109938  1
  V  V81  1  0.25121100  0.37388562  0.62698931  1
  V  V82  1  0.87281671  0.75127427  0.62752569  1
  V  V83  1  0.87837948  0.49831031  0.88468978  1
  V  V84  1  0.25025218  0.12303917  0.87309241  1
  Zn  Zn85  1  0.62204517  0.12056574  0.50061759  1
  Zn  Zn86  1  0.74998464  0.00374592  0.25019746  1
  Zn  Zn87  1  0.12155728  0.88226472  0.24507420  1
  Zn  Zn88  1  -0.00001369  0.48978948  0.01219830  1
  Zn  Zn89  1  0.00254867  0.62644520  0.62227187  1
  Zn  Zn90  1  0.23945405  0.00195101  0.24319875  1
  Zn  Zn91  1  0.62656844  0.37316632  0.25096746  1
  Zn  Zn92  1  0.62425013  0.12545219  -0.01223394  1
  Zn  Zn93  1  0.00421676  0.12403182  0.13090918  1
  Zn  Zn94  1  -0.00817461  0.36962448  0.87996057  1
  Zn  Zn95  1  0.37524212  0.88109194  0.50446192  1
  Zn  Zn96  1  0.37517255  0.49835125  0.37616502  1
  Zn  Zn97  1  0.37297332  0.86808374  -0.00590254  1
  Zn  Zn98  1  0.25133595  0.24985377  -0.00138962  1
  Zn  Zn99  1  0.24926850  0.50012039  0.75033247  1
  Zn  Zn100  1  0.62392767  0.37496346  0.76112515  1
  Zn  Zn101  1  0.08311948  0.43103222  0.19389257  1
  Zn  Zn102  1  0.88355261  0.25354235  0.11498666  1
  Zn  Zn103  1  0.00144298  0.26316060  0.24677308  1
  Zn  Zn104  1  0.74812536  0.74969014  0.50283129  1
  Zn  Zn105  1  0.49628478  0.62082357  0.12097999  1
  Zn  Zn106  1  0.50166496  0.37605702  0.37512232  1
  Zn  Zn107  1  0.18835912  0.19292039  0.18727317  1
  Zn  Zn108  1  0.18411627  0.18342936  0.68730109  1
  Zn  Zn109  1  0.18784155  0.69191299  0.19021042  1
  Zn  Zn110  1  0.18900552  0.68716986  0.69080412  1
  Zn  Zn111  1  0.69107936  0.18579529  0.18423368  1
  Zn  Zn112  1  0.67925723  0.19089355  0.68326657  1
  Zn  Zn113  1  0.68590151  0.68682428  0.18604151  1
  Zn  Zn114  1  0.68813774  0.69277976  0.68825456  1
  Zn  Zn115  1  0.31207959  0.31318343  0.31440089  1
  Zn  Zn116  1  0.31487488  0.31119052  0.81125962  1
  Zn  Zn117  1  0.30821585  0.81584996  0.30801478  1
  Zn  Zn118  1  0.30701584  0.81191102  0.80874025  1
  Zn  Zn119  1  0.80928879  0.31270463  0.31340268  1
  Zn  Zn120  1  0.80914537  0.31132005  0.81368467  1
  Zn  Zn121  1  0.81095863  0.81193184  0.31613473  1
  Zn  Zn122  1  0.81386222  0.81444253  0.81670386  1
  Zn  Zn123  1  0.18775382  0.44159633  0.44052610  1
  Zn  Zn124  1  0.18724731  0.43692893  0.93796101  1
  Zn  Zn125  1  0.18520729  0.93802993  0.43207930  1
  Zn  Zn126  1  0.18943509  0.93602852  0.93710026  1
  Zn  Zn127  1  0.68776232  0.43268293  0.43916968  1
  Zn  Zn128  1  0.71222464  0.43869110  0.93737106  1
  Zn  Zn129  1  0.68483655  0.93904397  0.44252781  1
  Zn  Zn130  1  0.69567020  0.94315176  0.93576899  1
  Zn  Zn131  1  0.31465641  0.05746566  0.05855061  1
  Zn  Zn132  1  0.30781846  0.05789554  0.55984054  1
  Zn  Zn133  1  0.31301201  0.56166180  0.06087515  1
  Zn  Zn134  1  0.31144121  0.56407948  0.56485344  1
  Zn  Zn135  1  0.81480466  0.06736632  0.06097818  1
  Zn  Zn136  1  0.80957678  0.06140625  0.56835137  1
  Zn  Zn137  1  0.80854807  0.56812782  0.06536694  1
  Zn  Zn138  1  0.81447400  0.55839360  0.56278858  1
  Zn  Zn139  1  0.43460051  0.43777214  0.18513991  1
  Zn  Zn140  1  0.44003315  0.43567002  0.68958897  1
  Zn  Zn141  1  0.43474404  0.93594887  0.18859696  1
  Zn  Zn142  1  0.43869542  0.93947865  0.68653676  1
  Zn  Zn143  1  0.92339862  0.43592532  0.19715163  1
  Zn  Zn144  1  0.94035433  0.43599385  0.68927592  1
  Zn  Zn145  1  0.93683330  0.94068819  0.18728928  1
  Zn  Zn146  1  0.94118558  0.93384372  0.68560405  1
  Zn  Zn147  1  0.05664005  0.06477575  0.31105756  1
  Zn  Zn148  1  0.05747608  0.06063822  0.81482237  1
  Zn  Zn149  1  0.06461780  0.56769813  0.31630053  1
  Zn  Zn150  1  0.06065754  0.56474296  0.81190803  1
  Zn  Zn151  1  0.56395092  0.06343090  0.31193746  1
  Zn  Zn152  1  0.56477433  0.05780037  0.80482286  1
  Zn  Zn153  1  0.56258404  0.56279556  0.31302245  1
  Zn  Zn154  1  0.56522761  0.57605544  0.80752397  1
  Zn  Zn155  1  0.43517279  0.19085077  0.41822238  1
  Zn  Zn156  1  0.43727734  0.18138589  0.93909898  1
  Zn  Zn157  1  0.43481004  0.69092194  0.43846575  1
  Zn  Zn158  1  0.44116315  0.68767219  0.93501312  1
  Zn  Zn159  1  0.93584803  0.19006306  0.43598734  1
  Zn  Zn160  1  0.93624234  0.18166372  0.93587891  1
  Zn  Zn161  1  0.93584988  0.68494812  0.44095375  1
  Zn  Zn162  1  0.93996386  0.68513508  0.94056277  1
  Zn  Zn163  1  0.05895821  0.30615440  0.05549128  1
  Zn  Zn164  1  0.05866336  0.31568578  0.56373122  1
  Zn  Zn165  1  0.05876422  0.80995192  0.06096584  1
  Zn  Zn166  1  0.05904170  0.81258216  0.56371600  1
  Zn  Zn167  1  0.57240063  0.30588335  0.06242225  1
  Zn  Zn168  1  0.57315102  0.31700671  0.56182620  1
  Zn  Zn169  1  0.56097635  0.81235278  0.06455461  1
  Zn  Zn170  1  0.56259967  0.81498124  0.56346316  1
  O  O171  1  0.13182459  0.12823558  0.10969338  1
  O  O172  1  0.11947626  0.11269325  0.61962294  1
  O  O173  1  0.11698313  0.63504859  0.11687709  1
  O  O174  1  0.12495379  0.61023988  0.63211087  1
  O  O175  1  0.61354019  0.11536178  0.12688222  1
  O  O176  1  0.62289945  0.11321775  0.62043017  1
  O  O177  1  0.62533153  0.61638111  0.11491264  1
  O  O178  1  0.62223764  0.62062031  0.61976474  1
  O  O179  1  0.37764152  0.37392530  0.39134987  1
  O  O180  1  0.37165759  0.38276017  0.88625758  1
  O  O181  1  0.38093670  0.88372407  0.37164349  1
  O  O182  1  0.36780501  0.88620212  0.87319549  1
  O  O183  1  0.87002061  0.38028125  0.38677197  1
  O  O184  1  0.86943888  0.39555018  0.86940833  1
  O  O185  1  0.87878680  0.87934828  0.38376867  1
  O  O186  1  0.86860120  0.88908532  0.88467354  1
  O  O187  1  0.25413343  0.01334742  0.37543776  1
  O  O188  1  0.25532023  0.00545218  0.86257971  1
  O  O189  1  0.25245272  0.50987706  0.37132312  1
  O  O190  1  0.25836168  0.50802764  0.87332490  1
  O  O191  1  0.76191683  -0.00583251  0.37464545  1
  O  O192  1  0.76292269  0.01159820  0.87319582  1
  O  O193  1  0.73918229  0.50886237  0.36601169  1
  O  O194  1  0.76372585  0.51759757  0.87554157  1
  O  O195  1  0.25775796  0.49159243  0.13429720  1
  O  O196  1  0.24131033  0.49305664  0.62523546  1
  O  O197  1  0.25571332  0.98445799  0.12477042  1
  O  O198  1  0.24164107  1.00463640  0.63695266  1
  O  O199  1  0.73902459  0.49527206  0.12761671  1
  O  O200  1  0.74317951  0.48806646  0.62231749  1
  O  O201  1  0.73726431  1.00365770  0.12457407  1
  O  O202  1  0.75177150  0.98612703  0.62945867  1
  O  O203  1  0.00207689  0.37834882  0.24755796  1
  O  O204  1  0.00821725  0.36617030  0.75625183  1
  O  O205  1  -0.00297372  0.86766653  0.25702928  1
  O  O206  1  0.01311193  0.86637199  0.74719210  1
  O  O207  1  0.50019421  0.36233187  0.24669702  1
  O  O208  1  0.49964172  0.36239426  0.75444518  1
  O  O209  1  0.50580718  0.86771869  0.25809289  1
  O  O210  1  0.49469355  0.86372943  0.75078354  1
  O  O211  1  0.49518445  0.13370895  0.24233347  1
  O  O212  1  0.48933033  0.13544685  0.75448782  1
  O  O213  1  0.48934930  0.63177973  0.25020902  1
  O  O214  1  0.49142478  0.63491234  0.74204167  1
  O  O215  1  0.98562395  0.13018076  0.24989074  1
  O  O216  1  1.00733761  0.13454837  0.74199921  1
  O  O217  1  0.99397386  0.63142475  0.24715843  1
  O  O218  1  0.99212525  0.63454737  0.74541985  1
  O  O219  1  0.37480310  0.25701670  0.00380001  1
  O  O220  1  0.37308811  0.25205199  0.50873362  1
  O  O221  1  0.38324761  0.74896815  0.01331261  1
  O  O222  1  0.36613302  0.75258379  0.50912125  1
  O  O223  1  0.86042573  0.24146601  -0.00027656  1
  O  O224  1  0.86661104  0.26343383  0.49647567  1
  O  O225  1  0.86981059  0.75594897  0.00511298  1
  O  O226  1  0.87447832  0.75794219  0.51075071  1
  O  O227  1  0.13118939  0.24839935  0.49375632  1
  O  O228  1  0.13001788  0.23895254  0.98494923  1
  O  O229  1  0.13122266  0.75290917  0.49565042  1
  O  O230  1  0.11630439  0.74004581  0.98697981  1
  O  O231  1  0.63655911  0.24802084  0.49393299  1
  O  O232  1  0.64333737  0.24141587  1.00214838  1
  O  O233  1  0.62542891  0.74216881  0.49485826  1
  O  O234  1  0.63133245  0.74608964  0.99641981  1
  O  O235  1  0.49836988  0.24060766  0.12822465  1
  O  O236  1  0.49740154  0.25492308  0.63006014  1
  O  O237  1  0.49349790  0.74783928  0.13704493  1
  O  O238  1  0.49261736  0.74704175  0.63015450  1
  O  O239  1  0.99959705  0.24352288  0.12826056  1
  O  O240  1  1.00893566  0.24097398  0.63629492  1
  O  O241  1  0.99219965  0.74138393  0.13134191  1
  O  O242  1  0.98815767  0.74975476  0.63381059  1
  O  O243  1  0.01502747  0.25173759  0.37682729  1
  O  O244  1  0.00857341  0.24605068  0.86688396  1
  O  O245  1  0.00464597  0.75304508  0.37380366  1
  O  O246  1  0.00692401  0.74474965  0.86459692  1
  O  O247  1  0.50737704  0.25484423  0.36230037  1
  O  O248  1  0.49997521  0.24895208  0.86971067  1
  O  O249  1  0.50335690  0.75430736  0.36407241  1
  O  O250  1  0.51065059  0.74690854  0.86576923  1
  O  O251  1  0.24361285  0.13260216  0.49443148  1
  O  O252  1  0.24631388  0.12110386  0.98677491  1
  O  O253  1  0.25610283  0.63346860  0.48803553  1
  O  O254  1  0.24398731  0.62361018  0.99027423  1
  O  O255  1  0.75502757  0.14261004  0.50783921  1
  O  O256  1  0.74723698  0.13133077  0.99246497  1
  O  O257  1  0.74623644  0.62428594  0.49322839  1
  O  O258  1  0.74093154  0.63601736  0.99395231  1
  O  O259  1  0.26025803  0.37465837  0.00557121  1
  O  O260  1  0.25798391  0.36768797  0.50500361  1
  O  O261  1  0.25441010  0.87599997  0.01151229  1
  O  O262  1  0.25245584  0.86392817  0.49500640  1
  O  O263  1  0.74908467  0.35826358  0.00503038  1
  O  O264  1  0.76216947  0.37258261  0.50812703  1
  O  O265  1  0.75967794  0.86397295  -0.00080700  1
  O  O266  1  0.76089460  0.87247367  0.50532369  1
  O  O267  1  0.14232279  0.51066822  0.25126443  1
  O  O268  1  0.12434607  0.49073471  0.74594112  1
  O  O269  1  0.12639121  0.99549037  0.26036801  1
  O  O270  1  0.12940382  0.99353944  0.74602715  1
  O  O271  1  0.63197113  0.50036985  0.24154130  1
  O  O272  1  0.61830152  0.50095008  0.73730537  1
  O  O273  1  0.62626857  0.99252940  0.24297238  1
  O  O274  1  0.61911048  0.99603791  0.72753900  1
  O  O275  1  0.37106844  0.00729632  0.25929771  1
  O  O276  1  0.36895055  0.00696816  0.75242868  1
  O  O277  1  0.36932447  0.50918708  0.25370369  1
  O  O278  1  0.37603568  0.50536990  0.76179859  1
  O  O279  1  0.87273198  0.00818146  0.25809686  1
  O  O280  1  0.88452813  -0.00519752  0.76355356  1
  O  O281  1  0.85515410  0.51275412  0.24580285  1
  O  O282  1  0.88046241  0.51386433  0.75697673  1
  O  O283  1  0.13565390  0.36086612  0.37776798  1
  O  O284  1  0.13042634  0.36586243  0.86355028  1
  O  O285  1  0.11495005  0.86402479  0.37761662  1
  O  O286  1  0.12954503  0.86477854  0.86695992  1
  O  O287  1  0.62201474  0.36202983  0.37272342  1
  O  O288  1  0.61967450  0.39624695  0.87971456  1
  O  O289  1  0.61793146  0.87122648  0.36937805  1
  O  O290  1  0.63250706  0.86453960  0.88029885  1
  O  O291  1  0.38526121  0.12721594  0.12546891  1
  O  O292  1  0.37344791  0.12667426  0.63169469  1
  O  O293  1  0.37502153  0.63207345  0.13251582  1
  O  O294  1  0.37945023  0.63399803  0.63056973  1
  O  O295  1  0.87655009  0.12627565  0.13916845  1
  O  O296  1  0.88879966  0.12167008  0.62415627  1
  O  O297  1  0.88175358  0.63505871  0.13027065  1
  O  O298  1  0.87167375  0.63411218  0.63291443  1
  O  O299  1  0.26094539  0.25783944  0.12280850  1
  O  O300  1  0.24271027  0.25366979  0.61328346  1
  O  O301  1  0.25996573  0.75972262  0.12928524  1
  O  O302  1  0.25678672  0.74331021  0.61626832  1
  O  O303  1  0.75376195  0.25575395  0.11603154  1
  O  O304  1  0.74261510  0.26591883  0.61345495  1
  O  O305  1  0.75907157  0.74348169  0.11605256  1
  O  O306  1  0.75927110  0.76029107  0.62412069  1
  O  O307  1  0.24692515  0.24044015  0.38480554  1
  O  O308  1  0.24477488  0.23890986  0.87345614  1
  O  O309  1  0.24261099  0.74696227  0.38128156  1
  O  O310  1  0.23983136  0.74113399  0.87149871  1
  O  O311  1  0.74353478  0.25493668  0.38944048  1
  O  O312  1  0.75433254  0.23619594  0.88106944  1
  O  O313  1  0.74106085  0.74191328  0.37799312  1
  O  O314  1  0.74568230  0.74376147  0.88336528  1
  O  O315  1  0.01022813  0.11703241  0.00121785  1
  O  O316  1  0.00388927  0.12209385  0.50656820  1
  O  O317  1  0.00691955  0.62096065  0.01159715  1
  O  O318  1  -0.00738263  0.60852954  0.50546138  1
  O  O319  1  0.50389572  0.11386737  0.00671689  1
  O  O320  1  0.48926195  0.14338251  0.51140742  1
  O  O321  1  0.51590743  0.62996090  0.00198957  1
  O  O322  1  0.50362712  0.61961828  0.50502192  1
  O  O323  1  0.49500030  0.38323617  0.50264568  1
  O  O324  1  0.49701850  0.37479329  1.00213276  1
  O  O325  1  0.49599836  0.86637584  0.48314171  1
  O  O326  1  0.49586031  0.88559166  1.00274586  1
  O  O327  1  0.98392332  0.38204941  0.50541769  1
  O  O328  1  1.00755769  0.37980740  0.99068413  1
  O  O329  1  0.98683006  0.88103583  0.49843092  1
  O  O330  1  0.98748139  0.87968968  1.00166011  1
  O  O331  1  0.49998088  0.49872777  0.38814440  1
  O  O332  1  0.49381670  0.50966949  0.87520753  1
  O  O333  1  0.49072421  0.99255913  0.36911926  1
  O  O334  1  0.49216059  1.00497732  0.88102344  1
  O  O335  1  1.00678313  0.50295513  0.39079724  1
  O  O336  1  0.98488579  0.50447371  0.87604764  1
  O  O337  1  0.98814280  0.99526518  0.38401840  1
  O  O338  1  0.98570595  1.00528821  0.88636659  1
  O  O339  1  -0.00285438  0.00295420  0.11033707  1
  O  O340  1  0.00616647  0.00610409  0.61963437  1
  O  O341  1  0.00066789  0.51133523  0.13213766  1
  O  O342  1  0.00700700  0.50055775  0.61991515  1
  O  O343  1  0.50420279  0.00449766  0.11823869  1
  O  O344  1  0.50556546  -0.00279633  0.61661394  1
  O  O345  1  0.51405780  0.50130137  0.12971565  1
  O  O346  1  0.50596183  0.50629929  0.61673287  1
  O  O347  1  0.25975188  0.38597066  0.24075862  1
  O  O348  1  0.24429741  0.37554428  0.74360561  1
  O  O349  1  0.24616303  0.87758293  0.23540704  1
  O  O350  1  0.23694231  0.88310701  0.74873125  1
  O  O351  1  0.74791741  0.38334979  0.24280025  1
  O  O352  1  0.74391912  0.36937109  0.73851246  1
  O  O353  1  0.73619206  0.87490953  0.25354442  1
  O  O354  1  0.74946284  0.86921977  0.73877330  1
  O  O355  1  0.25511974  0.12583318  0.25672751  1
  O  O356  1  0.25830765  0.11999786  0.75654910  1
  O  O357  1  0.25986973  0.62316137  0.25793048  1
  O  O358  1  0.25704844  0.62267863  0.76171922  1
  O  O359  1  0.76399031  0.12357133  0.25000748  1
  O  O360  1  0.75055597  0.13458110  0.75716337  1
  O  O361  1  0.75011067  0.62035437  0.25791084  1
  O  O362  1  0.75982165  0.63498944  0.75983346  1
  O  O363  1  0.36507756  0.11937886  0.36746476  1
  O  O364  1  0.36782803  0.11593064  0.86738439  1
  O  O365  1  0.36795633  0.62612101  0.36715027  1
  O  O366  1  0.36794523  0.62051703  0.87345234  1
  O  O367  1  0.87754685  0.11842056  0.36511342  1
  O  O368  1  0.86566781  0.11149436  0.87426607  1
  O  O369  1  0.86033866  0.63176746  0.36990528  1
  O  O370  1  0.86984220  0.62292132  0.86888816  1
  O  O371  1  0.14239275  0.36974824  0.11667500  1
  O  O372  1  0.12889078  0.38088972  0.63649897  1
  O  O373  1  0.13866716  0.86569630  0.12253636  1
  O  O374  1  0.11957888  0.88775737  0.63081274  1
  O  O375  1  0.63507327  0.38175409  0.12646570  1
  O  O376  1  0.63604986  0.38567179  0.62756286  1
  O  O377  1  0.61814658  0.88354495  0.13526352  1
  O  O378  1  0.63685238  0.88185156  0.61912528  1
  O  O379  1  0.12602131  0.24732252  0.26599482  1
  O  O380  1  0.12266440  0.25446896  0.75875679  1
  O  O381  1  0.11599822  0.75407726  0.26058834  1
  O  O382  1  0.11876296  0.75536050  0.75631100  1
  O  O383  1  0.61994778  0.24840356  0.25491238  1
  O  O384  1  0.60711464  0.25273414  0.74990461  1
  O  O385  1  0.61679544  0.75581305  0.25273225  1
  O  O386  1  0.61476069  0.74661324  0.75917892  1
  O  O387  1  0.38305394  0.24404163  0.24410348  1
  O  O388  1  0.38746688  0.24260154  0.75259600  1
  O  O389  1  0.38067631  0.74424773  0.24428855  1
  O  O390  1  0.37848167  0.74560804  0.74392655  1
  O  O391  1  0.87525911  0.24206346  0.25148599  1
  O  O392  1  0.88897025  0.25490577  0.75385133  1
  O  O393  1  0.87807556  0.74706217  0.24374342  1
  O  O394  1  0.88216334  0.74618506  0.74710298  1
  O  O395  1  0.38333226  0.49416260  0.50029723  1
  O  O396  1  0.37824027  0.49473202  0.98805134  1
  O  O397  1  0.36950403  0.99879492  0.48467945  1
  O  O398  1  0.38444717  0.99822145  0.98745242  1
  O  O399  1  0.88620838  0.48925257  0.50302077  1
  O  O400  1  0.87556639  0.51023916  0.98796363  1
  O  O401  1  0.87634613  0.99464502  0.49501636  1
  O  O402  1  0.87952314  0.99326305  0.99607883  1
  O  O403  1  0.11545921  0.00757440  -0.01139114  1
  O  O404  1  0.11978347  0.00341887  0.50657336  1
  O  O405  1  0.12329414  0.51460811  -0.00488645  1
  O  O406  1  0.10984567  0.48976018  0.51072236  1
  O  O407  1  0.61953563  -0.00038985  0.00594979  1
  O  O408  1  0.63108317  0.00443678  0.51534848  1
  O  O409  1  0.62223284  0.50408470  0.00087213  1
  O  O410  1  0.61847802  0.50396369  0.50818717  1
  O  O411  1  0.37063128  0.37228451  0.11207897  1
  O  O412  1  0.36879080  0.38051027  0.61461290  1
  O  O413  1  0.36716570  0.86570529  0.12395243  1
  O  O414  1  0.37529759  0.86316768  0.62421435  1
  O  O415  1  0.85961971  0.37609114  0.12310997  1
  O  O416  1  0.86146653  0.38045843  0.62400300  1
  O  O417  1  0.87780145  0.86286456  0.11925839  1
  O  O418  1  0.86748521  0.87001577  0.62067610  1
  O  O419  1  0.13043208  0.13234473  0.38352033  1
  O  O420  1  0.13355382  0.12916381  0.87635812  1
  O  O421  1  0.13409275  0.63982887  0.37413153  1
  O  O422  1  0.13181009  0.63123757  0.87951384  1
  O  O423  1  0.61725270  0.13809057  0.38143693  1
  O  O424  1  0.64259976  0.11363380  0.87088911  1
  O  O425  1  0.63190085  0.63035993  0.38025391  1
  O  O426  1  0.63470872  0.63236698  0.88097945  1
