# generated using pymatgen
data_V85Zn86O256
_symmetry_space_group_name_H-M   'P 1'
_cell_length_a   16.90885337
_cell_length_b   16.91248813
_cell_length_c   16.91349361
_cell_angle_alpha   90.03629580
_cell_angle_beta   89.99341470
_cell_angle_gamma   90.05086631
_symmetry_Int_Tables_number   1
_chemical_formula_structural   V85Zn86O256
_chemical_formula_sum   'V85 Zn86 O256'
_cell_volume   4836.76208551
_cell_formula_units_Z   1
loop_
 _symmetry_equiv_pos_site_id
 _symmetry_equiv_pos_as_xyz
  1  'x, y, z'
loop_
 _atom_site_type_symbol
 _atom_site_label
 _atom_site_symmetry_multiplicity
 _atom_site_fract_x
 _atom_site_fract_y
 _atom_site_fract_z
 _atom_site_occupancy
  V  V0  1  0.62610621  0.62474279  0.50037899  1
  V  V1  1  0.87069662  0.11634018  0.24882105  1
  V  V2  1  0.24902081  0.87119186  0.12164943  1
  V  V3  1  0.00001571  0.37527324  0.86925730  1
  V  V4  1  0.74780592  0.74914191  -0.00251826  1
  V  V5  1  0.75500281  0.75105763  0.49773735  1
  V  V6  1  0.50090910  0.62489065  0.62613400  1
  V  V7  1  0.49318949  0.12205721  0.13164889  1
  V  V8  1  0.11530063  0.25062333  0.38076504  1
  V  V9  1  0.37101851  0.26694303  0.62206233  1
  V  V10  1  0.37494034  0.11931384  0.73918375  1
  V  V11  1  0.63081599  0.38345292  0.75064326  1
  V  V12  1  0.00094347  0.62246763  0.62619346  1
  V  V13  1  0.61969436  0.87202768  0.24851030  1
  V  V14  1  0.87566459  0.25144525  0.12623702  1
  V  V15  1  0.88462104  0.49044152  0.36867448  1
  V  V16  1  0.25120117  0.00776701  0.24886576  1
  V  V17  1  0.36244272  0.62271279  0.75459454  1
  V  V18  1  0.87367549  0.23447683  0.62546255  1
  V  V19  1  0.49986408  0.37670689  0.87790670  1
  V  V20  1  0.49935285  0.24760952  0.74438382  1
  V  V21  1  0.37260382  0.24537581  0.13607821  1
  V  V22  1  0.37574853  0.00797925  0.36971143  1
  V  V23  1  0.24916815  0.37275567  0.12818002  1
  V  V24  1  0.74570592  0.12867347  0.37152702  1
  V  V25  1  0.37164087  0.74456963  0.14053807  1
  V  V26  1  0.75945298  0.62339943  0.36559395  1
  V  V27  1  0.87517063  0.37511938  -0.00274281  1
  V  V28  1  0.50684853  0.24829629  0.25514811  1
  V  V29  1  0.75130979  0.87822780  0.12861565  1
  V  V30  1  -0.00054380  0.87598162  0.37976343  1
  V  V31  1  0.62323329  0.24995951  0.87470104  1
  V  V32  1  0.12553276  0.24788546  0.87267427  1
  V  V33  1  0.14157348  0.49915584  0.62970095  1
  V  V34  1  0.25448161  0.11766118  0.87063846  1
  V  V35  1  0.87138367  0.49921364  0.86737158  1
  V  V36  1  0.87264345  0.74044892  0.12715413  1
  V  V37  1  0.25034414  0.24631665  0.00227627  1
  V  V38  1  0.62712277  0.00058644  0.13110175  1
  V  V39  1  0.14776013  0.00127579  0.62574885  1
  V  V40  1  0.88260168  0.88240735  -0.00440876  1
  V  V41  1  0.36154381  0.50258298  0.87362601  1
  V  V42  1  0.11679224  0.37503911  0.25717659  1
  V  V43  1  0.62213288  0.00685277  0.62395928  1
  V  V44  1  0.75779639  0.38457181  0.62656954  1
  V  V45  1  0.62136634  0.12412893  0.00184829  1
  V  V46  1  0.50102580  0.87427649  0.87620944  1
  V  V47  1  0.13686856  0.37777946  0.74648449  1
  V  V48  1  -0.00195744  0.23462383  0.74374879  1
  V  V49  1  0.37256621  0.86396405  -0.00226974  1
  V  V50  1  0.61847621  0.74804008  0.37062122  1
  V  V51  1  0.25064795  0.26202348  0.50149217  1
  V  V52  1  0.75399270  0.11958141  0.87007641  1
  V  V53  1  0.50103387  0.00498757  0.49959356  1
  V  V54  1  0.62546329  0.74811403  0.87584144  1
  V  V55  1  0.25579725  0.50187401  0.25086579  1
  V  V56  1  0.37645391  0.37469094  0.00212282  1
  V  V57  1  0.74556971  0.62078640  0.87480623  1
  V  V58  1  -0.00350603  0.74379449  0.25194728  1
  V  V59  1  0.37479678  0.87911057  0.50172568  1
  V  V60  1  -0.00162354  0.12097636  0.12177673  1
  V  V61  1  0.12210954  0.11715819  -0.00362001  1
  V  V62  1  0.11931158  -0.00319208  0.12466134  1
  V  V63  1  0.25060767  0.75689368  0.49941431  1
  V  V64  1  0.12189992  0.50087970  0.12419618  1
  V  V65  1  0.37350886  0.75308854  0.62455895  1
  V  V66  1  0.49827746  0.49443919  0.50381919  1
  V  V67  1  0.13189713  0.63021041  -0.00679636  1
  V  V68  1  0.49872181  0.51754753  0.00020783  1
  V  V69  1  0.74902796  0.25023922  -0.00087958  1
  V  V70  1  0.87214997  0.62519776  0.74975718  1
  V  V71  1  0.62437334  0.50089181  0.12322603  1
  V  V72  1  0.62632355  0.87736871  0.74825132  1
  V  V73  1  0.87853586  0.75642678  0.62307149  1
  V  V74  1  0.12634007  0.62602036  0.49978479  1
  V  V75  1  0.14108021  0.87450778  0.74323822  1
  V  V76  1  0.37641286  0.49429267  0.37782343  1
  V  V77  1  -0.00490877  0.00305515  0.51121981  1
  V  V78  1  0.62356226  0.13405230  0.49769828  1
  V  V79  1  0.87093166  -0.00582326  0.37515661  1
  V  V80  1  0.50039561  0.75039145  0.74898166  1
  V  V81  1  0.25794462  0.62791047  0.37097220  1
  V  V82  1  0.50809304  0.37139192  0.37894570  1
  V  V83  1  0.50113049  0.63049481  0.14132123  1
  V  V84  1  0.75181930  0.87680271  0.61938987  1
  Zn  Zn85  1  0.37563948  -0.00233200  0.87302849  1
  Zn  Zn86  1  0.62906374  0.37447215  0.25235188  1
  Zn  Zn87  1  0.75760070  0.00644062  0.74338067  1
  Zn  Zn88  1  0.74802213  0.37661131  0.12584856  1
  Zn  Zn89  1  0.12406299  0.87396848  0.25130630  1
  Zn  Zn90  1  0.75295624  0.49961403  0.24523838  1
  Zn  Zn91  1  0.74882370  0.25398215  0.49702592  1
  Zn  Zn92  1  0.49702549  -0.00278281  0.00159549  1
  Zn  Zn93  1  -0.00355177  0.25089344  0.25637746  1
  Zn  Zn94  1  0.01072619  0.88018677  0.87293773  1
  Zn  Zn95  1  0.88252719  0.37121649  0.49839229  1
  Zn  Zn96  1  0.12520808  0.12616530  0.50472067  1
  Zn  Zn97  1  0.00297111  0.49437966  0.49627934  1
  Zn  Zn98  1  0.63130071  0.50321353  0.62951055  1
  Zn  Zn99  1  0.25041009  0.12937149  0.37512323  1
  Zn  Zn100  1  0.49726133  0.87164862  0.36995545  1
  Zn  Zn101  1  -0.00046007  0.50381884  -0.00209178  1
  Zn  Zn102  1  0.89365536  0.00991263  0.87068611  1
  Zn  Zn103  1  0.00319763  0.75461603  0.75618651  1
  Zn  Zn104  1  0.12534610  0.75145676  0.37264020  1
  Zn  Zn105  1  0.13452588  0.75108989  0.87447423  1
  Zn  Zn106  1  -0.00364698  0.62192878  0.12606051  1
  Zn  Zn107  1  0.18311255  0.18626451  0.19144458  1
  Zn  Zn108  1  0.18919818  0.18633917  0.68448141  1
  Zn  Zn109  1  0.18477121  0.68688937  0.18791122  1
  Zn  Zn110  1  0.18953810  0.69112185  0.68522136  1
  Zn  Zn111  1  0.68855321  0.18652429  0.18874268  1
  Zn  Zn112  1  0.68785376  0.19150195  0.68525467  1
  Zn  Zn113  1  0.68391362  0.68745926  0.18529917  1
  Zn  Zn114  1  0.68996333  0.68796190  0.68882375  1
  Zn  Zn115  1  0.31172885  0.31515496  0.31712287  1
  Zn  Zn116  1  0.31475360  0.30866013  0.81494488  1
  Zn  Zn117  1  0.31028625  0.82100128  0.31258328  1
  Zn  Zn118  1  0.31040656  0.81446215  0.80887272  1
  Zn  Zn119  1  0.80930377  0.31115377  0.30927824  1
  Zn  Zn120  1  0.81267724  0.30733525  0.80798606  1
  Zn  Zn121  1  0.81061718  0.81358361  0.30921744  1
  Zn  Zn122  1  0.81428004  0.81599931  0.80903276  1
  Zn  Zn123  1  0.18536648  0.43772727  0.43940701  1
  Zn  Zn124  1  0.18484887  0.43558982  0.94048941  1
  Zn  Zn125  1  0.18454718  0.93948796  0.43781907  1
  Zn  Zn126  1  0.18879939  0.93563420  0.93595959  1
  Zn  Zn127  1  0.69072025  0.43906169  0.44140899  1
  Zn  Zn128  1  0.68541654  0.44024777  0.94138132  1
  Zn  Zn129  1  0.68825926  0.93922923  0.43548680  1
  Zn  Zn130  1  0.68658410  0.93731907  0.94331713  1
  Zn  Zn131  1  0.31286615  0.05649624  0.05926838  1
  Zn  Zn132  1  0.31408765  0.07325227  0.55674275  1
  Zn  Zn133  1  0.31423444  0.56127919  0.06833590  1
  Zn  Zn134  1  0.31598594  0.56585790  0.56008025  1
  Zn  Zn135  1  0.80939323  0.06139444  0.05970601  1
  Zn  Zn136  1  0.81016668  0.06060904  0.55563474  1
  Zn  Zn137  1  0.81016903  0.56168785  0.05503726  1
  Zn  Zn138  1  0.81613442  0.56238649  0.55663307  1
  Zn  Zn139  1  0.43945997  0.43628526  0.19048102  1
  Zn  Zn140  1  0.43900829  0.43924816  0.69255982  1
  Zn  Zn141  1  0.43639637  0.93455132  0.18763586  1
  Zn  Zn142  1  0.43844838  0.93898554  0.68392999  1
  Zn  Zn143  1  0.93566635  0.43849873  0.19009978  1
  Zn  Zn144  1  0.94248862  0.43559647  0.68562455  1
  Zn  Zn145  1  0.93752436  0.93190837  0.18943025  1
  Zn  Zn146  1  0.93935886  0.93773108  0.69763073  1
  Zn  Zn147  1  0.06157819  0.06418572  0.31315565  1
  Zn  Zn148  1  0.06657192  0.05146117  0.80917980  1
  Zn  Zn149  1  0.06649723  0.56617426  0.31118244  1
  Zn  Zn150  1  0.06246084  0.56228679  0.81088943  1
  Zn  Zn151  1  0.56260835  0.06134290  0.31180251  1
  Zn  Zn152  1  0.56230345  0.06274899  0.81074755  1
  Zn  Zn153  1  0.56582253  0.56027390  0.31308724  1
  Zn  Zn154  1  0.55603080  0.56467498  0.81535797  1
  Zn  Zn155  1  0.43600280  0.18891986  0.44120844  1
  Zn  Zn156  1  0.43677063  0.18740962  0.93931522  1
  Zn  Zn157  1  0.43712186  0.68397828  0.43682698  1
  Zn  Zn158  1  0.31160959  0.68606059  0.94015686  1
  Zn  Zn159  1  0.93614311  0.18198494  0.44089926  1
  Zn  Zn160  1  0.93946884  0.18752909  0.93727591  1
  Zn  Zn161  1  0.93803719  0.68597403  0.43866171  1
  Zn  Zn162  1  0.94528122  0.69200239  0.93838215  1
  Zn  Zn163  1  0.06092041  0.31137915  0.06127833  1
  Zn  Zn164  1  0.06065329  0.31574521  0.56451808  1
  Zn  Zn165  1  0.06082828  0.80729295  0.06338378  1
  Zn  Zn166  1  0.06265802  0.81782870  0.56415136  1
  Zn  Zn167  1  0.56003217  0.31370854  0.06512274  1
  Zn  Zn168  1  0.56178803  0.31557267  0.56792698  1
  Zn  Zn169  1  0.56039324  0.80631124  0.06166531  1
  Zn  Zn170  1  0.56314498  0.81570886  0.55819614  1
  O  O171  1  0.11716280  0.11893164  0.11873695  1
  O  O172  1  0.12976333  0.10699224  0.62509700  1
  O  O173  1  0.12603245  0.61146624  0.11964127  1
  O  O174  1  0.11925171  0.62137539  0.62037262  1
  O  O175  1  0.61844588  0.11803366  0.12196587  1
  O  O176  1  0.63279525  0.11400361  0.61664056  1
  O  O177  1  0.60876170  0.62140130  0.12645016  1
  O  O178  1  0.61974786  0.62455349  0.62119233  1
  O  O179  1  0.38513860  0.38832610  0.37271828  1
  O  O180  1  0.38133448  0.37953113  0.88081926  1
  O  O181  1  0.37651766  0.88372728  0.38605750  1
  O  O182  1  0.38357242  0.87462117  0.88034523  1
  O  O183  1  0.87135532  0.38746180  0.37474912  1
  O  O184  1  0.87948917  0.38031766  0.87398079  1
  O  O185  1  0.87870541  0.88679918  0.36894836  1
  O  O186  1  0.87286630  0.87214407  0.89045175  1
  O  O187  1  0.25610754  -0.00035649  0.36656621  1
  O  O188  1  0.25421614  0.01406592  0.87799123  1
  O  O189  1  0.25727869  0.50529831  0.37152462  1
  O  O190  1  0.26252373  0.49197106  0.87903913  1
  O  O191  1  0.76219011  0.01002605  0.38173336  1
  O  O192  1  0.74231940  0.01576804  0.87750758  1
  O  O193  1  0.75632538  0.51243795  0.37443588  1
  O  O194  1  0.75685055  0.50934320  0.87864532  1
  O  O195  1  0.24494381  0.49375462  0.13445624  1
  O  O196  1  0.24080382  0.50654928  0.62213236  1
  O  O197  1  0.24109813  0.99441067  0.13036231  1
  O  O198  1  0.24596654  0.99870042  0.61537285  1
  O  O199  1  0.73866848  0.50274082  0.12194018  1
  O  O200  1  0.75175815  0.48987903  0.62252476  1
  O  O201  1  0.73996072  0.99097422  0.12009405  1
  O  O202  1  0.74366346  0.99142200  0.62176085  1
  O  O203  1  0.01313352  0.37110710  0.24501864  1
  O  O204  1  0.00628942  0.36694103  0.75920942  1
  O  O205  1  0.00043517  0.86607428  0.26138728  1
  O  O206  1  0.01603837  0.87183373  0.74918492  1
  O  O207  1  0.50199651  0.36645120  0.25922223  1
  O  O208  1  0.50626472  0.36550950  0.75762700  1
  O  O209  1  0.51434193  0.87593220  0.25039687  1
  O  O210  1  0.50552750  0.87092097  0.75427499  1
  O  O211  1  0.50108500  0.13126642  0.24008752  1
  O  O212  1  0.48930635  0.13866162  0.75682677  1
  O  O213  1  0.49758248  0.62218523  0.24010916  1
  O  O214  1  0.49452491  0.63335755  0.74343689  1
  O  O215  1  0.99357199  0.12725600  0.23697657  1
  O  O216  1  1.00654887  0.13709175  0.75396426  1
  O  O217  1  1.00305689  0.63885678  0.24794064  1
  O  O218  1  0.99092957  0.63021009  0.74374514  1
  O  O219  1  0.37011513  0.25484276  0.01116499  1
  O  O220  1  0.36988589  0.24902578  0.51502045  1
  O  O221  1  0.37118224  0.75996368  0.01265807  1
  O  O222  1  0.37164629  0.75772447  0.50332578  1
  O  O223  1  0.87031398  0.25503588  0.00548352  1
  O  O224  1  0.87567071  0.24810763  0.51489689  1
  O  O225  1  0.86515630  0.75801983  0.00591966  1
  O  O226  1  0.86298068  0.74440019  0.50709682  1
  O  O227  1  0.13148698  0.25018168  0.49684109  1
  O  O228  1  0.12915851  0.23825084  0.99588417  1
  O  O229  1  0.13392047  0.74238019  0.50164017  1
  O  O230  1  0.12741763  0.73305009  1.00570066  1
  O  O231  1  0.62295985  0.23700106  0.50749369  1
  O  O232  1  0.62847623  0.24477951  0.99693788  1
  O  O233  1  0.63592400  0.74560338  0.49368611  1
  O  O234  1  0.63929629  0.75551685  0.99343414  1
  O  O235  1  0.49150840  0.24295906  0.13301404  1
  O  O236  1  0.48682884  0.25465049  0.63361447  1
  O  O237  1  0.49046714  0.73737000  0.12412688  1
  O  O238  1  0.49204734  0.74657291  0.62536794  1
  O  O239  1  0.98854144  0.24193485  0.12455943  1
  O  O240  1  0.98972189  0.24860119  0.63599345  1
  O  O241  1  0.98901356  0.74950060  0.13384529  1
  O  O242  1  0.99205488  0.74042036  0.62035695  1
  O  O243  1  0.01085606  0.24545788  0.37676687  1
  O  O244  1  0.00424893  0.25392829  0.86455145  1
  O  O245  1  -0.00200341  0.75700775  0.37074459  1
  O  O246  1  0.01307446  0.75836852  0.87501194  1
  O  O247  1  0.49089451  0.25875832  0.36743453  1
  O  O248  1  0.50451375  0.25698431  0.87012925  1
  O  O249  1  0.51450293  0.75015401  0.38189665  1
  O  O250  1  0.51027158  0.76316465  0.86734549  1
  O  O251  1  0.24583901  0.13978077  0.49592183  1
  O  O252  1  0.24388784  0.12907615  0.99475226  1
  O  O253  1  0.24703161  0.63652952  0.49264797  1
  O  O254  1  0.23804865  0.61834730  1.00396876  1
  O  O255  1  0.74051923  0.12778165  0.49136221  1
  O  O256  1  0.74012936  0.13111819  0.99369428  1
  O  O257  1  0.74446866  0.63190386  0.49147445  1
  O  O258  1  0.75424911  0.63503556  0.98444539  1
  O  O259  1  0.25418189  0.36667240  0.00864597  1
  O  O260  1  0.24923259  0.36293865  0.49781094  1
  O  O261  1  0.25579843  0.87992939  0.01382623  1
  O  O262  1  0.25702861  0.86379872  0.49383436  1
  O  O263  1  0.75640567  0.36713082  0.00099514  1
  O  O264  1  0.75506305  0.37140487  0.51017316  1
  O  O265  1  0.75644926  0.86867240  0.00927299  1
  O  O266  1  0.74444205  0.86627508  0.51040374  1
  O  O267  1  0.13261296  0.49326766  0.24556324  1
  O  O268  1  0.12256157  0.49141980  0.74230355  1
  O  O269  1  0.13101994  0.99849224  0.24099822  1
  O  O270  1  0.12959237  0.99165216  0.73321789  1
  O  O271  1  0.62561469  0.49927178  0.23620249  1
  O  O272  1  0.61666613  0.48663397  0.75106983  1
  O  O273  1  0.62348564  0.99290247  0.23816714  1
  O  O274  1  0.62842537  0.99634315  0.73999409  1
  O  O275  1  0.36625624  -0.00757199  0.25862502  1
  O  O276  1  0.38276141  0.01558923  0.75034616  1
  O  O277  1  0.36250762  0.49566378  0.25663240  1
  O  O278  1  0.38258141  0.51037517  0.76225053  1
  O  O279  1  0.87984530  0.00930329  0.25607700  1
  O  O280  1  0.86733954  -0.00742104  0.76071796  1
  O  O281  1  0.87193171  0.50115569  0.26255481  1
  O  O282  1  0.87991774  0.50762584  0.76001477  1
  O  O283  1  0.12906966  0.36722823  0.36670688  1
  O  O284  1  0.11710738  0.36764474  0.87106011  1
  O  O285  1  0.11507843  0.87261977  0.37302582  1
  O  O286  1  0.13302293  0.87752680  0.85710386  1
  O  O287  1  0.61235416  0.38152010  0.37463066  1
  O  O288  1  0.62190365  0.36956822  0.86980149  1
  O  O289  1  0.62832836  0.86679449  0.36581617  1
  O  O290  1  0.62225562  0.87084123  0.86950496  1
  O  O291  1  0.38232836  0.13186608  0.11982986  1
  O  O292  1  0.37468596  0.13421888  0.63719007  1
  O  O293  1  0.38165359  0.63714721  0.12621912  1
  O  O294  1  0.38364995  0.63260100  0.63001114  1
  O  O295  1  0.87977913  0.12693178  0.12808466  1
  O  O296  1  0.86538561  0.13563428  0.62674860  1
  O  O297  1  0.87334474  0.63675415  0.11814375  1
  O  O298  1  0.88001489  0.63130193  0.63082842  1
  O  O299  1  0.25515846  0.25101762  0.12389161  1
  O  O300  1  0.26238418  0.24981117  0.61866570  1
  O  O301  1  0.26133248  0.75575730  0.13165832  1
  O  O302  1  0.26583921  0.74522980  0.61388229  1
  O  O303  1  0.76169620  0.24699387  0.11812021  1
  O  O304  1  0.76328904  0.25765291  0.62660809  1
  O  O305  1  0.75374345  0.75431959  0.11698029  1
  O  O306  1  0.75629177  0.75439781  0.61637381  1
  O  O307  1  0.24484401  0.25040540  0.38416224  1
  O  O308  1  0.24472274  0.24026605  0.88226850  1
  O  O309  1  0.25156261  0.74395083  0.37964104  1
  O  O310  1  0.24886241  0.75085380  0.87531479  1
  O  O311  1  0.75723192  0.23434767  0.37845979  1
  O  O312  1  0.74359440  0.24142256  0.87969663  1
  O  O313  1  0.74686701  0.74137238  0.38012205  1
  O  O314  1  0.74589676  0.74566896  0.87927380  1
  O  O315  1  0.00744320  0.12846818  0.01176012  1
  O  O316  1  0.00546746  0.10688025  0.49661234  1
  O  O317  1  0.01270033  0.62261277  0.00577235  1
  O  O318  1  0.01092968  0.62353921  0.50625692  1
  O  O319  1  0.50559954  0.12520494  0.01170269  1
  O  O320  1  0.50722007  0.11353546  0.49410632  1
  O  O321  1  0.49410008  0.61563193  0.01120688  1
  O  O322  1  0.50618330  0.61909597  0.50700364  1
  O  O323  1  0.50355277  0.38454425  0.49531893  1
  O  O324  1  0.49195739  0.38039495  0.99650627  1
  O  O325  1  0.49399543  0.88632633  0.49484932  1
  O  O326  1  0.49325717  0.87173788  0.99198285  1
  O  O327  1  0.99616024  0.38201307  0.50424731  1
  O  O328  1  0.99423397  0.37221158  0.98506711  1
  O  O329  1  1.00170073  0.88432951  0.48803199  1
  O  O330  1  0.98429466  0.87047728  1.00406309  1
  O  O331  1  0.49429118  0.49604412  0.38176553  1
  O  O332  1  0.49397417  0.49559438  0.88538588  1
  O  O333  1  0.49282072  0.99633850  0.37964102  1
  O  O334  1  0.50199481  0.98668974  0.87604981  1
  O  O335  1  0.98734762  0.50741221  0.37217542  1
  O  O336  1  0.99209645  0.49051322  0.87444819  1
  O  O337  1  0.99358241  0.99316170  0.38013554  1
  O  O338  1  1.00555038  0.99546460  0.88212553  1
  O  O339  1  0.01124570  0.00401472  0.12864546  1
  O  O340  1  -0.00362453  -0.00639306  0.61123058  1
  O  O341  1  0.00817986  0.50020312  0.12369205  1
  O  O342  1  0.00464478  0.51457070  0.62541225  1
  O  O343  1  0.50431004  0.00743713  0.12556802  1
  O  O344  1  0.51091823  -0.00270769  0.61420878  1
  O  O345  1  0.50071220  0.51083471  0.12194868  1
  O  O346  1  0.50199479  0.50522145  0.61901360  1
  O  O347  1  0.24111432  0.38141216  0.24590044  1
  O  O348  1  0.23554680  0.36644066  0.75701455  1
  O  O349  1  0.24661751  0.88488062  0.23786871  1
  O  O350  1  0.24163266  0.87600115  0.74022236  1
  O  O351  1  0.74614811  0.37861850  0.24426896  1
  O  O352  1  0.74084670  0.37024076  0.74318839  1
  O  O353  1  0.74057402  0.87143397  0.23518270  1
  O  O354  1  0.74195867  0.87215254  0.73517881  1
  O  O355  1  0.24907854  0.11194384  0.24997546  1
  O  O356  1  0.26584467  0.13323568  0.75720837  1
  O  O357  1  0.24346839  0.61484505  0.25973286  1
  O  O358  1  0.26348979  0.62675298  0.74420454  1
  O  O359  1  0.75890015  0.12511209  0.25581172  1
  O  O360  1  0.74184360  0.12708048  0.76704605  1
  O  O361  1  0.74589705  0.62515030  0.26340566  1
  O  O362  1  0.76379087  0.62960004  0.75822609  1
  O  O363  1  0.37313815  0.11171228  0.37915038  1
  O  O364  1  0.36984791  0.12571416  0.86654753  1
  O  O365  1  0.36515282  0.61513091  0.37731956  1
  O  O366  1  0.37406026  0.61542678  0.86839149  1
  O  O367  1  0.87133286  0.11632100  0.36596316  1
  O  O368  1  0.85768156  0.12495553  0.88486622  1
  O  O369  1  0.86250443  0.62069051  0.37692378  1
  O  O370  1  0.87176311  0.61919579  0.86820626  1
  O  O371  1  0.12966832  0.38286287  0.12911799  1
  O  O372  1  0.12230427  0.38714182  0.63515604  1
  O  O373  1  0.13067085  0.88130569  0.12304980  1
  O  O374  1  0.12565935  0.88724034  0.63111949  1
  O  O375  1  0.62418948  0.38611736  0.12645717  1
  O  O376  1  0.63584904  0.37647038  0.63436465  1
  O  O377  1  0.62931525  0.87931917  0.12847914  1
  O  O378  1  0.63126257  0.88384407  0.62711021  1
  O  O379  1  0.12412591  0.25822380  0.26005959  1
  O  O380  1  0.11483400  0.25497117  0.75031851  1
  O  O381  1  0.11431524  0.75360960  0.25091623  1
  O  O382  1  0.12585621  0.76331220  0.74370216  1
  O  O383  1  0.61067477  0.25119819  0.24500368  1
  O  O384  1  0.61603161  0.25669012  0.75303771  1
  O  O385  1  0.62958915  0.75763576  0.25915901  1
  O  O386  1  0.62026397  0.75734006  0.75340047  1
  O  O387  1  0.38043762  0.25442948  0.24003135  1
  O  O388  1  0.38058145  0.24542212  0.74112725  1
  O  O389  1  0.37624284  0.75733304  0.23913061  1
  O  O390  1  0.38137274  0.74643654  0.74055545  1
  O  O391  1  0.87685675  0.23952425  0.24162411  1
  O  O392  1  0.88843578  0.24892468  0.74156399  1
  O  O393  1  0.88040727  0.75533643  0.23838444  1
  O  O394  1  0.87745043  0.74348250  0.74044992  1
  O  O395  1  0.38780139  0.50537818  0.49255122  1
  O  O396  1  0.38069587  0.49455905  0.99601752  1
  O  O397  1  0.38181757  0.99607519  0.49640754  1
  O  O398  1  0.37848738  0.98359274  0.99836711  1
  O  O399  1  0.87818178  0.50155452  0.48263932  1
  O  O400  1  0.87736549  0.49285437  0.98710145  1
  O  O401  1  0.88653681  1.00215753  0.49075546  1
  O  O402  1  0.86913928  0.98511934  0.99736833  1
  O  O403  1  0.13179217  0.01130172  0.00830973  1
  O  O404  1  0.11657145  -0.00206540  0.51236337  1
  O  O405  1  0.12251480  0.50424470  0.00902996  1
  O  O406  1  0.12676307  0.51288869  0.50681296  1
  O  O407  1  0.61964513  0.00535553  0.01251846  1
  O  O408  1  0.61842734  0.00641528  0.50437107  1
  O  O409  1  0.61178846  0.49764017  0.01115120  1
  O  O410  1  0.61591389  0.50781050  0.50250527  1
  O  O411  1  0.36962300  0.36698874  0.12237897  1
  O  O412  1  0.37391911  0.36561133  0.63167478  1
  O  O413  1  0.36996601  0.86415692  0.12057791  1
  O  O414  1  0.38073291  0.86851124  0.61099736  1
  O  O415  1  0.87557600  0.36624704  0.11847702  1
  O  O416  1  0.86860346  0.36733485  0.62854315  1
  O  O417  1  0.86735194  0.86924220  0.11675273  1
  O  O418  1  0.86766916  0.86247268  0.62766881  1
  O  O419  1  0.12843392  0.13581324  0.37592711  1
  O  O420  1  0.13276854  0.12842884  0.87992779  1
  O  O421  1  0.13685616  0.62685450  0.38412527  1
  O  O422  1  0.12321066  0.62143859  0.89007150  1
  O  O423  1  0.63420434  0.11804622  0.38271749  1
  O  O424  1  0.62806309  0.13104953  0.88271993  1
  O  O425  1  0.63421230  0.63068518  0.37950630  1
  O  O426  1  0.63522161  0.63288326  0.86590938  1
