# generated using pymatgen
data_V85Zn86O256
_symmetry_space_group_name_H-M   'P 1'
_cell_length_a   16.93306596
_cell_length_b   16.93944095
_cell_length_c   16.92502146
_cell_angle_alpha   90.03801322
_cell_angle_beta   89.94321026
_cell_angle_gamma   90.04808424
_symmetry_Int_Tables_number   1
_chemical_formula_structural   V85Zn86O256
_chemical_formula_sum   'V85 Zn86 O256'
_cell_volume   4854.71165100
_cell_formula_units_Z   1
loop_
 _symmetry_equiv_pos_site_id
 _symmetry_equiv_pos_as_xyz
  1  'x, y, z'
loop_
 _atom_site_type_symbol
 _atom_site_label
 _atom_site_symmetry_multiplicity
 _atom_site_fract_x
 _atom_site_fract_y
 _atom_site_fract_z
 _atom_site_occupancy
  V  V0  1  0.12698360  -0.00139651  0.12415913  1
  V  V1  1  0.50233345  0.00369914  -0.00501258  1
  V  V2  1  0.50463730  0.75924300  0.74709392  1
  V  V3  1  0.74653129  0.62861470  0.37555129  1
  V  V4  1  0.36145741  0.75661584  0.61972248  1
  V  V5  1  0.25216178  0.12396867  0.37393880  1
  V  V6  1  0.12048364  0.36980380  0.74491075  1
  V  V7  1  0.87342602  0.49966939  0.37881397  1
  V  V8  1  0.00729663  0.74591367  0.25587077  1
  V  V9  1  0.25202868  0.12472882  0.86605317  1
  V  V10  1  0.25478347  0.00182653  0.24150396  1
  V  V11  1  0.37466877  0.87672135  -0.00289501  1
  V  V12  1  0.74773531  0.62676434  0.87369194  1
  V  V13  1  0.37856678  0.00206558  0.37026258  1
  V  V14  1  0.74941599  0.87685428  0.63628422  1
  V  V15  1  0.87948279  0.75676558  0.62759178  1
  V  V16  1  0.24423639  0.62705189  0.36976471  1
  V  V17  1  0.50312838  0.00113517  0.49901864  1
  V  V18  1  0.37908253  0.62552007  0.23982555  1
  V  V19  1  0.74866108  0.25886916  0.00197593  1
  V  V20  1  0.49835971  0.50320182  0.00986495  1
  V  V21  1  0.49718954  0.62713328  0.62521122  1
  V  V22  1  0.50717920  0.13296701  0.62171525  1
  V  V23  1  0.13965617  0.86650718  0.75175886  1
  V  V24  1  0.88236043  0.50040684  0.87777535  1
  V  V25  1  0.25065587  0.49538550  0.74836523  1
  V  V26  1  0.11610697  0.49518851  0.10961480  1
  V  V27  1  0.37567837  0.50057845  0.38181216  1
  V  V28  1  0.63262171  0.12844016  0.00404056  1
  V  V29  1  0.37334496  0.24650403  0.13138780  1
  V  V30  1  0.49483742  0.12362835  0.13365667  1
  V  V31  1  0.88067378  0.37956819  0.00452530  1
  V  V32  1  0.37500809  0.50331760  0.87444501  1
  V  V33  1  0.11611013  0.24821164  0.86968858  1
  V  V34  1  0.74870459  0.75279634  0.00104003  1
  V  V35  1  0.38139614  0.13302356  0.74610911  1
  V  V36  1  0.12959380  0.49418167  0.62302113  1
  V  V37  1  0.18697553  0.79331862  0.43065263  1
  V  V38  1  -0.00329945  0.37356964  0.37822688  1
  V  V39  1  0.14220936  0.00037853  0.63550820  1
  V  V40  1  -0.00012768  0.61812050  0.11205623  1
  V  V41  1  -0.00143120  -0.00422304  -0.00199305  1
  V  V42  1  0.75309306  0.75953029  0.49862064  1
  V  V43  1  0.87458519  0.75195470  0.12780404  1
  V  V44  1  0.49150973  0.25088991  0.25399496  1
  V  V45  1  0.75183334  0.50173640  0.74930862  1
  V  V46  1  0.49947007  0.37170188  0.87367623  1
  V  V47  1  0.23695374  0.63446907  0.88617747  1
  V  V48  1  0.13132639  0.86970676  0.24712990  1
  V  V49  1  0.12788275  0.62653301  0.49964223  1
  V  V50  1  0.62439478  0.24421066  0.37973276  1
  V  V51  1  0.74954180  0.12187275  0.37953277  1
  V  V52  1  0.62840587  0.24680637  0.87101387  1
  V  V53  1  0.12695608  0.12475551  -0.00094299  1
  V  V54  1  0.37931242  0.75435079  0.11939566  1
  V  V55  1  0.62120404  -0.00633984  0.63110223  1
  V  V56  1  0.87800457  0.24881799  0.63976736  1
  V  V57  1  0.50512840  0.86820129  0.37601658  1
  V  V58  1  0.24891187  0.50315331  0.24580681  1
  V  V59  1  0.61904033  0.62843264  0.00439262  1
  V  V60  1  0.50186676  0.37705171  0.38182100  1
  V  V61  1  0.62442731  0.63016181  0.49690104  1
  V  V62  1  -0.00118742  0.86362140  0.86231445  1
  V  V63  1  0.12114502  0.12512930  0.50375402  1
  V  V64  1  -0.00298280  0.12415379  0.12692617  1
  V  V65  1  0.62615547  0.50134514  0.62357395  1
  V  V66  1  0.50825753  0.74585523  0.24865923  1
  V  V67  1  0.87614482  -0.00462419  0.38299761  1
  V  V68  1  0.24955634  0.37238799  0.12725888  1
  V  V69  1  0.86750725  0.25230779  0.12918570  1
  V  V70  1  0.87610398  0.62451151  0.25262655  1
  V  V71  1  0.25064571  0.24860391  -0.00097008  1
  V  V72  1  0.37504032  0.37300437  0.00070006  1
  V  V73  1  0.63429573  0.49434082  0.12472183  1
  V  V74  1  0.62765050  -0.00202596  0.13035655  1
  V  V75  1  -0.00181307  0.86992577  0.38495609  1
  V  V76  1  0.74873948  0.24732058  0.50387022  1
  V  V77  1  0.62212310  0.37347564  0.74938527  1
  V  V78  1  0.37243997  0.26111248  0.61953790  1
  V  V79  1  0.12302705  0.24779974  0.37707014  1
  V  V80  1  -0.00631551  0.12241273  0.64168832  1
  V  V81  1  0.87095954  0.01287123  0.86874546  1
  V  V82  1  0.00208903  0.62820018  0.63376623  1
  V  V83  1  0.37786806  0.00304494  0.86543711  1
  V  V84  1  0.12151117  0.37467193  0.25039511  1
  Zn  Zn85  1  0.37140236  0.62773205  0.74908442  1
  Zn  Zn86  1  0.74878311  0.00983225  0.75595538  1
  Zn  Zn87  1  0.75188957  0.49401043  0.24884321  1
  Zn  Zn88  1  0.87354782  0.12247402  0.25276376  1
  Zn  Zn89  1  0.51095348  0.89068711  0.86004691  1
  Zn  Zn90  1  0.87930706  0.63080263  0.75159646  1
  Zn  Zn91  1  0.75105346  0.87555346  0.12907976  1
  Zn  Zn92  1  -0.00400309  0.24768861  0.25185760  1
  Zn  Zn93  1  -0.00027828  0.37530370  0.87385799  1
  Zn  Zn94  1  0.62941741  0.86720580  0.25288138  1
  Zn  Zn95  1  0.75337597  -0.00402309  0.25257156  1
  Zn  Zn96  1  -0.00315410  -0.00617122  0.50877859  1
  Zn  Zn97  1  0.21573587  0.82696972  0.06740948  1
  Zn  Zn98  1  0.36434102  0.87278768  0.49881361  1
  Zn  Zn99  1  0.62661237  0.75863921  0.86814047  1
  Zn  Zn100  1  0.87436442  0.37254969  0.50404775  1
  Zn  Zn101  1  0.49740288  0.49853701  0.50235969  1
  Zn  Zn102  1  0.75205745  0.37432446  0.62541284  1
  Zn  Zn103  1  0.24659272  0.26782533  0.51150746  1
  Zn  Zn104  1  0.63114770  0.36766857  0.24542756  1
  Zn  Zn105  1  -0.00032723  0.50074771  0.50187137  1
  Zn  Zn106  1  0.87517236  0.87496521  -0.00369014  1
  Zn  Zn107  1  0.18613218  0.18574603  0.19056763  1
  Zn  Zn108  1  0.19157858  0.18686142  0.68722050  1
  Zn  Zn109  1  0.17619680  0.69390000  0.15022155  1
  Zn  Zn110  1  0.18787561  0.68155050  0.69475105  1
  Zn  Zn111  1  0.68664410  0.18574523  0.19336243  1
  Zn  Zn112  1  0.68953259  0.18342796  0.68897807  1
  Zn  Zn113  1  0.68777892  0.67997915  0.18530329  1
  Zn  Zn114  1  0.68756156  0.68949102  0.68394201  1
  Zn  Zn115  1  0.30155216  0.32486212  0.34058173  1
  Zn  Zn116  1  0.31069714  0.31116581  0.80699763  1
  Zn  Zn117  1  0.32216898  0.81806264  0.30117913  1
  Zn  Zn118  1  0.32036060  0.81062559  0.81232379  1
  Zn  Zn119  1  0.80852684  0.31292561  0.31089189  1
  Zn  Zn120  1  0.80852952  0.31452853  0.81620437  1
  Zn  Zn121  1  0.81342345  0.81327918  0.31337577  1
  Zn  Zn122  1  0.81476862  0.81538767  0.81125777  1
  Zn  Zn123  1  0.18751620  0.43953224  0.43791329  1
  Zn  Zn124  1  0.18989521  0.43492111  0.93208307  1
  Zn  Zn125  1  0.18331235  0.95575016  0.43771333  1
  Zn  Zn126  1  0.18701698  0.94168845  0.92413135  1
  Zn  Zn127  1  0.68778714  0.43508649  0.43806927  1
  Zn  Zn128  1  0.68948414  0.43755273  0.93827051  1
  Zn  Zn129  1  0.68353005  0.93835987  0.44054727  1
  Zn  Zn130  1  0.68782594  0.93587868  0.93884111  1
  Zn  Zn131  1  0.31447183  0.06160340  0.05930132  1
  Zn  Zn132  1  0.31770682  0.06765238  0.55685112  1
  Zn  Zn133  1  0.31095534  0.56199109  0.06268005  1
  Zn  Zn134  1  0.30865253  0.56856172  0.56143036  1
  Zn  Zn135  1  0.81242108  0.06312587  0.06005092  1
  Zn  Zn136  1  0.81176016  0.06189704  0.56310364  1
  Zn  Zn137  1  0.81344767  0.56617896  0.06008319  1
  Zn  Zn138  1  0.81412541  0.56633862  0.56218965  1
  Zn  Zn139  1  0.43966880  0.43423955  0.19294597  1
  Zn  Zn140  1  0.44008462  0.43980675  0.68837146  1
  Zn  Zn141  1  0.44027357  0.93358100  0.18634178  1
  Zn  Zn142  1  0.43027780  0.93889243  0.68170528  1
  Zn  Zn143  1  0.93400176  0.43584752  0.19007919  1
  Zn  Zn144  1  0.94033637  0.43809546  0.68832232  1
  Zn  Zn145  1  0.93921595  0.93567889  0.19512703  1
  Zn  Zn146  1  0.93333238  0.93895413  0.69065861  1
  Zn  Zn147  1  0.06095104  0.05702626  0.31283916  1
  Zn  Zn148  1  0.06283077  0.05690651  0.81323902  1
  Zn  Zn149  1  0.06213299  0.56056324  0.31026918  1
  Zn  Zn150  1  0.06635171  0.56298349  0.81318189  1
  Zn  Zn151  1  0.56346526  0.06495940  0.31307252  1
  Zn  Zn152  1  0.58446633  0.07757592  0.79920559  1
  Zn  Zn153  1  0.56297335  0.56396340  0.31105509  1
  Zn  Zn154  1  0.56171785  0.56485878  0.81300649  1
  Zn  Zn155  1  0.43506099  0.18650468  0.44046396  1
  Zn  Zn156  1  0.44167076  0.18689059  0.93923599  1
  Zn  Zn157  1  0.43357521  0.68769165  0.43630225  1
  Zn  Zn158  1  0.43597781  0.68874102  0.93397629  1
  Zn  Zn159  1  0.93447198  0.18528380  0.44414058  1
  Zn  Zn160  1  0.93641968  0.18791144  0.94209132  1
  Zn  Zn161  1  0.93750556  0.68781137  0.44318395  1
  Zn  Zn162  1  0.93507162  0.68830061  0.93614688  1
  Zn  Zn163  1  0.05852523  0.30961903  0.06067849  1
  Zn  Zn164  1  0.05810953  0.30958644  0.56411751  1
  Zn  Zn165  1  0.05166487  0.80747536  0.05920342  1
  Zn  Zn166  1  0.06477636  0.81559955  0.57570497  1
  Zn  Zn167  1  0.55917764  0.31390602  0.06376821  1
  Zn  Zn168  1  0.56392178  0.31244573  0.56129646  1
  Zn  Zn169  1  0.55940393  0.81630217  0.06064811  1
  Zn  Zn170  1  0.56219841  0.81239197  0.55996244  1
  O  O171  1  0.11768718  0.12001797  0.11872762  1
  O  O172  1  0.11831797  0.11830741  0.62355780  1
  O  O173  1  0.11028410  0.60334389  0.13525415  1
  O  O174  1  0.12136973  0.61896092  0.61775514  1
  O  O175  1  0.61702798  0.12142839  0.12007470  1
  O  O176  1  0.61032353  0.11728083  0.62178696  1
  O  O177  1  0.62589676  0.61367961  0.11060158  1
  O  O178  1  0.61822139  0.62031712  0.61783313  1
  O  O179  1  0.39142920  0.39246983  0.35874062  1
  O  O180  1  0.38072842  0.38300035  0.87719799  1
  O  O181  1  0.38420373  0.88644174  0.37460282  1
  O  O182  1  0.38575816  0.88722535  0.87654140  1
  O  O183  1  0.88143276  0.38094799  0.37687818  1
  O  O184  1  0.87558521  0.38310086  0.88219956  1
  O  O185  1  0.88722661  0.88078793  0.37313189  1
  O  O186  1  0.88739372  0.88247013  0.87419533  1
  O  O187  1  0.25683302  0.00848441  0.36675676  1
  O  O188  1  0.26271791  0.01680459  0.87889277  1
  O  O189  1  0.25654763  0.50913012  0.36374286  1
  O  O190  1  0.25871365  0.50360966  0.86896996  1
  O  O191  1  0.75590559  0.00560547  0.37892523  1
  O  O192  1  0.76887789  -0.00572457  0.88193013  1
  O  O193  1  0.75762656  0.51017975  0.37788527  1
  O  O194  1  0.75484025  0.50765691  0.86854896  1
  O  O195  1  0.24136930  0.49226724  0.13006373  1
  O  O196  1  0.23908580  0.50518362  0.63152861  1
  O  O197  1  0.24377293  1.00472800  0.13073533  1
  O  O198  1  0.24003416  1.00830752  0.62319253  1
  O  O199  1  0.73700331  0.50396797  0.12299166  1
  O  O200  1  0.74694478  0.50016905  0.63367220  1
  O  O201  1  0.74204478  0.99966866  0.12621145  1
  O  O202  1  0.74038845  0.99555700  0.62628644  1
  O  O203  1  0.00513664  0.37302722  0.26045127  1
  O  O204  1  0.01542088  0.37884988  0.75405085  1
  O  O205  1  0.01380942  0.86788814  0.26074864  1
  O  O206  1  0.00603576  0.87876114  0.75954049  1
  O  O207  1  0.50950032  0.36684147  0.25805552  1
  O  O208  1  0.51371703  0.38460167  0.75971990  1
  O  O209  1  0.50252726  0.86450776  0.25726243  1
  O  O210  1  0.49448597  0.86203470  0.74419506  1
  O  O211  1  0.50050178  0.13164388  0.24037294  1
  O  O212  1  0.49532965  0.12414098  0.73222918  1
  O  O213  1  0.48897967  0.63196022  0.25542052  1
  O  O214  1  0.49854241  0.62963730  0.73710785  1
  O  O215  1  1.00193664  0.12411012  0.23719494  1
  O  O216  1  1.00540279  0.12634193  0.73959802  1
  O  O217  1  0.99444916  0.63120346  0.24777205  1
  O  O218  1  1.00203199  0.62260807  0.73748127  1
  O  O219  1  0.37061803  0.25498283  0.00667212  1
  O  O220  1  0.37108957  0.24554177  0.51554286  1
  O  O221  1  0.38505267  0.76345551  0.00488666  1
  O  O222  1  0.37643687  0.75105968  0.51424368  1
  O  O223  1  0.86627293  0.25586076  0.00629596  1
  O  O224  1  0.86520248  0.25030032  0.51173351  1
  O  O225  1  0.86640096  0.75010880  0.00923504  1
  O  O226  1  0.86396642  0.74282513  0.51393159  1
  O  O227  1  0.12841616  0.24301238  0.49596937  1
  O  O228  1  0.13090412  0.24424512  0.99250193  1
  O  O229  1  0.12622103  0.74411957  0.50242607  1
  O  O230  1  0.14156441  0.74478232  1.04928730  1
  O  O231  1  0.63570637  0.25132270  0.49397671  1
  O  O232  1  0.63131958  0.24837048  0.99970070  1
  O  O233  1  0.63414946  0.73693225  0.50436276  1
  O  O234  1  0.63042589  0.74241929  1.00212185  1
  O  O235  1  0.49511924  0.24428877  0.13367693  1
  O  O236  1  0.49402684  0.23819530  0.61800959  1
  O  O237  1  0.49052376  0.75393889  0.13344253  1
  O  O238  1  0.49497215  0.74464714  0.63074932  1
  O  O239  1  0.98902368  0.23987196  0.12462742  1
  O  O240  1  0.98690275  0.23823965  0.62423759  1
  O  O241  1  0.98958964  0.74033128  0.13648013  1
  O  O242  1  0.99091395  0.74216110  0.62015030  1
  O  O243  1  0.00450665  0.25522470  0.37558526  1
  O  O244  1  0.01334479  0.24674772  0.87892326  1
  O  O245  1  -0.00560802  0.75363166  0.36401579  1
  O  O246  1  -0.00447212  0.76468854  0.87566093  1
  O  O247  1  0.50396275  0.25439715  0.37302118  1
  O  O248  1  0.50484841  0.26658892  0.88224174  1
  O  O249  1  0.49295296  0.75828917  0.36562373  1
  O  O250  1  0.49799723  0.74612489  0.85377072  1
  O  O251  1  0.23834725  0.12527813  0.49028743  1
  O  O252  1  0.24506567  0.13075966  0.99257143  1
  O  O253  1  0.23779686  0.62580295  0.48748995  1
  O  O254  1  0.25396515  0.61860897  0.98487914  1
  O  O255  1  0.75307567  0.13305605  0.49015639  1
  O  O256  1  0.73729732  0.13493068  1.00317414  1
  O  O257  1  0.74326946  0.63242699  0.49490331  1
  O  O258  1  0.74363399  0.63500358  0.99317402  1
  O  O259  1  0.25624780  0.36803914  0.00563290  1
  O  O260  1  0.25963954  0.35804544  0.44731019  1
  O  O261  1  0.26744279  0.88823728  -0.01051435  1
  O  O262  1  0.24364968  0.86616362  0.48188181  1
  O  O263  1  0.75803235  0.36470955  -0.00091391  1
  O  O264  1  0.75215605  0.36307510  0.50436638  1
  O  O265  1  0.75356881  0.86218868  0.00585909  1
  O  O266  1  0.74721135  0.86209862  0.50051261  1
  O  O267  1  0.13044495  0.48760803  0.24618711  1
  O  O268  1  0.13172294  0.49280775  0.74233054  1
  O  O269  1  0.13089288  0.99034533  0.24477575  1
  O  O270  1  0.12782127  0.99602830  0.74004239  1
  O  O271  1  0.62267013  0.50514753  0.23095705  1
  O  O272  1  0.63407416  0.49727689  0.74584654  1
  O  O273  1  0.62461398  1.00158203  0.23797611  1
  O  O274  1  0.60775897  0.98455832  0.73107977  1
  O  O275  1  0.36659049  -0.00597055  0.25553588  1
  O  O276  1  0.38220908  0.01176390  0.75925353  1
  O  O277  1  0.36797928  0.50809778  0.25108691  1
  O  O278  1  0.36837934  0.49975891  0.75691211  1
  O  O279  1  0.87553264  0.00193851  0.26482152  1
  O  O280  1  0.87049257  0.00500410  0.76355401  1
  O  O281  1  0.87456733  0.50570579  0.26264019  1
  O  O282  1  0.86465128  0.50106607  0.75629541  1
  O  O283  1  0.11357030  0.37173695  0.36704114  1
  O  O284  1  0.12341450  0.36450503  0.86757689  1
  O  O285  1  0.12521406  0.86654248  0.37168905  1
  O  O286  1  0.11234499  0.88186200  0.86130459  1
  O  O287  1  0.61836759  0.36342797  0.37483733  1
  O  O288  1  0.61886690  0.36928607  0.87139475  1
  O  O289  1  0.60953950  0.88058736  0.37205698  1
  O  O290  1  0.61821022  0.87045220  0.88379272  1
  O  O291  1  0.38310008  0.13349299  0.12136510  1
  O  O292  1  0.38372101  0.13084321  0.63069981  1
  O  O293  1  0.37317360  0.62919108  0.13426179  1
  O  O294  1  0.38284649  0.63201292  0.62474856  1
  O  O295  1  0.88196627  0.13059510  0.12617625  1
  O  O296  1  0.88636227  0.13109572  0.62574678  1
  O  O297  1  0.87944923  0.63082858  0.13219802  1
  O  O298  1  0.88661742  0.62997119  0.62663789  1
  O  O299  1  0.25344522  0.25376048  0.12272051  1
  O  O300  1  0.26562700  0.25049167  0.62525077  1
  O  O301  1  0.27494950  0.75429475  0.13910930  1
  O  O302  1  0.26407496  0.74045102  0.62899715  1
  O  O303  1  0.75982351  0.24302597  0.11959219  1
  O  O304  1  0.75828084  0.24548205  0.62105449  1
  O  O305  1  0.75811016  0.74674588  0.11889564  1
  O  O306  1  0.75463094  0.75896349  0.61865796  1
  O  O307  1  0.23957827  0.22891538  0.35788685  1
  O  O308  1  0.24529154  0.24150197  0.87942668  1
  O  O309  1  0.25295425  0.74298066  0.36335842  1
  O  O310  1  0.26012677  0.73188876  0.87034863  1
  O  O311  1  0.74355157  0.24290977  0.38295328  1
  O  O312  1  0.73813358  0.25348141  0.88625273  1
  O  O313  1  0.75893901  0.73676144  0.38326586  1
  O  O314  1  0.75043514  0.74387548  0.88161686  1
  O  O315  1  0.00552351  0.11766649  0.01004010  1
  O  O316  1  0.01196132  0.12465439  0.50966848  1
  O  O317  1  -0.00604231  0.62743828  0.01291725  1
  O  O318  1  0.01419209  0.62331234  0.50464755  1
  O  O319  1  0.50510638  0.11864791  0.01332243  1
  O  O320  1  0.49228738  0.11543135  0.51189806  1
  O  O321  1  0.50824671  0.61598146  -0.00827555  1
  O  O322  1  0.50709286  0.62624372  0.50781670  1
  O  O323  1  0.50287827  0.37796103  0.48678447  1
  O  O324  1  0.49372221  0.38323115  0.99405993  1
  O  O325  1  0.49508756  0.88072019  0.49175601  1
  O  O326  1  0.49290720  0.89345439  0.99940257  1
  O  O327  1  0.99849067  0.37660488  0.48919430  1
  O  O328  1  0.98493239  0.36936703  0.99484856  1
  O  O329  1  1.01003982  0.87236966  0.48830612  1
  O  O330  1  0.99912873  0.88151725  0.98976026  1
  O  O331  1  0.49476057  0.49518578  0.37633656  1
  O  O332  1  0.49499441  0.49217219  0.88277775  1
  O  O333  1  0.49371695  0.99771745  0.37871111  1
  O  O334  1  0.49663249  1.01014957  0.88152762  1
  O  O335  1  0.99236849  0.49197952  0.37687098  1
  O  O336  1  0.98521453  0.50252546  0.87028198  1
  O  O337  1  0.99550519  0.98839224  0.37946034  1
  O  O338  1  0.99182706  0.99426664  0.88156181  1
  O  O339  1  0.00398944  0.00374265  0.11845297  1
  O  O340  1  0.00136970  0.01245635  0.62742094  1
  O  O341  1  0.00408852  0.50447328  0.12775220  1
  O  O342  1  0.01138866  0.50735007  0.62273940  1
  O  O343  1  0.50535409  0.00809060  0.12020502  1
  O  O344  1  0.50018937  0.00596959  0.61545337  1
  O  O345  1  0.50469652  0.49614593  0.11337038  1
  O  O346  1  0.50520448  0.50930990  0.62206859  1
  O  O347  1  0.24187418  0.38446901  0.24849438  1
  O  O348  1  0.23979963  0.38759978  0.75573497  1
  O  O349  1  0.23903863  0.88537924  0.25519590  1
  O  O350  1  0.23854175  0.87665631  0.76339096  1
  O  O351  1  0.74271124  0.38122377  0.25407057  1
  O  O352  1  0.73908070  0.38524788  0.75060935  1
  O  O353  1  0.74576117  0.87655133  0.24804336  1
  O  O354  1  0.74948612  0.88126044  0.73924719  1
  O  O355  1  0.24229888  0.10871595  0.25601814  1
  O  O356  1  0.26285193  0.12858040  0.75777023  1
  O  O357  1  0.25257492  0.61369760  0.25028605  1
  O  O358  1  0.25130262  0.61035406  0.76007866  1
  O  O359  1  0.75064783  0.12144109  0.26608610  1
  O  O360  1  0.69616860  0.10910741  0.77017076  1
  O  O361  1  0.75676247  0.62063950  0.25912268  1
  O  O362  1  0.74882988  0.61910519  0.75762027  1
  O  O363  1  0.36697885  0.11292165  0.37840790  1
  O  O364  1  0.37323522  0.12534777  0.86630594  1
  O  O365  1  0.36418426  0.62048672  0.36372260  1
  O  O366  1  0.37532991  0.61076271  0.87205063  1
  O  O367  1  0.86838958  0.11788117  0.37517300  1
  O  O368  1  0.87883553  0.11153199  0.88084186  1
  O  O369  1  0.87070214  0.61692015  0.37342401  1
  O  O370  1  0.86408312  0.61944442  0.87360175  1
  O  O371  1  0.12656423  0.37569915  0.13271843  1
  O  O372  1  0.12228653  0.38190463  0.62914292  1
  O  O373  1  0.12479776  0.88453227  0.13264403  1
  O  O374  1  0.12435609  0.89134649  0.63795230  1
  O  O375  1  0.62186865  0.39063168  0.12234727  1
  O  O376  1  0.62551639  0.38138024  0.63357274  1
  O  O377  1  0.62547454  0.88587507  0.12617520  1
  O  O378  1  0.63707198  0.88213472  0.61352940  1
  O  O379  1  0.12078110  0.26087144  0.25456599  1
  O  O380  1  0.13298954  0.25765430  0.75724855  1
  O  O381  1  0.11708812  0.75638669  0.23979131  1
  O  O382  1  0.12691546  0.76787871  0.73878187  1
  O  O383  1  0.61289852  0.24766339  0.25958116  1
  O  O384  1  0.62863118  0.26240266  0.75925027  1
  O  O385  1  0.61275197  0.74456452  0.24369245  1
  O  O386  1  0.60939585  0.74612881  0.74693143  1
  O  O387  1  0.38705939  0.25624965  0.25105782  1
  O  O388  1  0.37584931  0.24115339  0.73973148  1
  O  O389  1  0.38715058  0.74294291  0.24324210  1
  O  O390  1  0.38516261  0.74704652  0.73688694  1
  O  O391  1  0.87643287  0.24541897  0.24267502  1
  O  O392  1  0.86530688  0.24998762  0.73898135  1
  O  O393  1  0.88235097  0.74390070  0.24456864  1
  O  O394  1  0.86763151  0.74713115  0.73401691  1
  O  O395  1  0.37447352  0.50880029  0.48528098  1
  O  O396  1  0.38144201  0.49373558  0.99488071  1
  O  O397  1  0.38209722  0.99506150  0.49082776  1
  O  O398  1  0.38503728  1.00073872  0.98822157  1
  O  O399  1  0.87678390  0.49764149  0.49031759  1
  O  O400  1  0.86565460  0.49065183  0.99148653  1
  O  O401  1  0.87953425  1.00363370  0.48878829  1
  O  O402  1  0.88656358  0.99785404  0.99595640  1
  O  O403  1  0.11512763  0.00430028  0.00089935  1
  O  O404  1  0.11988049  0.00746560  0.51664212  1
  O  O405  1  0.12440130  0.48681725  0.01082742  1
  O  O406  1  0.12600134  0.50640264  0.50643983  1
  O  O407  1  0.62065666  0.01043603  0.00878143  1
  O  O408  1  0.60878123  -0.00197067  0.50625427  1
  O  O409  1  0.61907592  0.50455598  0.00686758  1
  O  O410  1  0.62574873  0.51021822  0.50716715  1
  O  O411  1  0.36919643  0.36809967  0.12256604  1
  O  O412  1  0.38562137  0.35956313  0.62856112  1
  O  O413  1  0.37919690  0.87016551  0.11104120  1
  O  O414  1  0.36947907  0.86238868  0.62068575  1
  O  O415  1  0.87794789  0.36463171  0.11874520  1
  O  O416  1  0.87578494  0.36230420  0.62638798  1
  O  O417  1  0.87848870  0.86165497  0.12577380  1
  O  O418  1  0.86619457  0.86990055  0.62519907  1
  O  O419  1  0.12740712  0.12442894  0.38453609  1
  O  O420  1  0.13362078  0.12878631  0.87668276  1
  O  O421  1  0.13573578  0.62141587  0.37879866  1
  O  O422  1  0.13690510  0.62458185  0.87527120  1
  O  O423  1  0.63058710  0.13601589  0.37562074  1
  O  O424  1  0.60190022  0.14490659  0.89423586  1
  O  O425  1  0.63517616  0.61968059  0.38311417  1
  O  O426  1  0.63461533  0.62680549  0.88391568  1
