# generated using pymatgen
data_V85Zn86O256
_symmetry_space_group_name_H-M   'P 1'
_cell_length_a   16.97851822
_cell_length_b   16.97314444
_cell_length_c   16.98254504
_cell_angle_alpha   90.09575739
_cell_angle_beta   90.02169286
_cell_angle_gamma   90.07493752
_symmetry_Int_Tables_number   1
_chemical_formula_structural   V85Zn86O256
_chemical_formula_sum   'V85 Zn86 O256'
_cell_volume   4893.99878976
_cell_formula_units_Z   1
loop_
 _symmetry_equiv_pos_site_id
 _symmetry_equiv_pos_as_xyz
  1  'x, y, z'
loop_
 _atom_site_type_symbol
 _atom_site_label
 _atom_site_symmetry_multiplicity
 _atom_site_fract_x
 _atom_site_fract_y
 _atom_site_fract_z
 _atom_site_occupancy
  V  V0  1  0.62222478  0.37561373  0.75272770  1
  V  V1  1  0.75516547  0.74927117  0.02229296  1
  V  V2  1  0.12929907  0.63509384  0.00022489  1
  V  V3  1  0.88251988  0.13587349  0.74828200  1
  V  V4  1  0.12483573  0.61848893  0.49797072  1
  V  V5  1  0.75061656  0.50092359  0.75156210  1
  V  V6  1  0.74668086  0.11895719  0.87388218  1
  V  V7  1  -0.00357025  0.38489317  0.37388962  1
  V  V8  1  0.37048155  -0.00019208  0.87365663  1
  V  V9  1  0.12893598  0.13094662  -0.00713049  1
  V  V10  1  0.19202786  -0.05519464  0.30700799  1
  V  V11  1  0.12849888  0.37987470  0.24554681  1
  V  V12  1  0.00157590  0.50099722  0.00287057  1
  V  V13  1  -0.00065486  0.75351934  0.75588985  1
  V  V14  1  0.62368216  0.00041646  0.62350334  1
  V  V15  1  0.87369042  0.11725213  0.25235707  1
  V  V16  1  0.48432952  0.12398798  0.13460468  1
  V  V17  1  0.24108319  0.87655066  0.11801452  1
  V  V18  1  0.12081532  0.12994823  0.50168564  1
  V  V19  1  0.49057707  0.00944819  -0.00067071  1
  V  V20  1  0.37416683  0.62617901  0.74941866  1
  V  V21  1  0.12389087  0.35969929  0.75196359  1
  V  V22  1  0.87559686  0.37329614  0.00030424  1
  V  V23  1  0.36842809  0.74589768  0.13763395  1
  V  V24  1  0.62214864  0.25195687  0.37714470  1
  V  V25  1  0.74947652  0.37363424  0.12664860  1
  V  V26  1  0.00430344  0.11861748  0.12319044  1
  V  V27  1  0.00593224  -0.00452329  -0.01038153  1
  V  V28  1  0.63236331  0.74860567  0.87637011  1
  V  V29  1  0.25391044  0.50915020  0.24768551  1
  V  V30  1  0.87403021  0.24780733  0.12429948  1
  V  V31  1  0.37534678  0.12487279  0.74799723  1
  V  V32  1  0.75834058  0.13707314  0.38222215  1
  V  V33  1  0.25136306  0.88141027  0.61863756  1
  V  V34  1  0.38071614  0.37688077  0.49197231  1
  V  V35  1  0.88431151  0.00185413  0.39255015  1
  V  V36  1  0.63270632  0.12893593  0.49870429  1
  V  V37  1  0.49744149  0.62765964  0.13575461  1
  V  V38  1  -0.01064740  0.63406013  0.12488059  1
  V  V39  1  0.75134090  0.87025265  0.61296495  1
  V  V40  1  0.07611327  -0.04579201  0.56198523  1
  V  V41  1  0.75198759  0.36635298  0.62246105  1
  V  V42  1  0.12140423  0.87849891  0.75683562  1
  V  V43  1  0.37378219  0.26197792  0.12875235  1
  V  V44  1  0.62552329  0.50193437  0.62619985  1
  V  V45  1  0.75168919  -0.00094612  0.74964797  1
  V  V46  1  0.00451992  0.36339369  0.87202329  1
  V  V47  1  0.23994349  0.75261800  0.50001052  1
  V  V48  1  0.75783164  0.49867634  0.26462697  1
  V  V49  1  0.24569153  0.00281590  0.74261468  1
  V  V50  1  0.49837488  0.25072178  0.75235798  1
  V  V51  1  0.62201288  0.24599612  0.88148975  1
  V  V52  1  0.24988997  0.37759260  0.62252285  1
  V  V53  1  0.62834363  0.62471533  0.00315560  1
  V  V54  1  0.87793687  0.87027774  -0.00100327  1
  V  V55  1  0.37867392  0.25249171  0.62233366  1
  V  V56  1  0.37295077  0.49865802  0.87945700  1
  V  V57  1  0.62604661  0.87594704  0.75385208  1
  V  V58  1  0.63141185  0.76778229  0.37048195  1
  V  V59  1  0.37054339  0.86199776  -0.00303584  1
  V  V60  1  0.62757527  0.49974258  0.12816443  1
  V  V61  1  0.25308614  0.26232536  -0.00749022  1
  V  V62  1  0.50092585  0.12430070  0.62295907  1
  V  V63  1  0.87377566  0.62772864  0.26523434  1
  V  V64  1  0.50207003  0.50060180  0.49557678  1
  V  V65  1  0.64155743  0.63348674  0.49189463  1
  V  V66  1  0.50178451  0.62790468  0.62266159  1
  V  V67  1  0.50357573  -0.00323278  0.49166207  1
  V  V68  1  0.37636191  0.00127016  0.36500071  1
  V  V69  1  0.37862316  0.50914071  0.37118300  1
  V  V70  1  0.49745712  0.37595097  0.88006365  1
  V  V71  1  0.24803430  0.63171541  0.37171994  1
  V  V72  1  0.37885031  0.87359641  0.49468096  1
  V  V73  1  0.24602139  0.50349612  0.74983482  1
  V  V74  1  0.25383942  0.24934400  0.49427189  1
  V  V75  1  0.50023708  0.75128564  0.75128338  1
  V  V76  1  0.74618825  0.24865830  0.00146508  1
  V  V77  1  0.49666422  0.49728950  0.00354685  1
  V  V78  1  0.87639741  0.50069415  0.87560375  1
  V  V79  1  -0.00120917  0.62015923  0.62921939  1
  V  V80  1  0.00539948  0.75834235  0.25621640  1
  V  V81  1  0.61683072  0.37239848  0.25701874  1
  V  V82  1  0.25427192  0.12787858  0.35687068  1
  V  V83  1  0.00153693  0.25216063  0.24769357  1
  V  V84  1  0.65759656  0.08440525  0.04720462  1
  Zn  Zn85  1  0.86914439  0.74401008  0.62151495  1
  Zn  Zn86  1  0.87509980  0.62791127  0.75043662  1
  Zn  Zn87  1  0.24761738  0.13291559  0.87085645  1
  Zn  Zn88  1  0.25268128  0.63355576  0.87991208  1
  Zn  Zn89  1  0.12921546  0.75751037  0.87925379  1
  Zn  Zn90  1  0.88649610  0.25204722  0.61542649  1
  Zn  Zn91  1  0.37430519  0.75087713  0.62281151  1
  Zn  Zn92  1  0.86175158  0.37373205  0.48606352  1
  Zn  Zn93  1  0.69882334  -0.07722717  0.17072147  1
  Zn  Zn94  1  0.87587134  0.87409034  0.49990312  1
  Zn  Zn95  1  -0.01003322  0.50169742  0.49605336  1
  Zn  Zn96  1  0.49862425  0.87260006  0.87963353  1
  Zn  Zn97  1  0.49506585  0.24920748  0.25831321  1
  Zn  Zn98  1  0.01079369  0.13079684  0.63018461  1
  Zn  Zn99  1  0.12651564  0.50510309  0.12412217  1
  Zn  Zn100  1  0.12892086  0.25277189  0.37043312  1
  Zn  Zn101  1  0.75308378  0.62511490  0.87751962  1
  Zn  Zn102  1  0.25368879  0.38429570  0.11904049  1
  Zn  Zn103  1  0.13135619  0.00241714  0.12974666  1
  Zn  Zn104  1  0.12337670  0.49692040  0.62480311  1
  Zn  Zn105  1  0.88297065  -0.00345879  0.86978136  1
  Zn  Zn106  1  0.49924347  0.75861715  0.26084879  1
  Zn  Zn107  1  0.18735122  0.19337221  0.17935767  1
  Zn  Zn108  1  0.19163984  0.18904645  0.68121531  1
  Zn  Zn109  1  0.18219341  0.69123969  0.18498829  1
  Zn  Zn110  1  0.18402503  0.69072445  0.68583471  1
  Zn  Zn111  1  0.66507060  0.09692643  0.22065400  1
  Zn  Zn112  1  0.68472857  0.18662946  0.69253942  1
  Zn  Zn113  1  0.68798274  0.68411290  0.19703589  1
  Zn  Zn114  1  0.68803515  0.68763682  0.68744068  1
  Zn  Zn115  1  0.31410700  0.31969716  0.31033212  1
  Zn  Zn116  1  0.31288567  0.31785730  0.81116345  1
  Zn  Zn117  1  0.31326708  0.81129722  0.31473488  1
  Zn  Zn118  1  0.30803438  0.81119913  0.81106005  1
  Zn  Zn119  1  0.81168993  0.30886998  0.30948404  1
  Zn  Zn120  1  0.81051820  0.31366555  0.81453898  1
  Zn  Zn121  1  0.81218453  0.80269626  0.32119929  1
  Zn  Zn122  1  0.81695374  0.81555352  0.81514851  1
  Zn  Zn123  1  0.18784938  0.43900637  0.43212111  1
  Zn  Zn124  1  0.18330250  0.44193193  0.93411464  1
  Zn  Zn125  1  0.01211500  0.88250971  0.36847067  1
  Zn  Zn126  1  0.18969167  0.94141271  0.93824200  1
  Zn  Zn127  1  0.68389188  0.43863551  0.44005167  1
  Zn  Zn128  1  0.68646618  0.43674346  0.93896522  1
  Zn  Zn129  1  0.71370238  0.94199277  0.33240259  1
  Zn  Zn130  1  0.66089779  0.90629957  0.97896839  1
  Zn  Zn131  1  0.30856164  0.06487774  0.06388788  1
  Zn  Zn132  1  0.31325898  0.06329180  0.55484788  1
  Zn  Zn133  1  0.31361490  0.56597498  0.06238382  1
  Zn  Zn134  1  0.31321104  0.56479481  0.56200072  1
  Zn  Zn135  1  0.82978920  0.04589721  0.06983564  1
  Zn  Zn136  1  0.81266404  0.06395452  0.56589749  1
  Zn  Zn137  1  0.81403230  0.56157257  0.06719367  1
  Zn  Zn138  1  0.81775059  0.55362825  0.56173555  1
  Zn  Zn139  1  0.43687419  0.43912671  0.18894529  1
  Zn  Zn140  1  0.43589866  0.43978516  0.68693791  1
  Zn  Zn141  1  0.42303930  0.93957469  0.17915372  1
  Zn  Zn142  1  0.43722956  0.93585488  0.68541398  1
  Zn  Zn143  1  0.93699208  0.44019993  0.18718064  1
  Zn  Zn144  1  0.93839334  0.43555477  0.68840993  1
  Zn  Zn145  1  0.88496284  0.90811271  0.20748817  1
  Zn  Zn146  1  0.93580791  0.93932387  0.68824790  1
  Zn  Zn147  1  0.06068420  0.07079776  0.31792820  1
  Zn  Zn148  1  0.06729223  0.06714268  0.81199047  1
  Zn  Zn149  1  0.06571456  0.56771200  0.30941413  1
  Zn  Zn150  1  0.06229295  0.56113084  0.81568308  1
  Zn  Zn151  1  0.55091172  -0.06163599  0.30267866  1
  Zn  Zn152  1  0.56103291  0.06107822  0.81541997  1
  Zn  Zn153  1  0.56724978  0.56336466  0.31454597  1
  Zn  Zn154  1  0.56233091  0.56491457  0.81479107  1
  Zn  Zn155  1  0.44008980  0.18227577  0.43438542  1
  Zn  Zn156  1  0.42967992  0.18816332  0.94060348  1
  Zn  Zn157  1  0.44113973  0.69129066  0.43596868  1
  Zn  Zn158  1  0.44244381  0.68348586  0.93945997  1
  Zn  Zn159  1  0.93996167  0.20130950  0.43915437  1
  Zn  Zn160  1  0.93502019  0.18310959  0.93663100  1
  Zn  Zn161  1  0.93765072  0.68905712  0.43445284  1
  Zn  Zn162  1  0.93902234  0.68954318  0.93587528  1
  Zn  Zn163  1  0.06593199  0.31298087  0.06205855  1
  Zn  Zn164  1  0.06219744  0.30982006  0.56192318  1
  Zn  Zn165  1  0.05524064  0.81285899  0.06883271  1
  Zn  Zn166  1  0.03108274  0.78128613  0.54056210  1
  Zn  Zn167  1  0.56270421  0.31051929  0.06621453  1
  Zn  Zn168  1  0.56466557  0.31426183  0.56215219  1
  Zn  Zn169  1  0.54219537  0.83905021  0.10929785  1
  Zn  Zn170  1  0.56655874  0.81250488  0.56008016  1
  O  O171  1  0.12016753  0.12499816  0.11466966  1
  O  O172  1  0.12951443  0.12853550  0.60900567  1
  O  O173  1  0.11238578  0.62542988  0.11502301  1
  O  O174  1  0.11942816  0.62018722  0.61684269  1
  O  O175  1  0.60642657  0.13456895  0.12399987  1
  O  O176  1  0.62032583  0.12152106  0.62041858  1
  O  O177  1  0.61944743  0.61996253  0.12194779  1
  O  O178  1  0.61814106  0.62202419  0.61805715  1
  O  O179  1  0.37202436  0.38858580  0.38674866  1
  O  O180  1  0.38187538  0.39096667  0.87046683  1
  O  O181  1  0.36812593  0.88324305  0.38837533  1
  O  O182  1  0.37555668  0.88149629  0.88086879  1
  O  O183  1  0.89368190  0.37135886  0.36532839  1
  O  O184  1  0.88018428  0.38407937  0.87974251  1
  O  O185  1  0.87743997  0.89199007  0.38252034  1
  O  O186  1  0.87412308  0.88028597  0.89077120  1
  O  O187  1  0.25564797  0.00817955  0.36544098  1
  O  O188  1  0.25947037  0.00247828  0.86492420  1
  O  O189  1  0.25829377  0.51105093  0.36874464  1
  O  O190  1  0.25792812  0.50668687  0.86921174  1
  O  O191  1  0.77543280  0.02145055  0.38087009  1
  O  O192  1  0.74752289  0.01386339  0.86644714  1
  O  O193  1  0.74957121  0.49346764  0.36274096  1
  O  O194  1  0.75776084  0.49948725  0.86993715  1
  O  O195  1  0.25115378  0.50232139  0.13384303  1
  O  O196  1  0.25178216  0.49427397  0.63275671  1
  O  O197  1  0.25243139  0.98339465  0.12494897  1
  O  O198  1  0.26026925  0.99384440  0.63141943  1
  O  O199  1  0.74440805  0.49160165  0.13027547  1
  O  O200  1  0.74319967  0.49143120  0.63617806  1
  O  O201  1  0.72622153  1.03118917  0.11371929  1
  O  O202  1  0.74322189  0.99348268  0.63292045  1
  O  O203  1  0.00761258  0.37198222  0.25237345  1
  O  O204  1  0.01225469  0.38122466  0.75998732  1
  O  O205  1  -0.01521167  0.86120220  0.24540550  1
  O  O206  1  0.01095233  0.86876808  0.74048162  1
  O  O207  1  0.51422648  0.37670171  0.24762924  1
  O  O208  1  0.50305875  0.37136826  0.75702035  1
  O  O209  1  0.50501543  0.87184388  0.22207712  1
  O  O210  1  0.50723463  0.86854434  0.75176938  1
  O  O211  1  0.49818713  0.12859838  0.23227538  1
  O  O212  1  0.49444056  0.13033358  0.74377611  1
  O  O213  1  0.50519915  0.62342007  0.23735110  1
  O  O214  1  0.49703394  0.62962715  0.74047673  1
  O  O215  1  0.99852191  0.13556375  0.24175853  1
  O  O216  1  0.98570838  0.12081960  0.75167809  1
  O  O217  1  0.99061860  0.62970582  0.24487390  1
  O  O218  1  1.00043995  0.62818478  0.74489503  1
  O  O219  1  0.36057075  0.25087138  0.00982268  1
  O  O220  1  0.37492346  0.25945439  0.50040797  1
  O  O221  1  0.38119610  0.76033984  0.00273592  1
  O  O222  1  0.36723691  0.75794699  0.50049136  1
  O  O223  1  0.86762069  0.25341903  0.00370239  1
  O  O224  1  0.87390168  0.26322014  0.50183608  1
  O  O225  1  0.87020737  0.75850541  0.00019448  1
  O  O226  1  0.91183665  0.76547639  0.51344244  1
  O  O227  1  0.13880275  0.24675447  0.49326149  1
  O  O228  1  0.14222944  0.24490837  1.00761634  1
  O  O229  1  0.13463533  0.73867705  0.50316596  1
  O  O230  1  0.11386634  0.73754426  0.99972601  1
  O  O231  1  0.61772020  0.23723094  0.49609110  1
  O  O232  1  0.63243190  0.25068275  0.99450712  1
  O  O233  1  0.62237737  0.73876747  0.49174982  1
  O  O234  1  0.64435576  0.73987188  0.99155761  1
  O  O235  1  0.48507870  0.24329211  0.12007138  1
  O  O236  1  0.49586039  0.24628868  0.63106583  1
  O  O237  1  0.48802040  0.74059276  0.12604747  1
  O  O238  1  0.50134690  0.74201223  0.63060712  1
  O  O239  1  0.99587123  0.24410435  0.13085398  1
  O  O240  1  1.00046062  0.24494595  0.62579745  1
  O  O241  1  0.99469496  0.74223269  0.13583049  1
  O  O242  1  1.00461080  0.73251853  0.64061187  1
  O  O243  1  0.00670323  0.25906783  0.35831555  1
  O  O244  1  -0.00577254  0.26498295  0.88161603  1
  O  O245  1  -0.00013085  0.75913869  0.36184646  1
  O  O246  1  0.00657064  0.74506933  0.85991733  1
  O  O247  1  0.51515744  0.24271317  0.37443560  1
  O  O248  1  0.50088086  0.25564182  0.87399148  1
  O  O249  1  0.51872372  0.74580332  0.37503644  1
  O  O250  1  0.51224189  0.74786040  0.87007122  1
  O  O251  1  0.24857042  0.13915025  0.49403440  1
  O  O252  1  0.24408646  0.13632176  0.99848802  1
  O  O253  1  0.24459136  0.63247297  0.49554790  1
  O  O254  1  0.23186451  0.62291945  1.00300924  1
  O  O255  1  0.74217053  0.12448184  0.49819266  1
  O  O256  1  0.74578116  0.12741951  0.99227503  1
  O  O257  1  0.73815139  0.62303992  0.51090549  1
  O  O258  1  0.75236616  0.63563758  1.00053291  1
  O  O259  1  0.24375562  0.36609936  -0.00014994  1
  O  O260  1  0.25723781  0.36684497  0.49976872  1
  O  O261  1  0.25657059  0.87644816  0.00855022  1
  O  O262  1  0.25687598  0.86702343  0.51025254  1
  O  O263  1  0.75587002  0.36983477  0.00486935  1
  O  O264  1  0.74119007  0.37889765  0.52035436  1
  O  O265  1  0.76150021  0.85097111  -0.01037563  1
  O  O266  1  0.75006277  0.87715648  0.51572975  1
  O  O267  1  0.13466183  0.49717818  0.24614790  1
  O  O268  1  0.13878654  0.49799879  0.75157685  1
  O  O269  1  0.12881215  1.00340789  0.24971337  1
  O  O270  1  0.13899586  0.99831248  0.75130595  1
  O  O271  1  0.63718154  0.49537943  0.24706330  1
  O  O272  1  0.63017277  0.49590230  0.74790583  1
  O  O273  1  0.64102158  0.99095375  0.25360012  1
  O  O274  1  0.63027503  0.99522522  0.74531228  1
  O  O275  1  0.38115519  -0.00280754  0.26578309  1
  O  O276  1  0.36719379  0.00243100  0.75506498  1
  O  O277  1  0.36789591  0.49773939  0.26043310  1
  O  O278  1  0.36568925  0.50545459  0.75575097  1
  O  O279  1  0.88287262  0.01618297  0.25578056  1
  O  O280  1  0.86624379  0.00822552  0.75226992  1
  O  O281  1  0.86395487  0.50603431  0.24739009  1
  O  O282  1  0.86664744  0.49893581  0.75990259  1
  O  O283  1  0.12080185  0.37514955  0.35903725  1
  O  O284  1  0.11577211  0.37937321  0.86562442  1
  O  O285  1  0.13302183  0.89172949  0.36500449  1
  O  O286  1  0.13009006  0.87950876  0.85981638  1
  O  O287  1  0.63043751  0.36522600  0.37016174  1
  O  O288  1  0.61778709  0.36784256  0.87139913  1
  O  O289  1  0.62746112  0.87167082  0.37326988  1
  O  O290  1  0.61997881  0.86434497  0.87580719  1
  O  O291  1  0.37911130  0.13895427  0.12303038  1
  O  O292  1  0.38117829  0.13218092  0.62766185  1
  O  O293  1  0.38308080  0.63679916  0.11893646  1
  O  O294  1  0.38507369  0.62681512  0.63064751  1
  O  O295  1  0.88405139  0.12871087  0.13277068  1
  O  O296  1  0.87385642  0.12771226  0.64000121  1
  O  O297  1  0.88657486  0.61823057  0.13566525  1
  O  O298  1  0.88387405  0.62474706  0.62873524  1
  O  O299  1  0.26178042  0.25785778  0.11763657  1
  O  O300  1  0.26101487  0.25773943  0.61409230  1
  O  O301  1  0.25522311  0.76305190  0.13163824  1
  O  O302  1  0.25121530  0.75957552  0.61678564  1
  O  O303  1  0.75840255  0.25910282  0.11589002  1
  O  O304  1  0.74350745  0.26616101  0.63455384  1
  O  O305  1  0.75122344  0.74618796  0.12040464  1
  O  O306  1  0.75096576  0.76583295  0.63166346  1
  O  O307  1  0.25434508  0.24617548  0.37880802  1
  O  O308  1  0.25959726  0.25169175  0.88884460  1
  O  O309  1  0.25503717  0.73891200  0.38339681  1
  O  O310  1  0.24260454  0.74526393  0.87015093  1
  O  O311  1  0.74429519  0.24384762  0.37643312  1
  O  O312  1  0.74394373  0.24147072  0.88132407  1
  O  O313  1  0.73156903  0.75020401  0.38106480  1
  O  O314  1  0.73843028  0.74416866  0.86460885  1
  O  O315  1  0.00844507  0.12348353  0.00481567  1
  O  O316  1  0.01916797  0.13313765  0.49340917  1
  O  O317  1  0.00171958  0.61958160  0.00752521  1
  O  O318  1  0.00941165  0.62251516  0.50641120  1
  O  O319  1  0.49312891  0.11649725  0.00606707  1
  O  O320  1  0.50524307  0.11545207  0.50582769  1
  O  O321  1  0.50775198  0.61400789  0.00868756  1
  O  O322  1  0.50327456  0.61790560  0.51059966  1
  O  O323  1  0.49410606  0.39053350  0.50679787  1
  O  O324  1  0.50722952  0.38989555  0.99705118  1
  O  O325  1  0.49119358  0.88489533  0.50897767  1
  O  O326  1  0.48441273  0.89261303  1.00462665  1
  O  O327  1  1.01347999  0.37638500  0.47769557  1
  O  O328  1  0.99677963  0.38304332  0.99602250  1
  O  O329  1  1.02366881  0.88950008  0.49959755  1
  O  O330  1  0.99052348  0.88277518  1.00473107  1
  O  O331  1  0.49281024  0.50787416  0.38501438  1
  O  O332  1  0.49425740  0.49725064  0.88350861  1
  O  O333  1  0.49343823  0.99724851  0.38515059  1
  O  O334  1  0.48600308  0.99950036  0.87987329  1
  O  O335  1  1.00567819  0.48717997  0.36992312  1
  O  O336  1  0.99262966  0.49479196  0.88654408  1
  O  O337  1  0.98789829  1.00036676  0.37026402  1
  O  O338  1  1.00565204  1.00415078  0.88646191  1
  O  O339  1  0.00406763  0.01577838  0.11348508  1
  O  O340  1  0.00747598  0.00532159  0.61953717  1
  O  O341  1  -0.00024667  0.50589452  0.11346732  1
  O  O342  1  0.00316122  0.50863561  0.62589104  1
  O  O343  1  0.48605601  0.01651247  0.11585788  1
  O  O344  1  0.50480708  0.00550828  0.61911894  1
  O  O345  1  0.50425582  0.50600625  0.11992658  1
  O  O346  1  0.50578648  0.50884340  0.62070343  1
  O  O347  1  0.24408233  0.38943714  0.24825703  1
  O  O348  1  0.24531200  0.38448407  0.74469113  1
  O  O349  1  0.24672774  0.87961920  0.24603064  1
  O  O350  1  0.24381445  0.88223464  0.73563188  1
  O  O351  1  0.74672007  0.38373844  0.24503801  1
  O  O352  1  0.74142980  0.38457423  0.74889703  1
  O  O353  1  0.77617058  0.88404580  0.24838472  1
  O  O354  1  0.74525286  0.88805123  0.75127264  1
  O  O355  1  0.24760876  0.13554830  0.25817490  1
  O  O356  1  0.25683286  0.11879507  0.74839038  1
  O  O357  1  0.24322518  0.61894107  0.25749973  1
  O  O358  1  0.25656882  0.61849374  0.74699395  1
  O  O359  1  0.76380968  0.13350908  0.26535931  1
  O  O360  1  0.75530556  0.11670528  0.75442862  1
  O  O361  1  0.76453148  0.61243298  0.24820671  1
  O  O362  1  0.74987474  0.61093153  0.75080226  1
  O  O363  1  0.36416512  0.11371376  0.38220238  1
  O  O364  1  0.37220734  0.11731878  0.86535116  1
  O  O365  1  0.36668352  0.61540117  0.38286453  1
  O  O366  1  0.37741747  0.61489820  0.86820634  1
  O  O367  1  0.87879689  0.12461331  0.37158997  1
  O  O368  1  0.86527915  0.12398556  0.86367200  1
  O  O369  1  0.88218981  0.61826866  0.36382515  1
  O  O370  1  0.87479250  0.61170493  0.87419742  1
  O  O371  1  0.12705615  0.38118733  0.13496186  1
  O  O372  1  0.13364367  0.37727087  0.63228817  1
  O  O373  1  0.13785669  0.87687599  0.11934724  1
  O  O374  1  0.13246318  0.89110348  0.62513975  1
  O  O375  1  0.63143093  0.37856114  0.13445818  1
  O  O376  1  0.62974476  0.38186914  0.63408922  1
  O  O377  1  0.64111170  0.87764228  0.08839319  1
  O  O378  1  0.63508901  0.87965956  0.63163461  1
  O  O379  1  0.11856056  0.26072899  0.24565016  1
  O  O380  1  0.13803914  0.26108545  0.75175222  1
  O  O381  1  0.10406074  0.74782711  0.24726592  1
  O  O382  1  0.11955842  0.76384717  0.74823253  1
  O  O383  1  0.62141083  0.26074276  0.26252077  1
  O  O384  1  0.61583529  0.25574723  0.75934727  1
  O  O385  1  0.62405961  0.74723695  0.26622632  1
  O  O386  1  0.61883030  0.75490489  0.75639110  1
  O  O387  1  0.37833869  0.25969743  0.23532111  1
  O  O388  1  0.38016079  0.24720404  0.74365762  1
  O  O389  1  0.37864332  0.75248502  0.24111251  1
  O  O390  1  0.38496268  0.74568921  0.74752730  1
  O  O391  1  0.88444104  0.24302968  0.24304341  1
  O  O392  1  0.86786005  0.23652255  0.75080061  1
  O  O393  1  0.88008922  0.73267395  0.25653531  1
  O  O394  1  0.88402728  0.74958682  0.74724212  1
  O  O395  1  0.38261499  0.49594507  0.49458385  1
  O  O396  1  0.38410410  0.50609454  0.99152996  1
  O  O397  1  0.38367121  0.99331056  0.49309993  1
  O  O398  1  0.37363114  0.99738201  0.98940360  1
  O  O399  1  0.87812056  0.48347223  0.50229706  1
  O  O400  1  0.88034400  0.49367053  0.99434621  1
  O  O401  1  0.88212393  1.00177954  0.49503060  1
  O  O402  1  0.88986491  0.99969026  0.98768423  1
  O  O403  1  0.12174074  0.00949783  0.00362639  1
  O  O404  1  0.13256871  0.01443979  0.50448561  1
  O  O405  1  0.11536911  0.50939968  0.00252066  1
  O  O406  1  0.12657048  0.50937385  0.50152387  1
  O  O407  1  0.60967035  0.01140705  -0.01293450  1
  O  O408  1  0.61507567  0.01323076  0.50803644  1
  O  O409  1  0.62102797  0.50542472  0.00804086  1
  O  O410  1  0.61778501  0.50961492  0.50570251  1
  O  O411  1  0.37583660  0.36600947  0.12155621  1
  O  O412  1  0.37107178  0.37326094  0.61269232  1
  O  O413  1  0.36243024  0.86477433  0.11548571  1
  O  O414  1  0.36753167  0.87401179  0.61499962  1
  O  O415  1  0.87093743  0.36974999  0.11900849  1
  O  O416  1  0.85711065  0.37139957  0.63712375  1
  O  O417  1  0.85955893  0.90146392  0.09604242  1
  O  O418  1  0.85983066  0.87932383  0.62451282  1
  O  O419  1  0.13789073  0.12938746  0.38298492  1
  O  O420  1  0.12910756  0.12745269  0.88787519  1
  O  O421  1  0.13600032  0.62132331  0.38445849  1
  O  O422  1  0.12244851  0.62351216  0.89296280  1
  O  O423  1  0.64255270  0.13406563  0.38493096  1
  O  O424  1  0.63305127  0.13514879  0.86742269  1
  O  O425  1  0.62956097  0.62150102  0.39128894  1
  O  O426  1  0.62778156  0.62994455  0.88438427  1
