# generated using pymatgen
data_V85Zn86O256
_symmetry_space_group_name_H-M   'P 1'
_cell_length_a   16.94279937
_cell_length_b   16.94178611
_cell_length_c   16.94592781
_cell_angle_alpha   90.07065413
_cell_angle_beta   89.97316149
_cell_angle_gamma   89.99739939
_symmetry_Int_Tables_number   1
_chemical_formula_structural   V85Zn86O256
_chemical_formula_sum   'V85 Zn86 O256'
_cell_volume   4864.17662487
_cell_formula_units_Z   1
loop_
 _symmetry_equiv_pos_site_id
 _symmetry_equiv_pos_as_xyz
  1  'x, y, z'
loop_
 _atom_site_type_symbol
 _atom_site_label
 _atom_site_symmetry_multiplicity
 _atom_site_fract_x
 _atom_site_fract_y
 _atom_site_fract_z
 _atom_site_occupancy
  V  V0  1  0.61951588  0.62624886  0.00814847  1
  V  V1  1  0.37381405  0.24627026  0.13251730  1
  V  V2  1  0.37612252  -0.00273636  0.36921254  1
  V  V3  1  0.12459096  0.50897621  0.12818677  1
  V  V4  1  0.37736609  0.87213808  0.50153349  1
  V  V5  1  0.75237311  0.87796239  0.62232494  1
  V  V6  1  0.38377656  0.37246473  -0.00387943  1
  V  V7  1  0.76817589  0.12219498  0.35439775  1
  V  V8  1  0.13430167  0.87871577  0.25627578  1
  V  V9  1  0.24967773  0.24368567  0.49882454  1
  V  V10  1  0.37294743  0.50103349  0.36979929  1
  V  V11  1  0.62022865  0.75025100  0.87602455  1
  V  V12  1  0.75088608  0.49872366  0.25024502  1
  V  V13  1  0.37513252  0.62574848  0.73840561  1
  V  V14  1  0.62747681  0.87949912  0.25069737  1
  V  V15  1  0.12718151  0.74834606  0.87207913  1
  V  V16  1  0.49705816  0.73896021  0.24181523  1
  V  V17  1  0.62736534  0.13379357  0.48837566  1
  V  V18  1  0.50582151  0.37455697  0.37906616  1
  V  V19  1  0.11318369  0.00454589  0.62384796  1
  V  V20  1  0.00128739  0.24828296  0.74485490  1
  V  V21  1  0.12207013  0.87150687  0.74148828  1
  V  V22  1  0.74875071  0.62824187  0.37213155  1
  V  V23  1  0.62857114  0.36814168  0.25365379  1
  V  V24  1  0.11736774  0.50219831  0.60795790  1
  V  V25  1  0.12732869  0.38525702  0.75053806  1
  V  V26  1  0.74850547  0.00112378  0.75340945  1
  V  V27  1  0.62253184  0.87644105  0.75181619  1
  V  V28  1  0.12491575  0.38030687  0.25115508  1
  V  V29  1  0.24924985  0.37965916  0.62692635  1
  V  V30  1  0.24991624  0.75354324  0.00485050  1
  V  V31  1  0.61639992  0.25584556  0.87560624  1
  V  V32  1  0.25177962  0.62362515  0.37016355  1
  V  V33  1  0.49857696  0.12270748  0.13103050  1
  V  V34  1  0.75137546  0.13594155  0.87649548  1
  V  V35  1  0.37539217  0.37367401  0.49909216  1
  V  V36  1  0.24908342  0.25152301  0.00246571  1
  V  V37  1  0.75022288  0.50173005  0.74838217  1
  V  V38  1  0.49799033  0.87347505  0.87537788  1
  V  V39  1  0.74852713  0.62617740  0.87025310  1
  V  V40  1  0.61724784  0.62555108  0.50464239  1
  V  V41  1  0.37326999  0.87414200  0.01321789  1
  V  V42  1  0.12051345  0.74552602  0.37769519  1
  V  V43  1  0.24884376  0.12560191  0.87515526  1
  V  V44  1  -0.00198843  0.50610961  0.00721531  1
  V  V45  1  0.25450805  0.74450760  0.50463158  1
  V  V46  1  0.00209202  0.74720441  0.24139564  1
  V  V47  1  0.00016152  0.37862472  0.38102348  1
  V  V48  1  0.87479972  0.87388609  -0.00222244  1
  V  V49  1  0.50146678  -0.00007256  0.00234036  1
  V  V50  1  0.25246877  0.12238505  0.36586563  1
  V  V51  1  0.87882364  0.12365302  0.74510108  1
  V  V52  1  0.12200974  0.12681249  0.00883511  1
  V  V53  1  0.37520670  -0.00271543  0.87511994  1
  V  V54  1  0.50351117  0.12626910  0.62658141  1
  V  V55  1  0.93653666  0.92710256  0.45821239  1
  V  V56  1  0.37714258  0.49514592  0.86671058  1
  V  V57  1  0.50170812  -0.00402402  0.49582606  1
  V  V58  1  0.74326701  0.37536477  0.62440757  1
  V  V59  1  -0.00127176  0.37718460  0.87563343  1
  V  V60  1  0.49533484  0.74730586  0.73583163  1
  V  V61  1  0.61512268  0.75650515  0.37395409  1
  V  V62  1  0.25095537  0.38106404  0.13050540  1
  V  V63  1  0.00135729  0.87319165  0.87169276  1
  V  V64  1  0.37548554  0.12339790  0.75028185  1
  V  V65  1  0.00310360  0.00176677  -0.00241250  1
  V  V66  1  0.74962838  0.75055542  0.00332135  1
  V  V67  1  0.75404330  0.75708535  0.49634020  1
  V  V68  1  0.87537164  0.24676848  0.11815920  1
  V  V69  1  0.87465545  0.50460678  0.87274776  1
  V  V70  1  0.11312893  0.12145720  0.50004306  1
  V  V71  1  0.25017218  0.61907713  0.87030135  1
  V  V72  1  0.87271619  0.25066134  0.62340360  1
  V  V73  1  -0.00738874  0.73595229  0.74988094  1
  V  V74  1  0.12383874  0.25071640  0.87506425  1
  V  V75  1  0.50151990  0.24638666  0.25720862  1
  V  V76  1  0.63032159  0.12888828  0.00226809  1
  V  V77  1  -0.00408647  0.24543085  0.24695418  1
  V  V78  1  0.13638354  -0.01139827  0.12276710  1
  V  V79  1  0.87810318  0.50173376  0.38345284  1
  V  V80  1  0.75013610  0.37289613  0.11753037  1
  V  V81  1  0.37413343  0.24957509  0.62631550  1
  V  V82  1  0.49711486  0.50504305  0.00334156  1
  V  V83  1  0.24927410  -0.00238149  0.74594878  1
  V  V84  1  0.86920128  0.74063574  0.63174581  1
  Zn  Zn85  1  0.49437681  0.50684218  0.50515427  1
  Zn  Zn86  1  0.87616004  0.38019828  0.50397899  1
  Zn  Zn87  1  0.88647651  0.61996777  0.24381451  1
  Zn  Zn88  1  -0.01214198  0.61007881  0.61239271  1
  Zn  Zn89  1  0.61464374  0.50783442  0.63343543  1
  Zn  Zn90  1  0.62005134  0.50218797  0.12941273  1
  Zn  Zn91  1  0.25388559  0.86951951  0.62509316  1
  Zn  Zn92  1  0.63280363  0.00407532  0.13366818  1
  Zn  Zn93  1  0.88335212  0.73968853  0.11804804  1
  Zn  Zn94  1  0.74581913  0.25300754  0.49104796  1
  Zn  Zn95  1  0.32771594  0.57045444  0.20797865  1
  Zn  Zn96  1  0.62559078  0.00223158  0.62277252  1
  Zn  Zn97  1  0.49391166  0.25943813  0.75588472  1
  Zn  Zn98  1  0.12378862  0.24808452  0.37377457  1
  Zn  Zn99  1  0.87084551  0.37574587  -0.00257156  1
  Zn  Zn100  1  0.61395487  0.38253158  0.75598585  1
  Zn  Zn101  1  -0.03825547  0.08469682  0.16658068  1
  Zn  Zn102  1  0.37616052  0.73417128  0.12697073  1
  Zn  Zn103  1  0.87655491  0.00276879  0.87427311  1
  Zn  Zn104  1  0.12099069  0.62842305  0.00175404  1
  Zn  Zn105  1  0.26031059  -0.00416054  0.24333379  1
  Zn  Zn106  1  0.75979157  0.88273202  0.13604653  1
  Zn  Zn107  1  0.18207898  0.18829612  0.18926101  1
  Zn  Zn108  1  0.18606477  0.18779276  0.68513038  1
  Zn  Zn109  1  0.18807419  0.69194806  0.18771978  1
  Zn  Zn110  1  0.18685752  0.68173609  0.68650861  1
  Zn  Zn111  1  0.68975721  0.18979503  0.18755961  1
  Zn  Zn112  1  0.68611156  0.18990577  0.69020041  1
  Zn  Zn113  1  0.69001938  0.69065285  0.18807533  1
  Zn  Zn114  1  0.68471943  0.69058789  0.68884434  1
  Zn  Zn115  1  0.31338577  0.31260732  0.31283764  1
  Zn  Zn116  1  0.31134406  0.31331613  0.81124845  1
  Zn  Zn117  1  0.31552763  0.81215876  0.31520130  1
  Zn  Zn118  1  0.31343122  0.80951380  0.81344054  1
  Zn  Zn119  1  0.81506411  0.30846688  0.31390830  1
  Zn  Zn120  1  0.80980751  0.31626913  0.80977915  1
  Zn  Zn121  1  0.81742200  0.81859951  0.31579445  1
  Zn  Zn122  1  0.81181071  0.81300312  0.81415448  1
  Zn  Zn123  1  0.19050138  0.43612575  0.43533938  1
  Zn  Zn124  1  0.18870478  0.43863371  0.94114846  1
  Zn  Zn125  1  0.18633095  0.93632368  0.43857844  1
  Zn  Zn126  1  0.18912161  0.93468766  0.93357440  1
  Zn  Zn127  1  0.68796857  0.43912898  0.43928253  1
  Zn  Zn128  1  0.68474776  0.44082903  0.93854648  1
  Zn  Zn129  1  0.69081968  0.94352318  0.43355077  1
  Zn  Zn130  1  0.68891406  0.94251771  0.94179819  1
  Zn  Zn131  1  0.31439074  0.06462481  0.06206121  1
  Zn  Zn132  1  0.31382208  0.05906832  0.56145242  1
  Zn  Zn133  1  0.30734504  0.56160121  0.04684647  1
  Zn  Zn134  1  0.30806263  0.55890901  0.55746670  1
  Zn  Zn135  1  0.81130875  0.06082235  0.06256050  1
  Zn  Zn136  1  0.81140118  0.06335179  0.56206103  1
  Zn  Zn137  1  0.81109768  0.56288010  0.06360229  1
  Zn  Zn138  1  0.80328158  0.56501839  0.56078745  1
  Zn  Zn139  1  0.44307284  0.43103316  0.18508714  1
  Zn  Zn140  1  0.44195162  0.43936601  0.68623803  1
  Zn  Zn141  1  0.44891217  0.93047016  0.19332534  1
  Zn  Zn142  1  0.43802665  0.93628240  0.68239048  1
  Zn  Zn143  1  0.93662243  0.43564172  0.19019070  1
  Zn  Zn144  1  0.93522145  0.43632627  0.68935277  1
  Zn  Zn145  1  0.94793524  0.91801770  0.18309953  1
  Zn  Zn146  1  0.93541812  0.93303406  0.67969778  1
  Zn  Zn147  1  -0.06775970  0.03276672  0.32738393  1
  Zn  Zn148  1  0.06315799  0.06380959  0.81277792  1
  Zn  Zn149  1  0.06489032  0.56405433  0.31676454  1
  Zn  Zn150  1  0.06153367  0.56250132  0.81096387  1
  Zn  Zn151  1  0.56319904  0.06176445  0.31577620  1
  Zn  Zn152  1  0.56296552  0.06537057  0.81419761  1
  Zn  Zn153  1  0.56359660  0.56105396  0.31701442  1
  Zn  Zn154  1  0.55705726  0.56268082  0.81620954  1
  Zn  Zn155  1  0.43588553  0.18305483  0.43763141  1
  Zn  Zn156  1  0.43756700  0.18466998  0.94259206  1
  Zn  Zn157  1  0.43452424  0.68866767  0.43164307  1
  Zn  Zn158  1  0.43484141  0.68633635  0.93583071  1
  Zn  Zn159  1  0.93687591  0.19322219  0.43591919  1
  Zn  Zn160  1  0.93748232  0.18846784  0.93728118  1
  Zn  Zn161  1  0.93352146  0.68701569  0.43402404  1
  Zn  Zn162  1  0.93655013  0.68436449  0.93454645  1
  Zn  Zn163  1  0.05993808  0.31899856  0.06415173  1
  Zn  Zn164  1  0.06301313  0.31062782  0.56287161  1
  Zn  Zn165  1  0.06595346  0.81368094  0.06258261  1
  Zn  Zn166  1  0.04106399  0.76694466  0.54070356  1
  Zn  Zn167  1  0.56375058  0.31053641  0.06466547  1
  Zn  Zn168  1  0.56102914  0.31317703  0.56702104  1
  Zn  Zn169  1  0.56264345  0.81405015  0.06838173  1
  Zn  Zn170  1  0.56674612  0.81581370  0.56047021  1
  O  O171  1  0.12686212  0.11885189  0.11293573  1
  O  O172  1  0.13030394  0.11843504  0.61229795  1
  O  O173  1  0.13176042  0.61203027  0.12423663  1
  O  O174  1  0.12693709  0.60234395  0.62940151  1
  O  O175  1  0.61930465  0.12757478  0.11769562  1
  O  O176  1  0.61281267  0.12538781  0.62440311  1
  O  O177  1  0.63372780  0.62257514  0.11120780  1
  O  O178  1  0.63251191  0.62798361  0.60779343  1
  O  O179  1  0.38407324  0.37757170  0.38022228  1
  O  O180  1  0.36512183  0.38255712  0.88480434  1
  O  O181  1  0.37092524  0.88472179  0.38909524  1
  O  O182  1  0.38192825  0.88030589  0.88055578  1
  O  O183  1  0.88203047  0.38331578  0.37710010  1
  O  O184  1  0.87743382  0.38607047  0.87560487  1
  O  O185  1  0.87529677  0.87923532  0.38985665  1
  O  O186  1  0.88243687  0.87750934  0.88248281  1
  O  O187  1  0.25799786  0.00638878  0.37320702  1
  O  O188  1  0.25398929  0.00435693  0.86384747  1
  O  O189  1  0.25809246  0.50936325  0.37907989  1
  O  O190  1  0.25901095  0.50899388  0.88088689  1
  O  O191  1  0.74983366  0.02608416  0.38312158  1
  O  O192  1  0.75137954  0.00987030  0.86533100  1
  O  O193  1  0.75463727  0.50760716  0.36903906  1
  O  O194  1  0.75457834  0.50673170  0.87093192  1
  O  O195  1  0.24446513  0.49240778  0.12425815  1
  O  O196  1  0.23850401  0.48529311  0.61694455  1
  O  O197  1  0.24099602  1.00596557  0.12559844  1
  O  O198  1  0.24527162  1.00076162  0.63767348  1
  O  O199  1  0.74660595  0.49108275  0.13561055  1
  O  O200  1  0.74466815  0.49525890  0.63337122  1
  O  O201  1  0.74195175  0.99085133  0.10912213  1
  O  O202  1  0.74751396  0.99483689  0.63760967  1
  O  O203  1  0.00691113  0.36986971  0.25900693  1
  O  O204  1  0.00654384  0.36849386  0.75713552  1
  O  O205  1  0.02110013  0.85904736  0.24757429  1
  O  O206  1  0.00617149  0.86927751  0.75547808  1
  O  O207  1  0.50941721  0.36689117  0.25698646  1
  O  O208  1  0.50066160  0.37259179  0.75365279  1
  O  O209  1  0.51825904  0.85945990  0.25132287  1
  O  O210  1  0.50222464  0.86975853  0.75494149  1
  O  O211  1  0.50804737  0.13206234  0.24025630  1
  O  O212  1  0.49214615  0.12468047  0.74260637  1
  O  O213  1  0.50767501  0.63912407  0.25416251  1
  O  O214  1  0.48508856  0.63309610  0.75443297  1
  O  O215  1  1.01267057  0.14584879  0.24994936  1
  O  O216  1  0.99113290  0.13558678  0.75713409  1
  O  O217  1  1.00429771  0.64183449  0.25569506  1
  O  O218  1  1.00159054  0.63400681  0.74230146  1
  O  O219  1  0.37078532  0.25593672  0.00826843  1
  O  O220  1  0.36922014  0.25403109  0.50626684  1
  O  O221  1  0.36858285  0.75838302  -0.00046942  1
  O  O222  1  0.36401756  0.75653327  0.49379744  1
  O  O223  1  0.88472297  0.25890863  0.01312534  1
  O  O224  1  0.87309720  0.24930799  0.51540586  1
  O  O225  1  0.86722944  0.75527842  -0.00550226  1
  O  O226  1  0.85748796  0.74847912  0.50923004  1
  O  O227  1  0.13329682  0.24021412  0.50151544  1
  O  O228  1  0.12628902  0.24387759  0.99816286  1
  O  O229  1  0.14179113  0.76052728  0.48232870  1
  O  O230  1  0.13155584  0.75010340  0.99114963  1
  O  O231  1  0.62307393  0.23692461  0.50342877  1
  O  O232  1  0.61993775  0.23802120  0.99139134  1
  O  O233  1  0.63138364  0.74451820  0.49227874  1
  O  O234  1  0.62898223  0.74596446  0.99535320  1
  O  O235  1  0.49345530  0.24457903  0.13479859  1
  O  O236  1  0.49128899  0.24171860  0.62826659  1
  O  O237  1  0.49956702  0.74652705  0.13716169  1
  O  O238  1  0.50540305  0.75436254  0.63712359  1
  O  O239  1  0.99006504  0.25946403  0.13517805  1
  O  O240  1  0.99136886  0.25782043  0.63806214  1
  O  O241  1  1.00548029  0.74740290  0.13650027  1
  O  O242  1  0.98187654  0.75758737  0.64048345  1
  O  O243  1  0.00030911  0.25895726  0.36231433  1
  O  O244  1  0.00470837  0.25709151  0.86699584  1
  O  O245  1  0.01746498  0.74962010  0.36772027  1
  O  O246  1  0.00566265  0.75237427  0.86736965  1
  O  O247  1  0.49182331  0.25415545  0.36255441  1
  O  O248  1  0.51270419  0.24158746  0.87635681  1
  O  O249  1  0.51154880  0.74947085  0.36841836  1
  O  O250  1  0.50293395  0.75719932  0.86933603  1
  O  O251  1  0.25193142  0.13565998  0.49834609  1
  O  O252  1  0.24317084  0.13191035  0.99446795  1
  O  O253  1  0.25565415  0.63803634  0.49008608  1
  O  O254  1  0.24394434  0.63444006  0.98426557  1
  O  O255  1  0.73248210  0.12900906  0.50915341  1
  O  O256  1  0.74202300  0.12309906  0.98845725  1
  O  O257  1  0.74102093  0.63415872  0.48838206  1
  O  O258  1  0.74275016  0.63144796  0.98880954  1
  O  O259  1  0.25598222  0.36934435  0.01213727  1
  O  O260  1  0.25330861  0.36154571  0.50457634  1
  O  O261  1  0.26157404  0.86656910  -0.00864968  1
  O  O262  1  0.25811425  0.86447531  0.50135242  1
  O  O263  1  0.74811852  0.38044601  0.01440829  1
  O  O264  1  0.75131343  0.37176995  0.50834250  1
  O  O265  1  0.76029294  0.86581019  -0.00924888  1
  O  O266  1  0.73816907  0.86894163  0.51101478  1
  O  O267  1  0.11924406  0.48852016  0.24374619  1
  O  O268  1  0.12243999  0.48699155  0.74724741  1
  O  O269  1  0.12916179  0.98390537  0.24012080  1
  O  O270  1  0.13241040  0.99516358  0.74725795  1
  O  O271  1  0.63345574  0.48928616  0.25184128  1
  O  O272  1  0.63533084  0.50275555  0.75401270  1
  O  O273  1  0.62004837  0.98413127  0.25380276  1
  O  O274  1  0.63221630  0.99638761  0.74990567  1
  O  O275  1  0.37863166  -0.00955236  0.26370060  1
  O  O276  1  0.36829288  0.00310027  0.75389504  1
  O  O277  1  0.37887072  0.48671710  0.26339961  1
  O  O278  1  0.37774844  0.51030549  0.76045602  1
  O  O279  1  0.90040778  0.00829378  0.22607770  1
  O  O280  1  0.86890224  0.00775586  0.75082721  1
  O  O281  1  0.86341850  0.49894522  0.25935007  1
  O  O282  1  0.86046619  0.49734347  0.75748095  1
  O  O283  1  0.12023038  0.37294822  0.36713135  1
  O  O284  1  0.12266666  0.37028082  0.86854528  1
  O  O285  1  0.13326578  0.86453616  0.36278192  1
  O  O286  1  0.12146043  0.86842880  0.86251846  1
  O  O287  1  0.61392738  0.37747268  0.37092501  1
  O  O288  1  0.63113654  0.35788016  0.87990880  1
  O  O289  1  0.63266889  0.86620374  0.36681631  1
  O  O290  1  0.61758041  0.87169249  0.87158728  1
  O  O291  1  0.38523212  0.13475794  0.12064363  1
  O  O292  1  0.38420770  0.12788775  0.62855535  1
  O  O293  1  0.36928042  0.62007513  0.11959429  1
  O  O294  1  0.36481769  0.61683069  0.64029539  1
  O  O295  1  0.87784235  0.14188949  0.11142407  1
  O  O296  1  0.86781245  0.13433485  0.63895390  1
  O  O297  1  0.86485544  0.62998060  0.13343923  1
  O  O298  1  0.86883009  0.63559205  0.62492133  1
  O  O299  1  0.25693200  0.25365147  0.12196242  1
  O  O300  1  0.25426775  0.25718776  0.61838141  1
  O  O301  1  0.25130553  0.74631586  0.10843447  1
  O  O302  1  0.24156425  0.74753540  0.60774364  1
  O  O303  1  0.76642198  0.25790023  0.13150246  1
  O  O304  1  0.75619986  0.25967629  0.62899891  1
  O  O305  1  0.74830690  0.75517553  0.10893904  1
  O  O306  1  0.75098124  0.75762763  0.62005394  1
  O  O307  1  0.25019196  0.24293042  0.38206001  1
  O  O308  1  0.24271531  0.24642017  0.88241959  1
  O  O309  1  0.24599302  0.74208048  0.38000084  1
  O  O310  1  0.24471288  0.74366291  0.88104161  1
  O  O311  1  0.75844451  0.23091573  0.37698468  1
  O  O312  1  0.74236040  0.24049286  0.86980449  1
  O  O313  1  0.74544681  0.74447046  0.38058371  1
  O  O314  1  0.74287628  0.74341930  0.88149117  1
  O  O315  1  0.00976374  0.11459912  -0.00845528  1
  O  O316  1  0.01519958  0.13293122  0.49764159  1
  O  O317  1  0.00288463  0.61099115  -0.00630230  1
  O  O318  1  0.00565079  0.66026582  0.51298691  1
  O  O319  1  0.50570638  0.12033059  0.01251319  1
  O  O320  1  0.50969471  0.12130593  0.50683557  1
  O  O321  1  0.50787654  0.61828997  -0.00437223  1
  O  O322  1  0.51452649  0.62992157  0.49346963  1
  O  O323  1  0.49424523  0.37063902  0.49155630  1
  O  O324  1  0.48765374  0.37682636  1.00284679  1
  O  O325  1  0.49493341  0.88545416  0.50409980  1
  O  O326  1  0.49479096  0.87991293  0.99549001  1
  O  O327  1  0.99824823  0.36655416  0.48501347  1
  O  O328  1  1.00072204  0.38789777  0.99064508  1
  O  O329  1  0.99754140  0.86768665  0.51327208  1
  O  O330  1  0.99628899  0.87920481  0.99164261  1
  O  O331  1  0.49382045  0.49063886  0.38094636  1
  O  O332  1  0.48802268  0.50139790  0.88790640  1
  O  O333  1  0.49147369  1.00835097  0.38821356  1
  O  O334  1  0.49393736  0.99537898  0.88082882  1
  O  O335  1  0.98987522  0.49339295  0.36927160  1
  O  O336  1  0.99098277  0.49676127  0.87747971  1
  O  O337  1  0.99868033  0.98667894  0.40141300  1
  O  O338  1  1.00247633  0.99245370  0.88285626  1
  O  O339  1  0.01696039  -0.00358049  0.10886865  1
  O  O340  1  0.01436282  0.00226433  0.63655698  1
  O  O341  1  0.00878379  0.49266582  0.11757425  1
  O  O342  1  0.01081263  0.49582625  0.62592001  1
  O  O343  1  0.50483158  0.00831083  0.12241413  1
  O  O344  1  0.50060026  0.00957386  0.61485969  1
  O  O345  1  0.50226794  0.49319022  0.10971250  1
  O  O346  1  0.50349913  0.50025231  0.61663982  1
  O  O347  1  0.24226090  0.36818062  0.23813831  1
  O  O348  1  0.23922699  0.36721235  0.73826443  1
  O  O349  1  0.23951838  0.87229535  0.24867054  1
  O  O350  1  0.24391002  0.88071879  0.74966798  1
  O  O351  1  0.74419963  0.37932678  0.24787858  1
  O  O352  1  0.74253090  0.38507907  0.74371239  1
  O  O353  1  0.73543289  0.86293973  0.24895304  1
  O  O354  1  0.74286344  0.88365811  0.74946133  1
  O  O355  1  0.24286835  0.12329622  0.26296302  1
  O  O356  1  0.25375468  0.11808096  0.75528317  1
  O  O357  1  0.24731177  0.62809101  0.26320752  1
  O  O358  1  0.26162105  0.63199630  0.76069180  1
  O  O359  1  0.75107406  0.12290442  0.25603097  1
  O  O360  1  0.75525897  0.11881450  0.75625895  1
  O  O361  1  0.74444282  0.61747580  0.26127020  1
  O  O362  1  0.74304758  0.62141579  0.76334122  1
  O  O363  1  0.36362329  0.11333932  0.38127398  1
  O  O364  1  0.36871356  0.11792980  0.87250838  1
  O  O365  1  0.36825579  0.61327659  0.37451469  1
  O  O366  1  0.36732683  0.61537086  0.86974157  1
  O  O367  1  0.87380791  0.12358667  0.37049811  1
  O  O368  1  0.86756014  0.12680055  0.86564047  1
  O  O369  1  0.86669161  0.62020095  0.36818239  1
  O  O370  1  0.86484707  0.61260583  0.87740623  1
  O  O371  1  0.13337390  0.38346139  0.13063610  1
  O  O372  1  0.12905895  0.38119524  0.63082564  1
  O  O373  1  0.12938018  0.88025668  0.13143877  1
  O  O374  1  0.13104587  0.88478080  0.63772500  1
  O  O375  1  0.63262879  0.37440486  0.13456104  1
  O  O376  1  0.63483514  0.37666674  0.62813097  1
  O  O377  1  0.62759548  0.87646697  0.13918652  1
  O  O378  1  0.63458964  0.87781827  0.63483551  1
  O  O379  1  0.11460887  0.26358335  0.24752105  1
  O  O380  1  0.11706458  0.25565412  0.75311546  1
  O  O381  1  0.12311837  0.75579367  0.25794414  1
  O  O382  1  0.11730900  0.75554983  0.75032831  1
  O  O383  1  0.61727578  0.26043858  0.24761074  1
  O  O384  1  0.62071294  0.24839802  0.76668640  1
  O  O385  1  0.61952732  0.75318950  0.25714753  1
  O  O386  1  0.61611920  0.75504134  0.75754617  1
  O  O387  1  0.38350093  0.25560631  0.23855713  1
  O  O388  1  0.37245559  0.24026511  0.74483836  1
  O  O389  1  0.39247285  0.75575601  0.24909935  1
  O  O390  1  0.38132087  0.73689050  0.75214050  1
  O  O391  1  0.88887124  0.25563385  0.23807443  1
  O  O392  1  0.88097355  0.24595608  0.74362113  1
  O  O393  1  0.89501298  0.75581568  0.25161864  1
  O  O394  1  0.88015020  0.74917741  0.74700549  1
  O  O395  1  0.37370941  0.49047137  0.48890258  1
  O  O396  1  0.37963884  0.49019130  0.99046017  1
  O  O397  1  0.38243228  0.99377997  0.49346330  1
  O  O398  1  0.38016508  0.99324306  0.99548451  1
  O  O399  1  0.86876599  0.50195227  0.48785070  1
  O  O400  1  0.88056708  0.49754162  0.99295038  1
  O  O401  1  0.88141628  0.98858295  0.51979862  1
  O  O402  1  0.88684144  0.99224570  0.99685479  1
  O  O403  1  0.12381926  0.00492725  0.00217116  1
  O  O404  1  0.13359716  0.01284965  0.51023693  1
  O  O405  1  0.11752792  0.50107031  0.00985963  1
  O  O406  1  0.12189959  0.49411953  0.50926138  1
  O  O407  1  0.61552454  0.01402681  -0.00441558  1
  O  O408  1  0.61690301  0.01066070  0.50151522  1
  O  O409  1  0.61494918  0.50913617  -0.00090151  1
  O  O410  1  0.62598712  0.51908618  0.49664060  1
  O  O411  1  0.36850458  0.36762422  0.11801808  1
  O  O412  1  0.36516678  0.37095042  0.61967192  1
  O  O413  1  0.38148141  0.87338134  0.11444580  1
  O  O414  1  0.37057278  0.88023392  0.60942454  1
  O  O415  1  0.86653280  0.36874867  0.12376929  1
  O  O416  1  0.86336656  0.36950558  0.62557280  1
  O  O417  1  0.87724307  0.86247909  0.10839727  1
  O  O418  1  0.85659833  0.86284488  0.63598902  1
  O  O419  1  0.13909915  0.12819364  0.39426880  1
  O  O420  1  0.13101544  0.13125243  0.88348228  1
  O  O421  1  0.13396990  0.63775841  0.37430771  1
  O  O422  1  0.13266080  0.63069054  0.87115121  1
  O  O423  1  0.62681927  0.12856723  0.38694034  1
  O  O424  1  0.63173078  0.13364100  0.88135738  1
  O  O425  1  0.63195630  0.63446294  0.38237630  1
  O  O426  1  0.62977449  0.63119113  0.88427602  1
