# generated using pymatgen
data_V85Zn86O256
_symmetry_space_group_name_H-M   'P 1'
_cell_length_a   16.93711136
_cell_length_b   16.93490001
_cell_length_c   16.94021187
_cell_angle_alpha   90.01154019
_cell_angle_beta   90.05616056
_cell_angle_gamma   89.96265733
_symmetry_Int_Tables_number   1
_chemical_formula_structural   V85Zn86O256
_chemical_formula_sum   'V85 Zn86 O256'
_cell_volume   4858.92849573
_cell_formula_units_Z   1
loop_
 _symmetry_equiv_pos_site_id
 _symmetry_equiv_pos_as_xyz
  1  'x, y, z'
loop_
 _atom_site_type_symbol
 _atom_site_label
 _atom_site_symmetry_multiplicity
 _atom_site_fract_x
 _atom_site_fract_y
 _atom_site_fract_z
 _atom_site_occupancy
  V  V0  1  0.00781228  -0.00311435  0.50178760  1
  V  V1  1  0.00083939  0.87268217  0.37253376  1
  V  V2  1  0.25305332  0.87010834  0.12446893  1
  V  V3  1  0.62661373  0.86784041  0.75392494  1
  V  V4  1  0.11367260  0.62849526  0.00550059  1
  V  V5  1  0.25770298  0.50491106  0.74957079  1
  V  V6  1  0.25778590  0.62913467  0.37249634  1
  V  V7  1  0.50447853  0.86977215  0.87637605  1
  V  V8  1  0.49412983  0.74615006  0.75051268  1
  V  V9  1  0.75058379  0.86406080  0.12264998  1
  V  V10  1  0.37114820  0.38397760  0.49925277  1
  V  V11  1  0.87312368  0.86706516  0.49971536  1
  V  V12  1  0.12348840  0.25483072  0.87612911  1
  V  V13  1  0.00593527  0.63226967  0.64270497  1
  V  V14  1  0.62492888  0.13742056  0.00235161  1
  V  V15  1  0.50124140  0.00163457  0.00593068  1
  V  V16  1  0.24821815  0.74822570  -0.00194607  1
  V  V17  1  0.00405989  0.25244120  0.74699084  1
  V  V18  1  0.62535558  -0.00302238  0.62628520  1
  V  V19  1  0.74808424  0.50128717  0.25947098  1
  V  V20  1  0.63130383  0.73283878  0.38223578  1
  V  V21  1  0.00539685  0.86427258  0.87384376  1
  V  V22  1  0.62518989  0.24719131  0.37340113  1
  V  V23  1  0.24851976  0.25402540  0.00369464  1
  V  V24  1  0.73183812  0.36485850  0.61671692  1
  V  V25  1  0.25075109  0.62867957  0.87593575  1
  V  V26  1  0.87772889  0.24832681  0.61932597  1
  V  V27  1  0.24930050  0.12173773  0.37616692  1
  V  V28  1  0.62663820  0.11952965  0.49842413  1
  V  V29  1  0.87574464  0.61788184  0.25229812  1
  V  V30  1  0.62909454  -0.00073358  0.12309398  1
  V  V31  1  0.37095619  0.86954112  0.49884669  1
  V  V32  1  0.66493408  0.42628445  0.79302939  1
  V  V33  1  0.88389151  0.75308066  0.64141369  1
  V  V34  1  0.25011168  -0.00181680  0.24831988  1
  V  V35  1  0.37477110  0.62885345  0.23334978  1
  V  V36  1  0.25006172  0.12588713  0.87628624  1
  V  V37  1  0.12361165  0.00184797  0.12444065  1
  V  V38  1  0.37741459  0.37866298  0.00228478  1
  V  V39  1  0.87339382  0.12650816  0.74896905  1
  V  V40  1  0.12421780  0.86148318  0.75439738  1
  V  V41  1  0.23928324  0.00059180  0.74765636  1
  V  V42  1  0.00845484  0.11932694  0.62484385  1
  V  V43  1  0.37501197  -0.00077869  0.87615392  1
  V  V44  1  -0.00185646  0.00742783  -0.00101769  1
  V  V45  1  0.50023092  0.38086149  0.37316073  1
  V  V46  1  0.37325663  0.25070701  0.62345714  1
  V  V47  1  0.31600325  0.45961351  0.31736648  1
  V  V48  1  0.63384917  0.65336257  -0.03867945  1
  V  V49  1  -0.00874032  0.49732414  0.00256443  1
  V  V50  1  0.49623820  0.37262971  0.87273965  1
  V  V51  1  0.50516631  0.87023106  0.37645424  1
  V  V52  1  0.37547095  0.12381521  0.75044905  1
  V  V53  1  0.12896314  0.37820834  0.75224709  1
  V  V54  1  0.61074477  0.51400174  0.12393802  1
  V  V55  1  0.87449532  0.00447602  0.87855658  1
  V  V56  1  -0.00422015  0.50769122  0.49819023  1
  V  V57  1  0.12320426  0.25202402  0.37288725  1
  V  V58  1  0.00063620  0.38164278  0.37086657  1
  V  V59  1  0.49096763  0.62401856  0.62139875  1
  V  V60  1  0.74650140  0.37737965  0.11994731  1
  V  V61  1  0.50034832  0.74561452  0.23885980  1
  V  V62  1  0.87395791  0.38056713  0.49648783  1
  V  V63  1  0.74374860  0.14411056  0.87739463  1
  V  V64  1  0.87382503  0.86543911  -0.00010011  1
  V  V65  1  0.37862608  0.24227180  0.12309671  1
  V  V66  1  0.13000917  0.62920728  0.49906491  1
  V  V67  1  0.66581881  0.54840237  0.63543919  1
  V  V68  1  -0.00180902  0.74630818  0.23948985  1
  V  V69  1  0.74918334  -0.00015550  0.75444360  1
  V  V70  1  0.75221454  0.87174683  0.62735662  1
  V  V71  1  0.24237918  0.87817863  0.62111557  1
  V  V72  1  0.12687725  0.49583636  0.13434714  1
  V  V73  1  0.37865811  0.50694331  0.87960551  1
  V  V74  1  0.36731278  0.75025731  0.62587520  1
  V  V75  1  0.12984305  0.75019289  0.37384572  1
  V  V76  1  0.87037199  0.25185550  0.12388938  1
  V  V77  1  0.37665369  -0.00229813  0.37417352  1
  V  V78  1  0.49962377  0.12073633  0.62672187  1
  V  V79  1  0.50956666  0.25088517  0.75288545  1
  V  V80  1  0.50304900  0.24050089  0.24514542  1
  V  V81  1  0.00061535  0.25249633  0.24878718  1
  V  V82  1  0.37818085  0.86580926  0.00355604  1
  V  V83  1  0.51006396  0.50418254  0.50382353  1
  V  V84  1  0.87339510  -0.00115255  0.37325864  1
  Zn  Zn85  1  -0.04428329  0.41650079  0.84461405  1
  Zn  Zn86  1  0.81554915  0.55234882  0.79458436  1
  Zn  Zn87  1  0.87035897  0.37656348  -0.00289941  1
  Zn  Zn88  1  0.74013947  0.72802815  0.51743407  1
  Zn  Zn89  1  -0.00446224  0.12671817  0.12628899  1
  Zn  Zn90  1  0.62802980  0.87151791  0.24958855  1
  Zn  Zn91  1  0.24986345  0.37774181  0.62432477  1
  Zn  Zn92  1  0.79363961  0.57794437  0.42375219  1
  Zn  Zn93  1  0.75329951  0.24419509  0.49353566  1
  Zn  Zn94  1  0.38026473  0.11825852  0.24447612  1
  Zn  Zn95  1  0.62712852  0.37580429  0.25197934  1
  Zn  Zn96  1  0.12196104  0.12930432  0.00153000  1
  Zn  Zn97  1  0.12423258  0.87194133  0.24667980  1
  Zn  Zn98  1  0.24799269  0.37754994  0.14202367  1
  Zn  Zn99  1  0.24849124  0.25073925  0.49989580  1
  Zn  Zn100  1  0.49993049  -0.00367184  0.50064208  1
  Zn  Zn101  1  0.12740847  0.12305651  0.50262297  1
  Zn  Zn102  1  0.75102583  -0.00202913  0.24784844  1
  Zn  Zn103  1  0.74918676  0.12081307  0.37108040  1
  Zn  Zn104  1  0.12712094  0.50104326  0.62644343  1
  Zn  Zn105  1  0.87205066  0.12553094  0.25057617  1
  Zn  Zn106  1  0.87527089  0.74167927  0.11977032  1
  Zn  Zn107  1  0.18677843  0.18717519  0.18998876  1
  Zn  Zn108  1  0.18983573  0.18821003  0.68789754  1
  Zn  Zn109  1  0.18839854  0.68436952  0.18606847  1
  Zn  Zn110  1  0.19110433  0.68706212  0.68870854  1
  Zn  Zn111  1  0.69146585  0.18575313  0.18695055  1
  Zn  Zn112  1  0.68935458  0.18683488  0.68605737  1
  Zn  Zn113  1  0.68910918  0.68442778  0.19438964  1
  Zn  Zn114  1  0.71521656  0.69660259  0.74426662  1
  Zn  Zn115  1  0.31658263  0.29482800  0.31407031  1
  Zn  Zn116  1  0.31393193  0.31364755  0.81216905  1
  Zn  Zn117  1  0.31524643  0.80925781  0.30875704  1
  Zn  Zn118  1  0.31204694  0.81358370  0.81389804  1
  Zn  Zn119  1  0.81327431  0.31516550  0.31107603  1
  Zn  Zn120  1  0.82235125  0.33780484  0.79724659  1
  Zn  Zn121  1  0.80962797  0.80789812  0.31076416  1
  Zn  Zn122  1  0.82001548  0.81113081  0.82195997  1
  Zn  Zn123  1  0.17843051  0.43695078  0.44275449  1
  Zn  Zn124  1  0.18611741  0.44216134  0.94028704  1
  Zn  Zn125  1  0.18734215  0.93473951  0.43630813  1
  Zn  Zn126  1  0.18627171  0.93768327  0.93782025  1
  Zn  Zn127  1  0.68042524  0.43624727  0.44540139  1
  Zn  Zn128  1  0.70187733  0.48274047  0.96251390  1
  Zn  Zn129  1  0.68974112  0.93133340  0.43923833  1
  Zn  Zn130  1  0.68939434  0.93545443  0.93923028  1
  Zn  Zn131  1  0.31151793  0.06165700  0.06033810  1
  Zn  Zn132  1  0.31297121  0.05830060  0.56103013  1
  Zn  Zn133  1  0.30819383  0.55898317  0.06288013  1
  Zn  Zn134  1  0.31220141  0.56379765  0.56028474  1
  Zn  Zn135  1  0.81028093  0.06531168  0.06210128  1
  Zn  Zn136  1  0.81500474  0.05797743  0.56027029  1
  Zn  Zn137  1  0.80357191  0.56890371  0.06948159  1
  Zn  Zn138  1  0.82278524  0.56287253  0.59299348  1
  Zn  Zn139  1  0.43922722  0.42914733  0.18447684  1
  Zn  Zn140  1  0.43752350  0.43730842  0.69016559  1
  Zn  Zn141  1  0.43999846  0.93249075  0.18744903  1
  Zn  Zn142  1  0.43450601  0.93585292  0.68878236  1
  Zn  Zn143  1  0.93834301  0.44182990  0.18455207  1
  Zn  Zn144  1  0.93802330  0.43840470  0.67696064  1
  Zn  Zn145  1  0.93747582  0.93369383  0.18617428  1
  Zn  Zn146  1  0.94037603  0.93728865  0.69059982  1
  Zn  Zn147  1  0.06119200  0.06395101  0.31117209  1
  Zn  Zn148  1  0.06183892  0.06454332  0.81581947  1
  Zn  Zn149  1  0.05988998  0.56626659  0.31361306  1
  Zn  Zn150  1  0.07233550  0.56398079  0.82144344  1
  Zn  Zn151  1  0.56322130  0.05815874  0.31076706  1
  Zn  Zn152  1  0.56381587  0.06067521  0.81679754  1
  Zn  Zn153  1  0.55989995  0.56214423  0.30855501  1
  Zn  Zn154  1  0.55224732  0.56742793  0.81040716  1
  Zn  Zn155  1  0.43860483  0.18620596  0.43779299  1
  Zn  Zn156  1  0.44074221  0.18806392  0.93911716  1
  Zn  Zn157  1  0.43847185  0.68903195  0.43673608  1
  Zn  Zn158  1  0.44351647  0.68480857  0.94479280  1
  Zn  Zn159  1  0.94017673  0.18499214  0.43603651  1
  Zn  Zn160  1  0.91828260  0.22049358  0.91977899  1
  Zn  Zn161  1  0.94061857  0.69075540  0.43573109  1
  Zn  Zn162  1  0.92828520  0.68161308  0.92329894  1
  Zn  Zn163  1  0.06091463  0.31977012  0.06520114  1
  Zn  Zn164  1  0.06443551  0.31442171  0.56014022  1
  Zn  Zn165  1  0.06317201  0.81532884  0.05817800  1
  Zn  Zn166  1  0.06709828  0.81143113  0.56107870  1
  Zn  Zn167  1  0.56285881  0.32167180  0.06284575  1
  Zn  Zn168  1  0.55179266  0.30266773  0.55341624  1
  Zn  Zn169  1  0.57263681  0.80560819  0.05705945  1
  Zn  Zn170  1  0.56163220  0.80865854  0.56320984  1
  O  O171  1  0.12424592  0.11374133  0.12334940  1
  O  O172  1  0.11263560  0.12980074  0.62441809  1
  O  O173  1  0.12962714  0.61749581  0.11058592  1
  O  O174  1  0.12022250  0.62770435  0.61652992  1
  O  O175  1  0.63335103  0.11705240  0.10925525  1
  O  O176  1  0.62050611  0.11781106  0.61829972  1
  O  O177  1  0.62878521  0.61421845  0.12771033  1
  O  O178  1  0.60248361  0.63052452  0.62172528  1
  O  O179  1  0.37655547  0.38247988  0.37811570  1
  O  O180  1  0.38009610  0.38148001  0.88190917  1
  O  O181  1  0.38196720  0.87523733  0.38132060  1
  O  O182  1  0.38133954  0.88165357  0.88381661  1
  O  O183  1  0.88457436  0.36736303  0.38970282  1
  O  O184  1  0.88648875  0.33551069  0.88866745  1
  O  O185  1  0.87964077  0.87603020  0.38275134  1
  O  O186  1  0.88373695  0.88469389  0.88231659  1
  O  O187  1  0.25519186  0.00319200  0.36917252  1
  O  O188  1  0.25515378  0.00603079  0.87041678  1
  O  O189  1  0.24489755  0.50895794  0.37681597  1
  O  O190  1  0.25896633  0.50766818  0.87202203  1
  O  O191  1  0.76019611  -0.00384713  0.37432579  1
  O  O192  1  0.75726140  0.00389981  0.86962444  1
  O  O193  1  0.74394151  0.49222037  0.36754115  1
  O  O194  1  0.73102891  0.48155518  0.84955733  1
  O  O195  1  0.23384628  0.49468253  0.12103370  1
  O  O196  1  0.24938423  0.50163311  0.63544493  1
  O  O197  1  0.24359839  0.99248001  0.12668747  1
  O  O198  1  0.25546341  0.99094019  0.63580429  1
  O  O199  1  0.74115973  0.49136729  0.13759156  1
  O  O200  1  0.74554845  0.47517939  0.61463656  1
  O  O201  1  0.74282115  0.99026754  0.12325175  1
  O  O202  1  0.74710927  0.99316384  0.63331750  1
  O  O203  1  -0.00773315  0.36762641  0.26165129  1
  O  O204  1  0.01209188  0.36915231  0.74858430  1
  O  O205  1  0.00160592  0.86586340  0.25663475  1
  O  O206  1  0.01430268  0.88635186  0.76129884  1
  O  O207  1  0.49870731  0.36353351  0.26260464  1
  O  O208  1  0.49485905  0.36450243  0.75862773  1
  O  O209  1  0.50056155  0.86205181  0.25889706  1
  O  O210  1  0.50576497  0.87048721  0.75730396  1
  O  O211  1  0.49923601  0.13620457  0.25372537  1
  O  O212  1  0.49306246  0.12706108  0.74801134  1
  O  O213  1  0.49022803  0.63861607  0.25706169  1
  O  O214  1  0.49469227  0.64016679  0.74120886  1
  O  O215  1  0.99682265  0.13904993  0.24978393  1
  O  O216  1  0.99393650  0.12984645  0.74249240  1
  O  O217  1  0.98649850  0.63205763  0.25346057  1
  O  O218  1  1.01822681  0.62469754  0.74030789  1
  O  O219  1  0.36830556  0.25414369  0.00572984  1
  O  O220  1  0.37646307  0.26032742  0.50593580  1
  O  O221  1  0.37049883  0.76042088  -0.00002009  1
  O  O222  1  0.37742027  0.76268680  0.50739635  1
  O  O223  1  0.87968073  0.25182566  0.02151350  1
  O  O224  1  0.87733081  0.25395168  0.50762642  1
  O  O225  1  0.88393957  0.76167840  0.00051878  1
  O  O226  1  0.87604020  0.75917564  0.50824641  1
  O  O227  1  0.12555615  0.24637045  0.48810198  1
  O  O228  1  0.13038038  0.25350776  0.99404965  1
  O  O229  1  0.12116614  0.74117947  0.48724247  1
  O  O230  1  0.13201761  0.73819270  1.00472451  1
  O  O231  1  0.62380788  0.23684280  0.48973012  1
  O  O232  1  0.61712522  0.23576748  1.00438810  1
  O  O233  1  0.62657112  0.75280424  0.48778481  1
  O  O234  1  0.64177304  0.75172369  0.98474142  1
  O  O235  1  0.49168077  0.25757015  0.13416348  1
  O  O236  1  0.48865309  0.24184798  0.63059877  1
  O  O237  1  0.50983180  0.75515452  0.14042344  1
  O  O238  1  0.48770477  0.74807430  0.63030157  1
  O  O239  1  0.99613012  0.25245436  0.13483999  1
  O  O240  1  0.99543427  0.24349661  0.62738034  1
  O  O241  1  1.00017367  0.75680210  0.13667548  1
  O  O242  1  1.00037343  0.73863285  0.62155832  1
  O  O243  1  0.00574024  0.25618377  0.36993491  1
  O  O244  1  0.01839546  0.23981534  0.86438819  1
  O  O245  1  0.01076647  0.75473791  0.36624243  1
  O  O246  1  -0.00017750  0.76572123  0.88129210  1
  O  O247  1  0.50799109  0.25541453  0.37021337  1
  O  O248  1  0.49183153  0.26118910  0.86559422  1
  O  O249  1  0.50966104  0.75507472  0.37158959  1
  O  O250  1  0.48993715  0.76265527  0.86576306  1
  O  O251  1  0.24850385  0.12278291  0.48871539  1
  O  O252  1  0.24836653  0.13831942  0.99562828  1
  O  O253  1  0.23723371  0.62056108  0.49168589  1
  O  O254  1  0.24451738  0.63372149  0.99790465  1
  O  O255  1  0.73823294  0.12297254  0.49834742  1
  O  O256  1  0.73901217  0.12495592  0.98694038  1
  O  O257  1  0.74902793  0.61344541  0.52050945  1
  O  O258  1  0.72221028  0.59619123  0.99134198  1
  O  O259  1  0.25890482  0.36383630  -0.00379245  1
  O  O260  1  0.25664864  0.37391189  0.50205318  1
  O  O261  1  0.25725851  0.86916232  0.00354555  1
  O  O262  1  0.25673989  0.88028986  0.50977044  1
  O  O263  1  0.75251932  0.38916206  0.01605764  1
  O  O264  1  0.75727573  0.36651284  0.50195021  1
  O  O265  1  0.76366706  0.87941094  0.00652992  1
  O  O266  1  0.75933062  0.87107870  0.51084137  1
  O  O267  1  0.11856898  0.51076846  0.23271078  1
  O  O268  1  0.13741622  0.49332405  0.75237757  1
  O  O269  1  0.13050380  0.99747625  0.24176217  1
  O  O270  1  0.13715076  0.99919353  0.75402654  1
  O  O271  1  0.63284740  0.49760414  0.24626296  1
  O  O272  1  0.61507689  0.49510624  0.73110519  1
  O  O273  1  0.62087310  0.99675032  0.23270268  1
  O  O274  1  0.62830206  0.99104410  0.74526610  1
  O  O275  1  0.36980106  -0.00101518  0.25502143  1
  O  O276  1  0.36720409  0.00435924  0.75742010  1
  O  O277  1  0.38147903  0.50960651  0.25267209  1
  O  O278  1  0.36373793  0.49649342  0.76050176  1
  O  O279  1  0.88005818  -0.00206237  0.26451879  1
  O  O280  1  0.87055625  0.00890078  0.75691435  1
  O  O281  1  0.86969945  0.51060477  0.25033979  1
  O  O282  1  0.87243556  0.45503828  0.76738677  1
  O  O283  1  0.11165743  0.36632396  0.37994756  1
  O  O284  1  0.13185363  0.36828204  0.86469336  1
  O  O285  1  0.12059851  0.86658835  0.37129296  1
  O  O286  1  0.11747508  0.87939514  0.86772353  1
  O  O287  1  0.61534229  0.36475757  0.37671821  1
  O  O288  1  0.61172762  0.38361598  0.86861899  1
  O  O289  1  0.61352008  0.87373248  0.37308396  1
  O  O290  1  0.61547946  0.88138412  0.86658905  1
  O  O291  1  0.37146161  0.13743912  0.12343552  1
  O  O292  1  0.38045167  0.12970951  0.62770664  1
  O  O293  1  0.36972389  0.62405136  0.13400631  1
  O  O294  1  0.37784683  0.63929142  0.61921390  1
  O  O295  1  0.87441938  0.13371259  0.12936689  1
  O  O296  1  0.88242405  0.13083160  0.62686766  1
  O  O297  1  0.86800549  0.62820266  0.14279442  1
  O  O298  1  0.89680237  0.63747085  0.63529315  1
  O  O299  1  0.25415062  0.25495243  0.11982120  1
  O  O300  1  0.26271779  0.24906913  0.62161671  1
  O  O301  1  0.24494040  0.76310544  0.11548545  1
  O  O302  1  0.25976692  0.76058449  0.62973372  1
  O  O303  1  0.75563166  0.26720470  0.13309524  1
  O  O304  1  0.76013334  0.25027598  0.61953041  1
  O  O305  1  0.75045476  0.76048712  0.12987494  1
  O  O306  1  0.76478404  0.75758333  0.63353385  1
  O  O307  1  0.24217843  0.23909223  0.37777258  1
  O  O308  1  0.24295468  0.24623852  0.88127121  1
  O  O309  1  0.23854496  0.74490587  0.36897664  1
  O  O310  1  0.25661102  0.74477218  0.88884647  1
  O  O311  1  0.73650922  0.24793367  0.37349860  1
  O  O312  1  0.74681976  0.24029647  0.86724730  1
  O  O313  1  0.73374060  0.75199326  0.37921103  1
  O  O314  1  0.75716995  0.72495963  0.84488988  1
  O  O315  1  0.00024781  0.11306466  0.00155428  1
  O  O316  1  0.00073211  0.11464529  0.50775590  1
  O  O317  1  0.01057287  0.62346849  -0.00629856  1
  O  O318  1  0.00900537  0.62047520  0.50168892  1
  O  O319  1  0.51415477  0.11428810  -0.00808733  1
  O  O320  1  0.51025090  0.12093563  0.50602035  1
  O  O321  1  0.53558164  0.63507921  -0.01218608  1
  O  O322  1  0.49084351  0.61381588  0.50641471  1
  O  O323  1  0.49154574  0.37963159  0.48990448  1
  O  O324  1  0.48485407  0.36644573  0.99010359  1
  O  O325  1  0.49220289  0.87479507  0.49243102  1
  O  O326  1  0.49577931  0.87652218  0.99410808  1
  O  O327  1  0.99361818  0.38607864  0.49662042  1
  O  O328  1  0.99568027  0.39166258  1.00120751  1
  O  O329  1  0.99439125  0.87908965  0.49525869  1
  O  O330  1  0.99551494  0.88686450  0.99343235  1
  O  O331  1  0.50956072  0.48956546  0.38586034  1
  O  O332  1  0.48553833  0.49229226  0.86645154  1
  O  O333  1  0.49331813  0.98902575  0.37425898  1
  O  O334  1  0.49614370  0.98940143  0.88455105  1
  O  O335  1  1.00421272  0.49232321  0.38416863  1
  O  O336  1  1.00614051  0.50444766  0.89348495  1
  O  O337  1  0.99489726  0.99316101  0.38184163  1
  O  O338  1  0.99324907  0.99901145  0.88286348  1
  O  O339  1  0.00748194  0.00014467  0.11893088  1
  O  O340  1  -0.00710224  0.00896557  0.61539825  1
  O  O341  1  0.01153770  0.50038282  0.11302811  1
  O  O342  1  0.00232221  0.51532650  0.61910441  1
  O  O343  1  0.50641682  -0.00712869  0.11154707  1
  O  O344  1  0.50519417  0.00424486  0.62544633  1
  O  O345  1  0.51244467  0.50297688  0.14404826  1
  O  O346  1  0.48624977  0.51311332  0.61925319  1
  O  O347  1  0.26629036  0.38506276  0.26070854  1
  O  O348  1  0.24609186  0.38304345  0.74786020  1
  O  O349  1  0.24959114  0.87874644  0.24006913  1
  O  O350  1  0.24354634  0.88327967  0.74614152  1
  O  O351  1  0.75084879  0.38577921  0.24468688  1
  O  O352  1  0.72655059  0.36100988  0.73909153  1
  O  O353  1  0.74817940  0.87825897  0.23973143  1
  O  O354  1  0.74323266  0.88067571  0.74824325  1
  O  O355  1  0.25292551  0.11833462  0.26094710  1
  O  O356  1  0.25585956  0.11856940  0.75465414  1
  O  O357  1  0.26179246  0.62989732  0.25740270  1
  O  O358  1  0.24641942  0.61831391  0.76312120  1
  O  O359  1  0.75270794  0.11606364  0.25316885  1
  O  O360  1  0.75248908  0.12039702  0.75942177  1
  O  O361  1  0.75950003  0.61399162  0.25545632  1
  O  O362  1  0.74339356  0.59435190  0.70286847  1
  O  O363  1  0.36776385  0.11770171  0.37469621  1
  O  O364  1  0.36941909  0.12007692  0.87188258  1
  O  O365  1  0.36102987  0.62988759  0.37398276  1
  O  O366  1  0.36610479  0.61738806  0.88750632  1
  O  O367  1  0.87254728  0.11289785  0.37697820  1
  O  O368  1  0.86207014  0.12737806  0.87077898  1
  O  O369  1  0.87408075  0.63030380  0.36336710  1
  O  O370  1  0.85925467  0.63765383  0.85009475  1
  O  O371  1  0.12896426  0.38905172  0.12622368  1
  O  O372  1  0.12825912  0.37629007  0.63702841  1
  O  O373  1  0.13333850  0.88644119  0.12320909  1
  O  O374  1  0.13618769  0.87230982  0.63178684  1
  O  O375  1  0.63640918  0.37557262  0.13269776  1
  O  O376  1  0.63272509  0.35711627  0.61228199  1
  O  O377  1  0.63417774  0.88106946  0.12237624  1
  O  O378  1  0.63042330  0.87892752  0.63155480  1
  O  O379  1  0.11824482  0.24780566  0.26293873  1
  O  O380  1  0.12623503  0.25776676  0.75654192  1
  O  O381  1  0.11676238  0.74747315  0.25480518  1
  O  O382  1  0.13138997  0.76239801  0.75226836  1
  O  O383  1  0.61882138  0.25011957  0.25640676  1
  O  O384  1  0.60823681  0.24000508  0.74576179  1
  O  O385  1  0.61598935  0.74889558  0.26296990  1
  O  O386  1  0.61357491  0.76441900  0.74224416  1
  O  O387  1  0.38445656  0.24334759  0.24057986  1
  O  O388  1  0.37879955  0.24282244  0.74149528  1
  O  O389  1  0.39009521  0.74391309  0.25006063  1
  O  O390  1  0.38304608  0.76218584  0.73866348  1
  O  O391  1  0.88303750  0.25007576  0.24301913  1
  O  O392  1  0.88097267  0.24762445  0.73463308  1
  O  O393  1  0.88224472  0.74167829  0.24867663  1
  O  O394  1  0.89249044  0.77456095  0.73759864  1
  O  O395  1  0.38203580  0.48779685  0.50287254  1
  O  O396  1  0.37084489  0.49002463  0.99341132  1
  O  O397  1  0.37753899  0.98759298  0.49284501  1
  O  O398  1  0.38303905  0.99364959  0.99580122  1
  O  O399  1  0.88327214  0.49563137  0.50487733  1
  O  O400  1  0.88823593  0.50637069  1.00759058  1
  O  O401  1  0.88287431  0.98820329  0.49103942  1
  O  O402  1  0.88198959  0.99532794  0.99648792  1
  O  O403  1  0.11805426  0.00246691  0.00737118  1
  O  O404  1  0.11150251  -0.00059687  0.49673397  1
  O  O405  1  0.11788040  0.51072594  0.00707811  1
  O  O406  1  0.11276805  0.50863818  0.50526507  1
  O  O407  1  0.61910128  0.00394512  0.00738925  1
  O  O408  1  0.62352693  0.00333088  0.50663926  1
  O  O409  1  0.60828179  0.48535938  0.02610422  1
  O  O410  1  0.61255416  0.49632056  0.52124035  1
  O  O411  1  0.36989948  0.36558044  0.11753593  1
  O  O412  1  0.37516845  0.36643990  0.61704801  1
  O  O413  1  0.36556661  0.88175600  0.11423542  1
  O  O414  1  0.36657074  0.87129777  0.61722930  1
  O  O415  1  0.86324558  0.37211437  0.12615392  1
  O  O416  1  0.87021378  0.36503351  0.61154619  1
  O  O417  1  0.86865948  0.87272740  0.11598485  1
  O  O418  1  0.87427915  0.87307146  0.61669695  1
  O  O419  1  0.13269521  0.12984153  0.37702742  1
  O  O420  1  0.13495774  0.13328688  0.87733571  1
  O  O421  1  0.13317747  0.63146289  0.37944837  1
  O  O422  1  0.14149170  0.62274518  0.89251740  1
  O  O423  1  0.62400243  0.12765159  0.38231605  1
  O  O424  1  0.63612471  0.12069248  0.88514324  1
  O  O425  1  0.62304416  0.63402613  0.37764285  1
  O  O426  1  0.62917947  0.63307020  0.86065746  1
