# generated using pymatgen
data_V85Zn86O256
_symmetry_space_group_name_H-M   'P 1'
_cell_length_a   16.94837824
_cell_length_b   16.96693099
_cell_length_c   16.95194350
_cell_angle_alpha   89.95997710
_cell_angle_beta   90.04805277
_cell_angle_gamma   89.99749097
_symmetry_Int_Tables_number   1
_chemical_formula_structural   V85Zn86O256
_chemical_formula_sum   'V85 Zn86 O256'
_cell_volume   4874.73125660
_cell_formula_units_Z   1
loop_
 _symmetry_equiv_pos_site_id
 _symmetry_equiv_pos_as_xyz
  1  'x, y, z'
loop_
 _atom_site_type_symbol
 _atom_site_label
 _atom_site_symmetry_multiplicity
 _atom_site_fract_x
 _atom_site_fract_y
 _atom_site_fract_z
 _atom_site_occupancy
  V  V0  1  0.25531216  0.76626987  0.50902558  1
  V  V1  1  0.62190993  0.12560581  0.50376667  1
  V  V2  1  0.25302417  0.37234414  0.12870247  1
  V  V3  1  0.00273002  0.62270620  0.63249350  1
  V  V4  1  0.75413743  0.24990473  0.49590431  1
  V  V5  1  0.01021264  0.37348945  0.37619677  1
  V  V6  1  0.24622417  0.50635911  0.25002576  1
  V  V7  1  0.25436199  0.24687833  0.00519405  1
  V  V8  1  0.88438132  0.50055679  0.87741172  1
  V  V9  1  0.87816375  0.37705495  0.50117310  1
  V  V10  1  0.85971437  0.62353615  0.25329433  1
  V  V11  1  0.00705030  0.50174423  0.50486785  1
  V  V12  1  0.24440034  0.12460628  0.87543521  1
  V  V13  1  0.13091299  0.62334920  0.51022740  1
  V  V14  1  0.62183969  0.12406234  -0.00565671  1
  V  V15  1  0.88996183  0.87203858  -0.00350433  1
  V  V16  1  0.62035618  0.25166605  0.87099022  1
  V  V17  1  0.50277830  0.50010248  -0.00152893  1
  V  V18  1  0.25140808  0.50086172  0.75527737  1
  V  V19  1  0.49855691  0.62877168  0.63286655  1
  V  V20  1  0.00597638  0.00238466  0.49929469  1
  V  V21  1  0.88412850  0.12308758  0.24301373  1
  V  V22  1  0.49136245  0.37800776  0.86854676  1
  V  V23  1  0.37688616  0.76470695  0.63076064  1
  V  V24  1  0.25369944  -0.00233594  0.25628682  1
  V  V25  1  0.87575782  0.24762770  0.62635461  1
  V  V26  1  0.36967319  0.38000753  -0.00666267  1
  V  V27  1  0.75027910  0.12449029  0.37241897  1
  V  V28  1  0.74590383  0.87240955  0.62266851  1
  V  V29  1  0.36851484  0.12793605  0.74256790  1
  V  V30  1  0.49679075  -0.00077168  -0.00230360  1
  V  V31  1  0.37104652  -0.00080194  0.87678681  1
  V  V32  1  0.88469848  0.37853656  0.00129639  1
  V  V33  1  0.39342103  -0.00007406  0.39560315  1
  V  V34  1  0.12646683  -0.01627281  0.62879086  1
  V  V35  1  0.47763061  0.75572080  0.25223626  1
  V  V36  1  0.00444154  0.76675266  0.75584980  1
  V  V37  1  0.38378799  0.36032890  0.50363453  1
  V  V38  1  0.23091320  0.24583083  0.49880763  1
  V  V39  1  0.62736852  0.62112197  0.49164705  1
  V  V40  1  0.87236361  0.87389591  0.50147274  1
  V  V41  1  0.24355811  -0.01469681  0.74886592  1
  V  V42  1  0.75196441  0.74176900  0.49297605  1
  V  V43  1  0.62051229  0.74648767  0.87718336  1
  V  V44  1  -0.00183448  0.74275838  0.25238148  1
  V  V45  1  0.75029485  0.87431067  0.12107091  1
  V  V46  1  0.00055153  0.61372446  0.12018983  1
  V  V47  1  0.86728673  0.50445756  0.37421576  1
  V  V48  1  0.74642189  -0.00295301  0.74559991  1
  V  V49  1  0.01155054  0.12434631  0.62211415  1
  V  V50  1  0.75084569  0.37675399  0.62423988  1
  V  V51  1  -0.00382836  0.87187920  0.37483179  1
  V  V52  1  0.62336345  0.00146419  0.12354033  1
  V  V53  1  0.37401753  0.13142945  0.25090293  1
  V  V54  1  0.49591039  0.50537041  0.50299436  1
  V  V55  1  0.87642661  0.00108700  0.37445601  1
  V  V56  1  0.12453961  0.38020662  0.74506993  1
  V  V57  1  0.00296791  0.25034613  0.75248260  1
  V  V58  1  0.87779208  0.74807281  0.12684124  1
  V  V59  1  0.88374153  0.24764805  0.12227501  1
  V  V60  1  0.12788009  0.76006710  0.87971506  1
  V  V61  1  0.75139311  0.25169261  0.00048727  1
  V  V62  1  0.75043957  0.62441971  0.87551873  1
  V  V63  1  0.49076975  0.13222335  0.12295791  1
  V  V64  1  0.12496210  0.00143706  0.12913332  1
  V  V65  1  0.00964524  0.24826038  0.25253867  1
  V  V66  1  0.12465009  0.75091082  0.38025703  1
  V  V67  1  0.49828031  0.87133783  0.87392366  1
  V  V68  1  0.62261152  0.37243643  0.74472642  1
  V  V69  1  0.49156403  0.24738430  0.73733804  1
  V  V70  1  0.37090983  0.50340119  0.38197917  1
  V  V71  1  0.88216428  -0.00487781  0.87381871  1
  V  V72  1  0.75149490  0.00346529  0.24522307  1
  V  V73  1  0.37542870  0.62335644  0.75270014  1
  V  V74  1  0.00025150  0.00809384  0.00702262  1
  V  V75  1  0.25452749  0.62962684  0.37861603  1
  V  V76  1  0.36804128  0.86076814  0.00563712  1
  V  V77  1  0.62291910  0.86971848  0.75066220  1
  V  V78  1  0.13101913  0.61473475  -0.00241029  1
  V  V79  1  0.75136414  0.49988035  0.75536835  1
  V  V80  1  0.23901100  0.13006743  0.37998674  1
  V  V81  1  0.74752622  0.12357432  0.87045803  1
  V  V82  1  0.75008633  0.75007620  -0.00059793  1
  V  V83  1  0.87479517  0.12385771  0.74745320  1
  V  V84  1  0.25060771  0.37675486  0.62323280  1
  Zn  Zn85  1  0.50407277  0.26502781  0.23854365  1
  Zn  Zn86  1  0.12561545  0.25176378  0.87728127  1
  Zn  Zn87  1  0.87792983  0.62610876  0.75138365  1
  Zn  Zn88  1  0.62573914  0.50638429  0.62735900  1
  Zn  Zn89  1  0.74604982  0.37447577  0.15248832  1
  Zn  Zn90  1  0.12818525  0.87115274  0.25110238  1
  Zn  Zn91  1  0.55957734  -0.03265436  0.57371341  1
  Zn  Zn92  1  0.62898519  0.49676814  0.15446184  1
  Zn  Zn93  1  0.48402029  0.12422479  0.60839155  1
  Zn  Zn94  1  0.87580316  0.74794132  0.62965625  1
  Zn  Zn95  1  0.13364592  0.36921458  0.25554265  1
  Zn  Zn96  1  0.26218811  0.86329371  0.13607188  1
  Zn  Zn97  1  0.12121508  0.12893795  0.00768171  1
  Zn  Zn98  1  0.52985363  0.40260755  0.33046548  1
  Zn  Zn99  1  0.61899936  0.25591522  0.35933072  1
  Zn  Zn100  1  0.61609266  0.75399225  0.37009497  1
  Zn  Zn101  1  0.49147781  0.63443592  0.13275614  1
  Zn  Zn102  1  0.11967777  0.49333276  0.12304387  1
  Zn  Zn103  1  0.62550675  0.62099281  0.00944272  1
  Zn  Zn104  1  0.25481329  0.62564655  0.88001044  1
  Zn  Zn105  1  0.61359326  0.87498989  0.25260260  1
  Zn  Zn106  1  0.00567000  0.37877282  0.87863902  1
  Zn  Zn107  1  0.19095726  0.18403748  0.18675579  1
  Zn  Zn108  1  0.18996793  0.18979029  0.68444044  1
  Zn  Zn109  1  0.19017980  0.68612484  0.19076755  1
  Zn  Zn110  1  0.18846678  0.69360073  0.69177119  1
  Zn  Zn111  1  0.68693320  0.19147282  0.18441476  1
  Zn  Zn112  1  0.68605507  0.18935382  0.68471502  1
  Zn  Zn113  1  0.67428670  0.68558764  0.18668308  1
  Zn  Zn114  1  0.68649843  0.68824489  0.68753436  1
  Zn  Zn115  1  0.35473071  0.33769350  0.29381735  1
  Zn  Zn116  1  0.30827494  0.30941209  0.81179942  1
  Zn  Zn117  1  0.31727764  0.82205061  0.32641441  1
  Zn  Zn118  1  0.31181543  0.80739421  0.81575961  1
  Zn  Zn119  1  0.82707231  0.30883599  0.31639850  1
  Zn  Zn120  1  0.81336928  0.31509196  0.81620256  1
  Zn  Zn121  1  0.78347248  0.82727038  0.32464862  1
  Zn  Zn122  1  0.81549039  0.81031032  0.81269229  1
  Zn  Zn123  1  0.18992704  0.43747632  0.44219966  1
  Zn  Zn124  1  0.18614875  0.43776510  0.93384159  1
  Zn  Zn125  1  0.18557757  0.94139248  0.43454931  1
  Zn  Zn126  1  0.18630346  0.93811071  0.94154873  1
  Zn  Zn127  1  0.69265242  0.43685382  0.32724934  1
  Zn  Zn128  1  0.68975261  0.43674983  1.01084003  1
  Zn  Zn129  1  0.64992522  0.92234785  0.44384627  1
  Zn  Zn130  1  0.68997739  0.93683606  0.93623756  1
  Zn  Zn131  1  0.30907665  0.05576535  0.06515495  1
  Zn  Zn132  1  0.30486199  0.05969790  0.56208378  1
  Zn  Zn133  1  0.31459040  0.55960882  0.06323733  1
  Zn  Zn134  1  0.31139120  0.56408233  0.57066020  1
  Zn  Zn135  1  0.81399578  0.06509561  0.05914961  1
  Zn  Zn136  1  0.81226852  0.05977207  0.56210117  1
  Zn  Zn137  1  0.81259568  0.56246822  0.06445123  1
  Zn  Zn138  1  0.81659021  0.56179961  0.56454731  1
  Zn  Zn139  1  0.42497114  0.46610184  0.17661546  1
  Zn  Zn140  1  0.43322008  0.43870807  0.68321991  1
  Zn  Zn141  1  0.43660478  0.93961855  0.19047176  1
  Zn  Zn142  1  0.43539758  0.94356963  0.69505323  1
  Zn  Zn143  1  0.93125864  0.43329168  0.19293959  1
  Zn  Zn144  1  0.93839173  0.43947610  0.68854543  1
  Zn  Zn145  1  0.94244973  0.93308653  0.18399313  1
  Zn  Zn146  1  0.93498615  0.93778201  0.68435669  1
  Zn  Zn147  1  0.06547647  0.06287376  0.31292481  1
  Zn  Zn148  1  0.06332130  0.05992848  0.81219328  1
  Zn  Zn149  1  0.06442373  0.56301335  0.31798192  1
  Zn  Zn150  1  0.06928218  0.56092338  0.81257709  1
  Zn  Zn151  1  0.56450998  0.06968653  0.30941305  1
  Zn  Zn152  1  0.55637973  0.05748023  0.79831885  1
  Zn  Zn153  1  0.55351556  0.57528603  0.31199083  1
  Zn  Zn154  1  0.56295377  0.55907324  0.81401002  1
  Zn  Zn155  1  0.44148051  0.19196704  0.42090680  1
  Zn  Zn156  1  0.43209216  0.18974672  0.93275813  1
  Zn  Zn157  1  0.43788035  0.69569218  0.43774878  1
  Zn  Zn158  1  0.43770721  0.68577221  0.93639514  1
  Zn  Zn159  1  0.94162901  0.18628096  0.43586400  1
  Zn  Zn160  1  0.93690785  0.18520870  0.93346901  1
  Zn  Zn161  1  0.93508273  0.68472806  0.44134418  1
  Zn  Zn162  1  0.94358140  0.68501845  0.93816943  1
  Zn  Zn163  1  0.06785688  0.31025481  0.06563932  1
  Zn  Zn164  1  0.06335671  0.31439831  0.56698629  1
  Zn  Zn165  1  0.09847665  0.79359925  0.08094956  1
  Zn  Zn166  1  0.05955502  0.80876531  0.56331235  1
  Zn  Zn167  1  0.55989055  0.31477703  0.06088717  1
  Zn  Zn168  1  0.60076402  0.35602128  0.50613080  1
  Zn  Zn169  1  0.55752920  0.80977100  0.06751929  1
  Zn  Zn170  1  0.56178626  0.80062866  0.55975730  1
  O  O171  1  0.12890525  0.10897477  0.12493315  1
  O  O172  1  0.11317918  0.11905953  0.62903983  1
  O  O173  1  0.11724265  0.62017953  0.11303987  1
  O  O174  1  0.12011065  0.63188656  0.61661173  1
  O  O175  1  0.62048400  0.11512695  0.11432831  1
  O  O176  1  0.62911797  0.13228697  0.60546121  1
  O  O177  1  0.61232783  0.61272416  0.12446219  1
  O  O178  1  0.61310900  0.62759837  0.62188235  1
  O  O179  1  0.36507414  0.38892968  0.39832008  1
  O  O180  1  0.38089594  0.36850444  0.87831785  1
  O  O181  1  0.37109709  0.90198061  0.38455343  1
  O  O182  1  0.38256870  0.87673413  0.88125596  1
  O  O183  1  0.88953072  0.38692598  0.38449036  1
  O  O184  1  0.88162125  0.38255181  0.88051274  1
  O  O185  1  0.87494865  0.88240611  0.38164688  1
  O  O186  1  0.86797200  0.88409058  0.88466004  1
  O  O187  1  0.25300650  0.01141981  0.37283957  1
  O  O188  1  0.25052598  0.00603307  0.87001540  1
  O  O189  1  0.25098740  0.51197402  0.37781552  1
  O  O190  1  0.24918545  0.50208052  0.85965713  1
  O  O191  1  0.75892488  0.01416748  0.36611228  1
  O  O192  1  0.75950335  0.00512556  0.86875112  1
  O  O193  1  0.76972758  0.50140783  0.38848893  1
  O  O194  1  0.76011589  0.50395415  0.86236217  1
  O  O195  1  0.24323418  0.49424888  0.13668136  1
  O  O196  1  0.25210386  0.48402471  0.63124990  1
  O  O197  1  0.24209870  0.99088540  0.13605780  1
  O  O198  1  0.23713222  1.00281086  0.63463923  1
  O  O199  1  0.73899469  0.48958122  0.10588826  1
  O  O200  1  0.75358931  0.49220378  0.63678972  1
  O  O201  1  0.74265156  0.99678635  0.12262059  1
  O  O202  1  0.75452510  0.98660812  0.63436562  1
  O  O203  1  0.00198518  0.36638155  0.25996341  1
  O  O204  1  0.00761307  0.36673417  0.74711559  1
  O  O205  1  -0.00585408  0.85924528  0.25866243  1
  O  O206  1  -0.00233178  0.86491023  0.74970492  1
  O  O207  1  0.45782491  0.37672826  0.24524714  1
  O  O208  1  0.50172621  0.36767490  0.74955594  1
  O  O209  1  0.49880167  0.86542807  0.24744281  1
  O  O210  1  0.50890212  0.87930408  0.76581463  1
  O  O211  1  0.49066904  0.12298619  0.23714772  1
  O  O212  1  0.48247272  0.13585224  0.76184350  1
  O  O213  1  0.49446505  0.64810739  0.25236952  1
  O  O214  1  0.49366155  0.61947917  0.74058763  1
  O  O215  1  0.99076693  0.13152131  0.25744861  1
  O  O216  1  0.99476085  0.13073422  0.74310850  1
  O  O217  1  0.99674513  0.63233151  0.24808481  1
  O  O218  1  1.00346269  0.62268191  0.73910290  1
  O  O219  1  0.36148638  0.26012561  -0.00573811  1
  O  O220  1  0.37926140  0.26086708  0.49815256  1
  O  O221  1  0.37803009  0.76170151  -0.00199014  1
  O  O222  1  0.36269854  0.75065593  0.51333739  1
  O  O223  1  0.87149740  0.25015953  0.00536136  1
  O  O224  1  0.87145894  0.25331722  0.50673909  1
  O  O225  1  0.87332000  0.75621983  0.00434915  1
  O  O226  1  0.87113243  0.75547739  0.50724549  1
  O  O227  1  0.13194563  0.25166774  0.49914291  1
  O  O228  1  0.13680200  0.24719693  0.99754432  1
  O  O229  1  0.13526532  0.74483809  0.50010311  1
  O  O230  1  0.11263613  0.73274771  0.98354881  1
  O  O231  1  0.64580225  0.24339870  0.49447395  1
  O  O232  1  0.63235611  0.24322128  0.98886865  1
  O  O233  1  0.63556358  0.73791554  0.49501724  1
  O  O234  1  0.63031757  0.74802425  0.99374773  1
  O  O235  1  0.49985826  0.23540554  0.11811159  1
  O  O236  1  0.50087230  0.24032986  0.63916453  1
  O  O237  1  0.49641714  0.75042014  0.14053914  1
  O  O238  1  0.48582486  0.74265264  0.62153722  1
  O  O239  1  0.99006992  0.25312127  0.13284889  1
  O  O240  1  0.99605246  0.24230006  0.63288674  1
  O  O241  1  0.99942277  0.73922952  0.13613617  1
  O  O242  1  1.00164991  0.74247747  0.64005172  1
  O  O243  1  -0.00724040  0.26087559  0.36596743  1
  O  O244  1  0.00112534  0.24951882  0.86133121  1
  O  O245  1  0.00254652  0.75158800  0.37272716  1
  O  O246  1  0.00839574  0.74432704  0.86146787  1
  O  O247  1  0.49978632  0.26331917  0.35855797  1
  O  O248  1  0.50501227  0.25675130  0.86816609  1
  O  O249  1  0.49766164  0.75549508  0.36359511  1
  O  O250  1  0.51190860  0.75692548  0.87989809  1
  O  O251  1  0.25053625  0.13881654  0.49693114  1
  O  O252  1  0.25062116  0.13066722  0.99440447  1
  O  O253  1  0.24402018  0.63301050  0.50039287  1
  O  O254  1  0.23718282  0.61800245  1.00056822  1
  O  O255  1  0.75229836  0.13193924  0.49129926  1
  O  O256  1  0.74553667  0.13409502  0.99076250  1
  O  O257  1  0.73852109  0.63095430  0.51652132  1
  O  O258  1  0.74808195  0.63265356  0.99193647  1
  O  O259  1  0.25371835  0.36952415  0.00141072  1
  O  O260  1  0.25507347  0.36417854  0.50627540  1
  O  O261  1  0.26723219  0.87814891  -0.00204880  1
  O  O262  1  0.24403872  0.86368509  0.50018633  1
  O  O263  1  0.76683051  0.35575881  -0.01681993  1
  O  O264  1  0.76186891  0.36505282  0.50939408  1
  O  O265  1  0.75901030  0.87265214  0.00796641  1
  O  O266  1  0.75119729  0.86475115  0.50917977  1
  O  O267  1  0.13642111  0.49576317  0.25569100  1
  O  O268  1  0.13402477  0.49071413  0.74814145  1
  O  O269  1  0.13684629  1.00012685  0.24819691  1
  O  O270  1  0.13145907  1.00102465  0.74196173  1
  O  O271  1  0.60598303  0.48522860  0.26689713  1
  O  O272  1  0.63311147  0.49024189  0.74750629  1
  O  O273  1  0.63238939  1.00028965  0.23880631  1
  O  O274  1  0.64024764  0.98663616  0.76239469  1
  O  O275  1  0.36309455  0.00770147  0.25302929  1
  O  O276  1  0.36259300  0.00836508  0.75944217  1
  O  O277  1  0.35566168  0.49925117  0.27487095  1
  O  O278  1  0.36522574  0.51070853  0.74243299  1
  O  O279  1  0.87402172  0.00737329  0.25093363  1
  O  O280  1  0.86674168  0.00180781  0.75609071  1
  O  O281  1  0.88210442  0.50870307  0.26644628  1
  O  O282  1  0.86828484  0.50034723  0.75778123  1
  O  O283  1  0.11400707  0.37796388  0.37703254  1
  O  O284  1  0.12277661  0.37211254  0.86167555  1
  O  O285  1  0.11433834  0.86838816  0.37496558  1
  O  O286  1  0.12443659  0.85876482  0.88545902  1
  O  O287  1  0.62286998  0.37085132  0.39323691  1
  O  O288  1  0.61475141  0.35911626  0.86325177  1
  O  O289  1  0.67129746  0.86290007  0.35452830  1
  O  O290  1  0.61942969  0.86695053  0.87323052  1
  O  O291  1  0.38237824  0.11517576  0.13319970  1
  O  O292  1  0.36853143  0.12246981  0.63910238  1
  O  O293  1  0.39620563  0.57200009  0.13566676  1
  O  O294  1  0.38125824  0.63453269  0.63313912  1
  O  O295  1  0.87223987  0.13256764  0.13343277  1
  O  O296  1  0.88231420  0.12760215  0.63106750  1
  O  O297  1  0.88272667  0.62895755  0.13117419  1
  O  O298  1  0.88803879  0.62748606  0.62867920  1
  O  O299  1  0.24769130  0.25747184  0.11674442  1
  O  O300  1  0.24654735  0.25940800  0.61098173  1
  O  O301  1  0.20606206  0.76826436  0.12064966  1
  O  O302  1  0.25998156  0.75126771  0.61703948  1
  O  O303  1  0.76263751  0.24914396  0.11339181  1
  O  O304  1  0.75818928  0.25624246  0.61996678  1
  O  O305  1  0.75459991  0.75782441  0.11801432  1
  O  O306  1  0.75270751  0.76029121  0.62325827  1
  O  O307  1  0.25465168  0.24216923  0.39433198  1
  O  O308  1  0.24657068  0.23979312  0.88208570  1
  O  O309  1  0.24767276  0.74699655  0.38980524  1
  O  O310  1  0.23194587  0.74343358  0.86866070  1
  O  O311  1  0.76242153  0.23752303  0.38254821  1
  O  O312  1  0.74138929  0.24176787  0.87465904  1
  O  O313  1  0.76344425  0.73631455  0.39300894  1
  O  O314  1  0.74322564  0.74619765  0.88073943  1
  O  O315  1  0.00088147  0.11279096  -0.00559930  1
  O  O316  1  -0.00637735  0.11458546  0.50956378  1
  O  O317  1  0.00679522  0.62295281  0.01195051  1
  O  O318  1  0.00859166  0.62062836  0.51080194  1
  O  O319  1  0.50115330  0.11903799  0.00170216  1
  O  O320  1  0.51788642  0.13659558  0.49559891  1
  O  O321  1  0.49614654  0.60767284  -0.00334523  1
  O  O322  1  0.50477568  0.62281361  0.50890283  1
  O  O323  1  0.48776097  0.38680814  0.51040891  1
  O  O324  1  0.48911132  0.37453077  0.98544160  1
  O  O325  1  0.55087016  0.89013344  0.49581588  1
  O  O326  1  0.49381537  0.88008301  0.99107232  1
  O  O327  1  0.99771101  0.38245964  0.49889647  1
  O  O328  1  0.98883420  0.36520353  0.99801060  1
  O  O329  1  0.99200044  0.87995572  0.49511618  1
  O  O330  1  0.98971445  0.88684866  1.00189949  1
  O  O331  1  0.48564398  0.50474276  0.38628319  1
  O  O332  1  0.49806594  0.48295393  0.87339329  1
  O  O333  1  0.49131105  1.00819043  0.37214953  1
  O  O334  1  0.49304798  0.99215714  0.87858687  1
  O  O335  1  0.99743363  0.49551604  0.38847562  1
  O  O336  1  0.98782689  0.49960362  0.86841230  1
  O  O337  1  0.99613256  0.99534007  0.38193365  1
  O  O338  1  0.98690170  1.00313717  0.87952954  1
  O  O339  1  0.00204870  0.00409181  0.11620494  1
  O  O340  1  0.00398318  0.00628543  0.61935164  1
  O  O341  1  0.00017603  0.51050915  0.13692286  1
  O  O342  1  -0.00335601  0.50691960  0.61383175  1
  O  O343  1  0.50803605  0.00624387  0.11749397  1
  O  O344  1  0.50806517  0.01974376  0.65358836  1
  O  O345  1  0.51545762  0.47680711  0.09695076  1
  O  O346  1  0.49789572  0.51203420  0.61998657  1
  O  O347  1  0.25424520  0.38074477  0.24342982  1
  O  O348  1  0.24505167  0.37892855  0.74276886  1
  O  O349  1  0.24791686  0.88415660  0.25535961  1
  O  O350  1  0.25334057  0.88697450  0.75626707  1
  O  O351  1  0.76548395  0.38158534  0.26147217  1
  O  O352  1  0.74510990  0.37930872  0.74346416  1
  O  O353  1  0.76343803  0.88740746  0.22763158  1
  O  O354  1  0.74565042  0.87918410  0.74500635  1
  O  O355  1  0.25544745  0.11967329  0.25997486  1
  O  O356  1  0.25283174  0.12269715  0.75818395  1
  O  O357  1  0.24243598  0.61999339  0.26584764  1
  O  O358  1  0.25619218  0.61567809  0.74568333  1
  O  O359  1  0.76059514  0.12220591  0.25357571  1
  O  O360  1  0.75273801  0.11534916  0.74946304  1
  O  O361  1  0.76135439  0.62512778  0.24141178  1
  O  O362  1  0.75183571  0.61668074  0.75502327  1
  O  O363  1  0.36842307  0.11596696  0.36782109  1
  O  O364  1  0.36101671  0.11868879  0.87070856  1
  O  O365  1  0.36015758  0.62109806  0.38917234  1
  O  O366  1  0.37264602  0.63467641  0.85758076  1
  O  O367  1  0.87187036  0.11906425  0.36584751  1
  O  O368  1  0.86766989  0.11761795  0.86564137  1
  O  O369  1  0.88184070  0.61245271  0.36858472  1
  O  O370  1  0.86884770  0.61733472  0.87535975  1
  O  O371  1  0.13734614  0.37698355  0.12891506  1
  O  O372  1  0.13339580  0.37135471  0.63671688  1
  O  O373  1  0.10790867  0.89430042  0.13598338  1
  O  O374  1  0.11780126  0.88480581  0.62524095  1
  O  O375  1  0.64119529  0.37697473  0.10186266  1
  O  O376  1  0.64084379  0.37703113  0.62038975  1
  O  O377  1  0.63341035  0.88766060  0.12052732  1
  O  O378  1  0.63095833  0.87212881  0.63819460  1
  O  O379  1  0.11287451  0.24850627  0.24560326  1
  O  O380  1  0.11696568  0.25562914  0.75008314  1
  O  O381  1  0.11388793  0.74775751  0.26489349  1
  O  O382  1  0.11285315  0.74722072  0.76243147  1
  O  O383  1  0.62007519  0.25380003  0.24457774  1
  O  O384  1  0.61699295  0.25279399  0.75345572  1
  O  O385  1  0.62259419  0.75722261  0.25289185  1
  O  O386  1  0.63145898  0.76269953  0.76127773  1
  O  O387  1  0.37041235  0.23260654  0.24955255  1
  O  O388  1  0.37901622  0.24067580  0.75344725  1
  O  O389  1  0.37690973  0.75850244  0.25322725  1
  O  O390  1  0.36771291  0.74356633  0.73584414  1
  O  O391  1  0.88574308  0.24102553  0.24094995  1
  O  O392  1  0.88165469  0.24544692  0.74553661  1
  O  O393  1  0.88067260  0.73962128  0.24468352  1
  O  O394  1  0.89045560  0.74676608  0.75218501  1
  O  O395  1  0.38035386  0.50030848  0.49966731  1
  O  O396  1  0.38568506  0.48650822  0.98948326  1
  O  O397  1  0.38573367  1.01433811  0.49626661  1
  O  O398  1  0.38079250  0.99474433  0.99247601  1
  O  O399  1  0.88576318  0.49868605  0.49327835  1
  O  O400  1  0.87115182  0.48860876  0.99046634  1
  O  O401  1  0.88403280  0.99352391  0.49589562  1
  O  O402  1  0.88027270  0.99523474  0.99284459  1
  O  O403  1  0.11617854  0.00062465  0.00894092  1
  O  O404  1  0.11153578  -0.00403733  0.50739023  1
  O  O405  1  0.12165834  0.51012602  -0.00071255  1
  O  O406  1  0.11890946  0.51019971  0.50009616  1
  O  O407  1  0.61886862  0.00542319  0.00199829  1
  O  O408  1  0.63881195  0.02351052  0.49860877  1
  O  O409  1  0.60745312  0.50508475  -0.02652810  1
  O  O410  1  0.60645133  0.50586093  0.50792912  1
  O  O411  1  0.35847027  0.38307153  0.10898459  1
  O  O412  1  0.36659989  0.37502685  0.61097125  1
  O  O413  1  0.37589316  0.88017694  0.10893568  1
  O  O414  1  0.38381167  0.86375249  0.63142511  1
  O  O415  1  0.87210422  0.36633964  0.11705900  1
  O  O416  1  0.86842840  0.36998134  0.62209735  1
  O  O417  1  0.87163732  0.86710874  0.11484597  1
  O  O418  1  0.86600470  0.87293926  0.61801450  1
  O  O419  1  0.13916311  0.12509217  0.37482195  1
  O  O420  1  0.13549567  0.12434613  0.87787946  1
  O  O421  1  0.13241437  0.63247947  0.39037456  1
  O  O422  1  0.12662979  0.62560732  0.88742712  1
  O  O423  1  0.63701005  0.13196183  0.37951591  1
  O  O424  1  0.62571905  0.13238940  0.87406120  1
  O  O425  1  0.62396769  0.62547969  0.38985434  1
  O  O426  1  0.63107450  0.63510893  0.87166594  1
