# generated using pymatgen
data_V85Zn86O256
_symmetry_space_group_name_H-M   'P 1'
_cell_length_a   16.99316219
_cell_length_b   17.00784353
_cell_length_c   16.99072436
_cell_angle_alpha   90.10334992
_cell_angle_beta   89.98641424
_cell_angle_gamma   89.98265552
_symmetry_Int_Tables_number   1
_chemical_formula_structural   V85Zn86O256
_chemical_formula_sum   'V85 Zn86 O256'
_cell_volume   4910.60057004
_cell_formula_units_Z   1
loop_
 _symmetry_equiv_pos_site_id
 _symmetry_equiv_pos_as_xyz
  1  'x, y, z'
loop_
 _atom_site_type_symbol
 _atom_site_label
 _atom_site_symmetry_multiplicity
 _atom_site_fract_x
 _atom_site_fract_y
 _atom_site_fract_z
 _atom_site_occupancy
  V  V0  1  0.49198764  0.12803436  0.13571418  1
  V  V1  1  0.74485281  0.62817364  0.39313967  1
  V  V2  1  0.12606059  0.74718446  0.87261509  1
  V  V3  1  0.75775495  0.62104569  0.86181652  1
  V  V4  1  0.12905896  0.87065965  0.25000607  1
  V  V5  1  0.12445130  0.50308053  0.61936745  1
  V  V6  1  0.87452326  0.25565699  0.12614939  1
  V  V7  1  0.38523984  0.38212445  0.49861469  1
  V  V8  1  -0.00862153  0.50122085  0.00373951  1
  V  V9  1  0.25158555  0.12231846  0.87823608  1
  V  V10  1  0.75025955  0.49705391  0.24556619  1
  V  V11  1  0.24784506  0.37058884  0.61631576  1
  V  V12  1  0.12557098  0.11828048  0.00426677  1
  V  V13  1  0.87117696  0.87256739  0.50513825  1
  V  V14  1  0.24093286  0.74178092  0.49919077  1
  V  V15  1  0.37356611  0.12547737  0.74988153  1
  V  V16  1  0.12836787  0.13105101  0.50388726  1
  V  V17  1  0.92502185  0.81780198  0.05714891  1
  V  V18  1  0.87388490  0.50045851  0.86023715  1
  V  V19  1  0.62681614  0.75100125  0.87001338  1
  V  V20  1  0.62481243  0.39612915  0.75447420  1
  V  V21  1  0.37079237  0.49559531  0.87464714  1
  V  V22  1  0.62909914  0.25201794  0.86966294  1
  V  V23  1  0.74893888  0.25157292  0.00135523  1
  V  V24  1  0.50220239  0.25198361  0.73942537  1
  V  V25  1  0.61766956  0.11750074  -0.00481341  1
  V  V26  1  0.62235449  0.50293415  0.60558597  1
  V  V27  1  -0.00228146  0.62401099  0.62686339  1
  V  V28  1  0.12491390  0.62248982  0.00298169  1
  V  V29  1  -0.00558547  0.87072241  0.36965395  1
  V  V30  1  -0.00002334  0.37314969  0.37537693  1
  V  V31  1  0.87631075  0.00305308  0.37648796  1
  V  V32  1  0.73617252  0.12865484  0.37281881  1
  V  V33  1  0.87655508  0.12733859  0.25268557  1
  V  V34  1  0.24860636  0.61835628  0.36905389  1
  V  V35  1  0.24926137  0.62433354  0.87463455  1
  V  V36  1  0.73773534  0.25065220  0.49938495  1
  V  V37  1  0.37318368  0.37029073  0.00335819  1
  V  V38  1  0.50291498  0.74205518  0.75202048  1
  V  V39  1  0.74283809  -0.00386904  0.24631266  1
  V  V40  1  0.12400360  0.87432374  0.74991060  1
  V  V41  1  -0.00009573  0.37338139  0.87593670  1
  V  V42  1  0.74407068  0.87081585  0.12311771  1
  V  V43  1  0.56871705  0.91256108  0.80005681  1
  V  V44  1  -0.00397831  0.74438893  0.75003493  1
  V  V45  1  0.25131499  0.24631758  0.01145052  1
  V  V46  1  0.87578916  -0.00132934  0.87605460  1
  V  V47  1  0.74664342  0.38120190  0.63232114  1
  V  V48  1  0.87763562  0.24319923  0.62617775  1
  V  V49  1  -0.00221752  0.00113150  0.00609269  1
  V  V50  1  0.25041905  -0.00149316  0.75381199  1
  V  V51  1  0.86971589  0.74886989  0.62587800  1
  V  V52  1  0.36864902  0.24845376  0.61845203  1
  V  V53  1  0.87267127  0.37510249  0.00106064  1
  V  V54  1  0.25202212  0.87668558  0.12688993  1
  V  V55  1  0.12443889  0.24824574  0.87828703  1
  V  V56  1  0.37984502  0.61855940  0.24230185  1
  V  V57  1  0.12479566  0.37246732  0.75039708  1
  V  V58  1  0.24757312  0.38436234  0.12388711  1
  V  V59  1  0.17678494  0.05106682  0.18881510  1
  V  V60  1  -0.00248055  0.12130922  0.13208208  1
  V  V61  1  0.38376597  0.75038148  0.12493874  1
  V  V62  1  0.75024534  0.75096113  -0.00036495  1
  V  V63  1  0.13952610  0.25206947  0.38417399  1
  V  V64  1  0.50696400  0.76439232  0.25754693  1
  V  V65  1  0.50128941  0.62153039  0.60714255  1
  V  V66  1  0.37025438  0.87312547  0.49009743  1
  V  V67  1  0.37104044  0.74538860  0.62610546  1
  V  V68  1  0.39247091  0.50277621  0.37704987  1
  V  V69  1  0.00070257  0.50697016  0.49768727  1
  V  V70  1  0.11665438  0.74235327  0.37485747  1
  V  V71  1  -0.00165338  0.87328901  0.87618602  1
  V  V72  1  0.87092398  0.64524643  0.25034042  1
  V  V73  1  0.75347561  -0.01157253  0.74433907  1
  V  V74  1  0.49456419  -0.00426677  0.49125767  1
  V  V75  1  0.87352094  0.37519068  0.50131894  1
  V  V76  1  0.12018400  0.50560038  0.13167177  1
  V  V77  1  -0.00261756  0.00688282  0.50225870  1
  V  V78  1  0.62508009  -0.01010113  0.62200684  1
  V  V79  1  0.24513697  0.87184664  0.62484951  1
  V  V80  1  0.24811696  0.49812533  0.74735608  1
  V  V81  1  0.39218034  0.87967915  -0.00482751  1
  V  V82  1  0.49563832  0.37069282  0.87409437  1
  V  V83  1  0.11689674  0.00719519  0.62831985  1
  V  V84  1  0.12881012  0.38173035  0.25370724  1
  Zn  Zn85  1  0.66809238  0.34216486  0.20015871  1
  Zn  Zn86  1  0.55891276  0.22454531  0.30338442  1
  Zn  Zn87  1  0.61858828  0.12325177  0.50102557  1
  Zn  Zn88  1  0.61150270  0.50355002  0.12586262  1
  Zn  Zn89  1  0.56084033  0.42294589  0.31125820  1
  Zn  Zn90  1  0.37729305  0.12481615  0.25930239  1
  Zn  Zn91  1  0.70718180  0.81410572  0.56522404  1
  Zn  Zn92  1  0.36145563  -0.01080639  0.35703378  1
  Zn  Zn93  1  0.62067234  -0.00355154  0.11829741  1
  Zn  Zn94  1  0.00311894  0.24190586  0.74523864  1
  Zn  Zn95  1  0.75546664  0.12536523  0.86953965  1
  Zn  Zn96  1  0.49562551  0.50945809  0.00735229  1
  Zn  Zn97  1  0.87400134  0.50143357  0.37246250  1
  Zn  Zn98  1  0.50035338  0.12031002  0.62361822  1
  Zn  Zn99  1  0.88011451  0.11991365  0.74524248  1
  Zn  Zn100  1  0.25457020  0.75149050  -0.00066789  1
  Zn  Zn101  1  0.61718044  0.62506755  0.00272961  1
  Zn  Zn102  1  0.00716184  0.25008104  0.25051995  1
  Zn  Zn103  1  0.37552363  0.62083111  0.74704211  1
  Zn  Zn104  1  -0.01239810  0.63519131  0.12849340  1
  Zn  Zn105  1  0.39480938  -0.00551276  0.87334354  1
  Zn  Zn106  1  0.62308899  0.75778859  0.40068862  1
  Zn  Zn107  1  0.24037428  0.23906831  0.23192151  1
  Zn  Zn108  1  0.18598592  0.18582207  0.68907071  1
  Zn  Zn109  1  0.19185025  0.69100005  0.18925452  1
  Zn  Zn110  1  0.18284021  0.68283103  0.68679116  1
  Zn  Zn111  1  0.69461577  0.17303537  0.17689292  1
  Zn  Zn112  1  0.69073976  0.18017116  0.68491403  1
  Zn  Zn113  1  0.68929384  0.68684900  0.18902813  1
  Zn  Zn114  1  0.68282343  0.67988526  0.68937554  1
  Zn  Zn115  1  0.40692319  0.30954628  0.31060882  1
  Zn  Zn116  1  0.30781567  0.30913416  0.81145027  1
  Zn  Zn117  1  0.30821724  0.80601519  0.30913120  1
  Zn  Zn118  1  0.31616437  0.81132438  0.81289768  1
  Zn  Zn119  1  0.81063455  0.31090276  0.31558241  1
  Zn  Zn120  1  0.81161441  0.31530995  0.81048405  1
  Zn  Zn121  1  0.78065084  0.82111456  0.32598373  1
  Zn  Zn122  1  0.81553607  0.81375109  0.81254584  1
  Zn  Zn123  1  0.19120964  0.44000845  0.43809424  1
  Zn  Zn124  1  0.18402362  0.43825605  0.94085646  1
  Zn  Zn125  1  0.18024706  0.93248186  0.43955793  1
  Zn  Zn126  1  0.18670213  0.93653759  0.94011502  1
  Zn  Zn127  1  0.69456501  0.44019970  0.43346698  1
  Zn  Zn128  1  0.68723946  0.43874886  0.94599686  1
  Zn  Zn129  1  0.68341061  0.93800109  0.43218159  1
  Zn  Zn130  1  0.70040622  0.93507889  0.94012476  1
  Zn  Zn131  1  0.32278848  0.05841456  0.06244113  1
  Zn  Zn132  1  0.30941802  0.05934889  0.56224829  1
  Zn  Zn133  1  0.31411705  0.56149373  0.06249203  1
  Zn  Zn134  1  0.31267149  0.56278021  0.55817054  1
  Zn  Zn135  1  0.81221008  0.06452800  0.05945403  1
  Zn  Zn136  1  0.80527394  0.06210695  0.56075240  1
  Zn  Zn137  1  0.77897220  0.58663404  0.08365763  1
  Zn  Zn138  1  0.81566458  0.55907543  0.57077949  1
  Zn  Zn139  1  0.44265317  0.43969986  0.17939331  1
  Zn  Zn140  1  0.43973302  0.43778518  0.68353641  1
  Zn  Zn141  1  0.44090448  0.94401522  0.18139383  1
  Zn  Zn142  1  0.43042179  0.93725035  0.67698989  1
  Zn  Zn143  1  0.93365701  0.44070049  0.19013965  1
  Zn  Zn144  1  0.94123392  0.42979551  0.68524497  1
  Zn  Zn145  1  0.93932044  0.94164196  0.19674854  1
  Zn  Zn146  1  0.93774171  0.93470339  0.68890188  1
  Zn  Zn147  1  0.24315271  0.10604534  0.37711538  1
  Zn  Zn148  1  0.05792679  0.06556997  0.81410627  1
  Zn  Zn149  1  0.05216454  0.56797613  0.30894372  1
  Zn  Zn150  1  0.06088509  0.55985344  0.81076643  1
  Zn  Zn151  1  0.55478125  0.04704595  0.30741746  1
  Zn  Zn152  1  0.56807513  0.07710200  0.80610295  1
  Zn  Zn153  1  0.57041225  0.58705074  0.30630293  1
  Zn  Zn154  1  0.55217250  0.57340620  0.84303814  1
  Zn  Zn155  1  0.42274248  0.17590353  0.44134601  1
  Zn  Zn156  1  0.43671653  0.18853944  0.93459280  1
  Zn  Zn157  1  0.43528603  0.69386550  0.43060086  1
  Zn  Zn158  1  0.43699508  0.69499056  0.93444324  1
  Zn  Zn159  1  0.93859060  0.18881563  0.43918483  1
  Zn  Zn160  1  0.93816427  0.18462825  0.93744569  1
  Zn  Zn161  1  0.92739005  0.68860085  0.43517236  1
  Zn  Zn162  1  0.93828033  0.67769172  0.93268222  1
  Zn  Zn163  1  0.06206722  0.31156450  0.06448068  1
  Zn  Zn164  1  0.05928414  0.31581349  0.56182434  1
  Zn  Zn165  1  0.08622503  0.81263284  0.06186323  1
  Zn  Zn166  1  0.05738825  0.81438609  0.55890538  1
  Zn  Zn167  1  0.56012305  0.31249539  0.06018659  1
  Zn  Zn168  1  0.55649288  0.31462868  0.45640144  1
  Zn  Zn169  1  0.56587127  0.80846793  0.06308156  1
  Zn  Zn170  1  0.54648662  0.81373389  0.56658769  1
  O  O171  1  0.11647632  0.11074409  0.12405740  1
  O  O172  1  0.12455662  0.11441103  0.62231530  1
  O  O173  1  0.12209445  0.62100512  0.12304361  1
  O  O174  1  0.11237891  0.61357211  0.62566533  1
  O  O175  1  0.62341449  0.12003080  0.10489001  1
  O  O176  1  0.62118177  0.10961083  0.62358631  1
  O  O177  1  0.66110845  0.61272232  0.10878111  1
  O  O178  1  0.61716981  0.60910768  0.62843326  1
  O  O179  1  0.37234322  0.39116292  0.38702103  1
  O  O180  1  0.37078041  0.37913677  0.88177355  1
  O  O181  1  0.36653883  0.86931976  0.38767494  1
  O  O182  1  0.36984823  0.87520988  0.89104038  1
  O  O183  1  0.88329626  0.37584873  0.38519081  1
  O  O184  1  0.88046011  0.38018185  0.88082624  1
  O  O185  1  0.87748982  0.88209397  0.38310479  1
  O  O186  1  0.88567006  0.88738613  0.87172960  1
  O  O187  1  0.24893479  -0.00773254  0.38033542  1
  O  O188  1  0.24457669  0.00311931  0.86302764  1
  O  O189  1  0.25139735  0.51644621  0.37891066  1
  O  O190  1  0.25361984  0.50317660  0.87019553  1
  O  O191  1  0.75939165  0.01077913  0.36916064  1
  O  O192  1  0.76175799  -0.00037918  0.86717939  1
  O  O193  1  0.75373590  0.51245037  0.36917437  1
  O  O194  1  0.76020167  0.51444823  0.88077006  1
  O  O195  1  0.23567289  0.49109959  0.11543526  1
  O  O196  1  0.24056132  0.49611188  0.62745607  1
  O  O197  1  0.24529240  0.99893086  0.12862642  1
  O  O198  1  0.23974168  0.99443912  0.63730147  1
  O  O199  1  0.75512102  0.49133077  0.14438110  1
  O  O200  1  0.73650167  0.49321231  0.62320201  1
  O  O201  1  0.75097369  0.99549629  0.13017137  1
  O  O202  1  0.73959933  1.00316894  0.63286050  1
  O  O203  1  0.00992397  0.37510654  0.25867871  1
  O  O204  1  0.00955696  0.36827652  0.75690616  1
  O  O205  1  0.00657649  0.87842323  0.26424468  1
  O  O206  1  0.00826182  0.86679353  0.75623756  1
  O  O207  1  0.48667240  0.36614282  0.24994984  1
  O  O208  1  0.50710297  0.36801254  0.75340837  1
  O  O209  1  0.49845510  0.86206716  0.24083514  1
  O  O210  1  0.49833715  0.86248239  0.74031873  1
  O  O211  1  0.50607472  0.13224752  0.24422340  1
  O  O212  1  0.49058132  0.13478772  0.74645450  1
  O  O213  1  0.48201019  0.63867411  0.25302652  1
  O  O214  1  0.49695513  0.63474127  0.75221479  1
  O  O215  1  0.99408068  0.12899886  0.23784891  1
  O  O216  1  0.99442107  0.12977994  0.75138783  1
  O  O217  1  0.97885173  0.62796004  0.24645413  1
  O  O218  1  1.00532710  0.63328808  0.74131241  1
  O  O219  1  0.36196312  0.25748398  -0.00774757  1
  O  O220  1  0.37343687  0.25694308  0.51577947  1
  O  O221  1  0.37409971  0.76001055  0.00467589  1
  O  O222  1  0.36514325  0.75570859  0.50573800  1
  O  O223  1  0.86934560  0.25270972  0.00559536  1
  O  O224  1  0.87053893  0.25989920  0.50929459  1
  O  O225  1  0.87440463  0.75599574  -0.00736209  1
  O  O226  1  0.88293729  0.76078808  0.51293597  1
  O  O227  1  0.11746573  0.24526126  0.49466766  1
  O  O228  1  0.13108359  0.24049303  0.99731832  1
  O  O229  1  0.13052524  0.75389746  0.48992548  1
  O  O230  1  0.13075020  0.73942072  0.98952367  1
  O  O231  1  0.63557847  0.24538095  0.50849816  1
  O  O232  1  0.63289023  0.24360147  0.98821464  1
  O  O233  1  0.62604586  0.75680205  0.51499119  1
  O  O234  1  0.63421403  0.74844131  0.98907369  1
  O  O235  1  0.50804604  0.22412829  0.10938722  1
  O  O236  1  0.48812632  0.24698875  0.63692006  1
  O  O237  1  0.48750122  0.75041829  0.12541787  1
  O  O238  1  0.49131511  0.73718968  0.63410565  1
  O  O239  1  0.99479876  0.24022516  0.12611658  1
  O  O240  1  0.98108174  0.25994561  0.62481354  1
  O  O241  1  0.99008094  0.75973522  0.10956986  1
  O  O242  1  0.99860934  0.74056551  0.63103924  1
  O  O243  1  0.00492082  0.26428587  0.37671691  1
  O  O244  1  0.00877275  0.25656501  0.87927640  1
  O  O245  1  0.00606003  0.75835327  0.38394257  1
  O  O246  1  0.00498284  0.75117844  0.86779223  1
  O  O247  1  0.48835035  0.25146575  0.38473775  1
  O  O248  1  0.50672572  0.25350926  0.86301846  1
  O  O249  1  0.50483990  0.75526308  0.36348775  1
  O  O250  1  0.51364225  0.75528910  0.86423297  1
  O  O251  1  0.23096945  0.12024338  0.50557012  1
  O  O252  1  0.24767788  0.12962119  1.00049183  1
  O  O253  1  0.25225753  0.63681197  0.49130186  1
  O  O254  1  0.24398984  0.62442325  0.99082733  1
  O  O255  1  0.74478939  0.13212278  0.49001193  1
  O  O256  1  0.74451444  0.13747528  0.99355301  1
  O  O257  1  0.75576537  0.61273529  0.49113001  1
  O  O258  1  0.76326818  0.64426524  0.98479707  1
  O  O259  1  0.25154675  0.36741623  0.00438994  1
  O  O260  1  0.25572177  0.38039273  0.51404502  1
  O  O261  1  0.24708350  0.87412856  0.01509314  1
  O  O262  1  0.25076633  0.86244541  0.50827440  1
  O  O263  1  0.75855223  0.36065256  -0.00846979  1
  O  O264  1  0.75717030  0.36907934  0.50932624  1
  O  O265  1  0.75886744  0.86303627  0.00657538  1
  O  O266  1  0.76844918  0.88965101  0.50545134  1
  O  O267  1  0.11693318  0.49797560  0.23873251  1
  O  O268  1  0.12721816  0.49212208  0.73962468  1
  O  O269  1  0.12448175  0.98832120  0.24689617  1
  O  O270  1  0.12851491  0.99524846  0.74469734  1
  O  O271  1  0.63396237  0.50468898  0.25312825  1
  O  O272  1  0.61700025  0.49356052  0.76933312  1
  O  O273  1  0.63968101  1.00155653  0.24567554  1
  O  O274  1  0.62928560  0.99089639  0.74592732  1
  O  O275  1  0.38400833  0.01124552  0.24827448  1
  O  O276  1  0.36513357  0.00269473  0.75114653  1
  O  O277  1  0.37414350  0.51593111  0.25594924  1
  O  O278  1  0.36417500  0.49761486  0.75535531  1
  O  O279  1  0.87051904  0.00860809  0.26080296  1
  O  O280  1  0.87070328  -0.00046234  0.75526523  1
  O  O281  1  0.86348462  0.50269481  0.25431030  1
  O  O282  1  0.88061708  0.48992373  0.76154473  1
  O  O283  1  0.12026102  0.37455023  0.37201649  1
  O  O284  1  0.12078718  0.36967436  0.87092317  1
  O  O285  1  0.11364687  0.86454843  0.37023596  1
  O  O286  1  0.11906445  0.86669103  0.87080484  1
  O  O287  1  0.62434217  0.36883798  0.38512306  1
  O  O288  1  0.62027147  0.36477966  0.87064110  1
  O  O289  1  0.67295422  0.85340239  0.36325432  1
  O  O290  1  0.63341957  0.86618275  0.87154336  1
  O  O291  1  0.39032592  0.12614808  0.12308570  1
  O  O292  1  0.37073576  0.13296607  0.63190841  1
  O  O293  1  0.36467248  0.63430279  0.13616474  1
  O  O294  1  0.38196130  0.62712749  0.62680105  1
  O  O295  1  0.88097118  0.13491904  0.12879522  1
  O  O296  1  0.86953419  0.14179905  0.61932204  1
  O  O297  1  0.86905231  0.62971848  0.14301127  1
  O  O298  1  0.88949102  0.63133980  0.62308933  1
  O  O299  1  0.23899454  0.26573213  0.11358567  1
  O  O300  1  0.25624427  0.26031017  0.63414789  1
  O  O301  1  0.26218437  0.76015931  0.12286954  1
  O  O302  1  0.24897079  0.74918512  0.61813170  1
  O  O303  1  0.76168891  0.24723379  0.11379284  1
  O  O304  1  0.75688998  0.25820662  0.61770047  1
  O  O305  1  0.74949099  0.75965039  0.11446166  1
  O  O306  1  0.76597552  0.74320907  0.63594703  1
  O  O307  1  0.23583119  0.25801977  0.38447605  1
  O  O308  1  0.24217300  0.24214496  0.88501770  1
  O  O309  1  0.23952358  0.74222008  0.38208575  1
  O  O310  1  0.24495226  0.73907495  0.87331422  1
  O  O311  1  0.76053714  0.23798816  0.38856448  1
  O  O312  1  0.74311233  0.24922680  0.87720882  1
  O  O313  1  0.76775763  0.72724624  0.38952260  1
  O  O314  1  0.74877765  0.74567730  0.87650941  1
  O  O315  1  0.00480549  0.11830701  0.01128953  1
  O  O316  1  0.00864752  0.11305775  0.49493629  1
  O  O317  1  0.00436100  0.61717373  0.00601814  1
  O  O318  1  -0.00565666  0.61079406  0.50439305  1
  O  O319  1  0.51666814  0.12347219  -0.01330299  1
  O  O320  1  0.49721194  0.10833642  0.50397857  1
  O  O321  1  0.50938158  0.61452534  -0.04540734  1
  O  O322  1  0.49317604  0.63058817  0.50905425  1
  O  O323  1  0.48287472  0.37722088  0.51654188  1
  O  O324  1  0.48475321  0.37033128  0.98982814  1
  O  O325  1  0.48181058  0.88464595  0.50698698  1
  O  O326  1  0.49037512  0.87364936  1.00105187  1
  O  O327  1  0.99282490  0.38427483  0.49478305  1
  O  O328  1  0.99569919  0.38188936  0.99483358  1
  O  O329  1  0.99277328  0.88650248  0.49101729  1
  O  O330  1  0.99741530  0.87714005  1.00204942  1
  O  O331  1  0.49378734  0.51024837  0.36676112  1
  O  O332  1  0.47815814  0.48561123  0.86664069  1
  O  O333  1  0.49616758  0.99395433  0.38881681  1
  O  O334  1  0.51158757  0.98577762  0.85130870  1
  O  O335  1  1.00046914  0.49051951  0.38262723  1
  O  O336  1  0.99445976  0.49479013  0.88202519  1
  O  O337  1  0.98416837  0.99135334  0.38470180  1
  O  O338  1  0.99619107  0.99181577  0.88382125  1
  O  O339  1  -0.00910320  0.00869980  0.11807722  1
  O  O340  1  0.00797977  -0.00579477  0.61686852  1
  O  O341  1  0.00423693  0.50257252  0.11802329  1
  O  O342  1  0.00506024  0.50410789  0.61985789  1
  O  O343  1  0.50769665  0.02035000  0.12228305  1
  O  O344  1  0.50703857  -0.00111467  0.61780315  1
  O  O345  1  0.49464786  0.51639315  0.12073441  1
  O  O346  1  0.51327768  0.50884189  0.63044355  1
  O  O347  1  0.23316523  0.37566933  0.23676905  1
  O  O348  1  0.24177530  0.38035055  0.74248591  1
  O  O349  1  0.24344883  0.87127558  0.23849669  1
  O  O350  1  0.24384590  0.88007583  0.74646194  1
  O  O351  1  0.75171088  0.39173813  0.26254793  1
  O  O352  1  0.73921189  0.37228453  0.73948591  1
  O  O353  1  0.76647125  0.88783849  0.23223653  1
  O  O354  1  0.75690401  0.88825237  0.74881229  1
  O  O355  1  0.22544030  0.11836873  0.24639929  1
  O  O356  1  0.25397711  0.11650789  0.75637876  1
  O  O357  1  0.26548318  0.63657442  0.25994719  1
  O  O358  1  0.24755783  0.61541900  0.75719693  1
  O  O359  1  0.75988052  0.11460909  0.25564383  1
  O  O360  1  0.75715927  0.11214270  0.75177217  1
  O  O361  1  0.75775048  0.61661034  0.25821344  1
  O  O362  1  0.75504797  0.62756836  0.76337878  1
  O  O363  1  0.35890016  0.11160527  0.37776933  1
  O  O364  1  0.36927848  0.11703876  0.86899535  1
  O  O365  1  0.36784305  0.62062625  0.36736763  1
  O  O366  1  0.36002500  0.61596608  0.87234138  1
  O  O367  1  0.87213596  0.11926875  0.37181744  1
  O  O368  1  0.87673158  0.11066440  0.87499090  1
  O  O369  1  0.87165561  0.61899267  0.36537247  1
  O  O370  1  0.86895226  0.61453361  0.86997505  1
  O  O371  1  0.12524664  0.38504660  0.13178623  1
  O  O372  1  0.12994348  0.37982724  0.63053210  1
  O  O373  1  0.13588061  0.87484715  0.13771615  1
  O  O374  1  0.12701247  0.88322450  0.62997885  1
  O  O375  1  0.62061293  0.38696431  0.11431665  1
  O  O376  1  0.62999218  0.39436657  0.63810055  1
  O  O377  1  0.63913878  0.88026637  0.11506885  1
  O  O378  1  0.62648269  0.88630992  0.62297615  1
  O  O379  1  0.12729348  0.26270653  0.26848488  1
  O  O380  1  0.12594849  0.25581074  0.75952597  1
  O  O381  1  0.12663526  0.76235330  0.25867247  1
  O  O382  1  0.11677600  0.75382161  0.75411064  1
  O  O383  1  0.65020889  0.24565834  0.24948391  1
  O  O384  1  0.61820364  0.25269341  0.75341471  1
  O  O385  1  0.60453352  0.74195678  0.24027721  1
  O  O386  1  0.61641849  0.75042394  0.75515669  1
  O  O387  1  0.34919748  0.23406674  0.25396353  1
  O  O388  1  0.38023093  0.24596744  0.74486480  1
  O  O389  1  0.38362558  0.74620018  0.24216468  1
  O  O390  1  0.38077310  0.74607573  0.74338087  1
  O  O391  1  0.87701850  0.24576365  0.24217921  1
  O  O392  1  0.87237226  0.25198001  0.73422956  1
  O  O393  1  0.86146122  0.74209674  0.25944968  1
  O  O394  1  0.89087796  0.75611115  0.74347317  1
  O  O395  1  0.37329366  0.49452737  0.48957828  1
  O  O396  1  0.37149278  0.49025826  0.98939021  1
  O  O397  1  0.38107187  0.98834736  0.50643192  1
  O  O398  1  0.37499287  0.98435067  0.99303755  1
  O  O399  1  0.88263642  0.48741073  0.50240796  1
  O  O400  1  0.88615149  0.49480150  0.99386554  1
  O  O401  1  0.88106191  0.99863577  0.49753798  1
  O  O402  1  0.88758013  1.00403921  0.99160598  1
  O  O403  1  0.10865010  0.00465602  -0.00511516  1
  O  O404  1  0.11489050  0.00529290  0.51002915  1
  O  O405  1  0.11274155  0.50392994  0.00890792  1
  O  O406  1  0.11594885  0.49241676  0.51222295  1
  O  O407  1  0.63537519  0.01607847  -0.00895161  1
  O  O408  1  0.61293809  -0.00310690  0.50323719  1
  O  O409  1  0.61464243  0.50587671  -0.00732249  1
  O  O410  1  0.62189378  0.49696406  0.50857203  1
  O  O411  1  0.36079442  0.38174585  0.11061893  1
  O  O412  1  0.36451361  0.37008056  0.62367138  1
  O  O413  1  0.37081640  0.87124202  0.11305651  1
  O  O414  1  0.36158785  0.86418451  0.61887246  1
  O  O415  1  0.88496190  0.36173351  0.11852173  1
  O  O416  1  0.86448112  0.37097083  0.61986663  1
  O  O417  1  0.87374530  0.87759459  0.12098180  1
  O  O418  1  0.88556430  0.86187693  0.61739653  1
  O  O419  1  0.12886510  0.14495937  0.38659956  1
  O  O420  1  0.13195143  0.12859383  0.88476624  1
  O  O421  1  0.12968310  0.63589050  0.36393979  1
  O  O422  1  0.13323383  0.62475304  0.87904273  1
  O  O423  1  0.63260410  0.12076874  0.37318849  1
  O  O424  1  0.63115652  0.13750932  0.87880753  1
  O  O425  1  0.64052040  0.63933509  0.37799479  1
  O  O426  1  0.64498728  0.63912529  0.87306312  1
