# generated using pymatgen
data_V85Zn86O256
_symmetry_space_group_name_H-M   'P 1'
_cell_length_a   16.90175090
_cell_length_b   16.90561196
_cell_length_c   16.90509928
_cell_angle_alpha   89.95061509
_cell_angle_beta   89.93906610
_cell_angle_gamma   90.02256450
_symmetry_Int_Tables_number   1
_chemical_formula_structural   V85Zn86O256
_chemical_formula_sum   'V85 Zn86 O256'
_cell_volume   4830.36420865
_cell_formula_units_Z   1
loop_
 _symmetry_equiv_pos_site_id
 _symmetry_equiv_pos_as_xyz
  1  'x, y, z'
loop_
 _atom_site_type_symbol
 _atom_site_label
 _atom_site_symmetry_multiplicity
 _atom_site_fract_x
 _atom_site_fract_y
 _atom_site_fract_z
 _atom_site_occupancy
  V  V0  1  0.73971501  0.37947921  0.62285833  1
  V  V1  1  0.49836546  0.37355290  0.87446931  1
  V  V2  1  0.62322618  0.74895637  0.37781919  1
  V  V3  1  -0.00350110  0.37314545  0.88302185  1
  V  V4  1  0.12169905  0.37741635  0.74624889  1
  V  V5  1  0.87867507  0.75030227  0.62478975  1
  V  V6  1  0.26514515  0.12392811  0.37407602  1
  V  V7  1  0.87830675  0.87350965  0.00258390  1
  V  V8  1  0.38194393  -0.00293712  0.86471568  1
  V  V9  1  0.11638653  0.75774982  0.37389044  1
  V  V10  1  0.49597072  0.24179695  0.75075548  1
  V  V11  1  0.87308591  0.25180743  0.62322354  1
  V  V12  1  0.87560905  0.24800785  0.12186523  1
  V  V13  1  0.87235464  0.49692502  0.88120177  1
  V  V14  1  0.75271522  0.25843139  -0.00120080  1
  V  V15  1  0.62502628  -0.00108077  0.12454975  1
  V  V16  1  0.24583013  0.88785828  0.12375108  1
  V  V17  1  0.88368007  0.50178892  0.37430671  1
  V  V18  1  0.87848458  0.87571847  0.49264731  1
  V  V19  1  0.37168665  0.37880431  0.49753482  1
  V  V20  1  0.24821275  0.74701012  0.00404606  1
  V  V21  1  0.49958968  0.37563794  0.37344826  1
  V  V22  1  0.50958558  0.61974923  0.62843915  1
  V  V23  1  0.49751369  0.74608676  0.24864465  1
  V  V24  1  0.62563100  0.50456361  0.12181939  1
  V  V25  1  0.25937209  0.00450892  0.25333434  1
  V  V26  1  0.62137192  0.12640443  0.00090633  1
  V  V27  1  0.37048805  0.24349982  0.62625391  1
  V  V28  1  -0.00110561  0.25034750  0.75142339  1
  V  V29  1  0.24901544  0.25232318  0.01121734  1
  V  V30  1  0.74251326  0.50188228  0.74762212  1
  V  V31  1  0.12558051  0.61206214  0.49507582  1
  V  V32  1  0.13833656  0.49808685  0.11748309  1
  V  V33  1  0.62485920  0.36881839  0.25215084  1
  V  V34  1  0.00423154  0.37661203  0.37531278  1
  V  V35  1  0.00366395  0.63037709  0.12253482  1
  V  V36  1  0.75221220  0.62506605  0.37546361  1
  V  V37  1  0.01395512  0.00358453  0.00233643  1
  V  V38  1  0.62416669  0.12716574  0.49648096  1
  V  V39  1  0.12421124  0.75099796  0.87688184  1
  V  V40  1  0.00329980  -0.00254714  0.49201863  1
  V  V41  1  0.87705971  0.00847208  0.37041701  1
  V  V42  1  0.00462711  0.87824252  0.87091047  1
  V  V43  1  0.01266216  0.12125825  0.12483942  1
  V  V44  1  0.25529812  0.12495615  0.87284002  1
  V  V45  1  0.50200140  0.50656613  -0.00090960  1
  V  V46  1  0.37383564  0.62576722  0.74661377  1
  V  V47  1  0.50488016  0.49951375  0.50082560  1
  V  V48  1  0.75011287  0.74997721  0.50100028  1
  V  V49  1  0.37173548  0.87720147  0.49266937  1
  V  V50  1  0.75718408  0.87046548  0.12617036  1
  V  V51  1  0.75019041  0.49911285  0.24958891  1
  V  V52  1  0.87301866  0.12630796  0.74940567  1
  V  V53  1  0.62635272  0.87319970  0.25066852  1
  V  V54  1  0.24641729  0.87217428  0.63090066  1
  V  V55  1  0.49684801  -0.00014485  0.49515406  1
  V  V56  1  0.37239427  0.49927413  0.87560457  1
  V  V57  1  0.24381333  0.50090662  0.74355134  1
  V  V58  1  0.38270984  0.25192403  0.13523347  1
  V  V59  1  0.13101040  0.24818499  0.37518651  1
  V  V60  1  0.24180742  0.62331758  0.87845848  1
  V  V61  1  0.49909702  0.75927558  0.75163474  1
  V  V62  1  0.24862803  0.74565770  0.49321643  1
  V  V63  1  0.25319754  0.49548280  0.26725567  1
  V  V64  1  0.00123080  0.50387250  0.00256666  1
  V  V65  1  0.61813240  0.75052353  0.88384369  1
  V  V66  1  0.87796280  0.63239513  0.24481066  1
  V  V67  1  0.12600007  0.24256813  0.88077046  1
  V  V68  1  0.00567356  0.60877389  0.62187536  1
  V  V69  1  0.87622974  0.62485649  0.75137540  1
  V  V70  1  0.74989573  -0.00000392  0.75111886  1
  V  V71  1  0.74795312  0.87551512  0.62592529  1
  V  V72  1  0.24740763  0.37107692  0.62229411  1
  V  V73  1  0.00052065  0.12533321  0.62328597  1
  V  V74  1  0.75231932  0.74344955  0.00204718  1
  V  V75  1  0.13094327  0.12925068  0.49890895  1
  V  V76  1  0.12379449  -0.00414178  0.63162729  1
  V  V77  1  0.36937768  0.62056570  0.26058005  1
  V  V78  1  0.87871141  0.38089909  0.50020595  1
  V  V79  1  0.75038604  0.12561277  0.87691525  1
  V  V80  1  0.75361628  0.00889938  0.24845110  1
  V  V81  1  0.74515282  0.25260836  0.49071661  1
  V  V82  1  0.49836354  -0.00959074  -0.00177033  1
  V  V83  1  -0.00508078  0.24456472  0.25034929  1
  V  V84  1  0.00638136  0.75517285  0.74630520  1
  Zn  Zn85  1  0.49638704  0.12159664  0.62677854  1
  Zn  Zn86  1  0.74953770  0.13171253  0.36950825  1
  Zn  Zn87  1  0.37197106  0.74775661  0.12492666  1
  Zn  Zn88  1  0.62243445  0.00140214  0.62532903  1
  Zn  Zn89  1  0.11886167  0.88645821  0.24828460  1
  Zn  Zn90  1  0.61916477  0.37813131  0.74614099  1
  Zn  Zn91  1  0.87674489  0.00079425  0.87808148  1
  Zn  Zn92  1  -0.00303530  0.75710317  0.24772425  1
  Zn  Zn93  1  0.48726429  0.11622491  0.13309116  1
  Zn  Zn94  1  0.37618334  0.87300916  -0.00251965  1
  Zn  Zn95  1  0.62333929  0.25137615  0.87291963  1
  Zn  Zn96  1  0.36984005  0.37743409  0.00553549  1
  Zn  Zn97  1  0.74705169  0.62385940  0.87931218  1
  Zn  Zn98  1  0.62125729  0.87733203  0.75533629  1
  Zn  Zn99  1  0.75709586  0.37716070  0.12196575  1
  Zn  Zn100  1  0.25073413  0.00319307  0.74857676  1
  Zn  Zn101  1  0.49076682  0.87737782  0.37056132  1
  Zn  Zn102  1  0.37441259  0.74911277  0.62236522  1
  Zn  Zn103  1  0.50224274  0.23696131  0.26441265  1
  Zn  Zn104  1  0.13148611  0.37197558  0.24418240  1
  Zn  Zn105  1  0.49901337  0.62443195  0.12305411  1
  Zn  Zn106  1  0.62861791  0.62027201  0.50582503  1
  Zn  Zn107  1  0.18831483  0.18460741  0.19214814  1
  Zn  Zn108  1  0.18726446  0.18760163  0.69035573  1
  Zn  Zn109  1  0.18661477  0.68174859  0.18846689  1
  Zn  Zn110  1  0.18395975  0.68787566  0.68423853  1
  Zn  Zn111  1  0.68376551  0.18776198  0.18347290  1
  Zn  Zn112  1  0.68222338  0.19068389  0.68348458  1
  Zn  Zn113  1  0.68740467  0.68577300  0.18676086  1
  Zn  Zn114  1  0.68678962  0.69033517  0.69347082  1
  Zn  Zn115  1  0.31446824  0.31338368  0.31486845  1
  Zn  Zn116  1  0.31271535  0.31145853  0.81210056  1
  Zn  Zn117  1  0.30627638  0.80995261  0.31035503  1
  Zn  Zn118  1  0.31251958  0.81456255  0.81286118  1
  Zn  Zn119  1  0.81606749  0.31459344  0.30853430  1
  Zn  Zn120  1  0.81004371  0.31456731  0.81242936  1
  Zn  Zn121  1  0.81410813  0.81570150  0.31368709  1
  Zn  Zn122  1  0.81450600  0.81204566  0.81660722  1
  Zn  Zn123  1  0.18743452  0.43500912  0.43858651  1
  Zn  Zn124  1  0.18454391  0.43331853  0.93649719  1
  Zn  Zn125  1  0.19110718  0.93965856  0.43637962  1
  Zn  Zn126  1  0.19085358  0.93591387  0.93470946  1
  Zn  Zn127  1  0.68570558  0.43925028  0.43529877  1
  Zn  Zn128  1  0.68256974  0.43828964  0.93611230  1
  Zn  Zn129  1  0.68607423  0.94022142  0.43637650  1
  Zn  Zn130  1  0.68673666  0.93371839  0.93727692  1
  Zn  Zn131  1  0.31192676  0.06835905  0.05628470  1
  Zn  Zn132  1  0.31060443  0.06039110  0.55874164  1
  Zn  Zn133  1  0.31788756  0.56753833  0.06392588  1
  Zn  Zn134  1  0.31172102  0.55938500  0.56102867  1
  Zn  Zn135  1  0.81907874  0.06489955  0.06395649  1
  Zn  Zn136  1  0.81105039  0.06341078  0.56039741  1
  Zn  Zn137  1  0.81676359  0.56090332  0.06453182  1
  Zn  Zn138  1  0.81568420  0.56211433  0.56315044  1
  Zn  Zn139  1  0.43446946  0.43444498  0.18625640  1
  Zn  Zn140  1  0.43484912  0.43648816  0.68699825  1
  Zn  Zn141  1  0.43421215  0.93266126  0.18466082  1
  Zn  Zn142  1  0.43285319  0.93759214  0.67904866  1
  Zn  Zn143  1  0.94012611  0.43534076  0.18713616  1
  Zn  Zn144  1  0.93072099  0.43594572  0.69286746  1
  Zn  Zn145  1  0.94041775  0.93864607  0.18856583  1
  Zn  Zn146  1  0.93569389  0.93798507  0.68471620  1
  Zn  Zn147  1  0.06842501  0.06111136  0.30786144  1
  Zn  Zn148  1  0.06317570  0.06390447  0.81351796  1
  Zn  Zn149  1  0.06783891  0.56495845  0.30872443  1
  Zn  Zn150  1  0.06091143  0.56252029  0.81184840  1
  Zn  Zn151  1  0.56358601  0.06173108  0.31548563  1
  Zn  Zn152  1  0.56360191  0.06276945  0.81347983  1
  Zn  Zn153  1  0.56014924  0.55926633  0.31446947  1
  Zn  Zn154  1  0.56297652  0.56766103  0.81692286  1
  Zn  Zn155  1  0.44101826  0.19670131  0.44538622  1
  Zn  Zn156  1  0.43342174  0.18412487  0.94198223  1
  Zn  Zn157  1  0.43680210  0.68565927  0.43831413  1
  Zn  Zn158  1  0.43286871  0.68679011  0.93481760  1
  Zn  Zn159  1  0.93871370  0.18869579  0.43783402  1
  Zn  Zn160  1  0.93623640  0.18532159  0.94205001  1
  Zn  Zn161  1  0.94225353  0.68542407  0.43945091  1
  Zn  Zn162  1  0.93606891  0.68749780  0.93916929  1
  Zn  Zn163  1  0.06436067  0.31434072  0.06379791  1
  Zn  Zn164  1  0.06268713  0.31343172  0.56064008  1
  Zn  Zn165  1  0.06671848  0.81461243  0.06130191  1
  Zn  Zn166  1  0.06439066  0.81195927  0.55851054  1
  Zn  Zn167  1  0.56200105  0.31794604  0.06273804  1
  Zn  Zn168  1  0.55902659  0.31006785  0.56155188  1
  Zn  Zn169  1  0.56521673  0.81223048  0.06462312  1
  Zn  Zn170  1  0.55969663  0.81163053  0.56435963  1
  O  O171  1  0.11193556  0.13084514  0.12318259  1
  O  O172  1  0.12195720  0.12033673  0.61679313  1
  O  O173  1  0.11693530  0.60834562  0.12885746  1
  O  O174  1  0.11193833  0.62643139  0.61627938  1
  O  O175  1  0.62895013  0.11590802  0.11090006  1
  O  O176  1  0.62275128  0.12259005  0.61274015  1
  O  O177  1  0.62054868  0.60978897  0.13191673  1
  O  O178  1  0.61340890  0.62875951  0.62724753  1
  O  O179  1  0.38125045  0.37335179  0.38683214  1
  O  O180  1  0.38329559  0.38253090  0.87390752  1
  O  O181  1  0.37183568  0.86681890  0.38777246  1
  O  O182  1  0.36795200  0.89237234  0.87823295  1
  O  O183  1  0.88274950  0.38245695  0.37997680  1
  O  O184  1  0.88576694  0.38313215  0.86820701  1
  O  O185  1  0.87069923  0.88565060  0.38751518  1
  O  O186  1  0.88794830  0.87672541  0.88197350  1
  O  O187  1  0.25311943  0.01572483  0.37230125  1
  O  O188  1  0.25753852  0.00733831  0.87295969  1
  O  O189  1  0.24805097  0.50266168  0.36575590  1
  O  O190  1  0.25009061  0.50645437  0.86731058  1
  O  O191  1  0.75843738  0.00031046  0.36557454  1
  O  O192  1  0.75220589  0.00536319  0.86770675  1
  O  O193  1  0.76081709  0.50601297  0.37035891  1
  O  O194  1  0.75669993  0.50109815  0.87099103  1
  O  O195  1  0.23978988  0.50221687  0.12250975  1
  O  O196  1  0.25206322  0.49041836  0.63768209  1
  O  O197  1  0.25436558  0.99205933  0.12637937  1
  O  O198  1  0.24111532  0.99339169  0.62533006  1
  O  O199  1  0.74517061  0.49776023  0.13022214  1
  O  O200  1  0.75823434  0.49169369  0.63458946  1
  O  O201  1  0.74749092  0.99387726  0.13038210  1
  O  O202  1  0.75054494  0.99191664  0.63227848  1
  O  O203  1  0.00292685  0.36719731  0.26204888  1
  O  O204  1  0.00454723  0.37066292  0.75757381  1
  O  O205  1  0.00752111  0.86904154  0.24090102  1
  O  O206  1  -0.00653616  0.86726965  0.75739813  1
  O  O207  1  0.50697174  0.37751835  0.25861517  1
  O  O208  1  0.49939623  0.36873555  0.75699891  1
  O  O209  1  0.50581946  0.86546999  0.25149596  1
  O  O210  1  0.49782584  0.86237815  0.74200210  1
  O  O211  1  0.51401008  0.12717176  0.24281217  1
  O  O212  1  0.50344079  0.13730212  0.74845658  1
  O  O213  1  0.49042329  0.62922034  0.25030432  1
  O  O214  1  0.49138735  0.62973984  0.74566732  1
  O  O215  1  1.00372882  0.13019072  0.23741718  1
  O  O216  1  0.99399425  0.13072156  0.74419345  1
  O  O217  1  0.99437283  0.62767861  0.24154472  1
  O  O218  1  0.99722820  0.63097347  0.73911965  1
  O  O219  1  0.36285050  0.25373761  0.00481226  1
  O  O220  1  0.37924588  0.26769256  0.51374534  1
  O  O221  1  0.36250517  0.75246506  -0.00270788  1
  O  O222  1  0.36502112  0.75174356  0.50184494  1
  O  O223  1  0.86472600  0.24876002  0.00636350  1
  O  O224  1  0.86971954  0.26144837  0.50321749  1
  O  O225  1  0.86864756  0.76400119  -0.00469633  1
  O  O226  1  0.87230972  0.75772387  0.50315022  1
  O  O227  1  0.11899668  0.23950199  0.49083548  1
  O  O228  1  0.13577455  0.25583789  0.99324995  1
  O  O229  1  0.12856388  0.74230450  0.49081325  1
  O  O230  1  0.13284284  0.75178486  0.98518005  1
  O  O231  1  0.63482893  0.24376957  0.50432786  1
  O  O232  1  0.63065295  0.24205103  0.99996844  1
  O  O233  1  0.62976550  0.74720768  0.49338221  1
  O  O234  1  0.63257089  0.75273523  0.99121788  1
  O  O235  1  0.48868631  0.24908092  0.12281165  1
  O  O236  1  0.48974492  0.24968114  0.63358510  1
  O  O237  1  0.50214468  0.74808739  0.13810197  1
  O  O238  1  0.49663271  0.73988094  0.63405837  1
  O  O239  1  0.99751714  0.24286450  0.12961962  1
  O  O240  1  0.99335976  0.24548645  0.62976097  1
  O  O241  1  1.00950195  0.73399355  0.12072851  1
  O  O242  1  0.99667204  0.74808244  0.63160185  1
  O  O243  1  0.00717917  0.25391287  0.36828652  1
  O  O244  1  0.00490144  0.25591711  0.87457067  1
  O  O245  1  0.01253614  0.75035681  0.37541724  1
  O  O246  1  0.00647936  0.75508071  0.86932758  1
  O  O247  1  0.50095741  0.26783369  0.37816739  1
  O  O248  1  0.49580768  0.25634891  0.86964248  1
  O  O249  1  0.50760845  0.75012697  0.36644262  1
  O  O250  1  0.50931623  0.74618403  0.86933168  1
  O  O251  1  0.23890361  0.12154944  0.48921459  1
  O  O252  1  0.24909864  0.14034269  0.98708657  1
  O  O253  1  0.23439577  0.63031376  0.51008703  1
  O  O254  1  0.25385662  0.63209224  0.98806021  1
  O  O255  1  0.74505088  0.13683088  0.50070925  1
  O  O256  1  0.74546745  0.13057054  0.99276800  1
  O  O257  1  0.75093329  0.63165009  0.49547165  1
  O  O258  1  0.75921695  0.63961955  1.00213129  1
  O  O259  1  0.25142027  0.35761706  -0.00826623  1
  O  O260  1  0.25561419  0.38076901  0.51193219  1
  O  O261  1  0.24983449  0.86809246  0.00929215  1
  O  O262  1  0.25399429  0.86760949  0.50603440  1
  O  O263  1  0.74412553  0.36201526  -0.00081636  1
  O  O264  1  0.75583987  0.37193332  0.50430350  1
  O  O265  1  0.75821381  0.86890951  0.00674110  1
  O  O266  1  0.75629634  0.87079279  0.50711946  1
  O  O267  1  0.14096195  0.50080685  0.24273451  1
  O  O268  1  0.13109712  0.49001130  0.75503560  1
  O  O269  1  0.14657122  0.99887833  0.25573051  1
  O  O270  1  0.12260547  1.00326629  0.73500369  1
  O  O271  1  0.63249707  0.49439970  0.24504157  1
  O  O272  1  0.63873612  0.50104935  0.75615366  1
  O  O273  1  0.63466498  0.99002091  0.24637782  1
  O  O274  1  0.63604578  0.99725983  0.74853265  1
  O  O275  1  0.36102967  -0.00738348  0.24894274  1
  O  O276  1  0.37508862  -0.00147839  0.76066050  1
  O  O277  1  0.36313882  0.50842699  0.24522570  1
  O  O278  1  0.36520038  0.50643735  0.75574363  1
  O  O279  1  0.86673813  -0.00428714  0.25918756  1
  O  O280  1  0.86470718  0.00664096  0.75021416  1
  O  O281  1  0.87043585  0.50625555  0.25685490  1
  O  O282  1  0.86654325  0.50466823  0.76148550  1
  O  O283  1  0.11940605  0.36672902  0.37498294  1
  O  O284  1  0.11652880  0.36608375  0.86497364  1
  O  O285  1  0.12912753  0.86080540  0.37626579  1
  O  O286  1  0.11343727  0.86802201  0.87472165  1
  O  O287  1  0.61724272  0.38195824  0.36300042  1
  O  O288  1  0.60997351  0.37342454  0.87211836  1
  O  O289  1  0.62757215  0.86143664  0.37000377  1
  O  O290  1  0.62963437  0.85780791  0.87177859  1
  O  O291  1  0.37327177  0.14426302  0.11763432  1
  O  O292  1  0.37142030  0.13949078  0.61771679  1
  O  O293  1  0.38011653  0.63002469  0.13677498  1
  O  O294  1  0.37763692  0.62514492  0.63678479  1
  O  O295  1  0.88640931  0.13925762  0.12290642  1
  O  O296  1  0.87932335  0.13101839  0.62921541  1
  O  O297  1  0.88723248  0.61874257  0.13529681  1
  O  O298  1  0.88789363  0.63071517  0.62782394  1
  O  O299  1  0.25254289  0.24685786  0.11510247  1
  O  O300  1  0.25477057  0.26185021  0.63261858  1
  O  O301  1  0.24585536  0.75001184  0.11396935  1
  O  O302  1  0.24651733  0.75647223  0.61477579  1
  O  O303  1  0.75789572  0.24945227  0.11628682  1
  O  O304  1  0.75606652  0.26038103  0.61718199  1
  O  O305  1  0.74378392  0.75929754  0.11695857  1
  O  O306  1  0.75772083  0.75555522  0.62209370  1
  O  O307  1  0.23870661  0.24095119  0.36934287  1
  O  O308  1  0.24332049  0.24495658  0.87855325  1
  O  O309  1  0.24009069  0.74844346  0.38769193  1
  O  O310  1  0.24218489  0.74461279  0.87787245  1
  O  O311  1  0.75734592  0.25177924  0.38672095  1
  O  O312  1  0.74805993  0.24391966  0.88080565  1
  O  O313  1  0.74481682  0.74458608  0.38074967  1
  O  O314  1  0.74348223  0.74873820  0.88446534  1
  O  O315  1  -0.00201677  0.11635254  0.01056516  1
  O  O316  1  0.00749975  0.11852840  0.50538058  1
  O  O317  1  -0.00410886  0.61233865  0.00509319  1
  O  O318  1  0.00937565  0.62593728  0.51358044  1
  O  O319  1  0.50824008  0.11449946  0.00251491  1
  O  O320  1  0.50633664  0.11885347  0.50127748  1
  O  O321  1  0.49376091  0.61135224  -0.00154443  1
  O  O322  1  0.49918741  0.61804165  0.51067427  1
  O  O323  1  0.49496803  0.38264866  0.49704859  1
  O  O324  1  0.49638877  0.38513724  0.99065204  1
  O  O325  1  0.49018414  0.87905667  0.49974924  1
  O  O326  1  0.50006232  0.88575813  1.00259099  1
  O  O327  1  0.99250113  0.37055863  0.48695435  1
  O  O328  1  1.00452241  0.38463656  0.98906302  1
  O  O329  1  0.99054651  0.88526664  0.50539371  1
  O  O330  1  0.99510274  0.88018226  0.99508346  1
  O  O331  1  0.50020010  0.49048736  0.38679586  1
  O  O332  1  0.49463847  0.49525042  0.87872657  1
  O  O333  1  0.50633203  0.99321547  0.38963865  1
  O  O334  1  0.48904403  1.00279619  0.87918334  1
  O  O335  1  0.99205982  0.49284318  0.36738017  1
  O  O336  1  0.99488759  0.49433942  0.88153640  1
  O  O337  1  0.99509955  1.00583997  0.38458566  1
  O  O338  1  0.99956402  0.99376567  0.88056586  1
  O  O339  1  -0.00356062  0.01435565  0.11833493  1
  O  O340  1  0.00478515  0.00514786  0.61525803  1
  O  O341  1  0.00540296  0.50533516  0.11751531  1
  O  O342  1  -0.00439755  0.51067223  0.63062300  1
  O  O343  1  0.50669937  -0.00240071  0.11700314  1
  O  O344  1  0.50184196  0.00178187  0.61372608  1
  O  O345  1  0.50608641  0.49801138  0.11571250  1
  O  O346  1  0.49612771  0.50950328  0.62015743  1
  O  O347  1  0.25071704  0.39035817  0.25460172  1
  O  O348  1  0.24071341  0.38180702  0.74640894  1
  O  O349  1  0.24669691  0.87892878  0.23772326  1
  O  O350  1  0.25211987  0.87606926  0.73479305  1
  O  O351  1  0.74387361  0.38323186  0.24972248  1
  O  O352  1  0.74844726  0.38301633  0.74039081  1
  O  O353  1  0.74728685  0.87976917  0.24234875  1
  O  O354  1  0.75419457  0.88292365  0.74318450  1
  O  O355  1  0.25197730  0.12115981  0.26479538  1
  O  O356  1  0.24428843  0.12351918  0.76600015  1
  O  O357  1  0.26195697  0.61471003  0.24790795  1
  O  O358  1  0.25295392  0.61885813  0.75230129  1
  O  O359  1  0.74429795  0.11310093  0.24944826  1
  O  O360  1  0.75146923  0.11996242  0.75500686  1
  O  O361  1  0.75848210  0.61904118  0.25488300  1
  O  O362  1  0.75917322  0.61881060  0.74924064  1
  O  O363  1  0.36243698  0.13643185  0.38513385  1
  O  O364  1  0.36749691  0.11106166  0.87813588  1
  O  O365  1  0.37773110  0.62432899  0.36026759  1
  O  O366  1  0.36329616  0.62059775  0.86295221  1
  O  O367  1  0.87112053  0.11246597  0.38202251  1
  O  O368  1  0.86833864  0.12390103  0.86748338  1
  O  O369  1  0.87471372  0.61714871  0.37122292  1
  O  O370  1  0.87448333  0.61646401  0.86847184  1
  O  O371  1  0.11807669  0.39321689  0.12905744  1
  O  O372  1  0.12927772  0.36882487  0.63713764  1
  O  O373  1  0.14226291  0.87154934  0.12558250  1
  O  O374  1  0.13263958  0.88473895  0.61638007  1
  O  O375  1  0.62750694  0.38656636  0.13337205  1
  O  O376  1  0.63669011  0.37447874  0.62355932  1
  O  O377  1  0.63657157  0.88094666  0.12940774  1
  O  O378  1  0.63881103  0.87299903  0.62806461  1
  O  O379  1  0.11567230  0.25218209  0.25694372  1
  O  O380  1  0.11670774  0.25623471  0.75820181  1
  O  O381  1  0.12806935  0.74252153  0.26881292  1
  O  O382  1  0.11319298  0.74673570  0.75781835  1
  O  O383  1  0.62474394  0.26524071  0.24365648  1
  O  O384  1  0.61375603  0.25539966  0.75161877  1
  O  O385  1  0.61889058  0.75239821  0.25716307  1
  O  O386  1  0.61576698  0.75371140  0.75936244  1
  O  O387  1  0.37920563  0.25301871  0.23919151  1
  O  O388  1  0.38305662  0.25530856  0.73997806  1
  O  O389  1  0.38044598  0.73967104  0.25138512  1
  O  O390  1  0.38068906  0.74220432  0.75074682  1
  O  O391  1  0.88866778  0.24885695  0.24680162  1
  O  O392  1  0.87925326  0.24647942  0.74420673  1
  O  O393  1  0.87587588  0.73637604  0.25764519  1
  O  O394  1  0.88555208  0.74459570  0.74658153  1
  O  O395  1  0.38480220  0.48790736  0.50782443  1
  O  O396  1  0.37933372  0.49749008  0.99258978  1
  O  O397  1  0.38235982  0.98961270  0.50294999  1
  O  O398  1  0.38367272  0.99915107  0.99162527  1
  O  O399  1  0.87265441  0.48890632  0.49092729  1
  O  O400  1  0.88183614  0.49958548  0.98878866  1
  O  O401  1  0.88239385  0.99449287  0.49522223  1
  O  O402  1  0.88189368  0.98824176  0.99872924  1
  O  O403  1  0.11314296  -0.00509433  -0.00333334  1
  O  O404  1  0.11824917  0.00720819  0.50424842  1
  O  O405  1  0.11911029  0.49786427  0.00907127  1
  O  O406  1  0.12507556  0.51274180  0.49755353  1
  O  O407  1  0.61939704  0.00461724  0.00237334  1
  O  O408  1  0.61939014  0.00592095  0.50414080  1
  O  O409  1  0.61650012  0.49793376  0.00828841  1
  O  O410  1  0.61227327  0.50231559  0.49959530  1
  O  O411  1  0.37430988  0.35919788  0.12205228  1
  O  O412  1  0.36376323  0.36926873  0.62223142  1
  O  O413  1  0.36037612  0.86651321  0.12064420  1
  O  O414  1  0.36374869  0.87050686  0.61328748  1
  O  O415  1  0.87587119  0.35775770  0.13150135  1
  O  O416  1  0.86952999  0.37197200  0.61629388  1
  O  O417  1  0.86471530  0.87779312  0.11849841  1
  O  O418  1  0.86569845  0.87124341  0.61549889  1
  O  O419  1  0.12900704  0.13216910  0.38235212  1
  O  O420  1  0.12771518  0.13800754  0.87433662  1
  O  O421  1  0.11783015  0.63165502  0.39082258  1
  O  O422  1  0.13464716  0.63228762  0.86866601  1
  O  O423  1  0.63219651  0.12048811  0.39100381  1
  O  O424  1  0.63151516  0.12643064  0.88579001  1
  O  O425  1  0.63142112  0.63475478  0.37567805  1
  O  O426  1  0.63045741  0.64341194  0.87143317  1
