# generated using pymatgen
data_V85Zn86O256
_symmetry_space_group_name_H-M   'P 1'
_cell_length_a   16.93965634
_cell_length_b   16.93573917
_cell_length_c   16.93824061
_cell_angle_alpha   90.01300259
_cell_angle_beta   89.96445879
_cell_angle_gamma   89.94304981
_symmetry_Int_Tables_number   1
_chemical_formula_structural   V85Zn86O256
_chemical_formula_sum   'V85 Zn86 O256'
_cell_volume   4859.33387991
_cell_formula_units_Z   1
loop_
 _symmetry_equiv_pos_site_id
 _symmetry_equiv_pos_as_xyz
  1  'x, y, z'
loop_
 _atom_site_type_symbol
 _atom_site_label
 _atom_site_symmetry_multiplicity
 _atom_site_fract_x
 _atom_site_fract_y
 _atom_site_fract_z
 _atom_site_occupancy
  V  V0  1  0.89296404  0.74514874  0.62172937  1
  V  V1  1  0.61514779  0.24616117  0.36688518  1
  V  V2  1  0.37566622  0.75125048  0.62194031  1
  V  V3  1  0.62491319  0.61031948  0.00470477  1
  V  V4  1  0.50406428  0.61208262  0.12303191  1
  V  V5  1  0.87357770  0.12525384  0.74607459  1
  V  V6  1  0.74899815  0.62448531  0.87392884  1
  V  V7  1  0.37343766  0.62337917  0.25907036  1
  V  V8  1  -0.00186371  0.87273819  0.86068938  1
  V  V9  1  0.74262150  0.50092889  0.24823702  1
  V  V10  1  -0.00062493  0.11544776  0.61739438  1
  V  V11  1  0.49388754  -0.00461384  0.50131797  1
  V  V12  1  0.25159410  0.24510382  -0.00210029  1
  V  V13  1  0.87369877  0.87411752  -0.00181039  1
  V  V14  1  -0.00684582  0.50179679  0.51043366  1
  V  V15  1  0.23909286  0.25406254  0.49886127  1
  V  V16  1  0.24824747  0.13342237  0.36896317  1
  V  V17  1  0.49455499  -0.00125781  0.00102521  1
  V  V18  1  0.13246594  0.50884124  0.62799757  1
  V  V19  1  0.74703623  0.74945676  0.00037854  1
  V  V20  1  0.75358810  0.24747902  0.00499896  1
  V  V21  1  0.75015972  0.87568671  0.12522725  1
  V  V22  1  0.00007395  0.50695124  -0.00095106  1
  V  V23  1  0.25583902  0.74953903  0.49573335  1
  V  V24  1  0.36911538  0.61766641  0.76301060  1
  V  V25  1  0.75215157  0.00499936  0.25682131  1
  V  V26  1  0.37886383  0.24821754  0.13575347  1
  V  V27  1  0.50371717  0.38983261  0.87885889  1
  V  V28  1  0.13018071  0.74099732  0.37450597  1
  V  V29  1  0.12353920  0.00279280  0.12439918  1
  V  V30  1  0.74032368  0.37602790  0.61681132  1
  V  V31  1  0.25086708  0.37606874  0.12785816  1
  V  V32  1  0.74890512  0.86150892  0.62080321  1
  V  V33  1  0.12446242  0.37455676  0.26063228  1
  V  V34  1  0.88205528  0.62930853  0.74524076  1
  V  V35  1  0.49737302  0.87415750  0.87996372  1
  V  V36  1  0.75190840  0.24666685  0.48803458  1
  V  V37  1  0.12288487  0.75073811  0.87339811  1
  V  V38  1  0.00099265  0.24928556  0.74491943  1
  V  V39  1  0.25123106  0.75291207  -0.00407533  1
  V  V40  1  0.00217823  0.87838509  0.38022293  1
  V  V41  1  0.12605458  0.87556121  0.25020955  1
  V  V42  1  0.62528727  0.87390416  0.25426315  1
  V  V43  1  0.62351222  0.00197979  0.12576320  1
  V  V44  1  0.74094754  0.37923783  0.12307717  1
  V  V45  1  0.49704456  0.12788505  0.13793890  1
  V  V46  1  0.25179442  0.50511471  0.26558529  1
  V  V47  1  0.12728954  0.50729706  0.12772649  1
  V  V48  1  0.50411784  0.24709101  0.76348791  1
  V  V49  1  0.87375114  0.49924075  0.87272155  1
  V  V50  1  0.50056519  0.74634253  0.74975637  1
  V  V51  1  0.37422035  0.38193836  0.49361751  1
  V  V52  1  0.00350886  0.25108377  0.24855543  1
  V  V53  1  0.12230834  0.11421052  0.49391161  1
  V  V54  1  0.75153519  0.63215336  0.37738674  1
  V  V55  1  0.25652516  0.87731641  0.12026411  1
  V  V56  1  0.25340722  0.00406697  0.24997264  1
  V  V57  1  0.36477227  0.12302965  0.74853036  1
  V  V58  1  0.62808584  -0.00088485  0.62189835  1
  V  V59  1  -0.00298033  0.37035569  0.87309124  1
  V  V60  1  0.87639570  0.00772494  0.38100816  1
  V  V61  1  0.49276173  0.87345819  0.37695163  1
  V  V62  1  0.87420841  0.49142596  0.37585294  1
  V  V63  1  0.38030045  0.75289949  0.12075673  1
  V  V64  1  0.74382076  0.49774272  0.74422876  1
  V  V65  1  0.37765040  0.38430782  -0.00451527  1
  V  V66  1  -0.00086036  0.74878614  0.24795154  1
  V  V67  1  0.62919827  0.62482711  0.50439355  1
  V  V68  1  0.87169631  0.00023471  0.87221948  1
  V  V69  1  0.14345897  0.87873172  0.74612209  1
  V  V70  1  0.87472980  0.25832488  0.61679819  1
  V  V71  1  0.50144241  0.12650356  0.62410326  1
  V  V72  1  0.87460640  0.13100114  0.24398333  1
  V  V73  1  0.18211938  0.58258007  -0.05668531  1
  V  V74  1  0.62494811  0.87371791  0.74910717  1
  V  V75  1  0.62030948  0.13118536  -0.00417600  1
  V  V76  1  0.50255689  0.61106659  0.62790441  1
  V  V77  1  -0.00035129  -0.00148662  -0.00089096  1
  V  V78  1  0.74448686  0.13119017  0.87104897  1
  V  V79  1  0.37332450  0.00635753  0.37335357  1
  V  V80  1  0.36906081  -0.00175230  0.87275538  1
  V  V81  1  0.37739606  0.25382155  0.62215857  1
  V  V82  1  0.50086399  0.49985522  0.48876371  1
  V  V83  1  0.87859386  0.36965725  0.00991824  1
  V  V84  1  0.87410602  0.87355357  0.49891045  1
  Zn  Zn85  1  -0.00466785  0.13379890  0.11947528  1
  Zn  Zn86  1  -0.00191534  0.37108131  0.38180292  1
  Zn  Zn87  1  0.62631260  0.37151012  0.75290834  1
  Zn  Zn88  1  0.87621395  0.74732906  0.12501387  1
  Zn  Zn89  1  0.00187863  0.62986955  0.12020042  1
  Zn  Zn90  1  0.62782863  0.75255961  0.38252660  1
  Zn  Zn91  1  0.12919255  0.37548543  0.74852748  1
  Zn  Zn92  1  0.74890558  -0.00005272  0.74711399  1
  Zn  Zn93  1  0.61558590  0.37365008  0.24411509  1
  Zn  Zn94  1  0.49568225  0.37405115  0.36457715  1
  Zn  Zn95  1  0.13735740  0.00275858  0.62952412  1
  Zn  Zn96  1  0.26978305  0.88867490  0.61460247  1
  Zn  Zn97  1  0.25168172  0.49949977  0.76745408  1
  Zn  Zn98  1  0.12406645  0.12576198  -0.00341613  1
  Zn  Zn99  1  0.24448351  0.11981165  0.87189389  1
  Zn  Zn100  1  0.12580156  0.24510160  0.87208926  1
  Zn  Zn101  1  0.62893801  0.12323672  0.49506842  1
  Zn  Zn102  1  0.12421084  0.62813021  0.50405961  1
  Zn  Zn103  1  0.50202285  0.74791864  0.25043176  1
  Zn  Zn104  1  0.87498814  0.62363072  0.24774328  1
  Zn  Zn105  1  0.62328855  0.74910968  0.87813678  1
  Zn  Zn106  1  0.25097793  0.37827729  0.63070341  1
  Zn  Zn107  1  0.18622355  0.18918707  0.18586750  1
  Zn  Zn108  1  0.18559620  0.18882077  0.68096636  1
  Zn  Zn109  1  0.18975304  0.68837795  0.18692989  1
  Zn  Zn110  1  0.19125243  0.69058109  0.68856520  1
  Zn  Zn111  1  0.68910589  0.18704806  0.18553144  1
  Zn  Zn112  1  0.68623131  0.19017754  0.68287720  1
  Zn  Zn113  1  0.68790508  0.68733237  0.18853075  1
  Zn  Zn114  1  0.68624318  0.68331673  0.68707813  1
  Zn  Zn115  1  0.31055579  0.31545617  0.31448701  1
  Zn  Zn116  1  0.31474726  0.31297939  0.81327341  1
  Zn  Zn117  1  0.31356801  0.81174866  0.30973235  1
  Zn  Zn118  1  0.31683195  0.80862066  0.81370179  1
  Zn  Zn119  1  0.81051030  0.31358364  0.30840909  1
  Zn  Zn120  1  0.81310458  0.31096399  0.81158541  1
  Zn  Zn121  1  0.81442941  0.81363291  0.31307624  1
  Zn  Zn122  1  0.81141239  0.80976883  0.80859188  1
  Zn  Zn123  1  0.18458046  0.44119902  0.44442910  1
  Zn  Zn124  1  0.18389114  0.41659613  0.93950331  1
  Zn  Zn125  1  0.19142948  0.93455866  0.43922263  1
  Zn  Zn126  1  0.18619388  0.93431015  0.93796177  1
  Zn  Zn127  1  0.68404935  0.43654467  0.43529893  1
  Zn  Zn128  1  0.68797244  0.43336620  0.93422889  1
  Zn  Zn129  1  0.68991839  0.93662477  0.43885144  1
  Zn  Zn130  1  0.68373102  0.94133840  0.93615946  1
  Zn  Zn131  1  0.31513694  0.06533128  0.06191679  1
  Zn  Zn132  1  0.31176019  0.06658109  0.55798267  1
  Zn  Zn133  1  0.31817582  0.56172873  0.07339533  1
  Zn  Zn134  1  0.31366294  0.56955441  0.56128647  1
  Zn  Zn135  1  0.81119529  0.06135267  0.06328492  1
  Zn  Zn136  1  0.81204814  0.06286392  0.56021884  1
  Zn  Zn137  1  0.81584136  0.56218906  0.06514243  1
  Zn  Zn138  1  0.81216187  0.56264455  0.56150617  1
  Zn  Zn139  1  0.43638669  0.43751234  0.18930325  1
  Zn  Zn140  1  0.43557883  0.43562405  0.69034125  1
  Zn  Zn141  1  0.43736995  0.93943496  0.19117498  1
  Zn  Zn142  1  0.43896529  0.93745629  0.69078285  1
  Zn  Zn143  1  0.93666407  0.43913146  0.18853986  1
  Zn  Zn144  1  0.93413172  0.43838144  0.68506855  1
  Zn  Zn145  1  0.93663418  0.93696890  0.18866529  1
  Zn  Zn146  1  0.93578296  0.93719120  0.68443016  1
  Zn  Zn147  1  0.06136907  0.06456617  0.31240342  1
  Zn  Zn148  1  0.06273551  0.06135744  0.81062387  1
  Zn  Zn149  1  0.05847235  0.56105774  0.31505038  1
  Zn  Zn150  1  0.05816482  0.55958347  0.80528845  1
  Zn  Zn151  1  0.56600396  0.06330156  0.31750426  1
  Zn  Zn152  1  0.56009621  0.06185815  0.81110336  1
  Zn  Zn153  1  0.56417485  0.56387186  0.31273151  1
  Zn  Zn154  1  0.56566739  0.56323228  0.81413523  1
  Zn  Zn155  1  0.43515152  0.18564128  0.43901778  1
  Zn  Zn156  1  0.43141435  0.18555519  0.94081349  1
  Zn  Zn157  1  0.44219911  0.68863993  0.43973590  1
  Zn  Zn158  1  0.43921482  0.68663057  0.94172904  1
  Zn  Zn159  1  0.93965356  0.19099968  0.43358666  1
  Zn  Zn160  1  0.93529631  0.18532546  0.93564581  1
  Zn  Zn161  1  0.93846637  0.68396156  0.43765456  1
  Zn  Zn162  1  0.93570374  0.68923188  0.93275743  1
  Zn  Zn163  1  0.06441620  0.31394561  0.06903865  1
  Zn  Zn164  1  0.06292329  0.32031443  0.56435457  1
  Zn  Zn165  1  0.06572623  0.81482636  0.05887638  1
  Zn  Zn166  1  0.06682481  0.81601603  0.55996453  1
  Zn  Zn167  1  0.56007924  0.31081017  0.05975377  1
  Zn  Zn168  1  0.56417382  0.31346668  0.55787900  1
  Zn  Zn169  1  0.56349762  0.81163928  0.06406501  1
  Zn  Zn170  1  0.55980036  0.80865122  0.56197664  1
  O  O171  1  0.12260575  0.11202333  0.12155966  1
  O  O172  1  0.11586835  0.12297633  0.61634536  1
  O  O173  1  0.12254182  0.61280711  0.12903624  1
  O  O174  1  0.12529945  0.61391629  0.62983269  1
  O  O175  1  0.61814273  0.12042777  0.11769459  1
  O  O176  1  0.61943742  0.11512278  0.62310328  1
  O  O177  1  0.61198024  0.62919996  0.12154283  1
  O  O178  1  0.61503791  0.62532640  0.61873881  1
  O  O179  1  0.37741159  0.37008494  0.38988627  1
  O  O180  1  0.38494919  0.37137618  0.88832924  1
  O  O181  1  0.38772306  0.88219540  0.36879022  1
  O  O182  1  0.38943803  0.88208006  0.86803990  1
  O  O183  1  0.87233016  0.38799615  0.37230276  1
  O  O184  1  0.88294469  0.37723431  0.88264587  1
  O  O185  1  0.88150740  0.87980169  0.38269837  1
  O  O186  1  0.87989713  0.87822011  0.87736936  1
  O  O187  1  0.25689685  0.00653017  0.37181617  1
  O  O188  1  0.26569178  -0.00313792  0.88238345  1
  O  O189  1  0.24549010  0.50039765  0.36480446  1
  O  O190  1  0.23230829  0.50881505  0.88628804  1
  O  O191  1  0.76097094  -0.00479049  0.36691592  1
  O  O192  1  0.75439079  0.01110443  0.87301417  1
  O  O193  1  0.75616287  0.50638320  0.36934394  1
  O  O194  1  0.75721998  0.50308418  0.86844218  1
  O  O195  1  0.24346026  0.49512739  0.13277596  1
  O  O196  1  0.23908000  0.50201654  0.62451738  1
  O  O197  1  0.24667724  0.99515689  0.12706042  1
  O  O198  1  0.25215972  0.99966671  0.62292153  1
  O  O199  1  0.75445017  0.49085770  0.13340410  1
  O  O200  1  0.75931943  0.48729128  0.63198453  1
  O  O201  1  0.74211955  0.99399278  0.13156163  1
  O  O202  1  0.74215327  0.99075552  0.62428844  1
  O  O203  1  0.00858451  0.37106400  0.24951511  1
  O  O204  1  -0.00483664  0.36702453  0.75728551  1
  O  O205  1  0.00562055  0.86624372  0.25554342  1
  O  O206  1  0.00079599  0.87603069  0.75902561  1
  O  O207  1  0.50255529  0.37699716  0.25125240  1
  O  O208  1  0.49723075  0.36606892  0.76431137  1
  O  O209  1  0.50989531  0.87719556  0.25879809  1
  O  O210  1  0.50685226  0.86529120  0.75627917  1
  O  O211  1  0.50437860  0.11693761  0.23651256  1
  O  O212  1  0.49354409  0.13423562  0.74523684  1
  O  O213  1  0.49355684  0.62546168  0.24019031  1
  O  O214  1  0.49722218  0.62884355  0.74555989  1
  O  O215  1  0.99367273  0.13218064  0.24658406  1
  O  O216  1  0.99498115  0.13187784  0.74008346  1
  O  O217  1  1.00055092  0.63974747  0.25058948  1
  O  O218  1  0.98129208  0.62401288  0.75363574  1
  O  O219  1  0.36576610  0.25584103  0.00741397  1
  O  O220  1  0.36836009  0.25586875  0.50782361  1
  O  O221  1  0.36815958  0.74707678  0.01219188  1
  O  O222  1  0.37046929  0.74448195  0.50961656  1
  O  O223  1  0.86756758  0.25767195  -0.00401964  1
  O  O224  1  0.86349591  0.24750832  0.50361326  1
  O  O225  1  0.86321536  0.75591191  -0.00093509  1
  O  O226  1  0.87901583  0.75549971  0.51254527  1
  O  O227  1  0.13650506  0.24674852  0.50710614  1
  O  O228  1  0.13818350  0.25153378  1.00253002  1
  O  O229  1  0.12978352  0.74847495  0.49064163  1
  O  O230  1  0.13473764  0.75377435  0.98668673  1
  O  O231  1  0.63540196  0.24724605  0.49106134  1
  O  O232  1  0.63198449  0.23681243  1.00119671  1
  O  O233  1  0.61792555  0.73217335  0.49916770  1
  O  O234  1  0.63697191  0.74518751  1.00061708  1
  O  O235  1  0.48741102  0.24250193  0.12011407  1
  O  O236  1  0.49345646  0.24675874  0.62883031  1
  O  O237  1  0.49253390  0.74804818  0.12884215  1
  O  O238  1  0.49630667  0.73999054  0.63379339  1
  O  O239  1  0.99901859  0.25025526  0.13824159  1
  O  O240  1  0.99209107  0.24676182  0.62757201  1
  O  O241  1  1.00259619  0.75222683  0.13231304  1
  O  O242  1  0.99101355  0.75202116  0.62430548  1
  O  O243  1  -0.00614287  0.25625939  0.35742841  1
  O  O244  1  -0.00303621  0.25429683  0.86426193  1
  O  O245  1  0.00644188  0.75972630  0.36857583  1
  O  O246  1  0.00973531  0.76173537  0.88202870  1
  O  O247  1  0.51196401  0.24889054  0.38008010  1
  O  O248  1  0.49452124  0.24979170  0.86496836  1
  O  O249  1  0.50309923  0.76018651  0.37132729  1
  O  O250  1  0.50117754  0.75750634  0.87015589  1
  O  O251  1  0.24117764  0.13477832  0.49050810  1
  O  O252  1  0.24871133  0.13305288  0.99736265  1
  O  O253  1  0.24466448  0.64161208  0.50349222  1
  O  O254  1  0.25060199  0.63270246  1.00642439  1
  O  O255  1  0.74786112  0.14203349  0.50539903  1
  O  O256  1  0.74407871  0.12989866  0.99455847  1
  O  O257  1  0.74052896  0.61820940  0.49144118  1
  O  O258  1  0.74558480  0.63209750  0.99721857  1
  O  O259  1  0.26130430  0.36663917  0.00662361  1
  O  O260  1  0.25637612  0.36990816  0.50295451  1
  O  O261  1  0.24831120  0.86854981  0.01211740  1
  O  O262  1  0.24609700  0.85866378  0.50348682  1
  O  O263  1  0.75734791  0.36706813  0.00257397  1
  O  O264  1  0.74583435  0.36313350  0.50662367  1
  O  O265  1  0.75130785  0.86906789  0.00261263  1
  O  O266  1  0.76326448  0.87524614  0.50629998  1
  O  O267  1  0.13038630  0.49676694  0.24467401  1
  O  O268  1  0.12757816  0.49888371  0.73998352  1
  O  O269  1  0.13032405  0.99532898  0.24193039  1
  O  O270  1  0.12312044  0.98255489  0.75079449  1
  O  O271  1  0.63915452  0.49653950  0.25536023  1
  O  O272  1  0.64015883  0.49723374  0.75435861  1
  O  O273  1  0.63340461  0.99225587  0.24949384  1
  O  O274  1  0.62243901  0.99361119  0.73655762  1
  O  O275  1  0.36854506  -0.00106469  0.26297420  1
  O  O276  1  0.38455814  0.01172596  0.75968523  1
  O  O277  1  0.36581424  0.51454758  0.24400990  1
  O  O278  1  0.37324858  0.51331311  0.74946631  1
  O  O279  1  0.86896550  0.00385923  0.25824927  1
  O  O280  1  0.87130494  0.00662784  0.75343891  1
  O  O281  1  0.86645519  0.50170598  0.25831236  1
  O  O282  1  0.86640174  0.50637334  0.75416587  1
  O  O283  1  0.12450486  0.38101944  0.36320157  1
  O  O284  1  0.10851155  0.36662451  0.87095635  1
  O  O285  1  0.11762118  0.87122345  0.36968590  1
  O  O286  1  0.11914604  0.87119785  0.86426311  1
  O  O287  1  0.62183516  0.35975768  0.37418256  1
  O  O288  1  0.60867387  0.37339240  0.87540142  1
  O  O289  1  0.61732966  0.87540870  0.37013261  1
  O  O290  1  0.61487584  0.87573289  0.86769731  1
  O  O291  1  0.38220722  0.13842427  0.12264803  1
  O  O292  1  0.38162899  0.13484958  0.62973875  1
  O  O293  1  0.38852654  0.63310933  0.13000049  1
  O  O294  1  0.38483847  0.63347919  0.63549156  1
  O  O295  1  0.87941876  0.11319579  0.13825691  1
  O  O296  1  0.88063408  0.13372064  0.62683612  1
  O  O297  1  0.88283681  0.62861101  0.12841495  1
  O  O298  1  0.87065829  0.63900990  0.62844592  1
  O  O299  1  0.25946677  0.25447510  0.11959627  1
  O  O300  1  0.25962480  0.25195745  0.61633615  1
  O  O301  1  0.25498789  0.75825063  0.11680371  1
  O  O302  1  0.26192839  0.75354389  0.61946499  1
  O  O303  1  0.74967725  0.25524495  0.11135660  1
  O  O304  1  0.75616287  0.25706771  0.61640595  1
  O  O305  1  0.75111156  0.75726101  0.11764431  1
  O  O306  1  0.75035558  0.76005026  0.62599743  1
  O  O307  1  0.25354741  0.24266198  0.38377574  1
  O  O308  1  0.24875557  0.24846954  0.88452320  1
  O  O309  1  0.24162493  0.75690210  0.38025379  1
  O  O310  1  0.24687761  0.75544999  0.88889395  1
  O  O311  1  0.74579609  0.25336177  0.38546954  1
  O  O312  1  0.75371356  0.23778660  0.88374645  1
  O  O313  1  0.75086316  0.73643837  0.37117043  1
  O  O314  1  0.74746680  0.74392453  0.88225339  1
  O  O315  1  -0.00170858  0.11151535  0.00042058  1
  O  O316  1  0.01075690  0.13387184  0.50537464  1
  O  O317  1  -0.00549268  0.61064538  -0.00376533  1
  O  O318  1  0.00546254  0.60757848  0.49366274  1
  O  O319  1  0.50586222  0.11933473  0.00530188  1
  O  O320  1  0.50171371  0.11260765  0.50650258  1
  O  O321  1  0.51020367  0.63060695  0.01355317  1
  O  O322  1  0.50342748  0.61620451  0.50872895  1
  O  O323  1  0.49297247  0.38464100  0.50015768  1
  O  O324  1  0.49007284  0.37013335  0.98883413  1
  O  O325  1  0.50512253  0.88675735  0.49260410  1
  O  O326  1  0.50787048  0.88484341  0.99154432  1
  O  O327  1  1.00628517  0.39394940  0.49664654  1
  O  O328  1  0.99477837  0.38007796  0.99447733  1
  O  O329  1  0.98932766  0.87268699  0.49172044  1
  O  O330  1  0.99548587  0.88471524  0.99118328  1
  O  O331  1  0.49910287  0.50071227  0.38586696  1
  O  O332  1  0.49982578  0.48823181  0.87352081  1
  O  O333  1  0.49361959  0.99700757  0.38187406  1
  O  O334  1  0.49407380  0.99402471  0.88196417  1
  O  O335  1  0.98995188  0.49660242  0.38091436  1
  O  O336  1  0.99550978  0.49024446  0.88000668  1
  O  O337  1  0.99218822  0.98563734  0.36676019  1
  O  O338  1  0.99245634  0.99294603  0.88037564  1
  O  O339  1  0.00879454  -0.00409176  0.11643948  1
  O  O340  1  -0.00041190  0.01348740  0.62558627  1
  O  O341  1  0.00890887  0.49870129  0.11441697  1
  O  O342  1  0.00553014  0.49935987  0.61642539  1
  O  O343  1  0.50290874  0.00511640  0.11798842  1
  O  O344  1  0.50564151  0.00221926  0.61774603  1
  O  O345  1  0.49630133  0.51390868  0.12235412  1
  O  O346  1  0.49736542  0.50851482  0.62269172  1
  O  O347  1  0.24445028  0.38416886  0.24652917  1
  O  O348  1  0.24968381  0.38175525  0.75110054  1
  O  O349  1  0.24513483  0.88206098  0.24002435  1
  O  O350  1  0.24470938  0.87389826  0.74767351  1
  O  O351  1  0.74786322  0.38085049  0.23805895  1
  O  O352  1  0.74901944  0.37998110  0.74419137  1
  O  O353  1  0.74545522  0.88432981  0.24671301  1
  O  O354  1  0.74152933  0.87658325  0.74191190  1
  O  O355  1  0.24238394  0.11995307  0.26047256  1
  O  O356  1  0.26201949  0.13302076  0.75004837  1
  O  O357  1  0.26463458  0.62020721  0.24426003  1
  O  O358  1  0.26575797  0.62461073  0.75205342  1
  O  O359  1  0.75746472  0.11221835  0.24401964  1
  O  O360  1  0.75266195  0.12629676  0.75565222  1
  O  O361  1  0.75045719  0.61801323  0.25710208  1
  O  O362  1  0.75504523  0.61701810  0.75375546  1
  O  O363  1  0.36265259  0.11832354  0.37821475  1
  O  O364  1  0.37336634  0.11648248  0.86604579  1
  O  O365  1  0.38244886  0.63194171  0.35709128  1
  O  O366  1  0.38231129  0.62801992  0.86145249  1
  O  O367  1  0.88245297  0.11158717  0.36729227  1
  O  O368  1  0.86658688  0.11950080  0.86647845  1
  O  O369  1  0.86689302  0.61572968  0.37390411  1
  O  O370  1  0.86656071  0.62179825  0.86677945  1
  O  O371  1  0.13245832  0.38816891  0.13147786  1
  O  O372  1  0.12819413  0.39083772  0.62859027  1
  O  O373  1  0.13349278  0.88545045  0.12863165  1
  O  O374  1  0.12477967  0.87490517  0.64063734  1
  O  O375  1  0.63710747  0.37015539  0.12068567  1
  O  O376  1  0.63696879  0.37042614  0.62990280  1
  O  O377  1  0.62877884  0.88270843  0.13388416  1
  O  O378  1  0.63108295  0.87871075  0.62674752  1
  O  O379  1  0.11858707  0.26279483  0.24404502  1
  O  O380  1  0.11059072  0.25178666  0.74566002  1
  O  O381  1  0.12189512  0.75708956  0.25512712  1
  O  O382  1  0.13373778  0.76175193  0.76372783  1
  O  O383  1  0.63320002  0.24986303  0.26408708  1
  O  O384  1  0.60759157  0.24991241  0.74544876  1
  O  O385  1  0.62639902  0.76498427  0.25189592  1
  O  O386  1  0.61389840  0.75205485  0.75217384  1
  O  O387  1  0.36874021  0.25538658  0.23412930  1
  O  O388  1  0.38502156  0.24404290  0.74265663  1
  O  O389  1  0.37450917  0.74004945  0.23829181  1
  O  O390  1  0.38625783  0.74035908  0.74698386  1
  O  O391  1  0.87621878  0.23564885  0.25328235  1
  O  O392  1  0.88309189  0.24434821  0.74086700  1
  O  O393  1  0.88590037  0.75113546  0.24764608  1
  O  O394  1  0.86899890  0.74330433  0.73318695  1
  O  O395  1  0.38330607  0.49206419  0.50872336  1
  O  O396  1  0.37020456  0.48265433  1.00613176  1
  O  O397  1  0.38280221  1.00209137  0.48739266  1
  O  O398  1  0.38865980  1.00530206  0.99274647  1
  O  O399  1  0.88651754  0.50266472  0.49516384  1
  O  O400  1  0.88242338  0.49124218  0.99276599  1
  O  O401  1  0.87209848  0.99177048  0.49073981  1
  O  O402  1  0.87950253  0.99396205  0.99311589  1
  O  O403  1  0.11615972  -0.00142260  0.00585972  1
  O  O404  1  0.12744735  0.01136615  0.50143909  1
  O  O405  1  0.12192666  0.50536204  0.00292676  1
  O  O406  1  0.11859871  0.50602416  0.51305653  1
  O  O407  1  0.61573025  0.01013503  0.00482572  1
  O  O408  1  0.61983226  0.00076485  0.50880037  1
  O  O409  1  0.63417250  0.51126695  -0.00005388  1
  O  O410  1  0.61436167  0.51050490  0.49701732  1
  O  O411  1  0.37318569  0.36524367  0.11475072  1
  O  O412  1  0.37523467  0.36531672  0.61887743  1
  O  O413  1  0.36715663  0.86772904  0.13143202  1
  O  O414  1  0.38330912  0.85700103  0.63258179  1
  O  O415  1  0.86715617  0.37957920  0.11259709  1
  O  O416  1  0.86681702  0.36187274  0.62760924  1
  O  O417  1  0.86750942  0.87515207  0.11597690  1
  O  O418  1  0.87004163  0.86509829  0.61928951  1
  O  O419  1  0.13323724  0.12223251  0.38231719  1
  O  O420  1  0.12682943  0.12702145  0.87717813  1
  O  O421  1  0.12312086  0.63907542  0.37216287  1
  O  O422  1  0.11892514  0.63334318  0.87392999  1
  O  O423  1  0.62593946  0.13897797  0.37746607  1
  O  O424  1  0.63268725  0.11814326  0.88244640  1
  O  O425  1  0.63353533  0.62761344  0.38182877  1
  O  O426  1  0.63101557  0.62698105  0.88545918  1
