# generated using pymatgen
data_V85Zn86O256
_symmetry_space_group_name_H-M   'P 1'
_cell_length_a   16.93581380
_cell_length_b   16.93264570
_cell_length_c   16.92715570
_cell_angle_alpha   90.03803445
_cell_angle_beta   90.02654403
_cell_angle_gamma   89.94837351
_symmetry_Int_Tables_number   1
_chemical_formula_structural   V85Zn86O256
_chemical_formula_sum   'V85 Zn86 O256'
_cell_volume   4854.16530790
_cell_formula_units_Z   1
loop_
 _symmetry_equiv_pos_site_id
 _symmetry_equiv_pos_as_xyz
  1  'x, y, z'
loop_
 _atom_site_type_symbol
 _atom_site_label
 _atom_site_symmetry_multiplicity
 _atom_site_fract_x
 _atom_site_fract_y
 _atom_site_fract_z
 _atom_site_occupancy
  V  V0  1  0.49509031  0.63663394  0.62319796  1
  V  V1  1  0.74154156  0.88183931  0.12359169  1
  V  V2  1  0.25044851  0.48954692  0.24537370  1
  V  V3  1  0.37446524  0.62443569  0.24676563  1
  V  V4  1  0.62537689  0.37707538  0.25871136  1
  V  V5  1  0.87789169  0.00004981  0.87710342  1
  V  V6  1  0.74822157  0.25199197  0.00229026  1
  V  V7  1  0.48998031  0.24407965  0.75168438  1
  V  V8  1  0.00207224  0.74909032  0.74995048  1
  V  V9  1  0.00086178  0.12416225  0.62735435  1
  V  V10  1  0.87995518  0.50327323  0.37195564  1
  V  V11  1  0.87258899  0.74711903  0.12663081  1
  V  V12  1  0.62296260  0.50120241  0.62276455  1
  V  V13  1  -0.00065655  0.36555355  0.86747842  1
  V  V14  1  0.87468201  0.74939954  0.62400517  1
  V  V15  1  0.26148345  0.87232264  0.62101531  1
  V  V16  1  0.12114665  0.75782829  0.37653854  1
  V  V17  1  0.24731285  0.75905021  -0.00200554  1
  V  V18  1  0.49424080  0.49951291  -0.00587101  1
  V  V19  1  0.37069147  0.75935494  0.12410720  1
  V  V20  1  0.49797996  0.62669019  0.12385641  1
  V  V21  1  0.63100494  0.24663014  0.37923496  1
  V  V22  1  0.25244914  0.25126330  0.01432441  1
  V  V23  1  0.25369631  0.00585598  0.74903179  1
  V  V24  1  0.88068659  0.12980909  0.75195990  1
  V  V25  1  0.00008685  0.50012657  -0.00162495  1
  V  V26  1  0.62527977  0.49951827  0.12497195  1
  V  V27  1  0.26053002  0.75173901  0.50340313  1
  V  V28  1  0.74273640  0.00717931  0.24924869  1
  V  V29  1  0.13517297  -0.00371312  0.12495403  1
  V  V30  1  0.88804935  0.87857498  0.49467373  1
  V  V31  1  0.00241185  0.13135706  0.12733976  1
  V  V32  1  0.74977587  0.62576723  0.36643524  1
  V  V33  1  0.12991675  0.87208216  0.24650440  1
  V  V34  1  0.87427319  0.37557746  0.00022981  1
  V  V35  1  0.11549424  0.13066360  0.49015595  1
  V  V36  1  0.25297497  0.61136299  0.87480198  1
  V  V37  1  0.74712721  0.50054044  0.74799225  1
  V  V38  1  0.87320176  0.12668424  0.25259745  1
  V  V39  1  0.12838127  0.12660723  -0.00073711  1
  V  V40  1  0.12168856  0.00029379  0.61467940  1
  V  V41  1  0.62586139  0.87021442  0.26201077  1
  V  V42  1  0.50243578  -0.00699937  0.00136788  1
  V  V43  1  -0.00110972  0.61491595  0.62153455  1
  V  V44  1  0.87075150  0.24641587  0.62091797  1
  V  V45  1  0.00460658  0.25497335  0.26981862  1
  V  V46  1  0.12951796  0.37579242  0.74942054  1
  V  V47  1  0.87619818  0.87523462  0.00581893  1
  V  V48  1  0.49011025  0.12741280  0.12571612  1
  V  V49  1  0.37986161  -0.00709473  0.87195358  1
  V  V50  1  0.87403947  0.62453513  0.74862910  1
  V  V51  1  0.62349256  0.12264699  0.00991289  1
  V  V52  1  0.74944360  0.12580665  0.87684458  1
  V  V53  1  0.62350255  0.63084817  0.49471530  1
  V  V54  1  0.11997419  0.61812982  0.49708118  1
  V  V55  1  0.12595985  0.87671534  0.74838817  1
  V  V56  1  0.62239588  0.37454754  0.75135237  1
  V  V57  1  0.62187627  0.25151446  0.87670472  1
  V  V58  1  0.62217864  0.86727027  0.76331752  1
  V  V59  1  0.25019910  0.62416009  0.37352614  1
  V  V60  1  0.37994584  0.36978230  0.49255460  1
  V  V61  1  0.26251765  0.12687211  0.37996228  1
  V  V62  1  0.49154490  0.12222619  0.62764495  1
  V  V63  1  0.49373686  0.75362589  0.76565661  1
  V  V64  1  0.25859596  -0.00367134  0.25713840  1
  V  V65  1  0.48711709  0.37667422  0.87317123  1
  V  V66  1  0.36998383  0.61444837  0.74753186  1
  V  V67  1  0.87388301  0.50008889  0.87299876  1
  V  V68  1  0.74975675  -0.00172627  0.75247990  1
  V  V69  1  -0.00238449  0.75019485  0.25095150  1
  V  V70  1  0.00186455  -0.00044548  0.00480450  1
  V  V71  1  0.25547432  0.38148061  0.62786110  1
  V  V72  1  0.49274484  0.25630160  0.25293506  1
  V  V73  1  0.74777970  0.87287458  0.62514030  1
  V  V74  1  0.74419018  0.63247463  0.87208234  1
  V  V75  1  0.36987961  0.37282592  0.01516576  1
  V  V76  1  0.74687235  0.36858969  0.61963130  1
  V  V77  1  0.62150152  0.63219235  -0.00552549  1
  V  V78  1  0.25777533  0.12935718  0.87255327  1
  V  V79  1  0.62198056  -0.00090853  0.62235826  1
  V  V80  1  0.74697179  0.75314171  0.49152839  1
  V  V81  1  0.49857798  0.49916177  0.49345457  1
  V  V82  1  0.12737702  0.49170476  0.12414506  1
  V  V83  1  -0.00307230  0.62301003  0.12598131  1
  V  V84  1  0.87790521  0.37912032  0.49831341  1
  Zn  Zn85  1  0.74907397  0.37735929  0.12599503  1
  Zn  Zn86  1  0.75492480  0.12741671  0.38738986  1
  Zn  Zn87  1  0.00160461  0.87305623  0.87665680  1
  Zn  Zn88  1  0.12799931  0.74720106  0.87250789  1
  Zn  Zn89  1  0.12552912  0.49847018  0.62410109  1
  Zn  Zn90  1  0.62940228  0.12986665  0.50715011  1
  Zn  Zn91  1  0.75340839  0.50227778  0.24761096  1
  Zn  Zn92  1  0.12325920  0.37198822  0.26283760  1
  Zn  Zn93  1  0.48351402  0.87424901  0.38870732  1
  Zn  Zn94  1  0.88468742  0.00220742  0.38333296  1
  Zn  Zn95  1  0.37531571  0.12547389  0.24960074  1
  Zn  Zn96  1  0.50640885  0.75077288  0.25569495  1
  Zn  Zn97  1  0.87637472  0.25443691  0.12833660  1
  Zn  Zn98  1  0.37116906  0.24882148  0.62659662  1
  Zn  Zn99  1  0.04080189  0.42890907  0.43202802  1
  Zn  Zn100  1  0.37607071  0.87531467  -0.00139907  1
  Zn  Zn101  1  0.74470022  0.75412972  -0.00407943  1
  Zn  Zn102  1  0.24245514  0.25433934  0.49849273  1
  Zn  Zn103  1  0.12615512  0.62513760  -0.00253360  1
  Zn  Zn104  1  0.12511534  0.24755794  0.87098986  1
  Zn  Zn105  1  0.38122596  0.49735639  0.37085002  1
  Zn  Zn106  1  0.47926904  0.00020947  0.49014210  1
  Zn  Zn107  1  0.18561083  0.18542642  0.19464795  1
  Zn  Zn108  1  0.18626449  0.19393193  0.68779307  1
  Zn  Zn109  1  0.18675986  0.68213844  0.18236860  1
  Zn  Zn110  1  0.18861467  0.68549139  0.68508368  1
  Zn  Zn111  1  0.68450650  0.19202418  0.18861928  1
  Zn  Zn112  1  0.68511534  0.18589194  0.68964338  1
  Zn  Zn113  1  0.68796333  0.69004988  0.18252477  1
  Zn  Zn114  1  0.68151169  0.69077286  0.68507552  1
  Zn  Zn115  1  0.31001136  0.30896383  0.31725197  1
  Zn  Zn116  1  0.30854312  0.31501080  0.81532705  1
  Zn  Zn117  1  0.30877028  0.80625399  0.30883735  1
  Zn  Zn118  1  0.31238604  0.80959510  0.81079929  1
  Zn  Zn119  1  0.81275898  0.31663733  0.31282503  1
  Zn  Zn120  1  0.81152313  0.31125545  0.81017971  1
  Zn  Zn121  1  0.81284515  0.81525799  0.31068703  1
  Zn  Zn122  1  0.81453271  0.81323155  0.81415813  1
  Zn  Zn123  1  0.20242076  0.43815651  0.43669861  1
  Zn  Zn124  1  0.18740361  0.43509277  0.93813125  1
  Zn  Zn125  1  0.31135153  0.93827415  0.43812380  1
  Zn  Zn126  1  0.18801089  0.93790420  0.93332546  1
  Zn  Zn127  1  0.68994265  0.43868614  0.43733855  1
  Zn  Zn128  1  0.68386929  0.44106819  0.93611264  1
  Zn  Zn129  1  0.69123481  0.94434953  0.43517321  1
  Zn  Zn130  1  0.68719305  0.94049822  0.94018489  1
  Zn  Zn131  1  0.31501919  0.06211381  0.06074329  1
  Zn  Zn132  1  0.30505466  0.07091551  0.56954016  1
  Zn  Zn133  1  0.31114992  0.56208721  0.06000839  1
  Zn  Zn134  1  0.31348740  0.56225578  0.56219204  1
  Zn  Zn135  1  0.81438583  0.06346340  0.06863583  1
  Zn  Zn136  1  0.80896313  0.05971587  0.56134156  1
  Zn  Zn137  1  0.80999435  0.56505544  0.06023713  1
  Zn  Zn138  1  0.81062597  0.56096455  0.55780605  1
  Zn  Zn139  1  0.44122440  0.43815652  0.18727118  1
  Zn  Zn140  1  0.43918901  0.43959458  0.68203616  1
  Zn  Zn141  1  0.44339246  0.94057885  0.18801639  1
  Zn  Zn142  1  0.43737063  0.93532805  0.68584110  1
  Zn  Zn143  1  0.93759013  0.43642080  0.18960282  1
  Zn  Zn144  1  0.93695084  0.43349783  0.68793327  1
  Zn  Zn145  1  0.95557122  0.95403615  0.21952715  1
  Zn  Zn146  1  0.93679007  0.93832686  0.68555194  1
  Zn  Zn147  1  0.06352166  0.05766956  0.31624055  1
  Zn  Zn148  1  0.06495686  0.06113524  0.81350992  1
  Zn  Zn149  1  0.06399802  0.56643403  0.30643855  1
  Zn  Zn150  1  0.06543052  0.55866048  0.81144749  1
  Zn  Zn151  1  0.55960892  0.06115163  0.31414925  1
  Zn  Zn152  1  0.56356609  0.06165626  0.81354344  1
  Zn  Zn153  1  0.56365171  0.56657567  0.31268096  1
  Zn  Zn154  1  0.55785787  0.56409545  0.81116901  1
  Zn  Zn155  1  0.44566999  0.18667224  0.44019277  1
  Zn  Zn156  1  0.43444093  0.18692223  0.93937096  1
  Zn  Zn157  1  0.43977694  0.69389789  0.42997675  1
  Zn  Zn158  1  0.42978181  0.68594307  0.93599324  1
  Zn  Zn159  1  0.93342536  0.18755284  0.44300239  1
  Zn  Zn160  1  0.93766142  0.18758502  0.94125175  1
  Zn  Zn161  1  0.93522726  0.68742039  0.43656292  1
  Zn  Zn162  1  0.93628481  0.68785047  0.93758608  1
  Zn  Zn163  1  0.06465426  0.31264140  0.06053066  1
  Zn  Zn164  1  0.05921490  0.30591911  0.57372041  1
  Zn  Zn165  1  0.06427173  0.81178603  0.06380802  1
  Zn  Zn166  1  0.06881588  0.80640775  0.56495740  1
  Zn  Zn167  1  0.55908633  0.31295334  0.06714540  1
  Zn  Zn168  1  0.55815811  0.31144440  0.56351900  1
  Zn  Zn169  1  0.55969440  0.81173556  0.06695549  1
  Zn  Zn170  1  0.55970968  0.81543582  0.56087843  1
  O  O171  1  0.11959469  0.11897003  0.11966803  1
  O  O172  1  0.11665241  0.12097726  0.62382726  1
  O  O173  1  0.11409369  0.61390757  0.11984742  1
  O  O174  1  0.11723864  0.62170743  0.61668199  1
  O  O175  1  0.61888162  0.13077594  0.11314457  1
  O  O176  1  0.61649706  0.11490496  0.63062102  1
  O  O177  1  0.61813211  0.61905207  0.11781638  1
  O  O178  1  0.61833399  0.62029838  0.61476472  1
  O  O179  1  0.37173446  0.37866420  0.38780274  1
  O  O180  1  0.38496991  0.37467865  0.88173789  1
  O  O181  1  0.36933614  0.87763449  0.36475314  1
  O  O182  1  0.37030924  0.88903683  0.87502941  1
  O  O183  1  0.86988811  0.38708587  0.38633481  1
  O  O184  1  0.88020275  0.37873318  0.87925956  1
  O  O185  1  0.87294934  0.87120248  0.39265335  1
  O  O186  1  0.87603428  0.88006635  0.88798324  1
  O  O187  1  0.24659505  0.01369777  0.36729899  1
  O  O188  1  0.25603000  0.00716587  0.86780220  1
  O  O189  1  0.25621321  0.51271777  0.36558181  1
  O  O190  1  0.24973563  0.51239158  0.87768655  1
  O  O191  1  0.75999768  0.00455128  0.36289201  1
  O  O192  1  0.75792561  0.00704856  0.87273564  1
  O  O193  1  0.75726434  0.50967830  0.37383643  1
  O  O194  1  0.75429268  0.50781462  0.86767022  1
  O  O195  1  0.23975720  0.50722127  0.13295432  1
  O  O196  1  0.24700197  0.48661025  0.62011894  1
  O  O197  1  0.23917935  1.00921189  0.13179978  1
  O  O198  1  0.24008037  0.99457517  0.63381901  1
  O  O199  1  0.73689802  0.50259609  0.12523609  1
  O  O200  1  0.74306177  0.49415013  0.63027091  1
  O  O201  1  0.75077563  0.99159617  0.13077193  1
  O  O202  1  0.74637411  0.98995370  0.63545764  1
  O  O203  1  -0.00282914  0.35767207  0.24814930  1
  O  O204  1  0.00721192  0.37616408  0.75847374  1
  O  O205  1  0.01449265  0.85545747  0.23613993  1
  O  O206  1  0.00571507  0.86650241  0.74871382  1
  O  O207  1  0.50674964  0.36402990  0.24717415  1
  O  O208  1  0.50372883  0.37131334  0.75686093  1
  O  O209  1  0.52143469  0.87815012  0.24365033  1
  O  O210  1  0.50553725  0.86075831  0.74776880  1
  O  O211  1  0.49899243  0.13253201  0.24194962  1
  O  O212  1  0.50550737  0.13561727  0.74541998  1
  O  O213  1  0.49108844  0.62566839  0.24388718  1
  O  O214  1  0.49191214  0.63353528  0.74494635  1
  O  O215  1  0.99408158  0.13751302  0.24419991  1
  O  O216  1  0.98704724  0.12007252  0.74786054  1
  O  O217  1  1.00265563  0.63466997  0.23405289  1
  O  O218  1  0.99537116  0.63047423  0.74438834  1
  O  O219  1  0.36889608  0.26395295  -0.00226949  1
  O  O220  1  0.37949718  0.25872766  0.50353112  1
  O  O221  1  0.36850233  0.75351711  0.00598785  1
  O  O222  1  0.35847303  0.73620417  0.50030815  1
  O  O223  1  0.86590758  0.25953424  -0.00058121  1
  O  O224  1  0.87356478  0.25724072  0.51395347  1
  O  O225  1  0.87396134  0.75871040  0.00707393  1
  O  O226  1  0.86644720  0.75615164  0.50695739  1
  O  O227  1  0.12272819  0.23363338  0.50742939  1
  O  O228  1  0.13408121  0.24515493  0.99598075  1
  O  O229  1  0.12987843  0.73890849  0.49156086  1
  O  O230  1  0.13219484  0.74658364  0.99631145  1
  O  O231  1  0.61638004  0.25511093  0.48173755  1
  O  O232  1  0.63004764  0.24677709  0.99599205  1
  O  O233  1  0.63669554  0.74210913  0.50887096  1
  O  O234  1  0.62269944  0.73587318  1.00391333  1
  O  O235  1  0.50708276  0.24224395  0.14140023  1
  O  O236  1  0.50160788  0.24115882  0.63614464  1
  O  O237  1  0.49023975  0.74290790  0.13011886  1
  O  O238  1  0.50481921  0.73812514  0.63192170  1
  O  O239  1  0.99947355  0.23887259  0.12177113  1
  O  O240  1  0.98732872  0.23377958  0.62882186  1
  O  O241  1  0.99280296  0.74104503  0.12608618  1
  O  O242  1  0.99590930  0.74111047  0.63567493  1
  O  O243  1  -0.00236182  0.24966199  0.36835102  1
  O  O244  1  0.00108601  0.26251665  0.88093271  1
  O  O245  1  0.00719981  0.73864045  0.36190986  1
  O  O246  1  0.00095754  0.74951040  0.86174177  1
  O  O247  1  0.51146587  0.24475670  0.35954402  1
  O  O248  1  0.50222014  0.25631161  0.87028344  1
  O  O249  1  0.50031308  0.76032802  0.36800943  1
  O  O250  1  0.49910898  0.74556981  0.86458368  1
  O  O251  1  0.23699880  0.12798691  0.49167582  1
  O  O252  1  0.24728365  0.13193971  0.99330077  1
  O  O253  1  0.24145356  0.62728424  0.49230365  1
  O  O254  1  0.25162400  0.63003768  0.98526507  1
  O  O255  1  0.74363460  0.12520254  0.50125078  1
  O  O256  1  0.74410266  0.13228430  0.99789789  1
  O  O257  1  0.74200628  0.63306364  0.49389480  1
  O  O258  1  0.73904996  0.62542552  0.98964661  1
  O  O259  1  0.26275072  0.36892271  -0.00306908  1
  O  O260  1  0.26261123  0.37221450  0.50839433  1
  O  O261  1  0.25085752  0.86295533  -0.00445102  1
  O  O262  1  0.24718972  0.86216017  0.50715618  1
  O  O263  1  0.75653343  0.36983217  -0.00230567  1
  O  O264  1  0.75787751  0.38019372  0.51373016  1
  O  O265  1  0.75632940  0.87526393  0.00614366  1
  O  O266  1  0.75399570  0.86811688  0.50790945  1
  O  O267  1  0.13322450  0.49909973  0.24227626  1
  O  O268  1  0.12017354  0.48302981  0.74530516  1
  O  O269  1  0.13472845  0.99122900  0.24314548  1
  O  O270  1  0.13311546  0.99320194  0.74480958  1
  O  O271  1  0.62251342  0.49379958  0.24251366  1
  O  O272  1  0.62631750  0.49463982  0.74331324  1
  O  O273  1  0.63820512  0.99261745  0.25020563  1
  O  O274  1  0.63089652  0.99113453  0.74494353  1
  O  O275  1  0.36081715  0.00331918  0.23832277  1
  O  O276  1  0.36216529  -0.00303267  0.75543670  1
  O  O277  1  0.36994371  0.50830833  0.24699204  1
  O  O278  1  0.38406919  0.51598046  0.75061874  1
  O  O279  1  0.86081369  0.01957845  0.23629773  1
  O  O280  1  0.86897838  0.00550718  0.75704953  1
  O  O281  1  0.87147542  0.49413395  0.26610055  1
  O  O282  1  0.86756171  0.50556206  0.75278506  1
  O  O283  1  0.12520223  0.38364776  0.37695674  1
  O  O284  1  0.11723121  0.37548358  0.86644554  1
  O  O285  1  0.12353383  0.85794969  0.36385468  1
  O  O286  1  0.12259846  0.87373924  0.86045379  1
  O  O287  1  0.62824278  0.37026651  0.36486244  1
  O  O288  1  0.61381991  0.37034861  0.87263488  1
  O  O289  1  0.63830036  0.87262742  0.36123748  1
  O  O290  1  0.63342053  0.87602107  0.86221381  1
  O  O291  1  0.38669203  0.12926360  0.12322429  1
  O  O292  1  0.38735943  0.12922847  0.62843647  1
  O  O293  1  0.38049724  0.62883184  0.12873851  1
  O  O294  1  0.38040702  0.62335354  0.63708984  1
  O  O295  1  0.88512889  0.13197170  0.13009715  1
  O  O296  1  0.87850885  0.12808831  0.63211710  1
  O  O297  1  0.88073957  0.63538913  0.11848815  1
  O  O298  1  0.87926574  0.62936172  0.62835246  1
  O  O299  1  0.24554742  0.24283485  0.11385609  1
  O  O300  1  0.25248656  0.26269755  0.62231450  1
  O  O301  1  0.25860442  0.73835482  0.11021843  1
  O  O302  1  0.24002728  0.75923459  0.61349196  1
  O  O303  1  0.75049983  0.25370597  0.11218341  1
  O  O304  1  0.75399767  0.25978217  0.63197732  1
  O  O305  1  0.75896126  0.75704965  0.11993487  1
  O  O306  1  0.75487101  0.75582710  0.61842934  1
  O  O307  1  0.24776105  0.23283704  0.37773091  1
  O  O308  1  0.24924673  0.24221472  0.88265739  1
  O  O309  1  0.24101588  0.73853813  0.38067412  1
  O  O310  1  0.24973618  0.74168377  0.88244408  1
  O  O311  1  0.73466878  0.25082511  0.36885097  1
  O  O312  1  0.74507064  0.24709251  0.88544108  1
  O  O313  1  0.75814083  0.74234374  0.38491090  1
  O  O314  1  0.75444655  0.73632124  0.87609663  1
  O  O315  1  0.00625131  0.11910440  0.00714383  1
  O  O316  1  0.00849226  0.12373604  0.50769221  1
  O  O317  1  0.00008365  0.61787211  0.00633420  1
  O  O318  1  0.00770829  0.63358433  0.51004420  1
  O  O319  1  0.50648595  0.12323869  0.00642445  1
  O  O320  1  0.50879970  0.12024042  0.51282212  1
  O  O321  1  0.50200030  0.61685651  0.00075738  1
  O  O322  1  0.50521918  0.62348181  0.50556594  1
  O  O323  1  0.49201355  0.38769075  0.50863965  1
  O  O324  1  0.49087335  0.37923206  0.99514648  1
  O  O325  1  0.50191350  0.88620003  0.50397118  1
  O  O326  1  0.50175571  0.88914979  1.00432340  1
  O  O327  1  0.98433925  0.37376746  0.51376519  1
  O  O328  1  0.99077305  0.38001182  0.99258066  1
  O  O329  1  0.98567515  0.86506883  0.50960007  1
  O  O330  1  0.99295066  0.88130643  1.00083086  1
  O  O331  1  0.50013431  0.50694919  0.38896210  1
  O  O332  1  0.50456718  0.49180015  0.88655662  1
  O  O333  1  0.51032179  0.98901453  0.37989870  1
  O  O334  1  0.48909551  1.00996425  0.88446269  1
  O  O335  1  0.98555174  0.51164624  0.37334500  1
  O  O336  1  0.99218480  0.49280334  0.87938035  1
  O  O337  1  0.98300516  0.98524169  0.32964527  1
  O  O338  1  0.99424123  0.99833298  0.88426146  1
  O  O339  1  0.01025802  0.01280820  0.12600650  1
  O  O340  1  0.00789823  0.01217138  0.63310462  1
  O  O341  1  0.00175734  0.50638725  0.12048207  1
  O  O342  1  -0.00237297  0.51221190  0.62786590  1
  O  O343  1  0.49808380  0.01318941  0.11377306  1
  O  O344  1  0.50833735  0.00769735  0.63350766  1
  O  O345  1  0.50859143  0.50476346  0.11509273  1
  O  O346  1  0.50583727  0.51263026  0.61661946  1
  O  O347  1  0.25127231  0.38669583  0.25390054  1
  O  O348  1  0.24003884  0.37570177  0.74525477  1
  O  O349  1  0.23717099  0.88030735  0.25023352  1
  O  O350  1  0.24159448  0.88013062  0.74425703  1
  O  O351  1  0.74035008  0.37935995  0.24503104  1
  O  O352  1  0.74280297  0.38076877  0.74316995  1
  O  O353  1  0.74589384  0.88355575  0.24200202  1
  O  O354  1  0.74553214  0.87546966  0.74378675  1
  O  O355  1  0.25155703  0.11893474  0.26335935  1
  O  O356  1  0.24318215  0.11664411  0.75775365  1
  O  O357  1  0.25513548  0.61789546  0.25584532  1
  O  O358  1  0.26198318  0.62872475  0.75613883  1
  O  O359  1  0.75598156  0.12312849  0.24839792  1
  O  O360  1  0.75801192  0.11954628  0.75741562  1
  O  O361  1  0.74160500  0.62546263  0.26283247  1
  O  O362  1  0.75152843  0.62155732  0.75366796  1
  O  O363  1  0.36498492  0.12623558  0.37737633  1
  O  O364  1  0.36265563  0.11608918  0.87927166  1
  O  O365  1  0.36696047  0.62404440  0.36402377  1
  O  O366  1  0.36276155  0.62539911  0.86323656  1
  O  O367  1  0.87399090  0.12388106  0.36715068  1
  O  O368  1  0.87065572  0.12236461  0.86996675  1
  O  O369  1  0.86421504  0.61253250  0.38239845  1
  O  O370  1  0.86717965  0.61934347  0.86836284  1
  O  O371  1  0.11736116  0.38882207  0.12895685  1
  O  O372  1  0.13017906  0.37541764  0.63410441  1
  O  O373  1  0.12385575  0.88574195  0.13035371  1
  O  O374  1  0.12801703  0.88277237  0.63272113  1
  O  O375  1  0.62478992  0.38497365  0.13205599  1
  O  O376  1  0.63032448  0.37889889  0.62928953  1
  O  O377  1  0.63920823  0.87162317  0.12667619  1
  O  O378  1  0.63594332  0.87807175  0.63566276  1
  O  O379  1  0.10838390  0.25087331  0.24950997  1
  O  O380  1  0.12435232  0.26690033  0.75363767  1
  O  O381  1  0.12189822  0.75240180  0.25206146  1
  O  O382  1  0.11783123  0.75745366  0.74776059  1
  O  O383  1  0.61853972  0.25978835  0.25731230  1
  O  O384  1  0.61733797  0.25710526  0.75806649  1
  O  O385  1  0.62888611  0.76644401  0.24453053  1
  O  O386  1  0.61108146  0.75573046  0.74862179  1
  O  O387  1  0.38932896  0.24962676  0.25528304  1
  O  O388  1  0.38726181  0.25649746  0.75117969  1
  O  O389  1  0.36867505  0.73544824  0.23910529  1
  O  O390  1  0.38806772  0.74158047  0.75252878  1
  O  O391  1  0.88226872  0.24350338  0.24955943  1
  O  O392  1  0.86849202  0.23917149  0.73995756  1
  O  O393  1  0.88271373  0.75715738  0.23676731  1
  O  O394  1  0.88141402  0.74452446  0.74419671  1
  O  O395  1  0.38396704  0.49489612  0.49852710  1
  O  O396  1  0.38283695  0.48751016  1.00367096  1
  O  O397  1  0.36699611  1.00180279  0.51064974  1
  O  O398  1  0.38258423  0.99672030  0.99218731  1
  O  O399  1  0.87203928  0.49154297  0.48945305  1
  O  O400  1  0.87659342  0.49214403  0.99340069  1
  O  O401  1  0.87580279  0.98340766  0.50234272  1
  O  O402  1  0.88133690  0.99454063  0.99851582  1
  O  O403  1  0.12238122  0.00400582  0.00683658  1
  O  O404  1  0.12582749  0.01496651  0.51484490  1
  O  O405  1  0.11785998  0.49991417  0.00554455  1
  O  O406  1  0.12200050  0.51054213  0.49809735  1
  O  O407  1  0.61568535  0.01232637  -0.00712210  1
  O  O408  1  0.63383399  -0.00276641  0.51931677  1
  O  O409  1  0.61648407  0.50764981  0.00643355  1
  O  O410  1  0.61941524  0.50738100  0.50463439  1
  O  O411  1  0.37843268  0.37428368  0.11368832  1
  O  O412  1  0.36997512  0.37400542  0.61899013  1
  O  O413  1  0.37864040  0.86189848  0.12594538  1
  O  O414  1  0.35987330  0.87154990  0.63235407  1
  O  O415  1  0.87218310  0.37558764  0.11230281  1
  O  O416  1  0.86582457  0.36657171  0.62357248  1
  O  O417  1  0.86771916  0.86920952  0.11416142  1
  O  O418  1  0.86455802  0.87001593  0.62068042  1
  O  O419  1  0.12551716  0.12061018  0.38820471  1
  O  O420  1  0.13521749  0.12415735  0.88253856  1
  O  O421  1  0.13179614  0.62938031  0.37907712  1
  O  O422  1  0.13892594  0.62565383  0.87187772  1
  O  O423  1  0.62907804  0.13956057  0.37259312  1
  O  O424  1  0.63130561  0.13278312  0.88368385  1
  O  O425  1  0.63254955  0.62256469  0.38781569  1
  O  O426  1  0.63248672  0.61754567  0.88196040  1
