# generated using pymatgen
data_V85Zn86O256
_symmetry_space_group_name_H-M   'P 1'
_cell_length_a   16.93239357
_cell_length_b   16.92164929
_cell_length_c   16.91888786
_cell_angle_alpha   89.97228523
_cell_angle_beta   90.06315349
_cell_angle_gamma   89.92346820
_symmetry_Int_Tables_number   1
_chemical_formula_structural   V85Zn86O256
_chemical_formula_sum   'V85 Zn86 O256'
_cell_volume   4847.66002134
_cell_formula_units_Z   1
loop_
 _symmetry_equiv_pos_site_id
 _symmetry_equiv_pos_as_xyz
  1  'x, y, z'
loop_
 _atom_site_type_symbol
 _atom_site_label
 _atom_site_symmetry_multiplicity
 _atom_site_fract_x
 _atom_site_fract_y
 _atom_site_fract_z
 _atom_site_occupancy
  V  V0  1  0.00240747  0.62314294  0.62224732  1
  V  V1  1  0.49662018  0.62400028  0.63331360  1
  V  V2  1  0.87519005  0.75192502  0.62224604  1
  V  V3  1  0.24950430  0.12833283  0.87535286  1
  V  V4  1  0.74896659  0.88323201  0.62837651  1
  V  V5  1  0.37392605  0.12734156  0.74314625  1
  V  V6  1  0.13369031  0.62229432  0.49759906  1
  V  V7  1  0.37739369  0.00084259  0.87734301  1
  V  V8  1  0.25259655  0.25184351  0.00623491  1
  V  V9  1  0.87594824  0.87497244  -0.00096647  1
  V  V10  1  0.87639547  0.49118991  0.37285503  1
  V  V11  1  0.12377682  0.00578326  0.61965373  1
  V  V12  1  0.75519619  0.63611127  0.88110776  1
  V  V13  1  0.13313794  0.74566153  0.37283322  1
  V  V14  1  0.09703189  0.14268158  0.46617354  1
  V  V15  1  0.85891258  0.00658122  0.87263622  1
  V  V16  1  0.49431407  0.25275401  0.24199590  1
  V  V17  1  0.37503422  0.87099710  0.50354975  1
  V  V18  1  0.37588448  0.36931613  0.50952525  1
  V  V19  1  0.24706579  0.36874747  0.63859531  1
  V  V20  1  0.37259892  0.13014936  0.23944210  1
  V  V21  1  0.49866333  0.37496124  0.37679943  1
  V  V22  1  0.50712655  0.49696363  0.50788490  1
  V  V23  1  0.00089389  0.25502763  0.74804783  1
  V  V24  1  0.62499809  0.87724603  0.75201103  1
  V  V25  1  0.62501667  0.75222058  0.88769382  1
  V  V26  1  0.87319576  0.37766179  -0.00241400  1
  V  V27  1  0.12570765  0.63321606  0.01173910  1
  V  V28  1  0.50118331  0.13132818  0.62394922  1
  V  V29  1  0.24572618  0.51213347  0.75282776  1
  V  V30  1  0.62427700  0.24054254  0.87889310  1
  V  V31  1  0.87554145  0.62713015  0.75019282  1
  V  V32  1  0.00121716  0.88820212  0.87881439  1
  V  V33  1  0.13178485  0.75265712  0.87961489  1
  V  V34  1  0.74305225  0.75012912  0.49564260  1
  V  V35  1  0.50454281  0.61092645  0.12242932  1
  V  V36  1  0.10818166  0.36359279  0.26472955  1
  V  V37  1  0.62318110  0.38098213  0.24051834  1
  V  V38  1  0.25546449  0.24522550  0.50653315  1
  V  V39  1  0.37506191  0.50819296  0.87568268  1
  V  V40  1  0.62507900  0.24980909  0.37131352  1
  V  V41  1  0.87266058  0.12721283  0.24318825  1
  V  V42  1  0.24771500  0.37375522  0.13447991  1
  V  V43  1  0.74343886  0.88669142  0.11737711  1
  V  V44  1  0.87300946  0.74893271  0.12113899  1
  V  V45  1  0.85607956  0.12841824  0.74697814  1
  V  V46  1  0.00837163  0.37784091  0.87286984  1
  V  V47  1  -0.00401773  -0.00107550  0.49936299  1
  V  V48  1  -0.00622644  0.12888131  0.63073933  1
  V  V49  1  0.75858594  0.25139871  0.49753632  1
  V  V50  1  0.51174523  0.74576904  0.24815052  1
  V  V51  1  0.11956479  -0.00098822  0.12326833  1
  V  V52  1  0.37242812  0.87210949  -0.00004301  1
  V  V53  1  0.50778223  0.11918331  0.12266217  1
  V  V54  1  0.49866297  0.37895153  0.88112536  1
  V  V55  1  0.37904732  -0.00276738  0.37294470  1
  V  V56  1  0.36835513  0.50722296  0.37974921  1
  V  V57  1  0.50603596  0.86541105  0.37478670  1
  V  V58  1  0.12145621  0.12402051  -0.00208936  1
  V  V59  1  0.62915972  0.60595776  0.00479879  1
  V  V60  1  0.88319843  0.62494001  0.24629760  1
  V  V61  1  0.24939470  0.86861758  0.12417979  1
  V  V62  1  0.87218532  0.87403203  0.49667345  1
  V  V63  1  0.11673689  0.49943269  0.12949780  1
  V  V64  1  0.24838219  0.00069157  0.24980000  1
  V  V65  1  0.74559064  0.50214914  0.24093572  1
  V  V66  1  0.37477568  0.38042795  0.00717509  1
  V  V67  1  0.24954322  0.00170913  0.74758443  1
  V  V68  1  0.49500287  0.25350137  0.75108953  1
  V  V69  1  0.74381945  0.62692150  0.37163457  1
  V  V70  1  0.37643105  0.74462598  0.12282657  1
  V  V71  1  0.63337874  0.61642559  0.51276428  1
  V  V72  1  0.63236020  0.88733913  0.25015717  1
  V  V73  1  0.00197706  0.87231450  0.37062023  1
  V  V74  1  0.00150018  0.49198068  0.49553867  1
  V  V75  1  0.87758493  0.50218946  0.87245842  1
  V  V76  1  0.25705510  0.12905141  0.37769706  1
  V  V77  1  0.50578085  -0.00065941  0.50274693  1
  V  V78  1  0.87796724  0.25453986  0.12519732  1
  V  V79  1  0.00154991  0.75355587  0.74995642  1
  V  V80  1  0.12329592  0.87898035  0.74790401  1
  V  V81  1  -0.00099431  0.12586450  0.12124524  1
  V  V82  1  0.75167278  0.24311501  -0.00584091  1
  V  V83  1  0.87013435  -0.00450148  0.36266649  1
  V  V84  1  0.74477756  0.11850794  0.36263794  1
  Zn  Zn85  1  0.50599920  -0.00477591  0.00510274  1
  Zn  Zn86  1  0.62450439  0.38087786  0.74230994  1
  Zn  Zn87  1  0.88299526  0.36978939  0.50325515  1
  Zn  Zn88  1  0.63700559  0.11363391  0.00225222  1
  Zn  Zn89  1  0.25441913  0.74438661  0.49816284  1
  Zn  Zn90  1  0.49828173  0.87260448  0.87523215  1
  Zn  Zn91  1  0.12030060  0.49116340  0.63167303  1
  Zn  Zn92  1  0.36750920  0.74174510  0.63331766  1
  Zn  Zn93  1  0.00327932  0.74599711  0.24407015  1
  Zn  Zn94  1  0.74108379  0.50544488  0.73985878  1
  Zn  Zn95  1  0.24361677  0.50461039  0.25819869  1
  Zn  Zn96  1  0.12552680  0.87394143  0.25012688  1
  Zn  Zn97  1  0.25508688  0.63513432  0.88052996  1
  Zn  Zn98  1  -0.00118622  0.50798116  0.00410197  1
  Zn  Zn99  1  0.74204779  0.38062143  0.11388784  1
  Zn  Zn100  1  0.49524853  0.74828735  0.75522854  1
  Zn  Zn101  1  0.63230930  0.01037766  0.63760650  1
  Zn  Zn102  1  0.62788437  0.12415042  0.49928623  1
  Zn  Zn103  1  0.12701833  0.25645179  0.87155593  1
  Zn  Zn104  1  0.37369362  0.62785457  0.25590900  1
  Zn  Zn105  1  0.24829902  0.87317212  0.62100749  1
  Zn  Zn106  1  0.75301529  0.38538687  0.62735206  1
  Zn  Zn107  1  0.18459586  0.19088071  0.18869563  1
  Zn  Zn108  1  0.18188962  0.18880659  0.68570533  1
  Zn  Zn109  1  0.19204123  0.68447833  0.19339193  1
  Zn  Zn110  1  0.18757336  0.69038176  0.68561703  1
  Zn  Zn111  1  0.68907469  0.19346710  0.18382053  1
  Zn  Zn112  1  0.67682401  0.21644039  0.67559947  1
  Zn  Zn113  1  0.69175256  0.69212804  0.17980189  1
  Zn  Zn114  1  0.68776650  0.69319351  0.69158271  1
  Zn  Zn115  1  0.30990991  0.31471975  0.31831160  1
  Zn  Zn116  1  0.31487818  0.31330274  0.81806909  1
  Zn  Zn117  1  0.31580659  0.81084994  0.30987185  1
  Zn  Zn118  1  0.31381111  0.81413700  0.80664011  1
  Zn  Zn119  1  0.81076462  0.31270312  0.30814848  1
  Zn  Zn120  1  0.81265847  0.31214231  0.80903522  1
  Zn  Zn121  1  0.80885968  0.80884545  0.30764128  1
  Zn  Zn122  1  0.81228642  0.81512105  0.81200323  1
  Zn  Zn123  1  0.18667925  0.43148478  0.44271815  1
  Zn  Zn124  1  0.18855279  0.44481034  0.94331898  1
  Zn  Zn125  1  0.18691315  0.94191751  0.43718986  1
  Zn  Zn126  1  0.19061358  0.93966462  0.93923814  1
  Zn  Zn127  1  0.68905942  0.43688591  0.43209534  1
  Zn  Zn128  1  0.68356764  0.44289940  0.90407328  1
  Zn  Zn129  1  0.68643958  0.93676681  0.43457257  1
  Zn  Zn130  1  0.68445287  0.93851813  0.93955757  1
  Zn  Zn131  1  0.31092549  0.06038641  0.06296013  1
  Zn  Zn132  1  0.31654150  0.05801909  0.56174120  1
  Zn  Zn133  1  0.30537165  0.56194425  0.06628183  1
  Zn  Zn134  1  0.31401388  0.55496880  0.56675506  1
  Zn  Zn135  1  0.81509149  0.05750276  0.05773394  1
  Zn  Zn136  1  0.81141213  0.06676477  0.55675146  1
  Zn  Zn137  1  0.81250574  0.56446350  0.06083355  1
  Zn  Zn138  1  0.81587175  0.55557479  0.56463668  1
  Zn  Zn139  1  0.43223228  0.43708161  0.19017942  1
  Zn  Zn140  1  0.43348116  0.44079949  0.69150816  1
  Zn  Zn141  1  0.43775359  0.93605422  0.18920512  1
  Zn  Zn142  1  0.44189687  0.93786338  0.68850907  1
  Zn  Zn143  1  0.93811274  0.43559721  0.18981226  1
  Zn  Zn144  1  0.92972865  0.43486722  0.68452137  1
  Zn  Zn145  1  0.93812898  0.93705612  0.18407582  1
  Zn  Zn146  1  0.93291176  0.94306221  0.69065118  1
  Zn  Zn147  1  0.05774981  0.07269206  0.30948115  1
  Zn  Zn148  1  0.06058315  0.06600453  0.81117690  1
  Zn  Zn149  1  0.06450411  0.55909786  0.31433054  1
  Zn  Zn150  1  0.06606222  0.56642346  0.81515921  1
  Zn  Zn151  1  0.55859236  0.06142125  0.30957607  1
  Zn  Zn152  1  0.56285467  0.06072217  0.81380362  1
  Zn  Zn153  1  0.56160958  0.56299052  0.31825139  1
  Zn  Zn154  1  0.56278969  0.56235105  0.82033522  1
  Zn  Zn155  1  0.43704420  0.18832710  0.43596779  1
  Zn  Zn156  1  0.43325064  0.19057713  0.93967989  1
  Zn  Zn157  1  0.44468207  0.68701332  0.44428533  1
  Zn  Zn158  1  0.44357343  0.68634850  0.94371197  1
  Zn  Zn159  1  0.93131305  0.18186759  0.42941419  1
  Zn  Zn160  1  0.93752562  0.18784109  0.93366539  1
  Zn  Zn161  1  0.93773204  0.68364136  0.43363688  1
  Zn  Zn162  1  0.94554017  0.69441106  0.94020622  1
  Zn  Zn163  1  0.06210423  0.31382165  0.06272052  1
  Zn  Zn164  1  0.06401038  0.31027155  0.56493798  1
  Zn  Zn165  1  0.05752061  0.81294863  0.06191164  1
  Zn  Zn166  1  0.06420129  0.81162255  0.55819622  1
  Zn  Zn167  1  0.56016959  0.30914351  0.05997651  1
  Zn  Zn168  1  0.56688304  0.30974084  0.56212495  1
  Zn  Zn169  1  0.56106434  0.81270383  0.06398666  1
  Zn  Zn170  1  0.56513034  0.80885698  0.56622515  1
  O  O171  1  0.11778348  0.12049115  0.12024301  1
  O  O172  1  0.11300140  0.11519808  0.62469306  1
  O  O173  1  0.12645046  0.62017988  0.11839419  1
  O  O174  1  0.11331151  0.62488474  0.61901160  1
  O  O175  1  0.61058355  0.12972466  0.12583369  1
  O  O176  1  0.61649003  0.12699107  0.62093796  1
  O  O177  1  0.62291007  0.62643529  0.11223843  1
  O  O178  1  0.62076388  0.62849442  0.61623320  1
  O  O179  1  0.38141085  0.38088960  0.38899987  1
  O  O180  1  0.38159794  0.38183906  0.88481665  1
  O  O181  1  0.38598811  0.87739709  0.38203766  1
  O  O182  1  0.37208818  0.88312134  0.88409103  1
  O  O183  1  0.87065260  0.38813651  0.37354669  1
  O  O184  1  0.88212233  0.38590804  0.87983006  1
  O  O185  1  0.87873302  0.87954446  0.37477664  1
  O  O186  1  0.88027172  0.88382971  0.87787210  1
  O  O187  1  0.26354788  0.00092165  0.36858672  1
  O  O188  1  0.25901909  0.00735614  0.86924661  1
  O  O189  1  0.26608970  0.49426256  0.38262573  1
  O  O190  1  0.25463842  0.50080184  0.86556898  1
  O  O191  1  0.75755000  0.00566830  0.37437758  1
  O  O192  1  0.76096744  -0.00315349  0.87225705  1
  O  O193  1  0.75736626  0.50693302  0.36531184  1
  O  O194  1  0.76982995  0.51695626  0.87995738  1
  O  O195  1  0.23628650  0.48881841  0.12739664  1
  O  O196  1  0.24964720  0.49233294  0.64049111  1
  O  O197  1  0.24129114  0.99286967  0.13068227  1
  O  O198  1  0.23948028  1.00118295  0.62767166  1
  O  O199  1  0.75318831  0.49856664  0.13710745  1
  O  O200  1  0.74118567  0.50270092  0.62516141  1
  O  O201  1  0.75506716  0.98550773  0.12639339  1
  O  O202  1  0.74724608  0.98752648  0.61252216  1
  O  O203  1  0.00786749  0.37264376  0.25464820  1
  O  O204  1  -0.00785990  0.36675406  0.75891857  1
  O  O205  1  0.00104167  0.87571597  0.26178208  1
  O  O206  1  0.00461205  0.87313543  0.75461135  1
  O  O207  1  0.50333717  0.36872160  0.25423912  1
  O  O208  1  0.49925302  0.36838424  0.75792835  1
  O  O209  1  0.50945422  0.86895504  0.25530742  1
  O  O210  1  0.51005587  0.87257526  0.75309803  1
  O  O211  1  0.49303601  0.13152999  0.24139893  1
  O  O212  1  0.49237543  0.12902916  0.74326609  1
  O  O213  1  0.49941275  0.63133083  0.24566974  1
  O  O214  1  0.51087102  0.62061706  0.73536419  1
  O  O215  1  0.98807960  0.12154295  0.23026119  1
  O  O216  1  0.99196507  0.12995194  0.74261231  1
  O  O217  1  0.98587090  0.62358575  0.25383146  1
  O  O218  1  0.99739209  0.63244458  0.74243150  1
  O  O219  1  0.35926855  0.26138680  -0.00382914  1
  O  O220  1  0.36967295  0.25774445  0.50015667  1
  O  O221  1  0.37857927  0.75672255  0.01359475  1
  O  O222  1  0.37468299  0.75754847  0.50268549  1
  O  O223  1  0.86972578  0.25729199  0.00217145  1
  O  O224  1  0.86305248  0.25412640  0.47843401  1
  O  O225  1  0.87753005  0.76474715  0.00371987  1
  O  O226  1  0.86795822  0.75487515  0.50276655  1
  O  O227  1  0.13279497  0.23431778  0.50330092  1
  O  O228  1  0.13314053  0.23996777  0.99973548  1
  O  O229  1  0.12600831  0.74005052  0.49167889  1
  O  O230  1  0.12236566  0.74277245  0.99616538  1
  O  O231  1  0.63247144  0.24546144  0.48285113  1
  O  O232  1  0.63488937  0.24446912  0.99798651  1
  O  O233  1  0.63844698  0.74076666  0.50323479  1
  O  O234  1  0.62555697  0.75038270  0.99029779  1
  O  O235  1  0.49910350  0.24205419  0.13748483  1
  O  O236  1  0.49873670  0.23858878  0.63260093  1
  O  O237  1  0.49502890  0.74134057  0.13133433  1
  O  O238  1  0.50056713  0.73209396  0.62357086  1
  O  O239  1  0.98575221  0.24263257  0.11712586  1
  O  O240  1  1.00051972  0.23993921  0.63181451  1
  O  O241  1  0.98113395  0.76102885  0.12928150  1
  O  O242  1  0.99513808  0.74511771  0.62769024  1
  O  O243  1  0.03254824  0.17256803  0.38367355  1
  O  O244  1  0.00196824  0.26033688  0.86861259  1
  O  O245  1  0.00836139  0.75764175  0.37364280  1
  O  O246  1  0.01069052  0.76381811  0.86861464  1
  O  O247  1  0.50678512  0.25394213  0.36661345  1
  O  O248  1  0.49966888  0.25629319  0.87045103  1
  O  O249  1  0.49839845  0.75903946  0.36770929  1
  O  O250  1  0.51071592  0.75038467  0.87576507  1
  O  O251  1  0.25858169  0.13107437  0.49341328  1
  O  O252  1  0.24592001  0.13363743  0.99744811  1
  O  O253  1  0.23696600  0.62046850  0.50772921  1
  O  O254  1  0.23192522  0.62298920  0.99807513  1
  O  O255  1  0.75034996  0.13116426  0.47922705  1
  O  O256  1  0.75430224  0.13824085  1.00318180  1
  O  O257  1  0.74767952  0.62982152  0.49371785  1
  O  O258  1  0.73943810  0.62686322  0.99549875  1
  O  O259  1  0.25116486  0.36919375  0.00996204  1
  O  O260  1  0.25817104  0.36478290  0.50829915  1
  O  O261  1  0.26208203  0.88056717  0.01027499  1
  O  O262  1  0.26267411  0.87877350  0.49901536  1
  O  O263  1  0.76265338  0.37044448  -0.00470740  1
  O  O264  1  0.74760190  0.35765300  0.49270857  1
  O  O265  1  0.75601593  0.87686361  0.01159990  1
  O  O266  1  0.75294334  0.86660172  0.50231719  1
  O  O267  1  0.12484187  0.49015281  0.24565649  1
  O  O268  1  0.14003660  0.50119003  0.75165871  1
  O  O269  1  0.13012291  1.00042645  0.24105210  1
  O  O270  1  0.12805653  0.99841004  0.74040761  1
  O  O271  1  0.63199021  0.49185616  0.25773909  1
  O  O272  1  0.63819773  0.48462664  0.79338652  1
  O  O273  1  0.62006584  0.98557741  0.24782777  1
  O  O274  1  0.62371151  0.98554316  0.75258793  1
  O  O275  1  0.37013172  0.00788277  0.25397997  1
  O  O276  1  0.36978240  0.00614006  0.75636559  1
  O  O277  1  0.37825592  0.49706408  0.27313836  1
  O  O278  1  0.36065607  0.49636567  0.76324409  1
  O  O279  1  0.87795028  0.00706263  0.25656312  1
  O  O280  1  0.87281585  0.01338416  0.76084067  1
  O  O281  1  0.86736650  0.50617605  0.25390530  1
  O  O282  1  0.87744998  0.51259045  0.75810783  1
  O  O283  1  0.12740194  0.37607603  0.36350994  1
  O  O284  1  0.11132835  0.37876794  0.88340390  1
  O  O285  1  0.11668007  0.86972503  0.37594983  1
  O  O286  1  0.11853271  0.87552434  0.87246732  1
  O  O287  1  0.61783381  0.36740336  0.36510496  1
  O  O288  1  0.60611982  0.35851408  0.88802904  1
  O  O289  1  0.62024705  0.87504029  0.36089043  1
  O  O290  1  0.62538989  0.86717105  0.86997217  1
  O  O291  1  0.37875359  0.12438343  0.13603993  1
  O  O292  1  0.38077448  0.11892514  0.63786671  1
  O  O293  1  0.38439156  0.63079951  0.12123524  1
  O  O294  1  0.39287172  0.62181421  0.61863179  1
  O  O295  1  0.87950939  0.12908516  0.12554677  1
  O  O296  1  0.87962591  0.11544024  0.63905326  1
  O  O297  1  0.86808405  0.63532776  0.13287445  1
  O  O298  1  0.88622302  0.63118275  0.62770260  1
  O  O299  1  0.24521403  0.26089899  0.11850248  1
  O  O300  1  0.24838032  0.25370323  0.61655037  1
  O  O301  1  0.25867915  0.76223656  0.13118898  1
  O  O302  1  0.25083363  0.75519989  0.61780385  1
  O  O303  1  0.76098225  0.25612450  0.11544462  1
  O  O304  1  0.76021465  0.23179465  0.59543581  1
  O  O305  1  0.76491038  0.76652551  0.12978388  1
  O  O306  1  0.75726131  0.75777814  0.61649803  1
  O  O307  1  0.25529664  0.23998254  0.38957473  1
  O  O308  1  0.24561331  0.24556581  0.88275203  1
  O  O309  1  0.23735025  0.75665358  0.37645168  1
  O  O310  1  0.23547604  0.75627065  0.87187406  1
  O  O311  1  0.74093895  0.24134114  0.37205135  1
  O  O312  1  0.73774365  0.25488916  0.88303751  1
  O  O313  1  0.75548284  0.74049431  0.38378248  1
  O  O314  1  0.74565712  0.74148770  0.87316842  1
  O  O315  1  0.00810764  0.12848211  0.00774924  1
  O  O316  1  -0.00777388  0.11948104  0.51565983  1
  O  O317  1  0.01845610  0.62525396  -0.00396341  1
  O  O318  1  0.00618346  0.61715528  0.50658415  1
  O  O319  1  0.49169660  0.12889275  0.01865793  1
  O  O320  1  0.49892966  0.11779605  0.50642948  1
  O  O321  1  0.51884927  0.62397978  0.00834023  1
  O  O322  1  0.51319166  0.61548228  0.50840373  1
  O  O323  1  0.49628699  0.37830102  0.50108032  1
  O  O324  1  0.48501078  0.36837388  0.99659890  1
  O  O325  1  0.49974491  0.87830604  0.49328456  1
  O  O326  1  0.48576924  0.87639414  1.00104545  1
  O  O327  1  1.00388153  0.38713555  0.50204739  1
  O  O328  1  0.98863710  0.37558468  0.99159008  1
  O  O329  1  0.99280968  0.87829632  0.48871111  1
  O  O330  1  0.99099529  0.87636789  0.98975558  1
  O  O331  1  0.49458485  0.49307975  0.38917598  1
  O  O332  1  0.48766203  0.49060279  0.87463422  1
  O  O333  1  0.49717994  0.98937410  0.38027145  1
  O  O334  1  0.48536523  0.99905699  0.87632834  1
  O  O335  1  0.98908233  0.50695052  0.38437706  1
  O  O336  1  0.99214643  0.49694628  0.87560404  1
  O  O337  1  0.99139468  0.99353034  0.37865557  1
  O  O338  1  0.99313845  0.99082873  0.86803765  1
  O  O339  1  0.01281684  0.00465597  0.12357873  1
  O  O340  1  0.00372265  0.00597488  0.61991156  1
  O  O341  1  0.01189244  0.49614000  0.12472674  1
  O  O342  1  0.00149665  0.50835861  0.61892219  1
  O  O343  1  0.49466751  0.01593934  0.12756711  1
  O  O344  1  0.50409709  0.01105980  0.61792324  1
  O  O345  1  0.49716589  0.51201176  0.13272127  1
  O  O346  1  0.49968655  0.50591729  0.61694867  1
  O  O347  1  0.24799313  0.37847298  0.24389334  1
  O  O348  1  0.25539932  0.37645287  0.74189544  1
  O  O349  1  0.24963369  0.88226781  0.24159002  1
  O  O350  1  0.24070587  0.88624810  0.74570205  1
  O  O351  1  0.73956325  0.38378825  0.24767485  1
  O  O352  1  0.74804716  0.38196453  0.75185486  1
  O  O353  1  0.73751679  0.87410866  0.24289715  1
  O  O354  1  0.74375142  0.86975453  0.73729049  1
  O  O355  1  0.25740650  0.12345390  0.25465076  1
  O  O356  1  0.25591793  0.12286310  0.75299545  1
  O  O357  1  0.26138114  0.61655849  0.24700909  1
  O  O358  1  0.24803354  0.61517518  0.75408364  1
  O  O359  1  0.75496856  0.12659320  0.25398479  1
  O  O360  1  0.75895957  0.13973533  0.74000944  1
  O  O361  1  0.75203444  0.62023139  0.25490164  1
  O  O362  1  0.75836792  0.62750447  0.75990289  1
  O  O363  1  0.37196654  0.11793059  0.36597199  1
  O  O364  1  0.36945510  0.11938818  0.86717816  1
  O  O365  1  0.38329071  0.60995633  0.38181162  1
  O  O366  1  0.37334462  0.61269374  0.88826560  1
  O  O367  1  0.86536565  0.11578508  0.35989394  1
  O  O368  1  0.87569690  0.11348205  0.86621373  1
  O  O369  1  0.86408437  0.61824948  0.36598746  1
  O  O370  1  0.87324738  0.62584188  0.87319585  1
  O  O371  1  0.12869940  0.38101322  0.13265473  1
  O  O372  1  0.14110903  0.37587510  0.61898324  1
  O  O373  1  0.13174964  0.88185414  0.12323831  1
  O  O374  1  0.12135668  0.88999147  0.62482161  1
  O  O375  1  0.62356693  0.36977305  0.13643558  1
  O  O376  1  0.64525958  0.33460670  0.63733269  1
  O  O377  1  0.63654585  0.87159133  0.13251097  1
  O  O378  1  0.63285985  0.87542719  0.63290845  1
  O  O379  1  0.12498310  0.26449807  0.24942401  1
  O  O380  1  0.10744161  0.24431223  0.75394177  1
  O  O381  1  0.12137108  0.75205350  0.25718906  1
  O  O382  1  0.11985950  0.75937103  0.75588177  1
  O  O383  1  0.61766311  0.25688037  0.25609825  1
  O  O384  1  0.60702762  0.24678786  0.76381897  1
  O  O385  1  0.61514236  0.75811181  0.24343895  1
  O  O386  1  0.62245687  0.75996545  0.76112381  1
  O  O387  1  0.38308271  0.24235931  0.25896859  1
  O  O388  1  0.38519860  0.24067343  0.75706135  1
  O  O389  1  0.38817541  0.75125996  0.23911888  1
  O  O390  1  0.38149431  0.75271465  0.74568293  1
  O  O391  1  0.87014083  0.23847292  0.23979077  1
  O  O392  1  0.88485538  0.23360414  0.75959523  1
  O  O393  1  0.87666773  0.74047745  0.24389404  1
  O  O394  1  0.88231921  0.74687580  0.74372181  1
  O  O395  1  0.38366172  0.49175548  0.49519937  1
  O  O396  1  0.36192212  0.48700197  0.99240590  1
  O  O397  1  0.38917603  0.99354344  0.49361686  1
  O  O398  1  0.37633757  0.99410113  0.99295650  1
  O  O399  1  0.88420266  0.50087743  0.48854372  1
  O  O400  1  0.87957249  0.49477546  0.99492539  1
  O  O401  1  0.87793603  0.99388997  0.48702628  1
  O  O402  1  0.87384163  0.99093169  0.98342426  1
  O  O403  1  0.13372199  0.01543555  0.00836148  1
  O  O404  1  0.11405768  0.01503841  0.50194701  1
  O  O405  1  0.12109905  0.51113178  0.01027588  1
  O  O406  1  0.11830241  0.50640239  0.50182142  1
  O  O407  1  0.61853576  0.00331936  -0.00052973  1
  O  O408  1  0.61378297  0.00193592  0.49839588  1
  O  O409  1  0.63365625  0.50808350  -0.00526126  1
  O  O410  1  0.61861523  0.50433915  0.49620145  1
  O  O411  1  0.36253902  0.38082538  0.11941842  1
  O  O412  1  0.36643336  0.38033241  0.61561040  1
  O  O413  1  0.36903284  0.86954096  0.12051384  1
  O  O414  1  0.37790792  0.87983927  0.61060587  1
  O  O415  1  0.87436070  0.36905217  0.11672587  1
  O  O416  1  0.86697624  0.37616276  0.61525689  1
  O  O417  1  0.86704325  0.87536700  0.11601760  1
  O  O418  1  0.86871338  0.87277077  0.61866447  1
  O  O419  1  0.15413668  0.10129841  0.37591117  1
  O  O420  1  0.13096568  0.12495062  0.88289542  1
  O  O421  1  0.12036714  0.63355671  0.38438584  1
  O  O422  1  0.12789606  0.63816982  0.88344645  1
  O  O423  1  0.62935086  0.13055109  0.36978043  1
  O  O424  1  0.61378179  0.13656799  0.88292976  1
  O  O425  1  0.63837628  0.62018621  0.38698201  1
  O  O426  1  0.63375208  0.63215086  0.88780242  1
