# generated using pymatgen
data_V85Zn86O256
_symmetry_space_group_name_H-M   'P 1'
_cell_length_a   16.94554778
_cell_length_b   16.93930331
_cell_length_c   16.93984202
_cell_angle_alpha   89.94451246
_cell_angle_beta   90.06801135
_cell_angle_gamma   89.93516976
_symmetry_Int_Tables_number   1
_chemical_formula_structural   V85Zn86O256
_chemical_formula_sum   'V85 Zn86 O256'
_cell_volume   4862.50123381
_cell_formula_units_Z   1
loop_
 _symmetry_equiv_pos_site_id
 _symmetry_equiv_pos_as_xyz
  1  'x, y, z'
loop_
 _atom_site_type_symbol
 _atom_site_label
 _atom_site_symmetry_multiplicity
 _atom_site_fract_x
 _atom_site_fract_y
 _atom_site_fract_z
 _atom_site_occupancy
  V  V0  1  0.49948283  0.24818541  0.24796079  1
  V  V1  1  0.01396972  0.25063991  0.75064417  1
  V  V2  1  0.12923508  0.62419973  0.50779195  1
  V  V3  1  0.74969743  0.50228521  0.26091424  1
  V  V4  1  0.87716655  0.37100985  0.00331435  1
  V  V5  1  0.37347710  0.75067842  0.12728304  1
  V  V6  1  0.11996524  0.37101171  0.26320100  1
  V  V7  1  0.25439838  0.86063803  0.61820211  1
  V  V8  1  0.50173985  0.75075660  0.25303488  1
  V  V9  1  0.74373344  0.86939568  0.11817099  1
  V  V10  1  0.12280867  0.01191301  0.61912689  1
  V  V11  1  0.12084570  0.50212719  0.12556224  1
  V  V12  1  0.35898778  0.00104902  0.38014498  1
  V  V13  1  0.75081653  0.24977387  0.00472713  1
  V  V14  1  0.37295176  0.62533220  0.25129862  1
  V  V15  1  0.75227384  -0.00124936  0.74646978  1
  V  V16  1  0.62320857  0.25321507  0.86206124  1
  V  V17  1  0.49959668  0.62332838  0.12588343  1
  V  V18  1  0.49685064  0.74898062  0.74891650  1
  V  V19  1  0.90192292  0.87078658  0.46751041  1
  V  V20  1  0.74877925  0.12563193  0.87538161  1
  V  V21  1  0.24845338  0.37329251  0.12362575  1
  V  V22  1  0.00489257  0.49833181  0.51084851  1
  V  V23  1  0.19071406  0.18776408  0.43395834  1
  V  V24  1  0.24820852  0.87973276  0.12587853  1
  V  V25  1  0.50384616  0.37266743  0.85950470  1
  V  V26  1  0.24699155  0.50143342  0.25171578  1
  V  V27  1  -0.00396840  0.87438811  0.86676403  1
  V  V28  1  0.63463814  0.74707798  0.37607297  1
  V  V29  1  0.36768902  0.12412307  0.25342612  1
  V  V30  1  0.62787158  0.12229691  0.49883396  1
  V  V31  1  0.25030316  0.62468628  0.87354999  1
  V  V32  1  0.12142594  0.00650939  0.12662218  1
  V  V33  1  0.37531319  0.25278409  0.62824437  1
  V  V34  1  0.37181290  0.62838966  0.74205039  1
  V  V35  1  0.12627306  0.87304586  0.74542146  1
  V  V36  1  0.87327358  0.62913604  0.24663160  1
  V  V37  1  0.87436650  0.85699189  0.00642993  1
  V  V38  1  0.50162492  -0.00217546  0.00023711  1
  V  V39  1  0.75256986  0.24979959  0.49793875  1
  V  V40  1  0.87356193  0.00041697  0.87708144  1
  V  V41  1  0.62503060  0.37386632  0.25037819  1
  V  V42  1  0.37228026  0.86120044  0.50292071  1
  V  V43  1  0.25198429  0.75307255  0.00266304  1
  V  V44  1  0.37383347  0.49854395  0.37625701  1
  V  V45  1  0.87347611  0.49697835  0.87183780  1
  V  V46  1  0.88082418  0.37600038  0.49783062  1
  V  V47  1  0.75019957  0.63056332  0.87793250  1
  V  V48  1  0.62631027  0.49872202  0.12659353  1
  V  V49  1  0.01127015  0.37140224  0.87085696  1
  V  V50  1  0.74361669  0.49442396  0.74898412  1
  V  V51  1  0.49869044  0.62596043  0.62102242  1
  V  V52  1  0.88239135  0.24870853  0.62435503  1
  V  V53  1  0.49545992  -0.00155947  0.49947535  1
  V  V54  1  0.50121616  0.49817832  -0.00003816  1
  V  V55  1  0.76341492  0.86566586  0.62209348  1
  V  V56  1  0.38135069  0.12773026  0.75325711  1
  V  V57  1  0.37747869  0.37134030  -0.00145782  1
  V  V58  1  0.37136668  0.36900290  0.50077014  1
  V  V59  1  0.12778007  0.75603134  0.87312215  1
  V  V60  1  0.25623360  0.00017523  0.74742569  1
  V  V61  1  0.50152769  0.13142815  0.62641790  1
  V  V62  1  0.75462573  0.37210621  0.12756961  1
  V  V63  1  0.11406350  0.87391666  0.25128334  1
  V  V64  1  0.62427101  0.88431462  0.24889019  1
  V  V65  1  0.87982741  0.12664582  0.74733390  1
  V  V66  1  0.49968314  0.37251726  0.37708048  1
  V  V67  1  0.50237260  0.11708249  0.12772753  1
  V  V68  1  0.75640639  0.11325309  0.37436740  1
  V  V69  1  0.11598079  0.75064402  0.37720468  1
  V  V70  1  -0.00383399  0.64338416  0.62893232  1
  V  V71  1  0.62796164  -0.00286728  0.62402147  1
  V  V72  1  0.62557096  0.87053084  0.74967926  1
  V  V73  1  0.62578917  0.12194510  0.00430400  1
  V  V74  1  -0.01588949  0.26105298  0.25287460  1
  V  V75  1  0.23764611  0.49672063  0.74492221  1
  V  V76  1  0.11840519  0.62580436  -0.00094478  1
  V  V77  1  -0.00489279  0.00278245  0.00355552  1
  V  V78  1  0.23444846  0.37461996  0.62397081  1
  V  V79  1  0.24989237  0.63282030  0.38084985  1
  V  V80  1  0.37521676  0.50012841  0.87295123  1
  V  V81  1  0.63550903  0.62311919  0.49932653  1
  V  V82  1  0.88126717  0.50291396  0.37737121  1
  V  V83  1  0.62940687  0.63112989  0.00257720  1
  V  V84  1  0.87599903  0.11646339  0.24415985  1
  Zn  Zn85  1  0.24516495  0.00674560  0.25131395  1
  Zn  Zn86  1  -0.00495506  0.75102896  0.24397254  1
  Zn  Zn87  1  0.50051577  0.87375935  0.87547532  1
  Zn  Zn88  1  0.87177190  0.63804442  0.73917161  1
  Zn  Zn89  1  0.37292408  0.24676349  0.12300116  1
  Zn  Zn90  1  0.23944007  0.25344056  -0.01282700  1
  Zn  Zn91  1  0.37435682  0.87897876  -0.00174449  1
  Zn  Zn92  1  0.74544790  0.37077953  0.62928813  1
  Zn  Zn93  1  -0.00138678  0.49912513  -0.00260320  1
  Zn  Zn94  1  -0.00679275  0.13854737  0.11943626  1
  Zn  Zn95  1  -0.01196349  0.63134366  0.11719879  1
  Zn  Zn96  1  0.62531950  0.75104357  0.87960318  1
  Zn  Zn97  1  0.49837164  0.87488098  0.37680534  1
  Zn  Zn98  1  0.50280519  0.49806367  0.50175315  1
  Zn  Zn99  1  0.24192589  0.13481988  0.87121499  1
  Zn  Zn100  1  0.12266400  0.13720599  -0.00802605  1
  Zn  Zn101  1  0.37941037  -0.00220298  0.87463234  1
  Zn  Zn102  1  0.62115426  0.49303465  0.62780377  1
  Zn  Zn103  1  0.62629570  0.24712112  0.37539877  1
  Zn  Zn104  1  0.76210601  0.74657645  0.50296264  1
  Zn  Zn105  1  0.75088279  -0.00311256  0.24742357  1
  Zn  Zn106  1  -0.00189059  0.01486983  0.49402882  1
  Zn  Zn107  1  0.18241201  0.19233549  0.18600349  1
  Zn  Zn108  1  0.19492784  0.18910721  0.68522696  1
  Zn  Zn109  1  0.18219717  0.68859691  0.18805956  1
  Zn  Zn110  1  0.18374692  0.68661331  0.68704247  1
  Zn  Zn111  1  0.68797436  0.18512344  0.18763585  1
  Zn  Zn112  1  0.69275826  0.18554547  0.68358718  1
  Zn  Zn113  1  0.69191316  0.68879701  0.18803911  1
  Zn  Zn114  1  0.68598989  0.68332694  0.68853930  1
  Zn  Zn115  1  0.30884144  0.30967498  0.31197920  1
  Zn  Zn116  1  0.31219361  0.31328810  0.80700980  1
  Zn  Zn117  1  0.30815350  0.81730485  0.31502137  1
  Zn  Zn118  1  0.31507326  0.81630728  0.81288274  1
  Zn  Zn119  1  0.81374879  0.31438640  0.31896787  1
  Zn  Zn120  1  0.81464297  0.31191895  0.81498470  1
  Zn  Zn121  1  0.80980126  0.81275165  0.30966058  1
  Zn  Zn122  1  0.81224774  0.80956188  0.80991268  1
  Zn  Zn123  1  0.18854476  0.43922370  0.44183975  1
  Zn  Zn124  1  0.18912455  0.43779951  0.93739869  1
  Zn  Zn125  1  0.14741878  0.96318594  0.41355857  1
  Zn  Zn126  1  0.17104673  0.97163811  0.92077838  1
  Zn  Zn127  1  0.68750535  0.43467742  0.44154851  1
  Zn  Zn128  1  0.68644572  0.43778811  0.93616421  1
  Zn  Zn129  1  0.68802383  0.93284726  0.43854160  1
  Zn  Zn130  1  0.68771106  0.93688854  0.93815196  1
  Zn  Zn131  1  0.31185061  0.06739360  0.05919788  1
  Zn  Zn132  1  0.30638288  0.06207904  0.56235525  1
  Zn  Zn133  1  0.31006207  0.56120347  0.06148579  1
  Zn  Zn134  1  0.31323029  0.55719014  0.56241498  1
  Zn  Zn135  1  0.80963972  0.05690290  0.06819969  1
  Zn  Zn136  1  0.84335375  0.07021043  0.54368603  1
  Zn  Zn137  1  0.81085672  0.55735443  0.06318346  1
  Zn  Zn138  1  0.81683454  0.56345925  0.56671576  1
  Zn  Zn139  1  0.43556528  0.43690142  0.18783088  1
  Zn  Zn140  1  0.43301768  0.44316683  0.68546675  1
  Zn  Zn141  1  0.43507712  0.93887703  0.18834543  1
  Zn  Zn142  1  0.43837946  0.93715666  0.68345195  1
  Zn  Zn143  1  0.93807932  0.44210551  0.18551803  1
  Zn  Zn144  1  0.93424536  0.43631247  0.68876136  1
  Zn  Zn145  1  0.93427029  0.93649161  0.18476389  1
  Zn  Zn146  1  0.94096195  0.93997106  0.68320463  1
  Zn  Zn147  1  0.06199697  0.07663103  0.31242287  1
  Zn  Zn148  1  0.06185167  0.06142208  0.80628952  1
  Zn  Zn149  1  0.05862182  0.56219878  0.31743384  1
  Zn  Zn150  1  0.05900698  0.56295387  0.81152232  1
  Zn  Zn151  1  0.55921623  0.06268441  0.31887510  1
  Zn  Zn152  1  0.56436791  0.06189418  0.81329615  1
  Zn  Zn153  1  0.56356874  0.56243755  0.31642070  1
  Zn  Zn154  1  0.56248028  0.56308536  0.81358009  1
  Zn  Zn155  1  0.43082939  0.18653337  0.43887306  1
  Zn  Zn156  1  0.43930458  0.19041580  0.93628263  1
  Zn  Zn157  1  0.44215391  0.68558940  0.43627760  1
  Zn  Zn158  1  0.43830461  0.68765877  0.93530409  1
  Zn  Zn159  1  0.94570694  0.18766033  0.43005860  1
  Zn  Zn160  1  0.93846664  0.19007569  0.93530672  1
  Zn  Zn161  1  0.93689834  0.68327641  0.43695414  1
  Zn  Zn162  1  0.92620593  0.70083681  0.90087231  1
  Zn  Zn163  1  0.06023913  0.31260141  0.06653813  1
  Zn  Zn164  1  0.06156656  0.30153856  0.55392444  1
  Zn  Zn165  1  0.05998135  0.81347207  0.06347877  1
  Zn  Zn166  1  0.07039513  0.81274588  0.55806032  1
  Zn  Zn167  1  0.56373921  0.30843883  0.06087714  1
  Zn  Zn168  1  0.56615954  0.31263087  0.56436993  1
  Zn  Zn169  1  0.56280575  0.81266009  0.06723261  1
  Zn  Zn170  1  0.56302351  0.80923051  0.56419552  1
  O  O171  1  0.12154476  0.11357034  0.12618464  1
  O  O172  1  0.12799642  0.10997288  0.63632965  1
  O  O173  1  0.13197669  0.61310218  0.11586800  1
  O  O174  1  0.11737931  0.62827915  0.61428009  1
  O  O175  1  0.61634602  0.12869994  0.11638185  1
  O  O176  1  0.62000265  0.11819478  0.61922858  1
  O  O177  1  0.62125168  0.61938527  0.12107139  1
  O  O178  1  0.61710354  0.62123179  0.61663917  1
  O  O179  1  0.37994974  0.37705283  0.38098462  1
  O  O180  1  0.38405160  0.38069093  0.88133401  1
  O  O181  1  0.37606815  0.88288165  0.38413492  1
  O  O182  1  0.38273916  0.87624087  0.88063560  1
  O  O183  1  0.87195853  0.38866273  0.38532721  1
  O  O184  1  0.87945685  0.38325250  0.88190800  1
  O  O185  1  0.88379376  0.87634741  0.36899499  1
  O  O186  1  0.88011918  0.88051395  0.88495187  1
  O  O187  1  0.25706086  -0.00678922  0.37290979  1
  O  O188  1  0.26199798  -0.00529937  0.85597422  1
  O  O189  1  0.25539140  0.50830283  0.36970546  1
  O  O190  1  0.25671298  0.50384850  0.86778641  1
  O  O191  1  0.74610820  0.00962168  0.37319370  1
  O  O192  1  0.75563157  0.00387204  0.86838112  1
  O  O193  1  0.75389780  0.49454817  0.36451859  1
  O  O194  1  0.75374816  0.50379440  0.86653549  1
  O  O195  1  0.24479533  0.49183327  0.13125960  1
  O  O196  1  0.25232909  0.48677896  0.63239482  1
  O  O197  1  0.24116096  0.99375738  0.12379622  1
  O  O198  1  0.24621516  0.99175482  0.63486436  1
  O  O199  1  0.74286849  0.49072546  0.13608395  1
  O  O200  1  0.75269165  0.50227109  0.64173067  1
  O  O201  1  0.75405495  0.97951004  0.12997868  1
  O  O202  1  0.74477474  0.98681759  0.63230024  1
  O  O203  1  0.00785445  0.37152692  0.24813015  1
  O  O204  1  -0.00546557  0.36769680  0.76276763  1
  O  O205  1  0.01078654  0.87348826  0.24470451  1
  O  O206  1  0.00865600  0.88047029  0.76045963  1
  O  O207  1  0.50317868  0.36636048  0.25467075  1
  O  O208  1  0.49640241  0.38248397  0.76091873  1
  O  O209  1  0.50581207  0.86644787  0.24873185  1
  O  O210  1  0.50682087  0.86587932  0.74707091  1
  O  O211  1  0.49535578  0.12993949  0.24518269  1
  O  O212  1  0.49591569  0.11691471  0.73641474  1
  O  O213  1  0.49418216  0.63041088  0.24576347  1
  O  O214  1  0.49260292  0.62922436  0.74423444  1
  O  O215  1  0.98634172  0.13578676  0.24641850  1
  O  O216  1  0.98949367  0.13557203  0.75900590  1
  O  O217  1  0.98212291  0.61840124  0.24919162  1
  O  O218  1  1.00261379  0.62021926  0.73055748  1
  O  O219  1  0.37792587  0.26379194  0.00256983  1
  O  O220  1  0.38017096  0.26176735  0.50993967  1
  O  O221  1  0.36439888  0.74726887  0.00607455  1
  O  O222  1  0.38023815  0.76219444  0.49393230  1
  O  O223  1  0.86546954  0.26118567  -0.00538024  1
  O  O224  1  0.87188032  0.25895873  0.50500144  1
  O  O225  1  0.87921989  0.75964949  -0.00577936  1
  O  O226  1  0.87637898  0.76710065  0.48867363  1
  O  O227  1  0.11404314  0.22785687  0.49036383  1
  O  O228  1  0.12557404  0.25029376  1.00406899  1
  O  O229  1  0.12607694  0.73794613  0.48892780  1
  O  O230  1  0.13779260  0.74508285  0.99681409  1
  O  O231  1  0.63602617  0.23984345  0.49940055  1
  O  O232  1  0.63121991  0.23907413  0.99290729  1
  O  O233  1  0.62328118  0.74213248  0.49133287  1
  O  O234  1  0.61605988  0.73503909  1.00035921  1
  O  O235  1  0.49826790  0.24109054  0.13339302  1
  O  O236  1  0.49524311  0.23706428  0.61822473  1
  O  O237  1  0.49502427  0.74374545  0.13579667  1
  O  O238  1  0.50342890  0.73778275  0.63743276  1
  O  O239  1  1.00330933  0.25187011  0.14530464  1
  O  O240  1  0.98798154  0.25544065  0.63433428  1
  O  O241  1  1.01225137  0.74022742  0.13100636  1
  O  O242  1  1.00615341  0.74189374  0.62488913  1
  O  O243  1  0.00032344  0.24984747  0.35347176  1
  O  O244  1  -0.00446260  0.26380329  0.86635438  1
  O  O245  1  0.01355767  0.73972143  0.36698812  1
  O  O246  1  0.02169716  0.76460763  0.88874244  1
  O  O247  1  0.49905741  0.25848073  0.36813684  1
  O  O248  1  0.51081254  0.26052067  0.87733916  1
  O  O249  1  0.50538528  0.75130638  0.36286929  1
  O  O250  1  0.50411385  0.74844935  0.86213592  1
  O  O251  1  0.25523579  0.13306062  0.49278746  1
  O  O252  1  0.24744387  0.13113277  0.99409160  1
  O  O253  1  0.24218828  0.61613995  0.49260732  1
  O  O254  1  0.24230948  0.63103504  0.99294272  1
  O  O255  1  0.75195683  0.12836238  0.49173772  1
  O  O256  1  0.74487400  0.12980437  0.99780087  1
  O  O257  1  0.73962767  0.62882532  0.50767641  1
  O  O258  1  0.73845032  0.61533414  0.99421004  1
  O  O259  1  0.25987703  0.37790740  0.00738039  1
  O  O260  1  0.25902454  0.38336777  0.51443245  1
  O  O261  1  0.24981101  0.86633877  0.01270601  1
  O  O262  1  0.25880611  0.87555932  0.51512383  1
  O  O263  1  0.75454008  0.36771596  0.00496537  1
  O  O264  1  0.76058919  0.36513799  0.49910413  1
  O  O265  1  0.76036292  0.87567303  0.00679958  1
  O  O266  1  0.74680930  0.87004961  0.51646765  1
  O  O267  1  0.12561907  0.49548945  0.24323196  1
  O  O268  1  0.13915241  0.50475778  0.75442098  1
  O  O269  1  0.12620368  0.99266929  0.24110898  1
  O  O270  1  0.13351817  0.98784766  0.74131247  1
  O  O271  1  0.63124105  0.49529139  0.24768484  1
  O  O272  1  0.64019335  0.50531751  0.75077570  1
  O  O273  1  0.62082418  0.98667314  0.25631129  1
  O  O274  1  0.63079617  0.99147841  0.74447759  1
  O  O275  1  0.37295259  0.00658944  0.26073368  1
  O  O276  1  0.37195548  0.00891649  0.74559038  1
  O  O277  1  0.36870519  0.50520913  0.25607569  1
  O  O278  1  0.36778542  0.51201271  0.75530725  1
  O  O279  1  0.87590600  0.01327618  0.24963816  1
  O  O280  1  0.87344819  0.00727786  0.75512991  1
  O  O281  1  0.86796533  0.50240584  0.25881174  1
  O  O282  1  0.86697574  0.50584726  0.75867265  1
  O  O283  1  0.12615209  0.38484930  0.36066095  1
  O  O284  1  0.10914458  0.38181630  0.87736887  1
  O  O285  1  0.14025561  0.85989865  0.36092405  1
  O  O286  1  0.12076791  0.87495022  0.86676045  1
  O  O287  1  0.61595585  0.37146622  0.36954678  1
  O  O288  1  0.61553835  0.36575200  0.88077158  1
  O  O289  1  0.62032233  0.86601874  0.36796022  1
  O  O290  1  0.62464551  0.87295021  0.86259125  1
  O  O291  1  0.38614439  0.12658256  0.13293136  1
  O  O292  1  0.38186008  0.13219504  0.63014068  1
  O  O293  1  0.37811158  0.62995746  0.13111148  1
  O  O294  1  0.38146312  0.62131720  0.63237201  1
  O  O295  1  0.87034765  0.12787349  0.13942260  1
  O  O296  1  0.86392070  0.13264850  0.64292168  1
  O  O297  1  0.87245417  0.61556708  0.14053339  1
  O  O298  1  0.88976118  0.63253841  0.62272448  1
  O  O299  1  0.25222261  0.26598640  0.12637975  1
  O  O300  1  0.26035055  0.26548116  0.62896280  1
  O  O301  1  0.25325360  0.75479971  0.11953228  1
  O  O302  1  0.24976529  0.76188033  0.62902081  1
  O  O303  1  0.74249314  0.25580157  0.11195238  1
  O  O304  1  0.76073422  0.24679473  0.61234963  1
  O  O305  1  0.74977803  0.76807772  0.12975500  1
  O  O306  1  0.74663804  0.76177972  0.62710728  1
  O  O307  1  0.24611278  0.26213392  0.39001699  1
  O  O308  1  0.25583200  0.24796812  0.87325975  1
  O  O309  1  0.24677214  0.73546724  0.36977403  1
  O  O310  1  0.24349274  0.74890322  0.88317601  1
  O  O311  1  0.74941161  0.24273428  0.38632967  1
  O  O312  1  0.74384459  0.24708507  0.88621025  1
  O  O313  1  0.73714514  0.75277497  0.37809004  1
  O  O314  1  0.74407492  0.73393437  0.87481826  1
  O  O315  1  -0.00137753  0.11745208  0.00182986  1
  O  O316  1  -0.05375715  0.11433584  0.51082466  1
  O  O317  1  0.01422901  0.62486584  -0.00609321  1
  O  O318  1  0.00673016  0.61970584  0.51101361  1
  O  O319  1  0.50660456  0.12035617  0.00796244  1
  O  O320  1  0.50431550  0.11756022  0.50580249  1
  O  O321  1  0.50403143  0.61741780  0.00659944  1
  O  O322  1  0.50660878  0.62347393  0.50801905  1
  O  O323  1  0.49371443  0.37423356  0.49030650  1
  O  O324  1  0.49389689  0.38153511  0.99839675  1
  O  O325  1  0.49152612  0.88202049  0.50402102  1
  O  O326  1  0.50345195  0.88689480  1.00265994  1
  O  O327  1  0.98879788  0.38081175  0.50560360  1
  O  O328  1  0.99161009  0.37498298  0.98975105  1
  O  O329  1  1.00220418  0.87208201  0.48792208  1
  O  O330  1  0.98745633  0.88016431  0.99510387  1
  O  O331  1  0.49322000  0.48603290  0.37173540  1
  O  O332  1  0.49546762  0.49444802  0.88103598  1
  O  O333  1  0.49183427  0.99752256  0.38899314  1
  O  O334  1  0.50118549  0.99842346  0.88631559  1
  O  O335  1  0.99059261  0.50489709  0.39169668  1
  O  O336  1  0.99163047  0.49064872  0.87477445  1
  O  O337  1  1.04086641  1.00133900  0.39000627  1
  O  O338  1  0.99286092  0.99052206  0.88218452  1
  O  O339  1  0.00284785  0.00435400  0.11872358  1
  O  O340  1  0.01868187  -0.00827665  0.61849688  1
  O  O341  1  0.00814176  0.50691682  0.11776745  1
  O  O342  1  -0.00725931  0.50287554  0.61368457  1
  O  O343  1  0.49891151  0.01053757  0.12017526  1
  O  O344  1  0.50535907  0.00688335  0.61419802  1
  O  O345  1  0.50583207  0.50493827  0.12226808  1
  O  O346  1  0.50112278  0.51306436  0.62454028  1
  O  O347  1  0.23977581  0.38142864  0.24430577  1
  O  O348  1  0.25598787  0.38490746  0.73458122  1
  O  O349  1  0.24464634  0.87584566  0.23606539  1
  O  O350  1  0.24662860  0.87964164  0.74038481  1
  O  O351  1  0.74327739  0.37834328  0.24734089  1
  O  O352  1  0.75551312  0.39063025  0.75289253  1
  O  O353  1  0.74044565  0.87634022  0.24294212  1
  O  O354  1  0.74374746  0.87655187  0.74481788  1
  O  O355  1  0.26553925  0.12716417  0.23740825  1
  O  O356  1  0.26325437  0.11722555  0.74862085  1
  O  O357  1  0.25455352  0.61954510  0.25622648  1
  O  O358  1  0.25551521  0.62059960  0.75302616  1
  O  O359  1  0.75703760  0.12216617  0.25500865  1
  O  O360  1  0.75559073  0.11765880  0.75751801  1
  O  O361  1  0.75924317  0.61383173  0.24751032  1
  O  O362  1  0.75352676  0.61680077  0.75929323  1
  O  O363  1  0.38083310  0.11393122  0.36585108  1
  O  O364  1  0.38393217  0.12448981  0.85933729  1
  O  O365  1  0.36955488  0.61960172  0.37145873  1
  O  O366  1  0.36830427  0.61968323  0.86872527  1
  O  O367  1  0.86427516  0.13318898  0.35613991  1
  O  O368  1  0.86735401  0.12141019  0.86835698  1
  O  O369  1  0.87258866  0.61158933  0.36675551  1
  O  O370  1  0.86376668  0.60489965  0.89120582  1
  O  O371  1  0.13097204  0.38884789  0.12986863  1
  O  O372  1  0.13645852  0.36801183  0.61731771  1
  O  O373  1  0.13104922  0.88306509  0.13163806  1
  O  O374  1  0.13745799  0.87678340  0.63003978  1
  O  O375  1  0.63009713  0.37867686  0.13133387  1
  O  O376  1  0.63276994  0.38039262  0.61918611  1
  O  O377  1  0.63405854  0.87315173  0.13273436  1
  O  O378  1  0.62883835  0.87791985  0.63582415  1
  O  O379  1  0.12071509  0.26877872  0.24763718  1
  O  O380  1  0.11271033  0.24409378  0.74480833  1
  O  O381  1  0.12528348  0.75701205  0.25778777  1
  O  O382  1  0.13186353  0.76333422  0.75938383  1
  O  O383  1  0.61354529  0.25268757  0.25211412  1
  O  O384  1  0.63466287  0.24490056  0.76307129  1
  O  O385  1  0.61795821  0.75353544  0.25661092  1
  O  O386  1  0.61707354  0.75538105  0.75182064  1
  O  O387  1  0.38505850  0.24400214  0.25013641  1
  O  O388  1  0.37924941  0.24368237  0.73595715  1
  O  O389  1  0.38193692  0.74631816  0.24745555  1
  O  O390  1  0.38100715  0.73698423  0.75482750  1
  O  O391  1  0.88036737  0.25058595  0.24885973  1
  O  O392  1  0.87776554  0.24439839  0.74339577  1
  O  O393  1  0.87307353  0.73190715  0.25641048  1
  O  O394  1  0.89189137  0.73490722  0.79422246  1
  O  O395  1  0.38019425  0.48802533  0.49333796  1
  O  O396  1  0.37981686  0.49170962  0.99479694  1
  O  O397  1  0.37924291  0.99389397  0.49623441  1
  O  O398  1  0.38909612  1.00121161  0.99993187  1
  O  O399  1  0.87830227  0.49512324  0.49517909  1
  O  O400  1  0.87400540  0.48540760  0.99434985  1
  O  O401  1  0.87673766  0.96510315  0.50469006  1
  O  O402  1  0.88222186  0.99614348  0.99632796  1
  O  O403  1  0.10607506  -0.01011124  0.01317458  1
  O  O404  1  0.13946631  0.00379074  0.52006152  1
  O  O405  1  0.12591514  0.50872496  0.00644750  1
  O  O406  1  0.11538447  0.51025906  0.49601069  1
  O  O407  1  0.61925229  0.01390573  -0.00531103  1
  O  O408  1  0.61691035  0.00240889  0.50431532  1
  O  O409  1  0.61900127  0.50613177  0.00709289  1
  O  O410  1  0.62248519  0.51007890  0.49841102  1
  O  O411  1  0.36700498  0.37589536  0.11720919  1
  O  O412  1  0.37653456  0.36836948  0.61731287  1
  O  O413  1  0.36748348  0.86819723  0.12312168  1
  O  O414  1  0.36419380  0.87629468  0.61830721  1
  O  O415  1  0.86652185  0.38022996  0.11655642  1
  O  O416  1  0.86806978  0.36567617  0.61887190  1
  O  O417  1  0.86906781  0.87206865  0.11153063  1
  O  O418  1  0.86225612  0.86996254  0.63676902  1
  O  O419  1  0.15137362  0.13224253  0.35728169  1
  O  O420  1  0.13548253  0.08575168  0.88635346  1
  O  O421  1  0.13277970  0.63012716  0.38135086  1
  O  O422  1  0.13025470  0.63537410  0.87884273  1
  O  O423  1  0.63357667  0.12638828  0.38166504  1
  O  O424  1  0.63061698  0.13238594  0.88158259  1
  O  O425  1  0.61884822  0.63438595  0.38567318  1
  O  O426  1  0.63212498  0.62237612  0.88588721  1
