# generated using pymatgen
data_V85Zn86O256
_symmetry_space_group_name_H-M   'P 1'
_cell_length_a   16.94146186
_cell_length_b   16.94846214
_cell_length_c   16.92877372
_cell_angle_alpha   89.99558881
_cell_angle_beta   89.95669758
_cell_angle_gamma   90.02069073
_symmetry_Int_Tables_number   1
_chemical_formula_structural   V85Zn86O256
_chemical_formula_sum   'V85 Zn86 O256'
_cell_volume   4860.78628080
_cell_formula_units_Z   1
loop_
 _symmetry_equiv_pos_site_id
 _symmetry_equiv_pos_as_xyz
  1  'x, y, z'
loop_
 _atom_site_type_symbol
 _atom_site_label
 _atom_site_symmetry_multiplicity
 _atom_site_fract_x
 _atom_site_fract_y
 _atom_site_fract_z
 _atom_site_occupancy
  V  V0  1  -0.00832582  0.88144698  0.37148558  1
  V  V1  1  0.75199386  0.37881252  0.62985957  1
  V  V2  1  0.39127346  0.87638180  0.49634960  1
  V  V3  1  0.12769094  0.74446108  0.88733817  1
  V  V4  1  0.43346231  0.19634771  0.69202804  1
  V  V5  1  0.12419472  0.25079079  0.87631128  1
  V  V6  1  0.12450750  0.50141111  0.62313738  1
  V  V7  1  0.25458709  0.12648779  0.87292847  1
  V  V8  1  0.88199181  0.62322655  0.24321082  1
  V  V9  1  0.63052102  0.37282376  0.75193500  1
  V  V10  1  0.50320626  0.37265578  0.87900868  1
  V  V11  1  0.49504983  0.75503853  0.24928944  1
  V  V12  1  -0.00523198  0.00479576  -0.00647973  1
  V  V13  1  0.87441178  0.75188224  0.62241627  1
  V  V14  1  0.80786474  0.30706304  0.05950301  1
  V  V15  1  0.75408406  -0.00203329  0.75198417  1
  V  V16  1  0.36721177  0.36992278  0.50099606  1
  V  V17  1  0.25482083  0.00242190  0.74722847  1
  V  V18  1  -0.00176476  0.37576422  0.88653979  1
  V  V19  1  0.87687453  0.49736348  0.37189664  1
  V  V20  1  0.00721966  0.12484312  0.62197525  1
  V  V21  1  -0.00043191  0.62610762  0.62065916  1
  V  V22  1  0.87026445  0.74692372  0.11455758  1
  V  V23  1  0.87102626  0.87999103  -0.00791592  1
  V  V24  1  0.12295309  0.00131749  0.12236269  1
  V  V25  1  0.25076375  -0.00102417  0.25233043  1
  V  V26  1  0.37542002  0.24885892  0.12649696  1
  V  V27  1  0.87810095  0.37369875  0.49912825  1
  V  V28  1  0.12462455  0.87394944  0.24552859  1
  V  V29  1  0.37791668  0.50191591  0.37555074  1
  V  V30  1  0.25928680  0.86437287  0.10910925  1
  V  V31  1  0.12154904  0.23795688  0.36919774  1
  V  V32  1  0.62745495  0.49786339  0.63440452  1
  V  V33  1  0.87706243  0.24967213  0.62714270  1
  V  V34  1  0.87072046  0.88439568  0.49600055  1
  V  V35  1  0.62126491  0.87645590  0.75516993  1
  V  V36  1  0.62664055  -0.00154532  0.12911393  1
  V  V37  1  0.49738674  0.75281227  0.75061332  1
  V  V38  1  0.63026181  0.75290267  0.88322142  1
  V  V39  1  0.87958502  0.11992390  0.75407727  1
  V  V40  1  0.49363469  -0.00099687  -0.00127098  1
  V  V41  1  0.12167141  0.37664311  0.75108429  1
  V  V42  1  0.00899770  0.37521511  0.36641252  1
  V  V43  1  0.50244896  0.49166991  0.50338462  1
  V  V44  1  0.12503054  0.87655752  0.74684853  1
  V  V45  1  0.62348524  0.24480570  0.86930424  1
  V  V46  1  0.74943007  0.24494709  0.50011296  1
  V  V47  1  0.00101983  0.49946471  0.49535175  1
  V  V48  1  0.37954020  0.00390975  0.87399667  1
  V  V49  1  0.00729043  0.00377085  0.49688544  1
  V  V50  1  0.44273051  0.82528573  0.93178891  1
  V  V51  1  0.49355198  0.62118164  0.12558403  1
  V  V52  1  0.61204383  0.00778159  0.62561991  1
  V  V53  1  0.25049631  0.50372433  0.75220811  1
  V  V54  1  0.12087456  0.12741672  0.00455490  1
  V  V55  1  0.24283535  0.24073789  0.50499316  1
  V  V56  1  0.24184899  0.49035325  0.25383065  1
  V  V57  1  0.86952528  0.49395713  0.87022708  1
  V  V58  1  0.62156220  0.75471235  0.37464099  1
  V  V59  1  0.25089974  0.75304421  0.49851997  1
  V  V60  1  -0.00003763  0.52067933  0.00261709  1
  V  V61  1  -0.00653033  0.24796798  0.23423550  1
  V  V62  1  0.74961002  0.87336415  0.12153403  1
  V  V63  1  0.00118404  0.74984717  0.74904121  1
  V  V64  1  0.62994940  0.25243371  0.37412972  1
  V  V65  1  0.49743789  0.12186608  0.12529187  1
  V  V66  1  0.63509785  0.62089282  0.00822941  1
  V  V67  1  0.37884463  0.49712790  0.87459736  1
  V  V68  1  0.74974837  0.62626694  0.86700286  1
  V  V69  1  0.25109204  0.25201474  0.00252424  1
  V  V70  1  0.25177779  0.62875643  0.37085450  1
  V  V71  1  0.12249323  0.75370181  0.37313151  1
  V  V72  1  0.37478365  0.74925978  0.62376472  1
  V  V73  1  -0.00484520  0.75432881  0.24157567  1
  V  V74  1  0.62483695  0.62057073  0.50138640  1
  V  V75  1  0.74643210  0.49448111  0.23221823  1
  V  V76  1  0.50215414  0.25098460  0.25189855  1
  V  V77  1  0.37817878  0.37890225  0.00406742  1
  V  V78  1  0.75018419  0.61968494  0.37315861  1
  V  V79  1  0.75031293  0.74870238  0.49985915  1
  V  V80  1  0.37321066  0.62249614  0.75012380  1
  V  V81  1  0.62976344  0.12263931  -0.00194327  1
  V  V82  1  0.87481196  0.11880474  0.24384545  1
  V  V83  1  0.39327821  -0.00168146  0.37826498  1
  V  V84  1  0.75605375  0.12522036  0.87643335  1
  Zn  Zn85  1  0.49878485  0.61890421  0.62865705  1
  Zn  Zn86  1  0.11822326  0.50300293  0.11726446  1
  Zn  Zn87  1  0.76098218  -0.00636770  0.25933914  1
  Zn  Zn88  1  0.24671706  0.11736311  0.38031293  1
  Zn  Zn89  1  0.75643915  0.11544347  0.37869965  1
  Zn  Zn90  1  0.24920983  0.37314610  0.62561294  1
  Zn  Zn91  1  0.00035294  0.24948018  0.75047658  1
  Zn  Zn92  1  0.50312580  0.37484452  0.37289768  1
  Zn  Zn93  1  0.25156673  0.87939096  0.62060479  1
  Zn  Zn94  1  0.12344342  0.62520308  0.49328694  1
  Zn  Zn95  1  0.37298075  0.62901634  0.24671169  1
  Zn  Zn96  1  0.24453342  0.62330450  0.89294389  1
  Zn  Zn97  1  0.60362300  0.11275696  0.49596871  1
  Zn  Zn98  1  0.87022061  0.62269813  0.74605451  1
  Zn  Zn99  1  0.74702568  0.87598164  0.62560375  1
  Zn  Zn100  1  0.13164905  0.00568905  0.62002239  1
  Zn  Zn101  1  0.62549376  0.87759491  0.25665924  1
  Zn  Zn102  1  0.37289031  0.12469708  0.25292040  1
  Zn  Zn103  1  0.24399544  0.37204580  0.13519810  1
  Zn  Zn104  1  0.63064741  0.37571305  0.23495882  1
  Zn  Zn105  1  -0.00441401  0.87895769  0.87137407  1
  Zn  Zn106  1  0.56133018  0.45733830  0.06120401  1
  Zn  Zn107  1  0.18628192  0.18674019  0.18993925  1
  Zn  Zn108  1  0.19081496  0.18802862  0.68990946  1
  Zn  Zn109  1  0.18192033  0.67979234  0.07458892  1
  Zn  Zn110  1  0.18600398  0.68640679  0.68617962  1
  Zn  Zn111  1  0.69392644  0.18528105  0.18800170  1
  Zn  Zn112  1  0.68847095  0.18718820  0.68801502  1
  Zn  Zn113  1  0.69084173  0.68792265  0.18930064  1
  Zn  Zn114  1  0.68460903  0.68879890  0.68852920  1
  Zn  Zn115  1  0.31434375  0.30886810  0.32019331  1
  Zn  Zn116  1  0.30933351  0.31667697  0.81432100  1
  Zn  Zn117  1  0.31444806  0.81868334  0.30977703  1
  Zn  Zn118  1  0.30406594  0.81097882  0.80982924  1
  Zn  Zn119  1  0.81674547  0.31092573  0.30850557  1
  Zn  Zn120  1  0.81230471  0.30809840  0.81726449  1
  Zn  Zn121  1  0.80893445  0.81179278  0.31005538  1
  Zn  Zn122  1  0.81037988  0.81066275  0.81148944  1
  Zn  Zn123  1  0.18538476  0.43595006  0.43327871  1
  Zn  Zn124  1  0.18613321  0.44023841  0.94289144  1
  Zn  Zn125  1  0.18747931  0.93482196  0.43476518  1
  Zn  Zn126  1  0.18534126  0.93660227  0.93376054  1
  Zn  Zn127  1  0.68811872  0.43124987  0.43765033  1
  Zn  Zn128  1  0.69423159  0.43685376  0.93771962  1
  Zn  Zn129  1  0.68459567  0.93927990  0.44170461  1
  Zn  Zn130  1  0.68765999  0.94064221  0.93697964  1
  Zn  Zn131  1  0.30956389  0.05911602  0.06278143  1
  Zn  Zn132  1  0.32371629  0.06603073  0.56321864  1
  Zn  Zn133  1  0.31374604  0.55849884  0.06674095  1
  Zn  Zn134  1  0.31142579  0.56247383  0.56155767  1
  Zn  Zn135  1  0.81447131  0.06722617  0.06783543  1
  Zn  Zn136  1  0.81209358  0.06150594  0.56907863  1
  Zn  Zn137  1  0.81729794  0.56107165  0.05473526  1
  Zn  Zn138  1  0.81347302  0.56101928  0.56191972  1
  Zn  Zn139  1  0.43370332  0.43530015  0.19315129  1
  Zn  Zn140  1  0.45523327  0.39570666  0.67456405  1
  Zn  Zn141  1  0.43506365  0.93379743  0.18798622  1
  Zn  Zn142  1  0.43463728  0.93440751  0.68915344  1
  Zn  Zn143  1  0.93322288  0.43117294  0.18040459  1
  Zn  Zn144  1  0.93907558  0.43875329  0.69022833  1
  Zn  Zn145  1  0.93735661  0.94093477  0.17821308  1
  Zn  Zn146  1  0.93806563  0.93844484  0.68319888  1
  Zn  Zn147  1  0.05630771  0.06306257  0.30743420  1
  Zn  Zn148  1  0.06586546  0.06257867  0.81390169  1
  Zn  Zn149  1  0.10586435  0.61481324  0.25212928  1
  Zn  Zn150  1  0.05787459  0.56407655  0.81311373  1
  Zn  Zn151  1  0.56981407  0.06975501  0.31232197  1
  Zn  Zn152  1  0.55748632  0.06501242  0.80625419  1
  Zn  Zn153  1  0.56400171  0.56345924  0.31013463  1
  Zn  Zn154  1  0.56196198  0.56302245  0.81516661  1
  Zn  Zn155  1  0.43291986  0.18363007  0.43784934  1
  Zn  Zn156  1  0.43944447  0.18887640  0.93494024  1
  Zn  Zn157  1  0.44098620  0.68517092  0.43860804  1
  Zn  Zn158  1  0.43436583  0.65969526  0.94681614  1
  Zn  Zn159  1  0.93507878  0.18431227  0.43292871  1
  Zn  Zn160  1  0.93792598  0.19037432  0.94021097  1
  Zn  Zn161  1  0.93670105  0.68959971  0.43313803  1
  Zn  Zn162  1  0.93355406  0.69152260  0.93180791  1
  Zn  Zn163  1  0.06725054  0.32194258  0.06629763  1
  Zn  Zn164  1  0.06513585  0.31091371  0.56007130  1
  Zn  Zn165  1  0.05771374  0.82035391  0.06207296  1
  Zn  Zn166  1  0.06297123  0.81668504  0.56081290  1
  Zn  Zn167  1  0.58146562  0.29438002  0.06883126  1
  Zn  Zn168  1  0.53989821  0.27496227  0.54962284  1
  Zn  Zn169  1  0.56717558  0.80577058  0.06973374  1
  Zn  Zn170  1  0.56571643  0.81113605  0.56821994  1
  O  O171  1  0.13278612  0.11795592  0.11204235  1
  O  O172  1  0.11088551  0.12552469  0.63106027  1
  O  O173  1  0.12046061  0.61387571  0.14072301  1
  O  O174  1  0.11705557  0.61879756  0.61999740  1
  O  O175  1  0.62021586  0.11621435  0.11598020  1
  O  O176  1  0.62852557  0.11048095  0.62776795  1
  O  O177  1  0.62593681  0.62811386  0.11182689  1
  O  O178  1  0.62436059  0.61440354  0.62050650  1
  O  O179  1  0.37782398  0.38432668  0.38498404  1
  O  O180  1  0.38409454  0.37829785  0.88071203  1
  O  O181  1  0.37522339  0.88903254  0.38152080  1
  O  O182  1  0.37566853  0.87982430  0.87407122  1
  O  O183  1  0.88384616  0.37788631  0.38040302  1
  O  O184  1  0.88317019  0.38625665  0.86542807  1
  O  O185  1  0.88065096  0.86934356  0.38270572  1
  O  O186  1  0.87245652  0.87038832  0.88830266  1
  O  O187  1  0.25144581  -0.00028684  0.36591034  1
  O  O188  1  0.25947599  0.00630906  0.87117827  1
  O  O189  1  0.25820315  0.50725954  0.37403485  1
  O  O190  1  0.25793333  0.49959712  0.86861148  1
  O  O191  1  0.73809062  0.00273148  0.36983541  1
  O  O192  1  0.74345261  0.01036035  0.86084865  1
  O  O193  1  0.75706269  0.50897761  0.37729570  1
  O  O194  1  0.76355149  0.50681053  0.87467471  1
  O  O195  1  0.25961291  0.49780711  0.14878928  1
  O  O196  1  0.23993826  0.50106905  0.63226691  1
  O  O197  1  0.24010942  0.99367472  0.13039815  1
  O  O198  1  0.25123528  1.00288063  0.63262770  1
  O  O199  1  0.75431079  0.50417089  0.13382159  1
  O  O200  1  0.74460624  0.48651112  0.62016844  1
  O  O201  1  0.74045632  0.99388700  0.12948716  1
  O  O202  1  0.74144597  0.99755206  0.63820734  1
  O  O203  1  -0.00722183  0.36154586  0.25673675  1
  O  O204  1  0.01169353  0.37628640  0.75774204  1
  O  O205  1  -0.00038549  0.87280030  0.25451747  1
  O  O206  1  0.00637369  0.87022067  0.74979885  1
  O  O207  1  0.50133537  0.36135586  0.25089879  1
  O  O208  1  0.51831932  0.38344550  0.76894493  1
  O  O209  1  0.50565900  0.85879789  0.24391051  1
  O  O210  1  0.50483068  0.86166640  0.75076371  1
  O  O211  1  0.49950745  0.13505899  0.24303959  1
  O  O212  1  0.49606300  0.13997662  0.74935103  1
  O  O213  1  0.50102677  0.63208461  0.24086175  1
  O  O214  1  0.49326611  0.63571646  0.75235088  1
  O  O215  1  0.99147251  0.13845368  0.25102107  1
  O  O216  1  0.99440218  0.12363480  0.74460463  1
  O  O217  1  0.98628902  0.63827785  0.25620812  1
  O  O218  1  0.99833978  0.63519924  0.73993977  1
  O  O219  1  0.37290895  0.25950233  0.00494852  1
  O  O220  1  0.35321046  0.25960398  0.48555628  1
  O  O221  1  0.38974449  0.76164679  -0.01488434  1
  O  O222  1  0.36964892  0.75472078  0.50191030  1
  O  O223  1  0.86325309  0.24167818  0.00321425  1
  O  O224  1  0.87064334  0.25576747  0.50694863  1
  O  O225  1  0.88056935  0.75988994  0.00927478  1
  O  O226  1  0.86969201  0.75766267  0.50372309  1
  O  O227  1  0.13528200  0.25295599  0.48670838  1
  O  O228  1  0.13008219  0.24418518  0.99636892  1
  O  O229  1  0.13268831  0.75141891  0.49150307  1
  O  O230  1  0.11768224  0.75157168  0.98998655  1
  O  O231  1  0.63929268  0.26114935  0.49150128  1
  O  O232  1  0.62057494  0.22935457  0.98599441  1
  O  O233  1  0.62975851  0.74128603  0.49625746  1
  O  O234  1  0.62046300  0.73880105  0.98943662  1
  O  O235  1  0.49463787  0.24052979  0.13008694  1
  O  O236  1  0.48520203  0.27987702  0.64845941  1
  O  O237  1  0.50784182  0.73698843  0.14050540  1
  O  O238  1  0.49462891  0.74479862  0.63539710  1
  O  O239  1  1.00849618  0.25130833  0.13681327  1
  O  O240  1  0.99500535  0.24342248  0.62573910  1
  O  O241  1  0.98906073  0.76005914  0.13606560  1
  O  O242  1  0.99487867  0.74689608  0.62795663  1
  O  O243  1  0.01023287  0.25545190  0.37382308  1
  O  O244  1  0.00610383  0.25824047  0.87221898  1
  O  O245  1  0.00054745  0.76266430  0.36642030  1
  O  O246  1  0.00820742  0.75386839  0.86450870  1
  O  O247  1  0.50793764  0.25038654  0.36532626  1
  O  O248  1  0.50999119  0.26024977  0.87858236  1
  O  O249  1  0.51055148  0.73854490  0.36204062  1
  O  O250  1  0.50124714  0.75505892  0.87415567  1
  O  O251  1  0.25147947  0.13741638  0.50008202  1
  O  O252  1  0.24394055  0.12981294  0.99108675  1
  O  O253  1  0.24880721  0.63586882  0.48940520  1
  O  O254  1  0.25261381  0.62614760  1.00489958  1
  O  O255  1  0.75363725  0.13868241  0.50442967  1
  O  O256  1  0.74008096  0.10840572  0.98840059  1
  O  O257  1  0.74605116  0.62842561  0.49280648  1
  O  O258  1  0.73974103  0.62360829  0.98923580  1
  O  O259  1  0.26030708  0.36669455  -0.00240033  1
  O  O260  1  0.25228882  0.36694520  0.49833743  1
  O  O261  1  0.24701991  0.87980835  0.00952833  1
  O  O262  1  0.25619314  0.86300620  0.49845337  1
  O  O263  1  0.76168147  0.37023020  -0.00624425  1
  O  O264  1  0.75977444  0.36790359  0.50871662  1
  O  O265  1  0.75634706  0.88427577  0.01096206  1
  O  O266  1  0.75610150  0.86736171  0.50287496  1
  O  O267  1  0.14252496  0.49936157  0.26321175  1
  O  O268  1  0.12897841  0.49607017  0.74646070  1
  O  O269  1  0.12863298  0.99594483  0.24101406  1
  O  O270  1  0.13667473  0.99278754  0.75094078  1
  O  O271  1  0.64394595  0.50152090  0.25346578  1
  O  O272  1  0.62434279  0.49593169  0.74026930  1
  O  O273  1  0.61856559  0.99787696  0.23614965  1
  O  O274  1  0.62871187  0.99253919  0.74634831  1
  O  O275  1  0.36908105  -0.00203913  0.26199688  1
  O  O276  1  0.36332752  -0.00580414  0.75860943  1
  O  O277  1  0.37242274  0.50254970  0.26616040  1
  O  O278  1  0.36507957  0.50025729  0.75721506  1
  O  O279  1  0.88021655  0.01257886  0.24581315  1
  O  O280  1  0.86701094  0.00663533  0.74506383  1
  O  O281  1  0.86924594  0.50682382  0.25176928  1
  O  O282  1  0.88277361  0.50608160  0.76470910  1
  O  O283  1  0.11264327  0.36496189  0.37603217  1
  O  O284  1  0.11827440  0.37187530  0.86971869  1
  O  O285  1  0.11515422  0.87093425  0.36623772  1
  O  O286  1  0.12355667  0.86425662  0.86263763  1
  O  O287  1  0.62442335  0.36422279  0.36870768  1
  O  O288  1  0.62359991  0.36640648  0.87381667  1
  O  O289  1  0.62862199  0.85761109  0.37775077  1
  O  O290  1  0.62917781  0.86743496  0.86596760  1
  O  O291  1  0.38068982  0.12909056  0.12584545  1
  O  O292  1  0.38063168  0.13744911  0.62858242  1
  O  O293  1  0.39061968  0.62718728  0.12587487  1
  O  O294  1  0.37667670  0.62952900  0.63200298  1
  O  O295  1  0.87247732  0.12992636  0.14179777  1
  O  O296  1  0.88405450  0.12899509  0.63554557  1
  O  O297  1  0.86839883  0.63513823  0.13089633  1
  O  O298  1  0.88031879  0.63336126  0.62452796  1
  O  O299  1  0.25806121  0.25069926  0.12215366  1
  O  O300  1  0.23942676  0.25381635  0.60893103  1
  O  O301  1  0.24221023  0.76652029  0.12452594  1
  O  O302  1  0.25565002  0.74941798  0.61476673  1
  O  O303  1  0.73515649  0.25455758  0.11137991  1
  O  O304  1  0.75488538  0.26010719  0.62033235  1
  O  O305  1  0.75856490  0.75908869  0.12641999  1
  O  O306  1  0.75612778  0.75059605  0.61951667  1
  O  O307  1  0.23521058  0.24438533  0.37766462  1
  O  O308  1  0.24479066  0.24329566  0.88158380  1
  O  O309  1  0.24711943  0.74669057  0.37810282  1
  O  O310  1  0.23087399  0.74695248  0.87005778  1
  O  O311  1  0.74577716  0.25179429  0.38340120  1
  O  O312  1  0.74191504  0.23274944  0.87080814  1
  O  O313  1  0.74472546  0.73657820  0.37778807  1
  O  O314  1  0.73981105  0.74211225  0.87276300  1
  O  O315  1  0.01097834  0.11951598  -0.00506805  1
  O  O316  1  -0.00899088  0.11388767  0.50770240  1
  O  O317  1  -0.00416383  0.61937508  -0.00312581  1
  O  O318  1  0.00031234  0.61926345  0.50189935  1
  O  O319  1  0.50600798  0.11546268  0.00404894  1
  O  O320  1  0.50826492  0.16798209  0.51635436  1
  O  O321  1  0.51347957  0.62434209  0.01727706  1
  O  O322  1  0.50616106  0.60882727  0.50433574  1
  O  O323  1  0.49176271  0.38046620  0.49831971  1
  O  O324  1  0.49651515  0.37855967  0.99163326  1
  O  O325  1  0.49010666  0.86522470  0.50130373  1
  O  O326  1  0.50317151  0.87861076  0.99834278  1
  O  O327  1  0.99522417  0.37934732  0.49372373  1
  O  O328  1  0.99991826  0.37565258  0.98757638  1
  O  O329  1  0.99161139  0.88097422  0.49104674  1
  O  O330  1  0.98981790  0.88560558  0.99593180  1
  O  O331  1  0.49571039  0.49851117  0.38288403  1
  O  O332  1  0.48552076  0.49641271  0.87332980  1
  O  O333  1  0.49205348  1.00444551  0.37180857  1
  O  O334  1  0.48773848  1.00284993  0.87887705  1
  O  O335  1  0.99276513  0.48901456  0.38109164  1
  O  O336  1  0.99180762  0.49531229  0.88061781  1
  O  O337  1  1.00183505  0.98921766  0.38014608  1
  O  O338  1  1.00651146  0.99705843  0.88820363  1
  O  O339  1  0.01563918  -0.00395056  0.11228832  1
  O  O340  1  0.00349145  0.00753491  0.61576465  1
  O  O341  1  -0.00946105  0.49752703  0.10451905  1
  O  O342  1  0.00451746  0.50529284  0.61699658  1
  O  O343  1  0.50366036  0.00169878  0.11735025  1
  O  O344  1  0.51336913  -0.00161195  0.63644422  1
  O  O345  1  0.49797414  0.51540625  0.13647512  1
  O  O346  1  0.51004216  0.49277846  0.61953654  1
  O  O347  1  0.25559146  0.38691882  0.25821866  1
  O  O348  1  0.23830483  0.38649990  0.75051095  1
  O  O349  1  0.24324291  0.88477603  0.24485527  1
  O  O350  1  0.24209432  0.88336583  0.74528935  1
  O  O351  1  0.75320588  0.39204969  0.25352459  1
  O  O352  1  0.74148452  0.37172119  0.74544424  1
  O  O353  1  0.74707849  0.87628534  0.23740343  1
  O  O354  1  0.74193590  0.88154322  0.74994082  1
  O  O355  1  0.25071439  0.11003602  0.25028335  1
  O  O356  1  0.24294050  0.11685732  0.76432167  1
  O  O357  1  0.25610215  0.61465632  0.26509279  1
  O  O358  1  0.25264281  0.61402987  0.75131527  1
  O  O359  1  0.76216464  0.12165898  0.25203700  1
  O  O360  1  0.75943934  0.11810542  0.75459523  1
  O  O361  1  0.75962834  0.61598508  0.25610163  1
  O  O362  1  0.74860658  0.62765715  0.76149811  1
  O  O363  1  0.37084912  0.11001109  0.37431949  1
  O  O364  1  0.36597218  0.11643242  0.88161286  1
  O  O365  1  0.36911397  0.61811780  0.37704453  1
  O  O366  1  0.36920667  0.61425783  0.86838512  1
  O  O367  1  0.87160409  0.13245455  0.35673729  1
  O  O368  1  0.87024879  0.12801883  0.86295932  1
  O  O369  1  0.86808880  0.61986208  0.36641698  1
  O  O370  1  0.86554946  0.62092332  0.87014665  1
  O  O371  1  0.13390420  0.39114818  0.11945227  1
  O  O372  1  0.12368919  0.38322927  0.63392214  1
  O  O373  1  0.13044262  0.88356050  0.12902639  1
  O  O374  1  0.12761616  0.87846775  0.63570833  1
  O  O375  1  0.61746056  0.38210738  0.12170792  1
  O  O376  1  0.63427264  0.37972311  0.63673297  1
  O  O377  1  0.63288955  0.88220335  0.12352711  1
  O  O378  1  0.62589676  0.88047224  0.63958185  1
  O  O379  1  0.11436144  0.24551447  0.26158265  1
  O  O380  1  0.12586159  0.26044374  0.75717135  1
  O  O381  1  0.10930073  0.75694963  0.25559114  1
  O  O382  1  0.11475630  0.75702902  0.74886814  1
  O  O383  1  0.62042634  0.25032004  0.25618239  1
  O  O384  1  0.63005464  0.25692605  0.76111408  1
  O  O385  1  0.61944231  0.74862844  0.25960842  1
  O  O386  1  0.61549306  0.75498996  0.75999603  1
  O  O387  1  0.38265056  0.24707247  0.24665086  1
  O  O388  1  0.36571130  0.24387921  0.75140211  1
  O  O389  1  0.39121269  0.74825119  0.25799934  1
  O  O390  1  0.37930601  0.74563692  0.74662724  1
  O  O391  1  0.88842877  0.24373092  0.24882744  1
  O  O392  1  0.87723916  0.24100852  0.74358400  1
  O  O393  1  0.87721586  0.74350500  0.24108453  1
  O  O394  1  0.88622007  0.75191702  0.74240121  1
  O  O395  1  0.38153204  0.49660053  0.49221076  1
  O  O396  1  0.37163369  0.48599881  0.99292661  1
  O  O397  1  0.37390835  0.99174936  0.48775078  1
  O  O398  1  0.38656475  1.00141739  0.99373023  1
  O  O399  1  0.88178247  0.49348437  0.49419179  1
  O  O400  1  0.88578681  0.50563388  0.98100703  1
  O  O401  1  0.88103559  0.98771792  0.50714119  1
  O  O402  1  0.88457353  0.99452948  1.00745253  1
  O  O403  1  0.12115281  0.00828146  0.00384760  1
  O  O404  1  0.11172871  -0.00760558  0.50178822  1
  O  O405  1  0.10485267  0.50384176  -0.00762217  1
  O  O406  1  0.11791293  0.50212880  0.50302334  1
  O  O407  1  0.61272981  0.00453792  0.00455077  1
  O  O408  1  0.62286077  -0.00154956  0.51973718  1
  O  O409  1  0.62542144  0.51697726  -0.01231884  1
  O  O410  1  0.61922690  0.49800993  0.50931601  1
  O  O411  1  0.37363104  0.36859810  0.11809664  1
  O  O412  1  0.36516305  0.38624932  0.60615111  1
  O  O413  1  0.35864724  0.87802838  0.12599902  1
  O  O414  1  0.37256282  0.86793943  0.61569907  1
  O  O415  1  0.86764295  0.36109205  0.12226974  1
  O  O416  1  0.87039150  0.37126970  0.62302589  1
  O  O417  1  0.86770968  0.86934048  0.11588452  1
  O  O418  1  0.87358958  0.86645237  0.61553068  1
  O  O419  1  0.12200218  0.13497267  0.37514058  1
  O  O420  1  0.13255987  0.13072353  0.88417381  1
  O  O421  1  0.13397733  0.63805269  0.36846628  1
  O  O422  1  0.12341856  0.64178813  0.86886491  1
  O  O423  1  0.63028661  0.13862624  0.38182372  1
  O  O424  1  0.62990480  0.12784074  0.87726802  1
  O  O425  1  0.63377953  0.62808971  0.38199192  1
  O  O426  1  0.62961065  0.63289666  0.88128719  1
