# generated using pymatgen
data_V85Zn86O256
_symmetry_space_group_name_H-M   'P 1'
_cell_length_a   16.92206618
_cell_length_b   16.93742603
_cell_length_c   16.93118348
_cell_angle_alpha   90.01380499
_cell_angle_beta   89.97668602
_cell_angle_gamma   89.91247430
_symmetry_Int_Tables_number   1
_chemical_formula_structural   V85Zn86O256
_chemical_formula_sum   'V85 Zn86 O256'
_cell_volume   4852.74601376
_cell_formula_units_Z   1
loop_
 _symmetry_equiv_pos_site_id
 _symmetry_equiv_pos_as_xyz
  1  'x, y, z'
loop_
 _atom_site_type_symbol
 _atom_site_label
 _atom_site_symmetry_multiplicity
 _atom_site_fract_x
 _atom_site_fract_y
 _atom_site_fract_z
 _atom_site_occupancy
  V  V0  1  0.87437789  -0.00401239  0.38337978  1
  V  V1  1  -0.00040279  0.12404841  0.62353588  1
  V  V2  1  0.49562532  -0.00400426  -0.00865693  1
  V  V3  1  0.74392909  0.37316437  0.11855783  1
  V  V4  1  0.13943113  0.37323446  0.75132045  1
  V  V5  1  0.75035266  0.25091267  0.50178239  1
  V  V6  1  0.37524376  0.12194930  0.24654437  1
  V  V7  1  0.86974539  0.50460026  0.37571627  1
  V  V8  1  0.61730878  0.12582245  0.50583106  1
  V  V9  1  0.50450636  0.51292079  0.51342659  1
  V  V10  1  0.74919208  -0.00062867  0.24862055  1
  V  V11  1  0.12705943  0.12740436  0.49919053  1
  V  V12  1  0.74623417  0.50265730  0.25106044  1
  V  V13  1  0.87249099  -0.00641970  0.87700311  1
  V  V14  1  -0.00282934  0.62487741  0.12205596  1
  V  V15  1  0.00489588  0.12217017  0.12556698  1
  V  V16  1  0.12856314  0.24371923  0.87873212  1
  V  V17  1  0.12750738  0.24800977  0.37563035  1
  V  V18  1  0.00115248  0.25006767  0.75094992  1
  V  V19  1  0.74927946  0.87776741  0.11820274  1
  V  V20  1  0.87114448  0.50144958  0.87463807  1
  V  V21  1  0.74155319  0.50467555  0.74565667  1
  V  V22  1  -0.00118272  0.49864186  -0.00161825  1
  V  V23  1  0.13363942  -0.00326458  0.62210585  1
  V  V24  1  0.73786366  0.62767932  0.87879698  1
  V  V25  1  0.49560399  -0.01473371  0.49850563  1
  V  V26  1  0.13038215  0.49717321  0.63024473  1
  V  V27  1  0.62753264  0.25358996  0.88344368  1
  V  V28  1  0.38747637  0.61814777  0.24291259  1
  V  V29  1  0.75034661  0.12854742  0.88213152  1
  V  V30  1  0.87086447  0.24874929  0.11931327  1
  V  V31  1  0.24907830  0.49758792  0.25150604  1
  V  V32  1  0.87152846  0.37288381  -0.00077659  1
  V  V33  1  0.62668606  0.25161987  0.36854551  1
  V  V34  1  0.12415614  0.37345870  0.24890706  1
  V  V35  1  0.86597363  0.76461338  0.62062785  1
  V  V36  1  0.12372028  0.49856555  0.12552561  1
  V  V37  1  -0.00325823  0.87319217  0.37641046  1
  V  V38  1  0.49950162  0.12966583  0.12105243  1
  V  V39  1  0.37784351  0.49454224  0.38475746  1
  V  V40  1  0.75126571  0.76468281  0.48617984  1
  V  V41  1  0.29923352  0.80695585  0.45823443  1
  V  V42  1  -0.00304331  0.49948411  0.50134141  1
  V  V43  1  0.25648525  0.00123255  0.75620823  1
  V  V44  1  0.74866524  0.38089387  0.62410598  1
  V  V45  1  0.62194196  0.00066368  0.62605575  1
  V  V46  1  0.87415050  0.12504610  0.75042147  1
  V  V47  1  0.37478673  0.61414590  0.73724963  1
  V  V48  1  0.24718705  0.60826881  0.86317780  1
  V  V49  1  0.25332587  0.12162948  0.37710473  1
  V  V50  1  0.13406904  0.74840588  0.87432365  1
  V  V51  1  0.87141624  0.62829695  0.25008031  1
  V  V52  1  0.48621708  0.25341031  0.24945482  1
  V  V53  1  0.87483057  0.12510742  0.24933170  1
  V  V54  1  0.25553496  0.36601818  0.60529864  1
  V  V55  1  0.35994394  0.76516786  0.62652354  1
  V  V56  1  0.37976936  0.37529759  0.00811374  1
  V  V57  1  0.49744224  0.74780669  0.74093013  1
  V  V58  1  -0.00236713  0.75082674  0.74795963  1
  V  V59  1  0.25760093  0.24793037  0.00954259  1
  V  V60  1  0.87080829  0.62657239  0.74822339  1
  V  V61  1  0.49812367  0.24603447  0.74343201  1
  V  V62  1  0.25522995  -0.01616831  0.24497135  1
  V  V63  1  0.12979099  0.62790497  0.00031950  1
  V  V64  1  -0.00013714  0.37343847  0.87347056  1
  V  V65  1  0.63845373  0.62971894  0.49919337  1
  V  V66  1  0.73674922  0.75252536  -0.00106200  1
  V  V67  1  0.12965922  0.87423564  0.74468351  1
  V  V68  1  0.62072552  0.51712567  0.11855135  1
  V  V69  1  -0.00241139  0.87159697  0.87972656  1
  V  V70  1  0.62273315  0.87288969  0.74888395  1
  V  V71  1  0.49426871  0.51911707  0.00015297  1
  V  V72  1  -0.00239419  0.62473633  0.62476205  1
  V  V73  1  -0.00244192  -0.00370691  0.00299376  1
  V  V74  1  0.35411369  0.87171347  -0.00194788  1
  V  V75  1  0.87464364  0.75469961  0.11467308  1
  V  V76  1  0.74996119  0.12652112  0.37444800  1
  V  V77  1  0.49901704  0.37437620  0.38596827  1
  V  V78  1  0.12413223  0.74997607  0.37820338  1
  V  V79  1  0.25393040  0.62206825  0.38228265  1
  V  V80  1  0.74888941  -0.00512940  0.74540788  1
  V  V81  1  0.12639922  0.62516746  0.50205363  1
  V  V82  1  -0.00141833  0.37483139  0.37566426  1
  V  V83  1  0.61767259  0.87318757  0.26039852  1
  V  V84  1  0.62262545  0.37782938  0.74834877  1
  Zn  Zn85  1  0.87436259  0.25096948  0.62543123  1
  Zn  Zn86  1  -0.00455305  -0.00596331  0.50331980  1
  Zn  Zn87  1  0.48973956  0.87785962  0.87102704  1
  Zn  Zn88  1  0.13058743  0.86691408  0.24573745  1
  Zn  Zn89  1  0.37367849  0.49822127  0.87198662  1
  Zn  Zn90  1  0.49871505  0.37735990  0.87760096  1
  Zn  Zn91  1  0.62580212  0.12688418  0.00160263  1
  Zn  Zn92  1  0.61934705  0.37954733  0.24664234  1
  Zn  Zn93  1  -0.00119601  0.24820982  0.24941743  1
  Zn  Zn94  1  0.13019837  0.12231604  0.00271839  1
  Zn  Zn95  1  0.51377044  0.73997793  0.24906611  1
  Zn  Zn96  1  0.26588338  0.12004647  0.88175473  1
  Zn  Zn97  1  0.38385665  0.24461715  0.60296858  1
  Zn  Zn98  1  0.38134658  0.12244687  0.74695308  1
  Zn  Zn99  1  0.61316727  0.75098811  0.87863395  1
  Zn  Zn100  1  0.13527869  -0.01528784  0.11929023  1
  Zn  Zn101  1  0.37272630  0.75122651  0.11586187  1
  Zn  Zn102  1  0.25674932  0.37023546  0.13042480  1
  Zn  Zn103  1  0.87303590  0.37587984  0.50006666  1
  Zn  Zn104  1  0.00249611  0.75062364  0.24627270  1
  Zn  Zn105  1  0.62296381  0.00140564  0.12229120  1
  Zn  Zn106  1  0.37855225  -0.00843710  0.38050304  1
  Zn  Zn107  1  0.18925844  0.18383326  0.19075522  1
  Zn  Zn108  1  0.19276105  0.18543924  0.68642797  1
  Zn  Zn109  1  0.19844443  0.69234537  0.18896023  1
  Zn  Zn110  1  0.18929970  0.68634479  0.68816725  1
  Zn  Zn111  1  0.68507374  0.18876164  0.18539027  1
  Zn  Zn112  1  0.68614002  0.18786887  0.69056660  1
  Zn  Zn113  1  0.68999015  0.69213530  0.19069764  1
  Zn  Zn114  1  0.68239698  0.68742340  0.67881049  1
  Zn  Zn115  1  0.31292463  0.30808709  0.42498751  1
  Zn  Zn116  1  0.31649785  0.31040678  0.82249267  1
  Zn  Zn117  1  0.36438992  0.81145538  0.30179451  1
  Zn  Zn118  1  0.31409419  0.81385053  0.81544150  1
  Zn  Zn119  1  0.81201724  0.31692447  0.30699196  1
  Zn  Zn120  1  0.81061027  0.31288121  0.81130571  1
  Zn  Zn121  1  0.81264600  0.81586367  0.30715964  1
  Zn  Zn122  1  0.80897318  0.81285994  0.81218487  1
  Zn  Zn123  1  0.18114123  0.44144131  0.43728293  1
  Zn  Zn124  1  0.19001249  0.43287566  0.94079466  1
  Zn  Zn125  1  0.18231458  0.94205204  0.43231358  1
  Zn  Zn126  1  0.18195439  0.93803172  0.93403750  1
  Zn  Zn127  1  0.68307777  0.44077781  0.43786428  1
  Zn  Zn128  1  0.68238993  0.44206943  0.93909998  1
  Zn  Zn129  1  0.68769724  0.93804780  0.43937077  1
  Zn  Zn130  1  0.68043470  0.93749919  0.93751443  1
  Zn  Zn131  1  0.31878745  0.06115959  0.06308937  1
  Zn  Zn132  1  0.31718800  0.06686069  0.56663950  1
  Zn  Zn133  1  0.30004912  0.58814632  0.07272205  1
  Zn  Zn134  1  0.31394783  0.55726065  0.56450531  1
  Zn  Zn135  1  0.81562697  0.06068164  0.06065771  1
  Zn  Zn136  1  0.80818539  0.06321813  0.56413542  1
  Zn  Zn137  1  0.80749049  0.56461931  0.06109342  1
  Zn  Zn138  1  0.80946561  0.56729728  0.56248711  1
  Zn  Zn139  1  0.43872664  0.44137135  0.18804837  1
  Zn  Zn140  1  0.43527109  0.43052667  0.68350508  1
  Zn  Zn141  1  0.43614584  0.93809802  0.17509884  1
  Zn  Zn142  1  0.44032579  0.93653577  0.68025208  1
  Zn  Zn143  1  0.93571521  0.43700648  0.18792569  1
  Zn  Zn144  1  0.93516328  0.43667683  0.68876875  1
  Zn  Zn145  1  0.93765514  0.93371504  0.19142641  1
  Zn  Zn146  1  0.94179353  0.93928584  0.69062973  1
  Zn  Zn147  1  0.06517031  0.05523812  0.30830509  1
  Zn  Zn148  1  0.06443054  0.06080167  0.81203448  1
  Zn  Zn149  1  0.05946826  0.56522943  0.31283747  1
  Zn  Zn150  1  0.06020637  0.56028428  0.80963989  1
  Zn  Zn151  1  0.56117491  0.05928275  0.31483609  1
  Zn  Zn152  1  0.56265263  0.06719941  0.81370780  1
  Zn  Zn153  1  0.56992677  0.56327826  0.32385636  1
  Zn  Zn154  1  0.55648410  0.56452229  0.81075316  1
  Zn  Zn155  1  0.44213238  0.17938467  0.43285410  1
  Zn  Zn156  1  0.43759283  0.18913538  0.93103309  1
  Zn  Zn157  1  0.45234203  0.68900296  0.42743955  1
  Zn  Zn158  1  0.42844533  0.69289840  0.92738585  1
  Zn  Zn159  1  0.93812590  0.18638825  0.43758505  1
  Zn  Zn160  1  0.93792715  0.18444669  0.93947803  1
  Zn  Zn161  1  0.93431623  0.68905239  0.43828646  1
  Zn  Zn162  1  0.93446055  0.68739360  0.93658207  1
  Zn  Zn163  1  0.06216136  0.30965024  0.06263435  1
  Zn  Zn164  1  0.06369148  0.31090670  0.56243819  1
  Zn  Zn165  1  0.06744500  0.81162402  0.06234452  1
  Zn  Zn166  1  0.06184952  0.81201717  0.55941567  1
  Zn  Zn167  1  0.55897146  0.31505360  0.06457534  1
  Zn  Zn168  1  0.56664679  0.31594412  0.56312932  1
  Zn  Zn169  1  0.55439032  0.81095109  0.07284195  1
  Zn  Zn170  1  0.56782709  0.80800894  0.56760360  1
  O  O171  1  0.11254108  0.11979019  0.12744780  1
  O  O172  1  0.12014521  0.11989318  0.61687717  1
  O  O173  1  0.11587987  0.62010511  0.11543740  1
  O  O174  1  0.12080863  0.61574699  0.62353468  1
  O  O175  1  0.61624222  0.12445863  0.12164271  1
  O  O176  1  0.63250367  0.11813245  0.61589016  1
  O  O177  1  0.62954426  0.61527003  0.12681992  1
  O  O178  1  0.62171340  0.63075237  0.60173187  1
  O  O179  1  0.38404697  0.38594482  0.37489675  1
  O  O180  1  0.37621235  0.38249275  0.88961780  1
  O  O181  1  0.34957476  0.87353668  0.39851313  1
  O  O182  1  0.37357015  0.87790573  0.88841921  1
  O  O183  1  0.87984693  0.38675138  0.37324291  1
  O  O184  1  0.87728540  0.38012605  0.88013586  1
  O  O185  1  0.88237405  0.88574941  0.36798189  1
  O  O186  1  0.88192440  0.88586327  0.86795487  1
  O  O187  1  0.25320215  0.00617480  0.36479233  1
  O  O188  1  0.24145538  0.00294322  0.86013449  1
  O  O189  1  0.25673270  0.50232255  0.37339604  1
  O  O190  1  0.24528803  0.50509179  0.86778808  1
  O  O191  1  0.75636616  0.00600266  0.36859320  1
  O  O192  1  0.75705476  0.00476663  0.86987910  1
  O  O193  1  0.75649514  0.49513132  0.36342190  1
  O  O194  1  0.75202384  0.50932652  0.86977607  1
  O  O195  1  0.24000691  0.50048157  0.13601813  1
  O  O196  1  0.23932170  0.48258883  0.61729368  1
  O  O197  1  0.25209754  1.00571586  0.14183282  1
  O  O198  1  0.23669872  1.00244420  0.63256961  1
  O  O199  1  0.73826574  0.49600896  0.12790920  1
  O  O200  1  0.75391085  0.49420412  0.63424208  1
  O  O201  1  0.75209843  0.99483442  0.13105368  1
  O  O202  1  0.74033180  1.00371266  0.63520709  1
  O  O203  1  0.00920598  0.37590052  0.25605751  1
  O  O204  1  0.00659125  0.36809491  0.75457181  1
  O  O205  1  0.00326085  0.87016809  0.26157119  1
  O  O206  1  0.00856382  0.87221838  0.76110315  1
  O  O207  1  0.49950062  0.36867421  0.25939942  1
  O  O208  1  0.51120969  0.37474294  0.75310662  1
  O  O209  1  0.51800380  0.88992920  0.24339097  1
  O  O210  1  0.50527377  0.87038836  0.75044662  1
  O  O211  1  0.49423757  0.12865956  0.24538630  1
  O  O212  1  0.50652804  0.14287069  0.74662069  1
  O  O213  1  0.48931246  0.61971620  0.26019927  1
  O  O214  1  0.48371770  0.63229390  0.75178573  1
  O  O215  1  0.99295410  0.12187343  0.24212769  1
  O  O216  1  0.99646541  0.12952652  0.74340332  1
  O  O217  1  0.98795308  0.62541155  0.24180050  1
  O  O218  1  0.99211922  0.63042111  0.74469250  1
  O  O219  1  0.36834143  0.26036511  -0.00280662  1
  O  O220  1  0.38380949  0.25315924  0.49051302  1
  O  O221  1  0.37653697  0.76768045  -0.00400773  1
  O  O222  1  0.36992680  0.74875500  0.51133084  1
  O  O223  1  0.87788682  0.25442009  0.01147660  1
  O  O224  1  0.86116972  0.25163874  0.49856595  1
  O  O225  1  0.86658850  0.74641464  0.01073817  1
  O  O226  1  0.86526978  0.74503301  0.51249297  1
  O  O227  1  0.11952686  0.23561454  0.49182985  1
  O  O228  1  0.13175069  0.24830934  0.99298472  1
  O  O229  1  0.11878381  0.73948090  0.48801513  1
  O  O230  1  0.11578936  0.73745142  0.98611838  1
  O  O231  1  0.63321499  0.24525039  0.49237325  1
  O  O232  1  0.62142484  0.25143079  0.98679727  1
  O  O233  1  0.64385957  0.74808208  0.50380666  1
  O  O234  1  0.63310155  0.75558656  0.99940630  1
  O  O235  1  0.50535136  0.24047382  0.13622237  1
  O  O236  1  0.50129673  0.26140698  0.63880631  1
  O  O237  1  0.48801392  0.75190169  0.13824826  1
  O  O238  1  0.48703339  0.75553260  0.63477883  1
  O  O239  1  0.99228074  0.23974094  0.12649323  1
  O  O240  1  0.99963226  0.23911910  0.62974288  1
  O  O241  1  0.99080690  0.74290010  0.12358100  1
  O  O242  1  0.99166256  0.74375157  0.62840427  1
  O  O243  1  0.00864308  0.25429633  0.37211245  1
  O  O244  1  0.00659169  0.25505352  0.87277814  1
  O  O245  1  0.00638005  0.75373339  0.37192746  1
  O  O246  1  0.00216746  0.75565087  0.86754883  1
  O  O247  1  0.51015553  0.25597218  0.36867237  1
  O  O248  1  0.51278915  0.25631408  0.86400895  1
  O  O249  1  0.46193307  0.76489322  0.34859756  1
  O  O250  1  0.49708733  0.75434400  0.85767007  1
  O  O251  1  0.24143215  0.11536498  0.48626261  1
  O  O252  1  0.25035657  0.13048879  0.99990079  1
  O  O253  1  0.24348980  0.61374340  0.48974732  1
  O  O254  1  0.23192200  0.60990190  0.98119907  1
  O  O255  1  0.74314408  0.13386808  0.49362415  1
  O  O256  1  0.75110540  0.12102491  0.98604957  1
  O  O257  1  0.74399477  0.63267409  0.49598128  1
  O  O258  1  0.75240104  0.63578799  0.98894166  1
  O  O259  1  0.25807506  0.36756872  0.00593246  1
  O  O260  1  0.24616106  0.37073414  0.50127660  1
  O  O261  1  0.25463608  0.87853719  -0.00268647  1
  O  O262  1  0.23407386  0.86491397  0.50543622  1
  O  O263  1  0.75489311  0.38258618  0.01094261  1
  O  O264  1  0.74740049  0.36994420  0.50721586  1
  O  O265  1  0.74800261  0.86897439  0.00660195  1
  O  O266  1  0.75272288  0.86442468  0.49782994  1
  O  O267  1  0.12776796  0.49395630  0.24809084  1
  O  O268  1  0.11801230  0.48856163  0.73764167  1
  O  O269  1  0.14409524  0.99306273  0.25045663  1
  O  O270  1  0.12848104  0.99181624  0.74235254  1
  O  O271  1  0.63060501  0.50255733  0.24220767  1
  O  O272  1  0.63428797  0.49511975  0.75490546  1
  O  O273  1  0.63824473  0.99922916  0.24843170  1
  O  O274  1  0.62967971  0.99735385  0.74469444  1
  O  O275  1  0.37042380  0.00370174  0.25441609  1
  O  O276  1  0.35793970  -0.00487518  0.74077059  1
  O  O277  1  0.36628070  0.50119863  0.26230197  1
  O  O278  1  0.38158947  0.51082958  0.74860651  1
  O  O279  1  0.86441203  0.00504348  0.25661842  1
  O  O280  1  0.86802668  0.00460779  0.75575300  1
  O  O281  1  0.86734687  0.50656291  0.25406671  1
  O  O282  1  0.86307982  0.50461636  0.75582026  1
  O  O283  1  0.11994271  0.36668391  0.36989312  1
  O  O284  1  0.12122494  0.36567483  0.86853745  1
  O  O285  1  0.12005713  0.86449857  0.36957689  1
  O  O286  1  0.11709427  0.86476775  0.86821788  1
  O  O287  1  0.61972554  0.36773333  0.37017539  1
  O  O288  1  0.62974939  0.36958403  0.86522784  1
  O  O289  1  0.62925564  0.88260535  0.35860486  1
  O  O290  1  0.62142022  0.87313207  0.86081125  1
  O  O291  1  0.38243334  0.12452376  0.13895919  1
  O  O292  1  0.36186918  0.13913909  0.63708163  1
  O  O293  1  0.38929643  0.59310289  0.14569655  1
  O  O294  1  0.36856266  0.63066679  0.63540340  1
  O  O295  1  0.88131222  0.13140594  0.12825280  1
  O  O296  1  0.88271286  0.12593561  0.63077847  1
  O  O297  1  0.87859497  0.63007207  0.12934667  1
  O  O298  1  0.87954066  0.63162426  0.63167239  1
  O  O299  1  0.24259062  0.25064395  0.11360142  1
  O  O300  1  0.24147844  0.26595514  0.62197677  1
  O  O301  1  0.26845835  0.69753771  0.10481698  1
  O  O302  1  0.25993088  0.75153015  0.62700625  1
  O  O303  1  0.75744402  0.26046446  0.12862236  1
  O  O304  1  0.75055528  0.25681931  0.61699803  1
  O  O305  1  0.75433575  0.75717365  0.11638953  1
  O  O306  1  0.76339689  0.75116596  0.62161885  1
  O  O307  1  0.23490454  0.23950084  0.37266168  1
  O  O308  1  0.24225564  0.24793193  0.88734924  1
  O  O309  1  0.24829288  0.74268890  0.38670053  1
  O  O310  1  0.23653404  0.73797831  0.86527188  1
  O  O311  1  0.74400212  0.24981756  0.37886391  1
  O  O312  1  0.74153887  0.24039644  0.86715666  1
  O  O313  1  0.76285680  0.75188735  0.38780142  1
  O  O314  1  0.74875544  0.74439228  0.88292615  1
  O  O315  1  0.00127508  0.11575601  0.00930611  1
  O  O316  1  0.00569539  0.12205421  0.50824428  1
  O  O317  1  0.00659637  0.61737544  0.00018987  1
  O  O318  1  0.00412116  0.61875605  0.50597948  1
  O  O319  1  0.49752786  0.12041094  0.00712154  1
  O  O320  1  0.51529263  0.11812658  0.49809246  1
  O  O321  1  0.49196061  0.61750315  -0.00505398  1
  O  O322  1  0.49617740  0.61542739  0.50269734  1
  O  O323  1  0.51299227  0.38632511  0.48904549  1
  O  O324  1  0.49307937  0.38229337  0.99921583  1
  O  O325  1  0.50847017  0.88717082  0.50423037  1
  O  O326  1  0.50457288  0.89011093  0.99784819  1
  O  O327  1  0.99680383  0.37989788  0.49479609  1
  O  O328  1  0.99327827  0.37908726  0.99353765  1
  O  O329  1  1.00436941  0.87721089  0.48351192  1
  O  O330  1  1.00213292  0.87949985  0.98681503  1
  O  O331  1  0.49395375  0.49226197  0.38200295  1
  O  O332  1  0.50195776  0.49934435  0.89034900  1
  O  O333  1  0.49913078  1.00070990  0.39235156  1
  O  O334  1  0.50281948  1.00272240  0.88791610  1
  O  O335  1  0.99279757  0.49481035  0.38104993  1
  O  O336  1  0.99243581  0.49259628  0.87737110  1
  O  O337  1  0.99117477  0.99298884  0.37409081  1
  O  O338  1  0.99362659  0.99282507  0.87963336  1
  O  O339  1  -0.00451787  0.00437205  0.11731806  1
  O  O340  1  0.00756677  0.01102143  0.62593610  1
  O  O341  1  0.00302470  0.50502851  0.11937449  1
  O  O342  1  0.00444842  0.50377438  0.62068671  1
  O  O343  1  0.50149171  0.01416562  0.11497450  1
  O  O344  1  0.51295896  0.00104000  0.61566886  1
  O  O345  1  0.51425495  0.49794043  0.11526815  1
  O  O346  1  0.49955219  0.49321809  0.61039353  1
  O  O347  1  0.23491067  0.38637101  0.25062239  1
  O  O348  1  0.24066799  0.36866271  0.74937539  1
  O  O349  1  0.26571638  0.88344164  0.25476112  1
  O  O350  1  0.23618027  0.88369162  0.75580772  1
  O  O351  1  0.74932501  0.38817386  0.23686618  1
  O  O352  1  0.74471479  0.38433086  0.74384397  1
  O  O353  1  0.74383686  0.88445084  0.24236111  1
  O  O354  1  0.74290348  0.88831776  0.75488354  1
  O  O355  1  0.25769181  0.11889887  0.25883187  1
  O  O356  1  0.24201628  0.10832305  0.75408063  1
  O  O357  1  0.24863605  0.60802829  0.26558121  1
  O  O358  1  0.26125302  0.62245672  0.75141394  1
  O  O359  1  0.75452322  0.11974301  0.25408194  1
  O  O360  1  0.75429887  0.11552130  0.75926387  1
  O  O361  1  0.76099612  0.61499782  0.24377119  1
  O  O362  1  0.75071681  0.62030415  0.75277694  1
  O  O363  1  0.36792117  0.11866046  0.36533749  1
  O  O364  1  0.37622759  0.12965134  0.85983977  1
  O  O365  1  0.36816336  0.61220666  0.36999619  1
  O  O366  1  0.36157936  0.62080079  0.86278961  1
  O  O367  1  0.86958950  0.12035785  0.36802333  1
  O  O368  1  0.87110000  0.11568397  0.86976013  1
  O  O369  1  0.88134697  0.61289803  0.36490696  1
  O  O370  1  0.86548522  0.62115538  0.86675039  1
  O  O371  1  0.12241133  0.37979759  0.13411132  1
  O  O372  1  0.13225437  0.37884962  0.63029636  1
  O  O373  1  0.12599526  0.87186232  0.13231141  1
  O  O374  1  0.11331519  0.88390333  0.63428853  1
  O  O375  1  0.63196111  0.38211030  0.12693482  1
  O  O376  1  0.63872994  0.37330138  0.63547831  1
  O  O377  1  0.63810629  0.88019251  0.13196447  1
  O  O378  1  0.62483378  0.88492791  0.63860285  1
  O  O379  1  0.12240284  0.25739365  0.25605367  1
  O  O380  1  0.12108918  0.25537518  0.75741444  1
  O  O381  1  0.12862863  0.74321180  0.26439981  1
  O  O382  1  0.11747237  0.75570764  0.75313357  1
  O  O383  1  0.61943604  0.25121912  0.26007627  1
  O  O384  1  0.61905062  0.25989148  0.75534991  1
  O  O385  1  0.62890949  0.76686247  0.25066995  1
  O  O386  1  0.61628629  0.75690218  0.74570182  1
  O  O387  1  0.38655716  0.23957362  0.25860015  1
  O  O388  1  0.39537489  0.26144685  0.75322369  1
  O  O389  1  0.35388686  0.71840124  0.23725502  1
  O  O390  1  0.37627733  0.74474041  0.73947204  1
  O  O391  1  0.87667792  0.24560805  0.23863578  1
  O  O392  1  0.88251927  0.24335277  0.74975674  1
  O  O393  1  0.87262362  0.74110682  0.23792969  1
  O  O394  1  0.87720624  0.74714170  0.74018251  1
  O  O395  1  0.38862095  0.50154393  0.49459380  1
  O  O396  1  0.38727140  0.49897683  1.00184820  1
  O  O397  1  0.39183564  1.00214287  0.50439151  1
  O  O398  1  0.38776610  0.99078181  1.00219181  1
  O  O399  1  0.87654142  0.50018921  0.49102779  1
  O  O400  1  0.87875836  0.49560381  0.99398991  1
  O  O401  1  0.87442104  1.00722312  0.48721247  1
  O  O402  1  0.88718524  1.00193544  0.98986679  1
  O  O403  1  0.11173810  0.00228406  0.00104562  1
  O  O404  1  0.12010384  0.00951129  0.50578389  1
  O  O405  1  0.11681129  0.50228826  0.00481013  1
  O  O406  1  0.11603311  0.50404277  0.51026351  1
  O  O407  1  0.61289287  0.00637318  0.00164321  1
  O  O408  1  0.62315764  0.00705097  0.50780733  1
  O  O409  1  0.61439655  0.50323823  0.01080826  1
  O  O410  1  0.61500717  0.51422010  0.49466447  1
  O  O411  1  0.37385597  0.38150321  0.11463745  1
  O  O412  1  0.35712031  0.36937347  0.62436365  1
  O  O413  1  0.37247071  0.87444890  0.10576806  1
  O  O414  1  0.36855469  0.86402375  0.62549770  1
  O  O415  1  0.86882444  0.36817463  0.11973832  1
  O  O416  1  0.86273363  0.37211893  0.62371321  1
  O  O417  1  0.86266556  0.86605613  0.13127109  1
  O  O418  1  0.88257680  0.86259928  0.62787133  1
  O  O419  1  0.12857800  0.12855571  0.37886258  1
  O  O420  1  0.12246200  0.13724769  0.87724504  1
  O  O421  1  0.13221417  0.62827346  0.38082531  1
  O  O422  1  0.12786678  0.62896175  0.87471828  1
  O  O423  1  0.63142159  0.13360233  0.38033812  1
  O  O424  1  0.63426899  0.13535795  0.87571091  1
  O  O425  1  0.60843979  0.63834715  0.39882600  1
  O  O426  1  0.63498087  0.63023662  0.86865763  1
