# generated using pymatgen
data_V85Zn86O256
_symmetry_space_group_name_H-M   'P 1'
_cell_length_a   16.94254702
_cell_length_b   16.93534840
_cell_length_c   16.93801768
_cell_angle_alpha   90.00047411
_cell_angle_beta   90.02285526
_cell_angle_gamma   90.00444090
_symmetry_Int_Tables_number   1
_chemical_formula_structural   V85Zn86O256
_chemical_formula_sum   'V85 Zn86 O256'
_cell_volume   4859.99006000
_cell_formula_units_Z   1
loop_
 _symmetry_equiv_pos_site_id
 _symmetry_equiv_pos_as_xyz
  1  'x, y, z'
loop_
 _atom_site_type_symbol
 _atom_site_label
 _atom_site_symmetry_multiplicity
 _atom_site_fract_x
 _atom_site_fract_y
 _atom_site_fract_z
 _atom_site_occupancy
  V  V0  1  0.74558398  0.49503347  0.75169654  1
  V  V1  1  -0.00039792  0.37442464  0.87866221  1
  V  V2  1  0.87497987  0.37474798  0.49877401  1
  V  V3  1  0.75368209  0.00547464  0.25008882  1
  V  V4  1  0.48409388  -0.00037642  0.49750416  1
  V  V5  1  0.87763176  0.00432193  0.37118908  1
  V  V6  1  0.37587621  0.12463846  0.75684882  1
  V  V7  1  0.49672059  0.12583153  0.62307158  1
  V  V8  1  0.74757648  0.24905712  0.00545424  1
  V  V9  1  0.25123842  0.37282891  0.62585281  1
  V  V10  1  0.46145831  -0.00199803  -0.04516082  1
  V  V11  1  0.61985450  0.87212516  0.75666699  1
  V  V12  1  0.00246915  0.62813342  0.13968593  1
  V  V13  1  0.25309851  0.63013240  0.37629048  1
  V  V14  1  0.75492703  0.87514274  0.12588722  1
  V  V15  1  0.12773754  -0.00375755  0.62968368  1
  V  V16  1  0.48995491  0.87564976  0.37023053  1
  V  V17  1  0.50164960  0.37398101  0.36515999  1
  V  V18  1  0.02013811  0.24800113  0.25231736  1
  V  V19  1  0.87924946  0.74584282  0.14070282  1
  V  V20  1  0.87282714  0.24695087  0.13597052  1
  V  V21  1  0.00650553  0.87842336  0.87399817  1
  V  V22  1  0.49635412  0.63585525  0.62403821  1
  V  V23  1  0.49834189  0.75275959  0.76976572  1
  V  V24  1  0.25369377  -0.00202392  0.75371539  1
  V  V25  1  0.87310620  0.87245716  0.50148291  1
  V  V26  1  0.12469685  0.12166921  0.00401168  1
  V  V27  1  0.62265480  0.49560832  0.62834973  1
  V  V28  1  0.37571435  0.37214930  0.49703008  1
  V  V29  1  0.87427583  0.62535928  0.75282083  1
  V  V30  1  0.74930185  0.12212509  0.87704852  1
  V  V31  1  -0.00069387  0.62519633  0.62532799  1
  V  V32  1  0.87486616  0.49950834  0.87688336  1
  V  V33  1  0.62011873  0.00130398  0.12063830  1
  V  V34  1  0.37236516  0.62821579  0.74865558  1
  V  V35  1  0.61958169  0.75007524  0.37251646  1
  V  V36  1  0.87389718  0.24858553  0.62536699  1
  V  V37  1  0.13099530  -0.00413546  0.12545753  1
  V  V38  1  0.75477985  0.62612246  0.36882573  1
  V  V39  1  0.62258707  0.25033540  0.36714659  1
  V  V40  1  0.50426556  0.37273815  0.87855291  1
  V  V41  1  0.73565007  0.63188520  0.87706495  1
  V  V42  1  0.00150963  0.12396707  0.62551938  1
  V  V43  1  0.00067047  0.24867800  0.75309945  1
  V  V44  1  0.25192788  0.49842244  0.75244080  1
  V  V45  1  0.63108040  0.37472040  0.23708511  1
  V  V46  1  0.12673891  0.48753724  0.12801811  1
  V  V47  1  0.24768136  0.75260911  0.02060023  1
  V  V48  1  0.62158967  0.87297031  0.24897241  1
  V  V49  1  0.38365998  0.26523418  0.12924909  1
  V  V50  1  0.51161115  0.50954043  -0.00244376  1
  V  V51  1  0.74749640  0.37489248  0.62715282  1
  V  V52  1  0.12483607  0.74983495  0.38352594  1
  V  V53  1  0.12723832  0.86999438  0.24749210  1
  V  V54  1  0.75039758  -0.00297285  0.74940718  1
  V  V55  1  0.00031680  0.86867390  0.37033166  1
  V  V56  1  0.87568888  0.12282274  0.75101103  1
  V  V57  1  0.74998116  0.24918384  0.49919889  1
  V  V58  1  0.00243477  0.75439624  0.75049598  1
  V  V59  1  0.62394956  -0.00348752  0.62110378  1
  V  V60  1  0.12715454  0.12997032  0.49281281  1
  V  V61  1  0.50578135  0.25770535  0.74570428  1
  V  V62  1  0.24562992  0.48530279  0.25021313  1
  V  V63  1  0.25083579  0.86258633  0.62901423  1
  V  V64  1  0.62267465  0.12346178  0.49684658  1
  V  V65  1  -0.00273328  0.11931374  0.12825602  1
  V  V66  1  0.36851020  0.85719257  0.50258066  1
  V  V67  1  0.00186974  -0.00152860  0.49998852  1
  V  V68  1  0.37166610  0.49466996  0.88589905  1
  V  V69  1  0.12377337  0.49896035  0.62668908  1
  V  V70  1  0.25966906  -0.00308371  0.25778796  1
  V  V71  1  0.87060661  0.37365931  0.00818146  1
  V  V72  1  0.88214811  0.86950400  0.00141539  1
  V  V73  1  0.75486166  0.49810690  0.24005835  1
  V  V74  1  -0.00103622  0.50009545  0.49992518  1
  V  V75  1  0.13156581  0.75015213  0.87238779  1
  V  V76  1  0.50002337  0.49914654  0.49890378  1
  V  V77  1  0.01196239  0.37056632  0.37152110  1
  V  V78  1  0.13071452  0.24845696  0.87843000  1
  V  V79  1  0.87762110  0.50201157  0.36852447  1
  V  V80  1  0.62490515  0.62503910  0.49830532  1
  V  V81  1  0.25640872  0.26288371  0.00938511  1
  V  V82  1  0.38420872  0.12783236  0.25244624  1
  V  V83  1  0.88039410  0.00092717  0.88499645  1
  V  V84  1  0.75253621  0.12537885  0.37310706  1
  Zn  Zn85  1  0.74894664  0.74893752  0.50226597  1
  Zn  Zn86  1  0.37321478  0.50012959  0.37123825  1
  Zn  Zn87  1  0.12686990  0.37273811  0.75248457  1
  Zn  Zn88  1  0.25294603  0.12994984  0.37267596  1
  Zn  Zn89  1  0.24828345  0.62464386  0.87918840  1
  Zn  Zn90  1  0.37301204  0.24975590  0.62433689  1
  Zn  Zn91  1  0.50871764  0.64115146  0.13215466  1
  Zn  Zn92  1  0.12046142  0.62521111  0.00165835  1
  Zn  Zn93  1  0.61846545  0.12143294  -0.00375387  1
  Zn  Zn94  1  0.38627160  0.76114709  0.13867760  1
  Zn  Zn95  1  0.37876517  0.63204496  0.24581446  1
  Zn  Zn96  1  0.36199821  0.87840292  0.00007198  1
  Zn  Zn97  1  0.63404562  0.50829594  0.11605887  1
  Zn  Zn98  1  0.24102339  0.25726620  0.49106296  1
  Zn  Zn99  1  0.13197605  0.62970547  0.50489329  1
  Zn  Zn100  1  0.74052234  0.73947961  0.00618474  1
  Zn  Zn101  1  0.62841859  0.25174471  0.87162787  1
  Zn  Zn102  1  0.87191102  0.75010593  0.62552057  1
  Zn  Zn103  1  0.25675510  0.11949716  0.88329940  1
  Zn  Zn104  1  -0.00056301  0.50435495  0.00314323  1
  Zn  Zn105  1  0.74762985  0.86880302  0.62523200  1
  Zn  Zn106  1  0.49615384  0.12278615  0.11840809  1
  Zn  Zn107  1  0.19657759  0.18441228  0.18514057  1
  Zn  Zn108  1  0.18833048  0.18591268  0.68688146  1
  Zn  Zn109  1  0.18476190  0.68305272  0.19673495  1
  Zn  Zn110  1  0.18557790  0.68623926  0.69190496  1
  Zn  Zn111  1  0.68595107  0.18464710  0.18577578  1
  Zn  Zn112  1  0.68537597  0.18459890  0.68708927  1
  Zn  Zn113  1  0.68673047  0.68727435  0.18649795  1
  Zn  Zn114  1  0.68353604  0.68796462  0.68939048  1
  Zn  Zn115  1  0.30935519  0.30768561  0.31249982  1
  Zn  Zn116  1  0.31713196  0.31059526  0.81424639  1
  Zn  Zn117  1  0.31133825  0.81068919  0.31079644  1
  Zn  Zn118  1  0.32327450  0.82090978  0.82069167  1
  Zn  Zn119  1  0.81357615  0.31590873  0.31317640  1
  Zn  Zn120  1  0.81270757  0.31152703  0.81524912  1
  Zn  Zn121  1  0.80880501  0.81526534  0.31526724  1
  Zn  Zn122  1  0.81310194  0.81361071  0.81230737  1
  Zn  Zn123  1  0.18868731  0.44227119  0.43955998  1
  Zn  Zn124  1  0.18496858  0.43881788  0.94278655  1
  Zn  Zn125  1  0.19060843  0.93940542  0.43830734  1
  Zn  Zn126  1  0.18755122  0.93621479  0.93803774  1
  Zn  Zn127  1  0.68885378  0.43794523  0.43417377  1
  Zn  Zn128  1  0.68750037  0.43289504  0.93275071  1
  Zn  Zn129  1  0.68621935  0.93618887  0.43684274  1
  Zn  Zn130  1  0.67407928  0.90846447  0.95398479  1
  Zn  Zn131  1  0.30786588  0.06764745  0.07055147  1
  Zn  Zn132  1  0.30940848  0.06331884  0.56765582  1
  Zn  Zn133  1  0.31180815  0.57304538  0.06773414  1
  Zn  Zn134  1  0.31392287  0.56157236  0.56163984  1
  Zn  Zn135  1  0.81346378  0.06220096  0.06192387  1
  Zn  Zn136  1  0.81194039  0.05930040  0.56069238  1
  Zn  Zn137  1  0.81719843  0.56777624  0.05983893  1
  Zn  Zn138  1  0.81138701  0.56398731  0.56081416  1
  Zn  Zn139  1  0.44733856  0.46648292  0.19534093  1
  Zn  Zn140  1  0.43569615  0.43843448  0.68977996  1
  Zn  Zn141  1  0.43536858  0.92999036  0.17996137  1
  Zn  Zn142  1  0.43389919  0.93455570  0.69019539  1
  Zn  Zn143  1  0.94393548  0.43459508  0.18877769  1
  Zn  Zn144  1  0.93600038  0.43595393  0.69047590  1
  Zn  Zn145  1  0.94191449  0.93685239  0.18889159  1
  Zn  Zn146  1  0.93719519  0.93690434  0.68869849  1
  Zn  Zn147  1  0.06237061  0.06004527  0.30789796  1
  Zn  Zn148  1  0.06679803  0.06200854  0.81335405  1
  Zn  Zn149  1  0.06613976  0.56279590  0.31228502  1
  Zn  Zn150  1  0.06267907  0.56327104  0.81325250  1
  Zn  Zn151  1  0.56073663  0.05738264  0.31229941  1
  Zn  Zn152  1  0.56659810  0.06701708  0.80593888  1
  Zn  Zn153  1  0.56686658  0.56142852  0.30746575  1
  Zn  Zn154  1  0.55909787  0.56080632  0.81062676  1
  Zn  Zn155  1  0.43586672  0.19071435  0.43303710  1
  Zn  Zn156  1  0.43773393  0.18858036  0.94163992  1
  Zn  Zn157  1  0.43682042  0.68775149  0.43038481  1
  Zn  Zn158  1  0.42843627  0.68505366  0.94206664  1
  Zn  Zn159  1  0.94159888  0.18704486  0.43500122  1
  Zn  Zn160  1  0.93869422  0.18714551  0.94384368  1
  Zn  Zn161  1  0.93931059  0.68720517  0.43592627  1
  Zn  Zn162  1  0.93923916  0.68868366  0.94194852  1
  Zn  Zn163  1  0.05985815  0.30851802  0.06280449  1
  Zn  Zn164  1  0.06081292  0.31341561  0.56338930  1
  Zn  Zn165  1  0.06252598  0.81092554  0.06118822  1
  Zn  Zn166  1  0.06288986  0.81363764  0.56382651  1
  Zn  Zn167  1  0.56023230  0.31383228  0.05806928  1
  Zn  Zn168  1  0.56332423  0.31235699  0.55917963  1
  Zn  Zn169  1  0.55815634  0.81488859  0.04695100  1
  Zn  Zn170  1  0.56138763  0.81418933  0.55992290  1
  O  O171  1  0.12062208  0.11810693  0.12144044  1
  O  O172  1  0.11885106  0.11774884  0.61788763  1
  O  O173  1  0.11116388  0.62301208  0.12785621  1
  O  O174  1  0.11895980  0.61632947  0.62523438  1
  O  O175  1  0.62008090  0.11471702  0.12191946  1
  O  O176  1  0.61794037  0.11743904  0.61619362  1
  O  O177  1  0.62288583  0.62080554  0.12689160  1
  O  O178  1  0.61695137  0.61440998  0.61981388  1
  O  O179  1  0.38515673  0.37626373  0.37964294  1
  O  O180  1  0.38785697  0.38456194  0.86845166  1
  O  O181  1  0.38156954  0.87178937  0.38867121  1
  O  O182  1  0.37565662  0.88730320  0.88913081  1
  O  O183  1  0.88244081  0.38218669  0.38233414  1
  O  O184  1  0.88193960  0.37825417  0.88322478  1
  O  O185  1  0.88176492  0.88187043  0.38076984  1
  O  O186  1  0.88162452  0.88147677  0.88180901  1
  O  O187  1  0.24547857  0.00785562  0.36136333  1
  O  O188  1  0.23475877  0.00352281  0.85696817  1
  O  O189  1  0.24521717  0.50674288  0.36425079  1
  O  O190  1  0.25509680  0.49791608  0.87074940  1
  O  O191  1  0.75704742  0.00411803  0.37007122  1
  O  O192  1  0.76189964  0.01122357  0.87011595  1
  O  O193  1  0.75952914  0.50594724  0.36899710  1
  O  O194  1  0.75443018  0.50610156  0.86706998  1
  O  O195  1  0.23507122  0.50618883  0.13551228  1
  O  O196  1  0.24281974  0.49045669  0.62891501  1
  O  O197  1  0.23703321  1.00333817  0.13938781  1
  O  O198  1  0.24280398  0.99317388  0.63237687  1
  O  O199  1  0.75738797  0.50501460  0.13663493  1
  O  O200  1  0.74269824  0.49695541  0.63172476  1
  O  O201  1  0.74789554  0.99818062  0.13572054  1
  O  O202  1  0.74068721  0.99850646  0.62933967  1
  O  O203  1  -0.00146155  0.35842864  0.25752007  1
  O  O204  1  -0.00049298  0.36784033  0.76280533  1
  O  O205  1  0.01058644  0.88160653  0.26408162  1
  O  O206  1  -0.00767568  0.86445517  0.75937086  1
  O  O207  1  0.51170613  0.38705173  0.26193384  1
  O  O208  1  0.49648531  0.36665976  0.75670774  1
  O  O209  1  0.50833101  0.88584128  0.26233345  1
  O  O210  1  0.50257850  0.85851723  0.74296600  1
  O  O211  1  0.48700261  0.11904346  0.24888543  1
  O  O212  1  0.49348796  0.13313288  0.74077929  1
  O  O213  1  0.48598272  0.57982145  0.23468701  1
  O  O214  1  0.49477738  0.63472287  0.74427657  1
  O  O215  1  1.00309327  0.13825075  0.24438683  1
  O  O216  1  0.99583333  0.12990531  0.74513723  1
  O  O217  1  0.99802864  0.62305682  0.23924964  1
  O  O218  1  0.99147757  0.62909498  0.74484424  1
  O  O219  1  0.36361079  0.24679642  0.01090314  1
  O  O220  1  0.37688799  0.26346748  0.50291445  1
  O  O221  1  0.35161185  0.74842151  -0.00343588  1
  O  O222  1  0.37610236  0.75890903  0.50156942  1
  O  O223  1  0.86906253  0.25557695  0.00879860  1
  O  O224  1  0.87016755  0.25299911  0.50543253  1
  O  O225  1  0.86890816  0.75830146  0.00691306  1
  O  O226  1  0.87500536  0.76194622  0.49916768  1
  O  O227  1  0.12091292  0.23350687  0.50691628  1
  O  O228  1  0.13506195  0.24625719  0.99770046  1
  O  O229  1  0.12182730  0.74892292  0.48886093  1
  O  O230  1  0.13156102  0.74767995  0.99136481  1
  O  O231  1  0.63182215  0.24491399  0.48956290  1
  O  O232  1  0.63391175  0.24556039  0.99641872  1
  O  O233  1  0.62568218  0.74363416  0.49083430  1
  O  O234  1  0.64886719  0.80150542  0.98748143  1
  O  O235  1  0.48631596  0.24268299  0.11147060  1
  O  O236  1  0.50061449  0.24573233  0.62956326  1
  O  O237  1  0.49950044  0.75397236  0.11316320  1
  O  O238  1  0.50272847  0.73674835  0.62402488  1
  O  O239  1  0.99514204  0.24337792  0.13731646  1
  O  O240  1  0.99303419  0.24600714  0.63306712  1
  O  O241  1  0.99081010  0.74008755  0.12568302  1
  O  O242  1  0.99773781  0.74456994  0.63279041  1
  O  O243  1  -0.00277664  0.25450152  0.36045319  1
  O  O244  1  0.00679083  0.25517886  0.87314894  1
  O  O245  1  0.00713915  0.75924791  0.37651608  1
  O  O246  1  0.00615566  0.75685795  0.86919764  1
  O  O247  1  0.51225849  0.26074436  0.37861750  1
  O  O248  1  0.49927895  0.26010440  0.86942136  1
  O  O249  1  0.51172184  0.75942194  0.37880297  1
  O  O250  1  0.49900192  0.74590983  0.86787295  1
  O  O251  1  0.23528066  0.12423505  0.50188618  1
  O  O252  1  0.23839929  0.13588594  1.00120266  1
  O  O253  1  0.24808121  0.61291049  0.48303367  1
  O  O254  1  0.24160098  0.63826317  0.99768092  1
  O  O255  1  0.74280364  0.12821742  0.49351123  1
  O  O256  1  0.75181230  0.13189250  0.99132200  1
  O  O257  1  0.74196371  0.62308447  0.48790474  1
  O  O258  1  0.75326581  0.62442043  0.98216870  1
  O  O259  1  0.24866708  0.36117674  -0.00016914  1
  O  O260  1  0.25851061  0.37754739  0.50669748  1
  O  O261  1  0.23951503  0.85547100  -0.00115868  1
  O  O262  1  0.26270754  0.87896281  0.50761824  1
  O  O263  1  0.75946853  0.36263098  -0.00827419  1
  O  O264  1  0.75544404  0.36979810  0.50505846  1
  O  O265  1  0.77517066  0.89251940  0.01419813  1
  O  O266  1  0.75974438  0.87381629  0.50010302  1
  O  O267  1  0.13149866  0.50174502  0.23887505  1
  O  O268  1  0.13019992  0.49714589  0.74117307  1
  O  O269  1  0.13313630  0.99167064  0.24592384  1
  O  O270  1  0.13075962  1.00540522  0.73518346  1
  O  O271  1  0.64009605  0.48948597  0.24904203  1
  O  O272  1  0.63284314  0.50346940  0.74012031  1
  O  O273  1  0.63482721  0.99295195  0.24616273  1
  O  O274  1  0.62899491  0.99850641  0.73407614  1
  O  O275  1  0.36377553  0.00698719  0.24527185  1
  O  O276  1  0.36434791  0.01135433  0.73961150  1
  O  O277  1  0.35250078  0.49874439  0.25189380  1
  O  O278  1  0.36973579  0.50681930  0.75806993  1
  O  O279  1  0.86756670  -0.00644868  0.26035894  1
  O  O280  1  0.86957610  0.00517131  0.75704865  1
  O  O281  1  0.87142216  0.49127042  0.26169552  1
  O  O282  1  0.86730163  0.50604991  0.75526488  1
  O  O283  1  0.11016631  0.37805993  0.38531314  1
  O  O284  1  0.11751391  0.36458797  0.87705025  1
  O  O285  1  0.11872630  0.87004397  0.37378654  1
  O  O286  1  0.11212686  0.86900514  0.87679886  1
  O  O287  1  0.62126035  0.36712690  0.36968089  1
  O  O288  1  0.60999933  0.37240131  0.86965659  1
  O  O289  1  0.61766829  0.86830382  0.37019273  1
  O  O290  1  0.62296284  0.89814128  0.85232959  1
  O  O291  1  0.37755679  0.13055555  0.13689422  1
  O  O292  1  0.38155105  0.12940297  0.63050232  1
  O  O293  1  0.38304603  0.63647036  0.12607297  1
  O  O294  1  0.38352958  0.61593070  0.63740647  1
  O  O295  1  0.88725206  0.13305557  0.11845034  1
  O  O296  1  0.88126373  0.12752410  0.62911561  1
  O  O297  1  0.88385862  0.63830084  0.12489828  1
  O  O298  1  0.87920157  0.62291901  0.63700157  1
  O  O299  1  0.26218131  0.25149633  0.11632799  1
  O  O300  1  0.24818324  0.26351691  0.62092502  1
  O  O301  1  0.24321024  0.74821452  0.12062952  1
  O  O302  1  0.24353965  0.76362791  0.62900141  1
  O  O303  1  0.75795550  0.24166525  0.11408102  1
  O  O304  1  0.75354321  0.25380645  0.62063680  1
  O  O305  1  0.76374537  0.75603448  0.12584148  1
  O  O306  1  0.75269589  0.74881260  0.62168212  1
  O  O307  1  0.24997059  0.24337770  0.38011199  1
  O  O308  1  0.24444586  0.24886121  0.88551719  1
  O  O309  1  0.24267009  0.73688088  0.37621200  1
  O  O310  1  0.23487515  0.75162377  0.86082516  1
  O  O311  1  0.74610223  0.24433755  0.38006379  1
  O  O312  1  0.75236060  0.23774443  0.88108366  1
  O  O313  1  0.74095716  0.74250796  0.37661554  1
  O  O314  1  0.75435173  0.73266593  0.86912333  1
  O  O315  1  0.01509397  0.13454296  0.01326920  1
  O  O316  1  0.00703212  0.11874499  0.50618693  1
  O  O317  1  -0.00004305  0.62263853  0.01314311  1
  O  O318  1  0.00006379  0.61742170  0.50922353  1
  O  O319  1  0.49788119  0.10002553  -0.00767054  1
  O  O320  1  0.50291248  0.11820357  0.50168182  1
  O  O321  1  0.50126450  0.61053420  -0.00807337  1
  O  O322  1  0.50223601  0.61681358  0.50476059  1
  O  O323  1  0.49545292  0.38198521  0.49320576  1
  O  O324  1  0.50019579  0.38097562  0.98217453  1
  O  O325  1  0.48634487  0.88023268  0.49683993  1
  O  O326  1  0.50118713  0.91441187  0.99566543  1
  O  O327  1  0.99250885  0.37924199  0.49527135  1
  O  O328  1  0.99221059  0.37308516  0.99045593  1
  O  O329  1  0.99397662  0.88072506  0.49198230  1
  O  O330  1  0.99116137  0.87185310  0.99056156  1
  O  O331  1  0.50306488  0.49293480  0.38882403  1
  O  O332  1  0.49478253  0.49155571  0.87913169  1
  O  O333  1  0.50688399  0.98702172  0.38763699  1
  O  O334  1  0.48658582  1.00664116  0.85839863  1
  O  O335  1  0.99428391  0.49427785  0.37780216  1
  O  O336  1  0.99529136  0.49011462  0.87643199  1
  O  O337  1  0.99316653  0.99408810  0.37940757  1
  O  O338  1  0.99313211  0.99031319  0.86566739  1
  O  O339  1  0.01011743  0.01342564  0.13484456  1
  O  O340  1  0.00722350  0.00239945  0.62034338  1
  O  O341  1  0.00807728  0.50993693  0.12760324  1
  O  O342  1  0.00636900  0.50266517  0.62393890  1
  O  O343  1  0.51814649  0.00171103  0.13527365  1
  O  O344  1  0.50548377  0.00408174  0.61757687  1
  O  O345  1  0.50295175  0.48845906  0.09764883  1
  O  O346  1  0.50599487  0.50422072  0.61697206  1
  O  O347  1  0.24478941  0.38675770  0.25536895  1
  O  O348  1  0.25043204  0.37938488  0.74256560  1
  O  O349  1  0.24268543  0.88893021  0.25828678  1
  O  O350  1  0.25933451  0.88170209  0.73481370  1
  O  O351  1  0.74280060  0.38528661  0.25492264  1
  O  O352  1  0.75563943  0.38682084  0.74563742  1
  O  O353  1  0.74344453  0.88581993  0.24718585  1
  O  O354  1  0.74267027  0.88041771  0.74728783  1
  O  O355  1  0.25960985  0.11387374  0.25068554  1
  O  O356  1  0.25905777  0.11863666  0.74911216  1
  O  O357  1  0.24812000  0.61661806  0.26543292  1
  O  O358  1  0.25774080  0.61716372  0.75010184  1
  O  O359  1  0.74695108  0.11335898  0.25709814  1
  O  O360  1  0.75591925  0.11946292  0.75629602  1
  O  O361  1  0.74815106  0.61624340  0.26318017  1
  O  O362  1  0.75602560  0.61559457  0.75624394  1
  O  O363  1  0.37612877  0.12865089  0.35819008  1
  O  O364  1  0.37283005  0.13367886  0.86092310  1
  O  O365  1  0.36449827  0.61996887  0.37415994  1
  O  O366  1  0.37113322  0.61548923  0.86355970  1
  O  O367  1  0.87108583  0.11109528  0.38226169  1
  O  O368  1  0.87418933  0.11883554  0.87181511  1
  O  O369  1  0.86742898  0.61479189  0.38032687  1
  O  O370  1  0.87535126  0.61843079  0.86457513  1
  O  O371  1  0.11589154  0.38917346  0.12368519  1
  O  O372  1  0.13081347  0.38171631  0.62785599  1
  O  O373  1  0.11400649  0.88326225  0.13596831  1
  O  O374  1  0.13993508  0.88313650  0.61681608  1
  O  O375  1  0.62274658  0.37591924  0.13498367  1
  O  O376  1  0.63108443  0.38744949  0.61826477  1
  O  O377  1  0.63299198  0.88702222  0.13536051  1
  O  O378  1  0.62430488  0.88297246  0.62977218  1
  O  O379  1  0.11811711  0.24800190  0.24490188  1
  O  O380  1  0.12084694  0.24964479  0.76065731  1
  O  O381  1  0.13160419  0.76444961  0.26251249  1
  O  O382  1  0.10954245  0.74494551  0.75603027  1
  O  O383  1  0.63358295  0.25727986  0.25979029  1
  O  O384  1  0.61075496  0.24283645  0.75183730  1
  O  O385  1  0.63236159  0.76547211  0.25752170  1
  O  O386  1  0.60953645  0.75713477  0.74815096  1
  O  O387  1  0.37219921  0.23916108  0.23824366  1
  O  O388  1  0.38516680  0.24353321  0.74498864  1
  O  O389  1  0.37974143  0.74690041  0.25444271  1
  O  O390  1  0.38760170  0.74201626  0.75434243  1
  O  O391  1  0.87312491  0.25276217  0.23756921  1
  O  O392  1  0.87900404  0.24242179  0.74533525  1
  O  O393  1  0.87393640  0.75652051  0.23910214  1
  O  O394  1  0.88385613  0.74105954  0.75012173  1
  O  O395  1  0.38416620  0.48916936  0.49794026  1
  O  O396  1  0.37841353  0.50610986  0.98787699  1
  O  O397  1  0.38242247  0.99830901  0.50339783  1
  O  O398  1  0.36346842  1.00904782  0.98966519  1
  O  O399  1  0.87984083  0.49479490  0.49235744  1
  O  O400  1  0.87610992  0.49023957  0.99497792  1
  O  O401  1  0.88041400  0.99014417  0.49310114  1
  O  O402  1  0.88199120  0.99938911  0.98859531  1
  O  O403  1  0.13127278  0.00923206  0.01067284  1
  O  O404  1  0.12103435  0.00734972  0.50944044  1
  O  O405  1  0.12246421  0.50332875  0.01460056  1
  O  O406  1  0.11753998  0.50064839  0.51403934  1
  O  O407  1  0.63979351  0.00127926  0.01849858  1
  O  O408  1  0.61807084  0.00224535  0.50764452  1
  O  O409  1  0.61603405  0.49662727  -0.00474869  1
  O  O410  1  0.61882844  0.50486208  0.50509440  1
  O  O411  1  0.38812082  0.36232447  0.13901852  1
  O  O412  1  0.36708718  0.37626656  0.61689634  1
  O  O413  1  0.37081850  0.87311086  0.11323930  1
  O  O414  1  0.36341521  0.87633428  0.61259558  1
  O  O415  1  0.88328078  0.36630569  0.11351051  1
  O  O416  1  0.86830313  0.36952200  0.61978122  1
  O  O417  1  0.88055166  0.86430364  0.12102503  1
  O  O418  1  0.87355228  0.87464913  0.61433209  1
  O  O419  1  0.11946900  0.11812797  0.39189586  1
  O  O420  1  0.12360010  0.13613311  0.88428200  1
  O  O421  1  0.13115440  0.63309535  0.37799254  1
  O  O422  1  0.12505916  0.63469443  0.87689594  1
  O  O423  1  0.62843031  0.13176996  0.37769240  1
  O  O424  1  0.63692568  0.12527443  0.87627757  1
  O  O425  1  0.62898524  0.63236062  0.37619865  1
  O  O426  1  0.63766069  0.62308192  0.86789161  1
