# generated using pymatgen
data_V85Zn86O256
_symmetry_space_group_name_H-M   'P 1'
_cell_length_a   16.93038149
_cell_length_b   16.93581276
_cell_length_c   16.94373855
_cell_angle_alpha   89.99569078
_cell_angle_beta   90.09179781
_cell_angle_gamma   89.94532814
_symmetry_Int_Tables_number   1
_chemical_formula_structural   V85Zn86O256
_chemical_formula_sum   'V85 Zn86 O256'
_cell_volume   4858.26580695
_cell_formula_units_Z   1
loop_
 _symmetry_equiv_pos_site_id
 _symmetry_equiv_pos_as_xyz
  1  'x, y, z'
loop_
 _atom_site_type_symbol
 _atom_site_label
 _atom_site_symmetry_multiplicity
 _atom_site_fract_x
 _atom_site_fract_y
 _atom_site_fract_z
 _atom_site_occupancy
  V  V0  1  0.37803504  0.00099547  0.87695504  1
  V  V1  1  0.25031578  0.37038849  0.62740609  1
  V  V2  1  0.24837976  -0.00594840  0.25239482  1
  V  V3  1  0.49754401  0.12306813  0.12439967  1
  V  V4  1  0.75287817  0.86689206  0.62220077  1
  V  V5  1  0.61964256  0.86826738  0.76203399  1
  V  V6  1  0.49790793  0.12122043  0.62332073  1
  V  V7  1  0.87668040  0.25421479  0.12439443  1
  V  V8  1  0.37930481  0.49453118  0.87699752  1
  V  V9  1  0.23794473  0.74967949  -0.00198633  1
  V  V10  1  -0.00302170  0.37757575  0.88229914  1
  V  V11  1  0.64191681  0.62576330  0.49084640  1
  V  V12  1  0.87667273  0.00247725  0.87316452  1
  V  V13  1  0.74724785  0.00001887  0.74711711  1
  V  V14  1  -0.00676887  0.74064461  0.74018211  1
  V  V15  1  0.24981067  0.50057708  0.75090024  1
  V  V16  1  0.12431142  0.37211316  0.25659802  1
  V  V17  1  0.62433157  0.26367515  0.87317275  1
  V  V18  1  -0.00459464  -0.00778359  0.49972264  1
  V  V19  1  0.74377984  0.75046661  -0.00596715  1
  V  V20  1  0.24842568  0.62648896  0.37540637  1
  V  V21  1  0.24752272  0.12721532  0.37711437  1
  V  V22  1  0.38193660  0.75475472  0.12557289  1
  V  V23  1  0.62472366  0.12156351  0.50086169  1
  V  V24  1  0.49776531  -0.00285763  -0.00110476  1
  V  V25  1  -0.00905080  0.12712435  0.62583854  1
  V  V26  1  0.74079891  0.62642541  0.86852372  1
  V  V27  1  0.37278694  0.13075597  0.74484954  1
  V  V28  1  0.75341291  0.24898526  0.52208773  1
  V  V29  1  0.11991453  0.12737650  0.49768228  1
  V  V30  1  0.37565296  0.62362327  0.74982262  1
  V  V31  1  0.37276031  0.12266126  0.25196585  1
  V  V32  1  0.75225704  0.87865531  0.12660656  1
  V  V33  1  0.50496922  0.87503142  0.38431011  1
  V  V34  1  0.00308733  0.62111497  0.10958840  1
  V  V35  1  0.12389605  -0.00571597  0.12824901  1
  V  V36  1  0.24170448  0.62542961  0.88218508  1
  V  V37  1  0.49682043  0.25583400  0.74950130  1
  V  V38  1  0.00458626  0.88158073  0.35853073  1
  V  V39  1  0.24210500  0.25134128  0.49862459  1
  V  V40  1  0.36817935  0.24568848  0.12037714  1
  V  V41  1  0.12582684  0.86391594  0.75461124  1
  V  V42  1  0.86265499  0.49331020  0.37077778  1
  V  V43  1  0.25010688  0.87207398  0.12762567  1
  V  V44  1  0.87111861  0.37145752  0.51676402  1
  V  V45  1  0.62504192  0.12651718  -0.00756995  1
  V  V46  1  0.12170435  0.50475948  0.62525839  1
  V  V47  1  0.24566849  0.87597573  0.62633703  1
  V  V48  1  0.24834871  0.37187700  0.12107428  1
  V  V49  1  0.37419952  0.37024290  0.50563516  1
  V  V50  1  0.75201647  0.02573550  0.24824961  1
  V  V51  1  0.37450286  0.49850880  0.37835027  1
  V  V52  1  0.37719072  0.36921916  -0.00225160  1
  V  V53  1  0.00252825  0.86860110  0.87423094  1
  V  V54  1  0.12553581  0.75914734  0.36508816  1
  V  V55  1  0.00134194  0.24584673  0.25729954  1
  V  V56  1  0.43507253  0.82874944  -0.05823190  1
  V  V57  1  0.50918797  0.49377334  0.00386796  1
  V  V58  1  0.13193611  0.12825316  0.00129777  1
  V  V59  1  0.87828084  0.74960304  0.12258053  1
  V  V60  1  0.37782283  0.87727504  0.50331906  1
  V  V61  1  0.12836147  0.25061219  0.87576104  1
  V  V62  1  0.75558381  0.49825377  0.73817618  1
  V  V63  1  0.62415373  0.38276909  0.73376772  1
  V  V64  1  0.87770382  0.50999848  0.87882771  1
  V  V65  1  -0.00323097  0.12395462  0.12560363  1
  V  V66  1  0.37698747  0.62538843  0.25176450  1
  V  V67  1  0.62580419  0.00448891  0.12704959  1
  V  V68  1  0.38057847  0.00043607  0.38264836  1
  V  V69  1  0.24706533  0.00219481  0.75287914  1
  V  V70  1  0.24524868  0.75039379  0.50190521  1
  V  V71  1  0.49688020  0.24835087  0.25451694  1
  V  V72  1  0.37901327  0.74825519  0.62673278  1
  V  V73  1  -0.00280454  0.50065839  0.49870455  1
  V  V74  1  0.64128452  0.24849039  0.37680903  1
  V  V75  1  0.11483689  0.62616789  0.49822670  1
  V  V76  1  0.87532186  0.62189587  0.25374512  1
  V  V77  1  0.51182474  0.61638390  0.13220263  1
  V  V78  1  0.87091829  0.01531158  0.37040044  1
  V  V79  1  -0.00831349  0.25810936  0.74639397  1
  V  V80  1  0.51050313  0.61944299  0.62316914  1
  V  V81  1  0.50087924  0.37159032  0.37762177  1
  V  V82  1  0.24756729  0.49989888  0.24874213  1
  V  V83  1  0.12211656  0.50181731  0.11210918  1
  V  V84  1  0.51081685  0.74972073  0.25849583  1
  Zn  Zn85  1  0.86800178  0.73227846  0.62147367  1
  Zn  Zn86  1  0.00624884  0.74935055  0.24613741  1
  Zn  Zn87  1  0.00143874  -0.00183772  -0.00217041  1
  Zn  Zn88  1  0.73592645  0.38817649  0.11849360  1
  Zn  Zn89  1  0.62916931  0.62052669  0.00230407  1
  Zn  Zn90  1  0.73537253  0.50589804  0.23991190  1
  Zn  Zn91  1  0.25180570  0.13026185  0.87936425  1
  Zn  Zn92  1  0.87075862  0.12911948  0.74604440  1
  Zn  Zn93  1  0.62438944  0.38279262  0.24433138  1
  Zn  Zn94  1  0.50971982  0.49490307  0.50716989  1
  Zn  Zn95  1  0.61846894  -0.00597252  0.62289951  1
  Zn  Zn96  1  0.12317008  0.37599072  0.75029833  1
  Zn  Zn97  1  0.87633584  0.87761244  -0.00136267  1
  Zn  Zn98  1  0.75615981  0.25127857  -0.00563068  1
  Zn  Zn99  1  0.63023909  0.87968681  0.25671519  1
  Zn  Zn100  1  0.12117946  0.00029514  0.62648720  1
  Zn  Zn101  1  0.87323164  0.37916393  -0.00000781  1
  Zn  Zn102  1  0.50186675  0.75076687  0.76535935  1
  Zn  Zn103  1  0.84164657  0.84618335  0.46696658  1
  Zn  Zn104  1  0.00193027  0.36998241  0.37742308  1
  Zn  Zn105  1  0.65836379  0.75843073  0.38965738  1
  Zn  Zn106  1  0.75027050  0.12784489  0.87065356  1
  Zn  Zn107  1  0.18491556  0.18572553  0.18896285  1
  Zn  Zn108  1  0.18013240  0.18798508  0.68675169  1
  Zn  Zn109  1  0.18799069  0.68456439  0.18314093  1
  Zn  Zn110  1  0.18582059  0.68566691  0.68816773  1
  Zn  Zn111  1  0.67606891  0.21353235  0.17612447  1
  Zn  Zn112  1  0.68200821  0.18598871  0.69074587  1
  Zn  Zn113  1  0.69235519  0.68830852  0.19030640  1
  Zn  Zn114  1  0.68565845  0.68816721  0.69005140  1
  Zn  Zn115  1  0.31009577  0.31087240  0.31368901  1
  Zn  Zn116  1  0.31120774  0.31240767  0.81250379  1
  Zn  Zn117  1  0.31642507  0.81244184  0.31264113  1
  Zn  Zn118  1  0.30786427  0.80728538  0.81024759  1
  Zn  Zn119  1  0.81350695  0.31759197  0.30290942  1
  Zn  Zn120  1  0.81087633  0.31799560  0.81069807  1
  Zn  Zn121  1  0.82198002  0.81970189  0.30083716  1
  Zn  Zn122  1  0.81372669  0.81395219  0.80984253  1
  Zn  Zn123  1  0.18673862  0.43853409  0.43729485  1
  Zn  Zn124  1  0.19081661  0.43264335  0.93652660  1
  Zn  Zn125  1  0.18552758  0.94025538  0.44086355  1
  Zn  Zn126  1  0.18923611  0.93535970  0.94046720  1
  Zn  Zn127  1  0.68665929  0.43511732  0.44288913  1
  Zn  Zn128  1  0.69444429  0.43552784  0.93483061  1
  Zn  Zn129  1  0.68893504  0.94574400  0.43545069  1
  Zn  Zn130  1  0.68980145  0.93995965  0.93745055  1
  Zn  Zn131  1  0.31109038  0.05785677  0.06018374  1
  Zn  Zn132  1  0.31188740  0.06343755  0.56504496  1
  Zn  Zn133  1  0.31688256  0.56241573  0.06467783  1
  Zn  Zn134  1  0.31116183  0.56102826  0.56191028  1
  Zn  Zn135  1  0.81353105  0.06626776  0.05824238  1
  Zn  Zn136  1  0.81062758  0.05918004  0.56018337  1
  Zn  Zn137  1  0.81349824  0.56409169  0.05985383  1
  Zn  Zn138  1  0.80887508  0.55239542  0.56204451  1
  Zn  Zn139  1  0.43847483  0.43545226  0.19028944  1
  Zn  Zn140  1  0.43732729  0.43593977  0.68790088  1
  Zn  Zn141  1  0.43964964  0.93486642  0.19322342  1
  Zn  Zn142  1  0.43816360  0.93848268  0.69145861  1
  Zn  Zn143  1  0.93920524  0.43739427  0.18659424  1
  Zn  Zn144  1  0.93722802  0.55859729  0.68836266  1
  Zn  Zn145  1  0.93367866  0.94303854  0.18847690  1
  Zn  Zn146  1  0.93570045  0.93562707  0.68781444  1
  Zn  Zn147  1  0.06408190  0.06499007  0.31156468  1
  Zn  Zn148  1  0.06107847  0.06344221  0.81233342  1
  Zn  Zn149  1  0.05804459  0.56257567  0.31061872  1
  Zn  Zn150  1  0.06481970  0.56203185  0.81828854  1
  Zn  Zn151  1  0.56436886  0.06502967  0.31581685  1
  Zn  Zn152  1  0.56107329  0.06084741  0.81035676  1
  Zn  Zn153  1  0.56617829  0.55984973  0.32245201  1
  Zn  Zn154  1  0.56193812  0.56035072  0.81293757  1
  Zn  Zn155  1  0.43407630  0.18945546  0.44381843  1
  Zn  Zn156  1  0.44040825  0.18743986  0.93225698  1
  Zn  Zn157  1  0.43929369  0.68802999  0.44188686  1
  Zn  Zn158  1  0.43389196  0.66516720  0.94362498  1
  Zn  Zn159  1  0.93421403  0.19037217  0.44002584  1
  Zn  Zn160  1  0.94321713  0.18520866  0.93790765  1
  Zn  Zn161  1  0.83695504  0.68330471  0.43981554  1
  Zn  Zn162  1  0.93378360  0.69129693  0.93302480  1
  Zn  Zn163  1  0.06291899  0.31081354  0.06234107  1
  Zn  Zn164  1  0.06013793  0.31611358  0.56615169  1
  Zn  Zn165  1  0.06267782  0.81394093  0.06226279  1
  Zn  Zn166  1  0.01215848  0.77651119  0.52404553  1
  Zn  Zn167  1  0.55828001  0.30844503  0.06180123  1
  Zn  Zn168  1  0.55996134  0.30433316  0.56471344  1
  Zn  Zn169  1  0.57127038  0.81002448  0.07215389  1
  Zn  Zn170  1  0.56810260  0.80880825  0.56684395  1
  O  O171  1  0.12008745  0.11830713  0.11841033  1
  O  O172  1  0.11410528  0.12292333  0.61442006  1
  O  O173  1  0.11224983  0.61748116  0.12772776  1
  O  O174  1  0.13466671  0.61330826  0.61358659  1
  O  O175  1  0.61564961  0.12502140  0.11410986  1
  O  O176  1  0.61529238  0.12318635  0.61970954  1
  O  O177  1  0.61387238  0.63098043  0.12573170  1
  O  O178  1  0.61370911  0.62856534  0.61733427  1
  O  O179  1  0.37939234  0.37832140  0.38215407  1
  O  O180  1  0.36852648  0.38071425  0.88682929  1
  O  O181  1  0.38158400  0.88216817  0.38234953  1
  O  O182  1  0.37186003  0.88173612  0.87517223  1
  O  O183  1  0.88009350  0.38513824  0.37538842  1
  O  O184  1  0.88103270  0.38600297  0.87514126  1
  O  O185  1  0.88949014  0.89016961  0.36983898  1
  O  O186  1  0.88258602  0.88527815  0.87359674  1
  O  O187  1  0.25731900  0.00526615  0.37210077  1
  O  O188  1  0.25953656  0.00129132  0.86968353  1
  O  O189  1  0.25416322  0.50556865  0.36879453  1
  O  O190  1  0.25985734  0.50403640  0.87317162  1
  O  O191  1  0.76232493  0.00091870  0.36405295  1
  O  O192  1  0.75783466  0.00050563  0.86389250  1
  O  O193  1  0.76158688  0.49451382  0.37274803  1
  O  O194  1  0.75995368  0.50802753  0.86899507  1
  O  O195  1  0.24666983  0.49367353  0.13096269  1
  O  O196  1  0.24406404  0.49103889  0.62907591  1
  O  O197  1  0.24673663  0.98876079  0.12942115  1
  O  O198  1  0.25103850  0.99236672  0.63523175  1
  O  O199  1  0.75497003  0.50012063  0.12623750  1
  O  O200  1  0.74614552  0.49646960  0.63990712  1
  O  O201  1  0.74775540  0.99783395  0.12932442  1
  O  O202  1  0.74770233  0.99368697  0.63621494  1
  O  O203  1  0.00981567  0.36697003  0.24975645  1
  O  O204  1  0.00211311  0.36088431  0.75853218  1
  O  O205  1  0.00305788  0.87714832  0.25529125  1
  O  O206  1  0.00938876  0.86899795  0.75344227  1
  O  O207  1  0.49847009  0.36583780  0.26083405  1
  O  O208  1  0.51052829  0.36941696  0.74640553  1
  O  O209  1  0.50414993  0.86651568  0.26305822  1
  O  O210  1  0.51392562  0.87253982  0.74732042  1
  O  O211  1  0.49069154  0.12755511  0.24603870  1
  O  O212  1  0.49093567  0.13097067  0.74478443  1
  O  O213  1  0.49597314  0.63117894  0.24943935  1
  O  O214  1  0.49648872  0.62837837  0.74090363  1
  O  O215  1  1.01013557  0.13447720  0.23849606  1
  O  O216  1  0.99912144  0.13396022  0.74147716  1
  O  O217  1  0.99084616  0.62751906  0.24128987  1
  O  O218  1  1.00452504  0.63605727  0.75216509  1
  O  O219  1  0.37959394  0.25521599  0.00763350  1
  O  O220  1  0.36035670  0.26229895  0.49951900  1
  O  O221  1  0.38154394  0.75629201  0.00719254  1
  O  O222  1  0.36742975  0.75630923  0.50951231  1
  O  O223  1  0.88010699  0.24955857  0.00985944  1
  O  O224  1  0.86362761  0.25938421  0.49977280  1
  O  O225  1  0.86675829  0.75230130  0.01003704  1
  O  O226  1  0.89774751  0.75545504  0.50881269  1
  O  O227  1  0.13328846  0.24557138  0.50302621  1
  O  O228  1  0.12039865  0.24086770  0.99061399  1
  O  O229  1  0.12222782  0.74221503  0.48983014  1
  O  O230  1  0.13998994  0.74699683  1.00520002  1
  O  O231  1  0.63898979  0.24739086  0.49764820  1
  O  O232  1  0.61944803  0.24144627  0.98675806  1
  O  O233  1  0.62265058  0.73199956  0.50113810  1
  O  O234  1  0.64049264  0.74832980  1.00496461  1
  O  O235  1  0.48458827  0.24119258  0.13252294  1
  O  O236  1  0.50228659  0.23901414  0.64050848  1
  O  O237  1  0.49777754  0.74501364  0.13750851  1
  O  O238  1  0.48867752  0.73962044  0.62534327  1
  O  O239  1  0.99558445  0.24177667  0.12972265  1
  O  O240  1  1.00410178  0.24494105  0.63920341  1
  O  O241  1  0.99625318  0.74154931  0.12444875  1
  O  O242  1  1.00420332  0.75300423  0.64003916  1
  O  O243  1  -0.00392974  0.24905295  0.36161612  1
  O  O244  1  0.00741847  0.25487393  0.86607925  1
  O  O245  1  0.01200716  0.76784324  0.37065330  1
  O  O246  1  -0.00558815  0.76189046  0.86254965  1
  O  O247  1  0.49738785  0.26034054  0.37500841  1
  O  O248  1  0.50929824  0.24503759  0.85908892  1
  O  O249  1  0.49413760  0.75903436  0.36856885  1
  O  O250  1  0.48344301  0.75453240  0.88415674  1
  O  O251  1  0.24243900  0.13281506  0.49987778  1
  O  O252  1  0.23737928  0.12192238  0.99955588  1
  O  O253  1  0.24226512  0.63168895  0.49379917  1
  O  O254  1  0.26297198  0.64001549  0.99629980  1
  O  O255  1  0.74355797  0.14081077  0.50748181  1
  O  O256  1  0.73564018  0.12680086  0.99553280  1
  O  O257  1  0.74561113  0.62410020  0.49538630  1
  O  O258  1  0.74928969  0.63379722  0.99033671  1
  O  O259  1  0.26097008  0.37682085  0.01382191  1
  O  O260  1  0.25216848  0.36867653  0.50507688  1
  O  O261  1  0.25068168  0.86057278  0.01116300  1
  O  O262  1  0.25408069  0.87040181  0.50959629  1
  O  O263  1  0.75422642  0.36811540  0.00345231  1
  O  O264  1  0.76099839  0.36344120  0.49916256  1
  O  O265  1  0.75176387  0.87153417  0.01014616  1
  O  O266  1  0.74577986  0.88478588  0.51737776  1
  O  O267  1  0.13004316  0.49258731  0.24161443  1
  O  O268  1  0.13086411  0.50041808  0.74137681  1
  O  O269  1  0.13416267  1.00574664  0.23691361  1
  O  O270  1  0.13648292  0.99542547  0.74968566  1
  O  O271  1  0.62004552  0.49732219  0.25069703  1
  O  O272  1  0.62874026  0.48682964  0.75427884  1
  O  O273  1  0.63369477  1.00249965  0.24518454  1
  O  O274  1  0.63117056  0.99086362  0.74844782  1
  O  O275  1  0.36896267  0.00333063  0.26077346  1
  O  O276  1  0.36481293  0.00556939  0.75668987  1
  O  O277  1  0.36912097  0.50482520  0.25771326  1
  O  O278  1  0.37030066  0.50172918  0.75907109  1
  O  O279  1  0.86680804  0.00566286  0.25905108  1
  O  O280  1  0.86675365  0.00194759  0.75601838  1
  O  O281  1  0.88029739  0.50378184  0.26124960  1
  O  O282  1  0.86069051  0.49851306  0.75703508  1
  O  O283  1  0.12633277  0.37730202  0.36055780  1
  O  O284  1  0.11831165  0.36947333  0.87289846  1
  O  O285  1  0.12121746  0.87027266  0.37582265  1
  O  O286  1  0.11802259  0.88037710  0.86543475  1
  O  O287  1  0.61503183  0.36456251  0.38025294  1
  O  O288  1  0.62413917  0.36586490  0.86904121  1
  O  O289  1  0.61981322  0.87291512  0.37724450  1
  O  O290  1  0.62931582  0.87820549  0.86098329  1
  O  O291  1  0.37541513  0.12881647  0.12916771  1
  O  O292  1  0.37902473  0.12342454  0.63721165  1
  O  O293  1  0.38614687  0.63568186  0.13103959  1
  O  O294  1  0.37760281  0.63176038  0.63017173  1
  O  O295  1  0.89217929  0.12918918  0.11841537  1
  O  O296  1  0.88733287  0.12206689  0.62318746  1
  O  O297  1  0.88770879  0.63112278  0.12739021  1
  O  O298  1  0.87425382  0.61971828  0.62067789  1
  O  O299  1  0.26027353  0.25574883  0.13017287  1
  O  O300  1  0.24168528  0.26386842  0.61984635  1
  O  O301  1  0.25980238  0.75168421  0.11699340  1
  O  O302  1  0.25767473  0.75552739  0.62210574  1
  O  O303  1  0.77466965  0.23708762  0.12011184  1
  O  O304  1  0.74939563  0.25183005  0.62017282  1
  O  O305  1  0.75824278  0.75887252  0.12000804  1
  O  O306  1  0.75102194  0.76243784  0.62968467  1
  O  O307  1  0.25264573  0.23967862  0.38510534  1
  O  O308  1  0.23354826  0.24958972  0.86970033  1
  O  O309  1  0.24509936  0.74894134  0.38305672  1
  O  O310  1  0.25553073  0.74319472  0.89058081  1
  O  O311  1  0.74207005  0.25369785  0.37504624  1
  O  O312  1  0.73998579  0.24748373  0.87294396  1
  O  O313  1  0.77328703  0.76717966  0.38866317  1
  O  O314  1  0.76063808  0.73978262  0.88147744  1
  O  O315  1  0.01354854  0.11960522  0.00750269  1
  O  O316  1  0.00415811  0.12044359  0.50460582  1
  O  O317  1  -0.00272976  0.63025380  0.01092212  1
  O  O318  1  0.01325046  0.61657903  0.49547267  1
  O  O319  1  0.50666958  0.11792347  0.00291267  1
  O  O320  1  0.50873191  0.13758393  0.51297000  1
  O  O321  1  0.50513721  0.61217856  0.01360342  1
  O  O322  1  0.49915862  0.62100130  0.51382650  1
  O  O323  1  0.49094913  0.37279143  0.49827549  1
  O  O324  1  0.48632423  0.37993828  1.00840081  1
  O  O325  1  0.49577421  0.86860802  0.49192075  1
  O  O326  1  0.50431858  0.87908383  1.00445112  1
  O  O327  1  0.98851342  0.37831952  0.49845189  1
  O  O328  1  0.99979528  0.37170135  0.98528769  1
  O  O329  1  1.00633707  0.89025752  0.48841820  1
  O  O330  1  0.99954883  0.87607594  0.98910499  1
  O  O331  1  0.49263569  0.48648552  0.38255988  1
  O  O332  1  0.48604853  0.50650258  0.88579779  1
  O  O333  1  0.49097086  0.98972817  0.37127322  1
  O  O334  1  0.48591972  1.00114804  0.87778458  1
  O  O335  1  0.99883382  0.49530443  0.38811871  1
  O  O336  1  0.98585021  0.49279691  0.86323869  1
  O  O337  1  0.99332015  0.99971478  0.37763227  1
  O  O338  1  0.99367480  0.98950607  0.87185456  1
  O  O339  1  0.00820359  0.00544971  0.12486122  1
  O  O340  1  -0.00118196  0.00561880  0.61635224  1
  O  O341  1  0.00654087  0.51197376  0.12401622  1
  O  O342  1  0.00954815  0.50089561  0.61188756  1
  O  O343  1  0.50381363  0.00480400  0.12239577  1
  O  O344  1  0.49904147  0.01483953  0.63012424  1
  O  O345  1  0.49226011  0.50708962  0.11849667  1
  O  O346  1  0.49350671  0.51592715  0.62494404  1
  O  O347  1  0.24507296  0.37776446  0.24000032  1
  O  O348  1  0.24768824  0.38145120  0.74240509  1
  O  O349  1  0.25602653  0.87704281  0.23693393  1
  O  O350  1  0.24459360  0.88046525  0.74703494  1
  O  O351  1  0.74525230  0.38125441  0.24084837  1
  O  O352  1  0.73664934  0.38779484  0.75403998  1
  O  O353  1  0.75097099  0.88365379  0.23550604  1
  O  O354  1  0.74068110  0.87986157  0.74326456  1
  O  O355  1  0.25443284  0.11818016  0.25708328  1
  O  O356  1  0.25428145  0.11831131  0.74928227  1
  O  O357  1  0.25742602  0.62109007  0.25454186  1
  O  O358  1  0.25551477  0.62004409  0.75823150  1
  O  O359  1  0.74037395  0.12296133  0.23830076  1
  O  O360  1  0.75075668  0.11567060  0.75018256  1
  O  O361  1  0.76979065  0.62537246  0.24558861  1
  O  O362  1  0.73945396  0.60977421  0.75522103  1
  O  O363  1  0.37075534  0.11686305  0.37456609  1
  O  O364  1  0.37135357  0.11880720  0.86461596  1
  O  O365  1  0.36939042  0.61979167  0.37285345  1
  O  O366  1  0.36573608  0.61379019  0.86807979  1
  O  O367  1  0.87808391  0.11417239  0.37483921  1
  O  O368  1  0.87655006  0.11346799  0.87233555  1
  O  O369  1  0.88113543  0.60618369  0.36770411  1
  O  O370  1  0.86843422  0.61449241  0.87325258  1
  O  O371  1  0.13220291  0.38026163  0.12959883  1
  O  O372  1  0.13141342  0.38808581  0.62524911  1
  O  O373  1  0.13537449  0.88203045  0.12318751  1
  O  O374  1  0.14059774  0.87829186  0.63597959  1
  O  O375  1  0.63617239  0.32669772  0.13885991  1
  O  O376  1  0.62146629  0.37510532  0.63505726  1
  O  O377  1  0.63494417  0.88632235  0.13054626  1
  O  O378  1  0.63448574  0.87622691  0.63350392  1
  O  O379  1  0.11575474  0.26036753  0.24217831  1
  O  O380  1  0.11370410  0.25074838  0.75817092  1
  O  O381  1  0.12881957  0.74526179  0.26182671  1
  O  O382  1  0.12011379  0.75929701  0.74989192  1
  O  O383  1  0.60970029  0.24160629  0.26793119  1
  O  O384  1  0.61969552  0.26235847  0.75406337  1
  O  O385  1  0.61939110  0.75155221  0.25811900  1
  O  O386  1  0.62101725  0.76253095  0.75186209  1
  O  O387  1  0.37733980  0.24194282  0.24476481  1
  O  O388  1  0.38205249  0.24217854  0.75590257  1
  O  O389  1  0.38534562  0.74426354  0.24479397  1
  O  O390  1  0.37756766  0.74412916  0.74230383  1
  O  O391  1  0.88793825  0.25312559  0.23577529  1
  O  O392  1  0.88803506  0.24805349  0.75605662  1
  O  O393  1  0.88121376  0.74371612  0.23575426  1
  O  O394  1  0.89027108  0.75322121  0.74395857  1
  O  O395  1  0.37108885  0.48684358  0.49327214  1
  O  O396  1  0.38154421  0.49127044  0.99536601  1
  O  O397  1  0.36982621  0.99421643  0.49064946  1
  O  O398  1  0.38254612  1.00111018  0.99069210  1
  O  O399  1  0.87867323  0.48831655  0.48992280  1
  O  O400  1  0.87588568  0.50069335  0.98184637  1
  O  O401  1  0.88003317  1.00072598  0.48522435  1
  O  O402  1  0.87758239  0.99826032  0.98899689  1
  O  O403  1  0.12635155  0.00462488  0.01258940  1
  O  O404  1  0.11595482  0.00957953  0.50395333  1
  O  O405  1  0.13291321  0.49598183  0.01327025  1
  O  O406  1  0.11847398  0.50432909  0.50452667  1
  O  O407  1  0.61873869  0.00698657  0.00458987  1
  O  O408  1  0.62920278  0.01760296  0.50214066  1
  O  O409  1  0.61168532  0.49410400  -0.00484373  1
  O  O410  1  0.62472420  0.51737584  0.49595222  1
  O  O411  1  0.36759217  0.36536671  0.12178655  1
  O  O412  1  0.36453900  0.37981427  0.61679706  1
  O  O413  1  0.37172957  0.86152678  0.13098494  1
  O  O414  1  0.36832427  0.86838819  0.62472071  1
  O  O415  1  0.88406441  0.36127008  0.11918496  1
  O  O416  1  0.87561507  0.37998103  0.61124683  1
  O  O417  1  0.87097431  0.86858840  0.12303419  1
  O  O418  1  0.85614975  0.87510238  0.63004797  1
  O  O419  1  0.13127310  0.12009078  0.38968944  1
  O  O420  1  0.12506084  0.13153368  0.88307797  1
  O  O421  1  0.13088266  0.63120849  0.37948501  1
  O  O422  1  0.14213610  0.61750529  0.87916926  1
  O  O423  1  0.61544066  0.13791684  0.38941493  1
  O  O424  1  0.62379627  0.13102884  0.87980676  1
  O  O425  1  0.62340739  0.63542945  0.38878357  1
  O  O426  1  0.63662164  0.62075519  0.87945646  1
