# generated using pymatgen
data_V85Zn86O256
_symmetry_space_group_name_H-M   'P 1'
_cell_length_a   16.93759148
_cell_length_b   16.95916840
_cell_length_c   16.94954855
_cell_angle_alpha   89.98906380
_cell_angle_beta   89.99187705
_cell_angle_gamma   89.99129769
_symmetry_Int_Tables_number   1
_chemical_formula_structural   V85Zn86O256
_chemical_formula_sum   'V85 Zn86 O256'
_cell_volume   4868.71468045
_cell_formula_units_Z   1
loop_
 _symmetry_equiv_pos_site_id
 _symmetry_equiv_pos_as_xyz
  1  'x, y, z'
loop_
 _atom_site_type_symbol
 _atom_site_label
 _atom_site_symmetry_multiplicity
 _atom_site_fract_x
 _atom_site_fract_y
 _atom_site_fract_z
 _atom_site_occupancy
  V  V0  1  0.74989680  0.62338881  0.88177845  1
  V  V1  1  0.25178948  0.37832126  0.63420482  1
  V  V2  1  -0.00416500  0.37127518  0.89359717  1
  V  V3  1  0.75132139  0.12383502  0.87492068  1
  V  V4  1  0.62662934  0.74661245  0.87988560  1
  V  V5  1  -0.00331818  0.12472620  0.12615705  1
  V  V6  1  0.89656385  0.74721226  0.13591723  1
  V  V7  1  0.50218664  0.62264243  0.62718948  1
  V  V8  1  0.50929785  0.24630150  0.75939688  1
  V  V9  1  0.24737999  0.62764707  0.88471107  1
  V  V10  1  0.12302369  0.87204548  0.74508648  1
  V  V11  1  0.25616555  0.50714058  0.24877900  1
  V  V12  1  0.50169467  0.87382780  0.87570326  1
  V  V13  1  0.87269449  0.50117880  0.36195386  1
  V  V14  1  0.37841718  0.24912429  0.62885140  1
  V  V15  1  0.62788529  -0.00440911  0.12546463  1
  V  V16  1  0.74950624  0.62488883  0.35796080  1
  V  V17  1  0.24664278  0.24271203  0.50557940  1
  V  V18  1  0.25067285  -0.00158324  0.25084753  1
  V  V19  1  0.50782168  0.12435199  0.62453563  1
  V  V20  1  0.37438329  0.75096459  0.62542563  1
  V  V21  1  0.24889936  0.12541034  0.87557734  1
  V  V22  1  0.25185136  0.87112201  0.11989668  1
  V  V23  1  0.00073059  0.87513132  0.87291640  1
  V  V24  1  0.38003909  0.87384092  0.48911767  1
  V  V25  1  -0.00275254  0.01289552  0.49713580  1
  V  V26  1  0.75456426  0.38853906  0.12383888  1
  V  V27  1  0.62592404  0.25208570  0.36530820  1
  V  V28  1  0.24423901  0.75054748  0.49044043  1
  V  V29  1  0.50484261  0.12601527  0.13794428  1
  V  V30  1  0.62979775  0.87065221  0.74344392  1
  V  V31  1  0.12623992  0.50131310  0.62984808  1
  V  V32  1  0.48058236  0.74414549  0.25569247  1
  V  V33  1  0.50224758  -0.00223110  0.49137297  1
  V  V34  1  -0.00158511  0.00247382  -0.00069744  1
  V  V35  1  -0.00029701  0.25008174  0.25026349  1
  V  V36  1  0.61583910  0.86716511  0.25779215  1
  V  V37  1  0.37525798  0.50272549  0.37409278  1
  V  V38  1  0.50076871  0.74723883  0.75237377  1
  V  V39  1  0.75506191  0.37357168  0.62434564  1
  V  V40  1  0.87539875  0.37515164  0.50165379  1
  V  V41  1  0.62490587  0.49818962  0.62653050  1
  V  V42  1  0.50546986  0.62504833  0.11647439  1
  V  V43  1  0.63038237  0.62312915  0.49718946  1
  V  V44  1  0.13825769  0.37121656  0.24687110  1
  V  V45  1  0.38011667  0.12408407  0.25164921  1
  V  V46  1  0.75121658  -0.00437494  0.74388086  1
  V  V47  1  0.37162017  0.49739756  0.88940806  1
  V  V48  1  0.36694986  0.61617107  0.74823158  1
  V  V49  1  0.00312686  0.87228958  0.37774230  1
  V  V50  1  0.86838386  0.75579683  0.62462336  1
  V  V51  1  0.12931274  0.74928866  0.88527076  1
  V  V52  1  0.63144406  0.12563607  0.49590672  1
  V  V53  1  0.37591484  -0.00074177  0.87290706  1
  V  V54  1  0.75238244  0.25650567  -0.00452863  1
  V  V55  1  0.86562533  0.12430824  0.26065075  1
  V  V56  1  0.87767831  0.25613160  0.11821073  1
  V  V57  1  0.12265788  0.24577785  0.87375826  1
  V  V58  1  0.24953973  0.87468300  0.62098676  1
  V  V59  1  0.62592056  0.12931908  -0.00190330  1
  V  V60  1  0.44561582  0.30759990  0.19115651  1
  V  V61  1  0.12919205  0.00160968  0.12638926  1
  V  V62  1  -0.00005195  0.50402062  0.50229722  1
  V  V63  1  0.25027386  -0.00127510  0.74507519  1
  V  V64  1  0.00418076  0.52282585  0.00639329  1
  V  V65  1  0.75040366  0.87086005  0.13033857  1
  V  V66  1  0.87513477  0.87425892  0.00207880  1
  V  V67  1  0.74674077  0.74562460  0.00579164  1
  V  V68  1  0.51778459  0.49862256  0.00067479  1
  V  V69  1  0.37165006  0.86872007  -0.00068359  1
  V  V70  1  0.75200774  0.24977594  0.49318204  1
  V  V71  1  0.87675796  0.62478137  0.74968034  1
  V  V72  1  0.62904298  0.36578528  0.75742727  1
  V  V73  1  0.49943202  0.00157946  0.00052865  1
  V  V74  1  0.75250759  0.49877317  0.75231218  1
  V  V75  1  0.86668635  0.88225606  0.49745856  1
  V  V76  1  0.63332976  0.38912909  0.24496036  1
  V  V77  1  0.12462414  0.24075001  0.38049933  1
  V  V78  1  0.50056613  0.37147391  0.37587296  1
  V  V79  1  0.37928579  0.12442721  0.74932997  1
  V  V80  1  -0.00822510  0.24786403  0.73446216  1
  V  V81  1  0.00126236  0.37455696  0.37475001  1
  V  V82  1  0.11866263  0.01303171  0.61946748  1
  V  V83  1  0.37695440  0.37330724  0.50423198  1
  V  V84  1  0.12353090  0.37699499  0.75267614  1
  Zn  Zn85  1  -0.00054554  0.62731821  0.62713929  1
  Zn  Zn86  1  0.08762944  0.71362121  0.34011957  1
  Zn  Zn87  1  0.11541100  0.87316587  0.25096849  1
  Zn  Zn88  1  0.76042243  -0.00597939  0.26386824  1
  Zn  Zn89  1  0.88315213  0.12128049  0.73834846  1
  Zn  Zn90  1  0.37147236  0.73662138  0.11940573  1
  Zn  Zn91  1  0.87690754  0.49488686  0.88159297  1
  Zn  Zn92  1  0.61965324  0.74694483  0.37408440  1
  Zn  Zn93  1  0.28407110  0.28743140  0.03599236  1
  Zn  Zn94  1  -0.00068452  0.74938496  0.74856826  1
  Zn  Zn95  1  0.50167694  0.37145838  0.88049428  1
  Zn  Zn96  1  0.62749307  -0.00838107  0.62182235  1
  Zn  Zn97  1  0.90845840  0.62919874  0.25088126  1
  Zn  Zn98  1  0.37832166  -0.00239698  0.37316890  1
  Zn  Zn99  1  0.74517018  0.75550376  0.49993251  1
  Zn  Zn100  1  0.25083756  0.12151451  0.38057624  1
  Zn  Zn101  1  0.12569265  0.63043038  0.50500566  1
  Zn  Zn102  1  0.12407155  0.50628039  0.12206605  1
  Zn  Zn103  1  0.25061531  0.62084567  0.38178408  1
  Zn  Zn104  1  0.12484988  0.12630104  0.00082202  1
  Zn  Zn105  1  0.87520038  -0.00001766  0.87188383  1
  Zn  Zn106  1  0.50072312  0.49900511  0.49976511  1
  Zn  Zn107  1  0.19320956  0.18520313  0.18725748  1
  Zn  Zn108  1  0.18823997  0.19069747  0.69435233  1
  Zn  Zn109  1  0.09243964  0.68481610  0.17889374  1
  Zn  Zn110  1  0.18869833  0.68859872  0.68626878  1
  Zn  Zn111  1  0.69047218  0.19365313  0.18267974  1
  Zn  Zn112  1  0.71638308  0.17551800  0.67301963  1
  Zn  Zn113  1  0.68149256  0.68698330  0.18536486  1
  Zn  Zn114  1  0.69163767  0.68654958  0.68852114  1
  Zn  Zn115  1  0.31199413  0.31093071  0.32066336  1
  Zn  Zn116  1  0.29283221  0.33451088  0.85021948  1
  Zn  Zn117  1  0.26399834  0.77508529  0.27467134  1
  Zn  Zn118  1  0.31226457  0.81088387  0.81079181  1
  Zn  Zn119  1  0.81255807  0.31368177  0.30925384  1
  Zn  Zn120  1  0.81629359  0.31019779  0.81559717  1
  Zn  Zn121  1  0.81261105  0.81077516  0.31702347  1
  Zn  Zn122  1  0.81359053  0.81139701  0.81464517  1
  Zn  Zn123  1  0.18812294  0.43215816  0.44168764  1
  Zn  Zn124  1  0.18709307  0.44121975  0.94267587  1
  Zn  Zn125  1  0.18638165  0.93912232  0.43814181  1
  Zn  Zn126  1  0.18695810  0.94051769  0.93574349  1
  Zn  Zn127  1  0.68968172  0.44157257  0.43348753  1
  Zn  Zn128  1  0.69061542  0.43737447  0.93837938  1
  Zn  Zn129  1  0.68781196  0.94090821  0.43204344  1
  Zn  Zn130  1  0.68886570  0.93564333  0.93696062  1
  Zn  Zn131  1  0.33018939  0.09850160  0.04795179  1
  Zn  Zn132  1  0.31617584  0.06062363  0.56360758  1
  Zn  Zn133  1  0.26389673  0.61310681  0.09824749  1
  Zn  Zn134  1  0.31275456  0.55994363  0.56241912  1
  Zn  Zn135  1  0.81284541  0.06380003  0.06668085  1
  Zn  Zn136  1  0.81448011  0.06519781  0.56399937  1
  Zn  Zn137  1  0.82745485  0.56704173  0.06302535  1
  Zn  Zn138  1  0.81301668  0.56217013  0.56148797  1
  Zn  Zn139  1  0.38307156  0.49161363  0.13296330  1
  Zn  Zn140  1  0.44082561  0.43458619  0.69474070  1
  Zn  Zn141  1  0.43725262  0.93659500  0.18818719  1
  Zn  Zn142  1  0.44148586  0.93614105  0.68343536  1
  Zn  Zn143  1  0.94654482  0.43655219  0.18128324  1
  Zn  Zn144  1  0.93908769  0.43625211  0.69029175  1
  Zn  Zn145  1  0.93620209  0.93929635  0.19086313  1
  Zn  Zn146  1  0.93644643  0.93765164  0.68267481  1
  Zn  Zn147  1  0.05855253  0.06085093  0.31303067  1
  Zn  Zn148  1  0.05960331  0.06218402  0.80579195  1
  Zn  Zn149  1  0.07092201  0.55196581  0.31842705  1
  Zn  Zn150  1  0.06255091  0.55989700  0.81770782  1
  Zn  Zn151  1  0.59302971  0.05155332  0.32212118  1
  Zn  Zn152  1  0.56946576  0.05970966  0.81322776  1
  Zn  Zn153  1  0.55431117  0.56605904  0.30838506  1
  Zn  Zn154  1  0.56422743  0.56159345  0.81521724  1
  Zn  Zn155  1  0.44098524  0.18782298  0.43730005  1
  Zn  Zn156  1  0.43785778  0.19077192  0.94031307  1
  Zn  Zn157  1  0.43748102  0.68586382  0.44152891  1
  Zn  Zn158  1  0.43508753  0.68335659  0.93871554  1
  Zn  Zn159  1  0.93472535  0.19071381  0.43863581  1
  Zn  Zn160  1  0.93521243  0.18764473  0.93292912  1
  Zn  Zn161  1  0.92919973  0.68804603  0.44101487  1
  Zn  Zn162  1  0.93508084  0.69274843  0.93616254  1
  Zn  Zn163  1  0.09675396  0.29936594  0.07581140  1
  Zn  Zn164  1  0.06433540  0.31491537  0.56202259  1
  Zn  Zn165  1  0.06687796  0.82012653  0.05885004  1
  Zn  Zn166  1  0.05617040  0.81481488  0.56129196  1
  Zn  Zn167  1  0.57186879  0.31815592  0.05892690  1
  Zn  Zn168  1  0.56706081  0.31105727  0.56370190  1
  Zn  Zn169  1  0.55963297  0.80885941  0.06516418  1
  Zn  Zn170  1  0.56114819  0.80860736  0.56068965  1
  O  O171  1  0.11535294  0.11394399  0.12454435  1
  O  O172  1  0.13043910  0.11030553  0.63153820  1
  O  O173  1  0.15359985  0.61532508  0.11996247  1
  O  O174  1  0.12208816  0.61546311  0.62567619  1
  O  O175  1  0.62433819  0.11609528  0.12059138  1
  O  O176  1  0.62246895  0.12633618  0.61175133  1
  O  O177  1  0.60510385  0.62627774  0.12480639  1
  O  O178  1  0.62510223  0.61437798  0.62118108  1
  O  O179  1  0.38426372  0.37726480  0.38368418  1
  O  O180  1  0.38792844  0.39896703  0.85446327  1
  O  O181  1  0.37691924  0.87707349  0.39043404  1
  O  O182  1  0.37970318  0.88052801  0.87887218  1
  O  O183  1  0.87969942  0.38366242  0.37901051  1
  O  O184  1  0.89196576  0.37569336  0.87390697  1
  O  O185  1  0.88217471  0.87537385  0.38936972  1
  O  O186  1  0.88319843  0.87492386  0.88350070  1
  O  O187  1  0.25168770  0.00343518  0.36732806  1
  O  O188  1  0.25430923  0.00298063  0.86164991  1
  O  O189  1  0.26014175  0.49214538  0.37317564  1
  O  O190  1  0.26240438  0.51345613  0.87622604  1
  O  O191  1  0.70188430  0.01824185  0.35501347  1
  O  O192  1  0.75308501  0.00588077  0.87168475  1
  O  O193  1  0.76319786  0.50989564  0.37765751  1
  O  O194  1  0.75545444  0.50688344  0.87198642  1
  O  O195  1  0.26415639  0.49437074  0.14337570  1
  O  O196  1  0.24347523  0.48597517  0.62304303  1
  O  O197  1  0.23988274  1.00057354  0.13098992  1
  O  O198  1  0.23971625  0.99411385  0.62483817  1
  O  O199  1  0.76385493  0.48736880  0.11552663  1
  O  O200  1  0.74383671  0.49258940  0.63021517  1
  O  O201  1  0.74392367  0.98753992  0.12796643  1
  O  O202  1  0.74465014  0.99682592  0.64072547  1
  O  O203  1  0.00731477  0.36858644  0.25841129  1
  O  O204  1  0.00906649  0.36650055  0.75233989  1
  O  O205  1  -0.00334792  0.88571870  0.27246519  1
  O  O206  1  0.00730481  0.87602416  0.75468512  1
  O  O207  1  0.50955284  0.36446762  0.25351152  1
  O  O208  1  0.51284246  0.36259219  0.74875868  1
  O  O209  1  0.50325843  0.85498518  0.23838398  1
  O  O210  1  0.50677925  0.86725261  0.75644037  1
  O  O211  1  0.50320008  0.11994398  0.24171773  1
  O  O212  1  0.50420047  0.12868450  0.74408441  1
  O  O213  1  0.49608356  0.63623690  0.23718662  1
  O  O214  1  0.49431153  0.62990281  0.74656992  1
  O  O215  1  0.99196296  0.13065952  0.24465449  1
  O  O216  1  0.99827204  0.14145196  0.74948260  1
  O  O217  1  1.02273152  0.63873052  0.26169329  1
  O  O218  1  0.98692240  0.62459724  0.75369751  1
  O  O219  1  0.36039950  0.20900642  0.01546665  1
  O  O220  1  0.37125611  0.25467168  0.50919201  1
  O  O221  1  0.37771792  0.76574227  -0.00204170  1
  O  O222  1  0.37357446  0.75702967  0.50831935  1
  O  O223  1  0.86663555  0.24465216  0.00808213  1
  O  O224  1  0.86746420  0.26615652  0.49373550  1
  O  O225  1  0.87031378  0.75577967  0.01454368  1
  O  O226  1  0.86934946  0.76283313  0.50661088  1
  O  O227  1  0.13419854  0.25560465  0.49347130  1
  O  O228  1  0.11630069  0.24201518  0.97773945  1
  O  O229  1  0.13733978  0.75205448  0.50785812  1
  O  O230  1  0.12833411  0.75990146  0.98412357  1
  O  O231  1  0.63290121  0.24724340  0.49125298  1
  O  O232  1  0.63810300  0.23933236  1.00729103  1
  O  O233  1  0.62595103  0.73991340  0.49645263  1
  O  O234  1  0.63897324  0.75501130  0.99678953  1
  O  O235  1  0.50488099  0.24683012  0.12945647  1
  O  O236  1  0.50013109  0.23872913  0.63002063  1
  O  O237  1  0.49198345  0.73814620  0.12669911  1
  O  O238  1  0.49461701  0.74110426  0.63168249  1
  O  O239  1  0.99787186  0.24397920  0.12947138  1
  O  O240  1  1.00241598  0.25433779  0.63556482  1
  O  O241  1  1.00024732  0.75426097  0.12701657  1
  O  O242  1  0.98634522  0.74697254  0.62701767  1
  O  O243  1  0.00712452  0.25542922  0.37307527  1
  O  O244  1  0.00302046  0.25854475  0.86602922  1
  O  O245  1  -0.00221797  0.76687656  0.38825188  1
  O  O246  1  0.00880160  0.75821573  0.87118153  1
  O  O247  1  0.50891929  0.26444794  0.38043649  1
  O  O248  1  0.49958138  0.24960225  0.86449933  1
  O  O249  1  0.49724658  0.74013594  0.35892092  1
  O  O250  1  0.50579216  0.75228039  0.87218162  1
  O  O251  1  0.25703969  0.13866123  0.50297234  1
  O  O252  1  0.23885550  0.10584029  0.97829257  1
  O  O253  1  0.25171128  0.63708458  0.50485339  1
  O  O254  1  0.25945820  0.63287628  0.98172957  1
  O  O255  1  0.74306739  0.13700006  0.49764360  1
  O  O256  1  0.74586372  0.12898329  0.99345432  1
  O  O257  1  0.73883173  0.62333589  0.49518573  1
  O  O258  1  0.75875399  0.63476160  0.99470048  1
  O  O259  1  0.26604013  0.36593590  -0.04077976  1
  O  O260  1  0.25665940  0.36362348  0.51268144  1
  O  O261  1  0.26072901  0.88718267  0.00619649  1
  O  O262  1  0.25745496  0.86968300  0.50379774  1
  O  O263  1  0.74541935  0.36469187  0.00702744  1
  O  O264  1  0.75730715  0.37524009  0.50446695  1
  O  O265  1  0.75677759  0.86798338  0.00887012  1
  O  O266  1  0.76184150  0.87992196  0.49425030  1
  O  O267  1  0.14284635  0.48636926  0.25634160  1
  O  O268  1  0.11742203  0.49163289  0.73890624  1
  O  O269  1  0.13178837  0.99908699  0.24363725  1
  O  O270  1  0.12643714  0.99016254  0.73820100  1
  O  O271  1  0.61967799  0.48627379  0.25278356  1
  O  O272  1  0.63247995  0.49376515  0.74368277  1
  O  O273  1  0.60810742  0.98294172  0.23029764  1
  O  O274  1  0.63024627  0.98586055  0.74952586  1
  O  O275  1  0.37068479  0.00690507  0.25418287  1
  O  O276  1  0.37318380  0.00398141  0.75278222  1
  O  O277  1  0.36247585  0.48616042  0.26196835  1
  O  O278  1  0.38313914  0.51508792  0.75438559  1
  O  O279  1  0.87297553  0.01781192  0.24578653  1
  O  O280  1  0.86688288  0.00045473  0.75050348  1
  O  O281  1  0.89040130  0.50536250  0.26034799  1
  O  O282  1  0.86962074  0.50693269  0.75400300  1
  O  O283  1  0.12070047  0.36669810  0.36806928  1
  O  O284  1  0.11502740  0.36720654  0.86756309  1
  O  O285  1  0.10830182  0.87917410  0.37814227  1
  O  O286  1  0.12201348  0.87083825  0.86457164  1
  O  O287  1  0.62046193  0.37344606  0.36498351  1
  O  O288  1  0.62570533  0.37879878  0.86043307  1
  O  O289  1  0.62258496  0.86879358  0.36056699  1
  O  O290  1  0.61957910  0.86658225  0.86922559  1
  O  O291  1  0.38970776  0.11829438  0.14381285  1
  O  O292  1  0.38670539  0.12820862  0.63022367  1
  O  O293  1  0.37923307  0.61870847  0.11981169  1
  O  O294  1  0.37990828  0.62707687  0.63420095  1
  O  O295  1  0.88144307  0.13591752  0.12963923  1
  O  O296  1  0.82523502  0.14016941  0.64405039  1
  O  O297  1  0.87892060  0.64437371  0.13285127  1
  O  O298  1  0.87517248  0.63003347  0.63366929  1
  O  O299  1  0.20517535  0.26357810  0.11102671  1
  O  O300  1  0.25481177  0.25850432  0.62447162  1
  O  O301  1  0.25685896  0.76989305  0.12928778  1
  O  O302  1  0.25692173  0.75736038  0.61921968  1
  O  O303  1  0.76085607  0.25822309  0.11559264  1
  O  O304  1  0.73816068  0.27037403  0.60809520  1
  O  O305  1  0.75231043  0.75804262  0.12159777  1
  O  O306  1  0.76262857  0.74657980  0.62167630  1
  O  O307  1  0.24297211  0.24724951  0.38777479  1
  O  O308  1  0.23769941  0.23378296  0.85811671  1
  O  O309  1  0.25992234  0.74622704  0.38775022  1
  O  O310  1  0.24318238  0.73831964  0.86588192  1
  O  O311  1  0.74165423  0.26071117  0.38566143  1
  O  O312  1  0.75444789  0.24150869  0.88517216  1
  O  O313  1  0.74630373  0.73852362  0.37865955  1
  O  O314  1  0.74826149  0.74364023  0.88655751  1
  O  O315  1  -0.00108759  0.11686314  0.00511062  1
  O  O316  1  -0.01032954  0.11232031  0.50070797  1
  O  O317  1  0.00646811  0.62105369  -0.00906267  1
  O  O318  1  -0.00304155  0.61245163  0.50239731  1
  O  O319  1  0.51074597  0.12173181  0.01131935  1
  O  O320  1  0.50598829  0.11943477  0.50863808  1
  O  O321  1  0.49935466  0.61842595  0.00787474  1
  O  O322  1  0.51269717  0.62166849  0.50825949  1
  O  O323  1  0.49705672  0.37604851  0.49364575  1
  O  O324  1  0.50982915  0.39065606  0.99634050  1
  O  O325  1  0.49299840  0.88632040  0.51071942  1
  O  O326  1  0.49352735  0.88140477  0.99542779  1
  O  O327  1  0.99304581  0.38278224  0.49645525  1
  O  O328  1  1.00450271  0.36406209  0.99077376  1
  O  O329  1  0.99062814  0.88636780  0.49355243  1
  O  O330  1  0.99443603  0.88323732  0.99411461  1
  O  O331  1  0.49381439  0.48768785  0.37397239  1
  O  O332  1  0.49353985  0.50627719  0.88754383  1
  O  O333  1  0.50230939  1.00431821  0.38899868  1
  O  O334  1  0.49746316  0.99339308  0.87991963  1
  O  O335  1  0.99503691  0.49257639  0.38569613  1
  O  O336  1  1.00268433  0.48598182  0.88553275  1
  O  O337  1  1.00246550  0.99556981  0.39197073  1
  O  O338  1  0.99958594  0.99460072  0.88208690  1
  O  O339  1  0.00516428  0.00373873  0.11909594  1
  O  O340  1  0.01101529  -0.00108936  0.61519954  1
  O  O341  1  0.00097644  0.50929220  0.11206967  1
  O  O342  1  0.00685439  0.50007420  0.61831731  1
  O  O343  1  0.50595894  0.00815480  0.11763048  1
  O  O344  1  0.50519560  0.01242574  0.62087794  1
  O  O345  1  0.49624265  0.50945470  0.10845429  1
  O  O346  1  0.50975082  0.50398201  0.62674851  1
  O  O347  1  0.24047052  0.37362435  0.25506983  1
  O  O348  1  0.23436332  0.36927208  0.74758754  1
  O  O349  1  0.25392953  0.89061938  0.23946410  1
  O  O350  1  0.24318816  0.88002728  0.74239999  1
  O  O351  1  0.74105979  0.37795433  0.24256089  1
  O  O352  1  0.74774959  0.37671729  0.74298462  1
  O  O353  1  0.74202187  0.87432785  0.24444324  1
  O  O354  1  0.74066105  0.88246019  0.76028053  1
  O  O355  1  0.26127336  0.11636049  0.25020470  1
  O  O356  1  0.25765802  0.11623222  0.75298226  1
  O  O357  1  0.25465735  0.60627400  0.26077675  1
  O  O358  1  0.26432756  0.62787301  0.75347721  1
  O  O359  1  0.76441338  0.12853977  0.24184514  1
  O  O360  1  0.72888200  0.11098137  0.77007739  1
  O  O361  1  0.74760242  0.62707921  0.25743244  1
  O  O362  1  0.76008684  0.61934996  0.75717572  1
  O  O363  1  0.37729079  0.12573333  0.36339646  1
  O  O364  1  0.36863736  0.11814231  0.86651010  1
  O  O365  1  0.37679432  0.60546873  0.38562674  1
  O  O366  1  0.36933792  0.61778340  0.86594668  1
  O  O367  1  0.87442037  0.13256451  0.35942371  1
  O  O368  1  0.86443485  0.12182429  0.86659765  1
  O  O369  1  0.86856272  0.62011682  0.36865522  1
  O  O370  1  0.86455189  0.62787750  0.86783824  1
  O  O371  1  0.11311026  0.38910189  0.14734740  1
  O  O372  1  0.13292067  0.38011492  0.63289053  1
  O  O373  1  0.13202516  0.88704702  0.12671453  1
  O  O374  1  0.12889411  0.88224258  0.62993041  1
  O  O375  1  0.63703116  0.37226642  0.13837847  1
  O  O376  1  0.63088310  0.38581035  0.63117582  1
  O  O377  1  0.63363149  0.87720676  0.12758527  1
  O  O378  1  0.62103456  0.86981194  0.63980612  1
  O  O379  1  0.12113293  0.25778579  0.25958340  1
  O  O380  1  0.11382548  0.25638021  0.75527250  1
  O  O381  1  0.14681429  0.76130668  0.25439631  1
  O  O382  1  0.12381123  0.76252791  0.75105517  1
  O  O383  1  0.63369368  0.25761781  0.26182586  1
  O  O384  1  0.62068683  0.25715989  0.73978088  1
  O  O385  1  0.61120495  0.75397826  0.24916759  1
  O  O386  1  0.62261656  0.75331833  0.75742973  1
  O  O387  1  0.38076997  0.24738001  0.24847804  1
  O  O388  1  0.39190152  0.24005773  0.74221159  1
  O  O389  1  0.37875383  0.75278759  0.24537808  1
  O  O390  1  0.38174946  0.74064128  0.74558538  1
  O  O391  1  0.88090366  0.24312783  0.24310594  1
  O  O392  1  0.88984482  0.25448850  0.74816967  1
  O  O393  1  0.87813150  0.75450242  0.23703833  1
  O  O394  1  0.87453707  0.74332079  0.74350410  1
  O  O395  1  0.37807004  0.48880077  0.49633119  1
  O  O396  1  0.38365987  0.49721391  0.98801160  1
  O  O397  1  0.38458916  0.99281514  0.50007141  1
  O  O398  1  0.38413882  1.00110876  0.99059605  1
  O  O399  1  0.88196859  0.49248367  0.49316529  1
  O  O400  1  0.89706761  0.50469423  0.99632376  1
  O  O401  1  0.88405298  0.99255218  0.50831027  1
  O  O402  1  0.88504308  0.99463019  1.00258464  1
  O  O403  1  0.11201693  -0.00098091  0.00677101  1
  O  O404  1  0.11355872  0.00017392  0.51110186  1
  O  O405  1  0.10839169  0.49271693  0.00209481  1
  O  O406  1  0.11682424  0.49461885  0.51381527  1
  O  O407  1  0.62117286  0.00235372  0.01051064  1
  O  O408  1  0.61971528  0.00801731  0.50409042  1
  O  O409  1  0.61620781  0.50637349  -0.00618099  1
  O  O410  1  0.62424979  0.50434442  0.50882724  1
  O  O411  1  0.39117697  0.36706224  0.13411477  1
  O  O412  1  0.36926940  0.37004015  0.62730849  1
  O  O413  1  0.36793829  0.88314032  0.11186261  1
  O  O414  1  0.36783049  0.87041203  0.62100867  1
  O  O415  1  0.87107514  0.36245069  0.13357476  1
  O  O416  1  0.86622461  0.38371944  0.61493913  1
  O  O417  1  0.87067167  0.86576505  0.12381329  1
  O  O418  1  0.87807340  0.86878467  0.61066031  1
  O  O419  1  0.12650495  0.13786153  0.37036685  1
  O  O420  1  0.13093323  0.12930541  0.86728667  1
  O  O421  1  0.13271634  0.62033661  0.38965603  1
  O  O422  1  0.13971876  0.63249646  0.86575058  1
  O  O423  1  0.60991334  0.14301907  0.38988623  1
  O  O424  1  0.62926849  0.11760211  0.89352820  1
  O  O425  1  0.63070936  0.62052421  0.38108899  1
  O  O426  1  0.64189058  0.63114860  0.86859273  1
