# generated using pymatgen
data_V85Zn86O256
_symmetry_space_group_name_H-M   'P 1'
_cell_length_a   16.94109738
_cell_length_b   16.93633295
_cell_length_c   16.93631463
_cell_angle_alpha   90.04655189
_cell_angle_beta   89.97114188
_cell_angle_gamma   89.95509488
_symmetry_Int_Tables_number   1
_chemical_formula_structural   V85Zn86O256
_chemical_formula_sum   'V85 Zn86 O256'
_cell_volume   4859.36479430
_cell_formula_units_Z   1
loop_
 _symmetry_equiv_pos_site_id
 _symmetry_equiv_pos_as_xyz
  1  'x, y, z'
loop_
 _atom_site_type_symbol
 _atom_site_label
 _atom_site_symmetry_multiplicity
 _atom_site_fract_x
 _atom_site_fract_y
 _atom_site_fract_z
 _atom_site_occupancy
  V  V0  1  0.62593754  0.37313683  0.74811521  1
  V  V1  1  0.37501450  0.75923560  0.11263934  1
  V  V2  1  0.62962318  0.00283784  0.63189052  1
  V  V3  1  0.25354912  0.62125084  0.37502454  1
  V  V4  1  0.88165324  0.49448834  0.37555094  1
  V  V5  1  0.25375437  0.12191725  0.87134715  1
  V  V6  1  0.50021929  0.24247594  0.74593019  1
  V  V7  1  0.01088840  0.87186064  0.87838289  1
  V  V8  1  0.12899323  -0.01129214  0.62612326  1
  V  V9  1  0.23891221  0.62896098  0.88112742  1
  V  V10  1  -0.00136099  -0.00087654  0.50305945  1
  V  V11  1  0.38860285  0.74903164  0.62837725  1
  V  V12  1  0.49725507  0.24924637  0.25662007  1
  V  V13  1  0.49382283  0.86793318  0.87005315  1
  V  V14  1  0.25033630  0.25312359  0.50358510  1
  V  V15  1  0.49070852  -0.00452587  -0.00015365  1
  V  V16  1  0.61203498  0.62203559  0.50220117  1
  V  V17  1  0.75468933  0.87405058  0.12860601  1
  V  V18  1  0.37519552  0.50211526  0.87512661  1
  V  V19  1  -0.00382970  0.26572075  0.25374629  1
  V  V20  1  0.63830860  0.24717697  0.87709461  1
  V  V21  1  0.49519547  0.39131784  0.38085632  1
  V  V22  1  0.61821198  0.12687584  0.50155030  1
  V  V23  1  0.50026985  0.37150953  0.87620886  1
  V  V24  1  0.25240569  -0.00871265  0.74661096  1
  V  V25  1  0.12358769  0.12070152  -0.00242344  1
  V  V26  1  0.01511422  0.75267896  0.25289657  1
  V  V27  1  0.11700114  0.26139364  0.37902860  1
  V  V28  1  0.36833489  0.87631261  0.50720577  1
  V  V29  1  0.62597293  0.50029346  0.12473523  1
  V  V30  1  0.01293999  0.87011560  0.37395502  1
  V  V31  1  0.37119120  0.37706684  0.00448699  1
  V  V32  1  0.74901445  0.25056708  0.49859803  1
  V  V33  1  0.87460016  0.87282954  0.49922950  1
  V  V34  1  0.87356557  0.25062533  0.62683741  1
  V  V35  1  0.86071954  0.11218347  0.76122522  1
  V  V36  1  0.63243249  0.12857130  -0.00161894  1
  V  V37  1  0.49920785  0.62701475  0.12380989  1
  V  V38  1  0.23465194  0.75859300  -0.00344125  1
  V  V39  1  0.75191605  0.49821307  0.74540339  1
  V  V40  1  0.00100566  0.24717659  0.75115741  1
  V  V41  1  0.74765542  0.00014122  0.25430232  1
  V  V42  1  0.05630831  0.07202754  0.17238042  1
  V  V43  1  0.37659797  0.24588709  0.62255650  1
  V  V44  1  0.74906902  0.62406932  0.37618568  1
  V  V45  1  0.37534350  0.62338538  0.25272349  1
  V  V46  1  0.01152209  0.50079817  0.00483762  1
  V  V47  1  0.35987204  0.12558246  0.24877623  1
  V  V48  1  0.49624162  0.87840807  0.37540069  1
  V  V49  1  0.74813476  0.36847175  0.11787324  1
  V  V50  1  -0.00000803  0.37390792  0.87638341  1
  V  V51  1  0.00062886  0.12230350  0.62998090  1
  V  V52  1  0.87630627  0.24757630  0.11760964  1
  V  V53  1  0.23902197  0.88432444  0.13867160  1
  V  V54  1  0.12937134  0.37331348  0.74572739  1
  V  V55  1  0.38710487  0.62774550  0.74797697  1
  V  V56  1  0.25194755  0.50016159  0.74983374  1
  V  V57  1  0.36355568  0.00101734  0.37079654  1
  V  V58  1  0.62350712  0.87543036  0.25096971  1
  V  V59  1  0.49648502  0.75370366  0.24832946  1
  V  V60  1  0.61017541  0.50280678  0.62223782  1
  V  V61  1  0.87887532  0.74822050  0.11956329  1
  V  V62  1  0.00232578  -0.00038112  -0.00524259  1
  V  V63  1  0.24758682  0.75149032  0.50360835  1
  V  V64  1  0.87653177  0.62770243  0.24876746  1
  V  V65  1  0.87797553  0.62266752  0.74965311  1
  V  V66  1  0.87324048  0.12514554  0.24900015  1
  V  V67  1  0.37603387  0.25415978  0.12393300  1
  V  V68  1  0.49554416  0.00476993  0.50938340  1
  V  V69  1  0.74805049  0.74963955  0.50252860  1
  V  V70  1  0.24904030  0.49572296  0.23701275  1
  V  V71  1  0.37287383  0.38860626  0.50387533  1
  V  V72  1  0.62543476  0.62512244  0.00018361  1
  V  V73  1  0.49887292  0.12387179  0.12492243  1
  V  V74  1  0.00194047  0.62268390  0.62203568  1
  V  V75  1  0.62213235  0.37579522  0.25100041  1
  V  V76  1  0.62265899  0.74673698  0.86436586  1
  V  V77  1  0.13270327  0.49788989  0.62102821  1
  V  V78  1  0.01135069  0.74582565  0.75644594  1
  V  V79  1  0.75319818  0.74817604  -0.00123753  1
  V  V80  1  0.24826140  0.25280997  -0.00152659  1
  V  V81  1  0.75154489  0.62295714  0.87502899  1
  V  V82  1  0.01511763  0.62190466  0.12217891  1
  V  V83  1  0.12603474  0.62787447  0.49283819  1
  V  V84  1  0.82925427  0.93072333  -0.05678554  1
  Zn  Zn85  1  0.74779151  0.12606991  0.37533767  1
  Zn  Zn86  1  0.37828850  0.11971813  0.74470211  1
  Zn  Zn87  1  0.87654589  0.49851247  0.87916658  1
  Zn  Zn88  1  0.12591905  0.24760701  0.87196067  1
  Zn  Zn89  1  0.24362037  0.12858101  0.37248302  1
  Zn  Zn90  1  0.12771779  0.12820603  0.50491129  1
  Zn  Zn91  1  0.75564572  0.88186889  0.63033089  1
  Zn  Zn92  1  0.88045865  0.36932746  0.49258967  1
  Zn  Zn93  1  0.37343829  -0.00598794  0.87524502  1
  Zn  Zn94  1  0.00801527  0.49249890  0.49143624  1
  Zn  Zn95  1  0.62241798  -0.00096880  0.12574506  1
  Zn  Zn96  1  0.49928201  0.49945762  0.00050878  1
  Zn  Zn97  1  0.11953055  0.38789001  0.24203047  1
  Zn  Zn98  1  0.87641905  0.74899230  0.62521470  1
  Zn  Zn99  1  0.62898323  0.87422996  0.74833945  1
  Zn  Zn100  1  0.62330013  0.25173940  0.37735155  1
  Zn  Zn101  1  0.62272942  0.75070656  0.37646105  1
  Zn  Zn102  1  0.75020674  0.49919152  0.24990805  1
  Zn  Zn103  1  0.74997931  0.37694411  0.62124880  1
  Zn  Zn104  1  0.87263593  0.37293588  -0.00157853  1
  Zn  Zn105  1  0.13136627  0.86648473  0.75053342  1
  Zn  Zn106  1  0.87453785  -0.00038001  0.37612900  1
  Zn  Zn107  1  0.17488615  0.23032464  0.17502677  1
  Zn  Zn108  1  0.19062762  0.18510384  0.68431026  1
  Zn  Zn109  1  0.19322235  0.69155920  0.18571885  1
  Zn  Zn110  1  0.19451870  0.68442467  0.68348488  1
  Zn  Zn111  1  0.68569366  0.18882059  0.18675708  1
  Zn  Zn112  1  0.68640118  0.18425466  0.68526155  1
  Zn  Zn113  1  0.68738754  0.68940580  0.18975561  1
  Zn  Zn114  1  0.68791127  0.68447484  0.68313036  1
  Zn  Zn115  1  0.31214953  0.31561576  0.31917247  1
  Zn  Zn116  1  0.31376103  0.31218335  0.81270077  1
  Zn  Zn117  1  0.30822152  0.80800275  0.31458238  1
  Zn  Zn118  1  0.31323892  0.80925770  0.81259633  1
  Zn  Zn119  1  0.80662440  0.31206873  0.30827618  1
  Zn  Zn120  1  0.81624909  0.31062396  0.80871417  1
  Zn  Zn121  1  0.81750004  0.81052006  0.31551345  1
  Zn  Zn122  1  0.81200633  0.80774702  0.80449966  1
  Zn  Zn123  1  0.19379161  0.43909714  0.43074778  1
  Zn  Zn124  1  0.18727845  0.43712677  0.93531497  1
  Zn  Zn125  1  0.18735183  0.93820842  0.43980357  1
  Zn  Zn126  1  0.18847145  0.93778956  0.93939657  1
  Zn  Zn127  1  0.68776738  0.43817458  0.43857003  1
  Zn  Zn128  1  0.68757311  0.43739156  0.93618017  1
  Zn  Zn129  1  0.68499764  0.93809928  0.44049851  1
  Zn  Zn130  1  0.66521666  0.93816619  0.93873652  1
  Zn  Zn131  1  0.30972590  0.06312638  0.06329539  1
  Zn  Zn132  1  0.31028488  0.06673144  0.56343711  1
  Zn  Zn133  1  0.31182406  0.56787906  0.06108838  1
  Zn  Zn134  1  0.31444614  0.56808427  0.56625787  1
  Zn  Zn135  1  0.81096869  0.06550890  0.07046439  1
  Zn  Zn136  1  0.81240944  0.06692389  0.56454641  1
  Zn  Zn137  1  0.81744133  0.55768745  0.06120401  1
  Zn  Zn138  1  0.81085643  0.56256982  0.56024349  1
  Zn  Zn139  1  0.43619091  0.44025949  0.18933861  1
  Zn  Zn140  1  0.43485368  0.43164635  0.68764293  1
  Zn  Zn141  1  0.42955255  0.94007179  0.18699642  1
  Zn  Zn142  1  0.43881363  0.93327251  0.68968286  1
  Zn  Zn143  1  0.93335559  0.44031444  0.18344594  1
  Zn  Zn144  1  0.94196424  0.43637112  0.68317695  1
  Zn  Zn145  1  0.93553772  0.93279406  0.19081372  1
  Zn  Zn146  1  0.93750404  0.93344041  0.69120368  1
  Zn  Zn147  1  0.06053482  0.06970495  0.33350956  1
  Zn  Zn148  1  0.06221667  0.05716028  0.81359080  1
  Zn  Zn149  1  0.06609595  0.56573845  0.30890015  1
  Zn  Zn150  1  0.06357418  0.55810248  0.81405616  1
  Zn  Zn151  1  0.55843914  0.06278967  0.31646423  1
  Zn  Zn152  1  0.56154424  0.06250343  0.81685391  1
  Zn  Zn153  1  0.56335632  0.56555735  0.31177915  1
  Zn  Zn154  1  0.56452442  0.55819719  0.81239114  1
  Zn  Zn155  1  0.43355281  0.18805325  0.43691502  1
  Zn  Zn156  1  0.43862779  0.18681578  0.93566395  1
  Zn  Zn157  1  0.43356661  0.69103776  0.43620059  1
  Zn  Zn158  1  0.43567023  0.68637018  0.93624664  1
  Zn  Zn159  1  0.93659339  0.18618534  0.43728876  1
  Zn  Zn160  1  0.93691172  0.18416282  0.93560393  1
  Zn  Zn161  1  0.93888542  0.68662010  0.43608502  1
  Zn  Zn162  1  0.94192031  0.68420059  0.93769842  1
  Zn  Zn163  1  0.06115091  0.31258637  0.06557854  1
  Zn  Zn164  1  0.05960135  0.31600329  0.56285041  1
  Zn  Zn165  1  0.06245360  0.81806257  0.06554569  1
  Zn  Zn166  1  0.06130983  0.80861891  0.56281201  1
  Zn  Zn167  1  0.56103176  0.31058384  0.06182169  1
  Zn  Zn168  1  0.56001959  0.31617865  0.56339144  1
  Zn  Zn169  1  0.56504786  0.81330290  0.05835882  1
  Zn  Zn170  1  0.56296523  0.81670982  0.56064953  1
  O  O171  1  0.12141733  0.13227492  0.11749594  1
  O  O172  1  0.11268708  0.11763778  0.62496429  1
  O  O173  1  0.11360198  0.63008935  0.12803976  1
  O  O174  1  0.12170359  0.61723516  0.61542789  1
  O  O175  1  0.61292122  0.12648716  0.11817242  1
  O  O176  1  0.62395871  0.11524699  0.61280566  1
  O  O177  1  0.62044481  0.61950821  0.12190510  1
  O  O178  1  0.62666308  0.61598035  0.61435038  1
  O  O179  1  0.38752677  0.37417422  0.38762297  1
  O  O180  1  0.38207248  0.38025285  0.88269760  1
  O  O181  1  0.37802572  0.88246127  0.38071492  1
  O  O182  1  0.38984606  0.87183113  0.87381082  1
  O  O183  1  0.86718579  0.39254176  0.36927396  1
  O  O184  1  0.88886093  0.37442524  0.87391196  1
  O  O185  1  0.88126856  0.87710937  0.38726899  1
  O  O186  1  0.88217226  0.86955251  0.87937350  1
  O  O187  1  0.25988744  0.00548586  0.38016273  1
  O  O188  1  0.25240841  0.00528512  0.86818769  1
  O  O189  1  0.25251972  0.51589060  0.36620891  1
  O  O190  1  0.25455228  0.51143225  0.87152730  1
  O  O191  1  0.75059983  -0.00053718  0.36483043  1
  O  O192  1  0.76304394  -0.01907076  0.89011289  1
  O  O193  1  0.75740231  0.50993898  0.37217331  1
  O  O194  1  0.75085777  0.50431310  0.86245525  1
  O  O195  1  0.25218104  0.50752623  0.13787234  1
  O  O196  1  0.24056514  0.50707235  0.63494325  1
  O  O197  1  0.25769054  0.98252173  0.12246375  1
  O  O198  1  0.24011412  1.00552474  0.63283374  1
  O  O199  1  0.73897093  0.49572553  0.12704717  1
  O  O200  1  0.74758447  0.49984659  0.63560290  1
  O  O201  1  0.74810464  0.99103548  0.13716267  1
  O  O202  1  0.73311858  1.00024117  0.61561607  1
  O  O203  1  -0.00214625  0.36891138  0.24957338  1
  O  O204  1  0.00818085  0.36983729  0.75579806  1
  O  O205  1  -0.00614661  0.86472455  0.26115328  1
  O  O206  1  0.00117015  0.86231106  0.75850965  1
  O  O207  1  0.50020463  0.36982262  0.26066520  1
  O  O208  1  0.50573879  0.36666168  0.75849513  1
  O  O209  1  0.50179459  0.87409524  0.25570179  1
  O  O210  1  0.50768554  0.87709754  0.76610009  1
  O  O211  1  0.49467420  0.13281494  0.24398199  1
  O  O212  1  0.49666261  0.13875005  0.75892436  1
  O  O213  1  0.49460335  0.63330897  0.24447454  1
  O  O214  1  0.48599646  0.62106093  0.75901698  1
  O  O215  1  0.99348650  0.12450409  0.24343080  1
  O  O216  1  0.99792426  0.12846363  0.74406897  1
  O  O217  1  0.99346830  0.63159669  0.24316497  1
  O  O218  1  0.99626525  0.62596564  0.74535124  1
  O  O219  1  0.37038327  0.25831324  0.00092834  1
  O  O220  1  0.36978987  0.25737270  0.50494762  1
  O  O221  1  0.36854452  0.74643492  0.01085249  1
  O  O222  1  0.37175318  0.75774688  0.50961566  1
  O  O223  1  0.88114856  0.25013944  0.01343839  1
  O  O224  1  0.86644646  0.24722019  0.50768317  1
  O  O225  1  0.87122866  0.74284878  0.01234551  1
  O  O226  1  0.86819804  0.75552020  0.50014946  1
  O  O227  1  0.13331648  0.25524842  0.49795830  1
  O  O228  1  0.13212773  0.23888562  0.99510248  1
  O  O229  1  0.13400813  0.74025355  0.50630060  1
  O  O230  1  0.13640522  0.75004691  1.00291263  1
  O  O231  1  0.62964115  0.24365693  0.50240428  1
  O  O232  1  0.61920110  0.23758852  0.99276599  1
  O  O233  1  0.63187475  0.74447139  0.49799158  1
  O  O234  1  0.63383568  0.74251627  0.99302856  1
  O  O235  1  0.49491639  0.24420438  0.13481991  1
  O  O236  1  0.49335776  0.25498443  0.63548068  1
  O  O237  1  0.49106338  0.74985101  0.12583157  1
  O  O238  1  0.48780427  0.75199663  0.62038461  1
  O  O239  1  0.98575015  0.25205652  0.13853731  1
  O  O240  1  0.99430174  0.24025604  0.63038578  1
  O  O241  1  0.99332977  0.74540265  0.12963962  1
  O  O242  1  0.99950799  0.73532559  0.63132016  1
  O  O243  1  0.00379366  0.24931899  0.36919141  1
  O  O244  1  0.00388127  0.25678428  0.86931670  1
  O  O245  1  -0.00442103  0.75707170  0.36510481  1
  O  O246  1  -0.00222357  0.75517794  0.86746714  1
  O  O247  1  0.49902911  0.25511570  0.36484613  1
  O  O248  1  0.50538541  0.25917494  0.86949720  1
  O  O249  1  0.49665741  0.76552802  0.36952695  1
  O  O250  1  0.50779759  0.75977155  0.88291342  1
  O  O251  1  0.24909108  0.13828730  0.49777969  1
  O  O252  1  0.24348075  0.12802565  0.99148006  1
  O  O253  1  0.24550541  0.62933740  0.49397233  1
  O  O254  1  0.25268847  0.63512868  0.98759761  1
  O  O255  1  0.74243193  0.13525265  0.49833221  1
  O  O256  1  0.73074990  0.11984077  1.00929307  1
  O  O257  1  0.74437402  0.63121813  0.49155053  1
  O  O258  1  0.74651025  0.62705788  0.99480291  1
  O  O259  1  0.25890536  0.36545241  -0.00925626  1
  O  O260  1  0.26629099  0.37116741  0.49344438  1
  O  O261  1  0.24828649  0.86198794  0.00321998  1
  O  O262  1  0.26123474  0.86857955  0.49598887  1
  O  O263  1  0.74971700  0.37866257  0.01323798  1
  O  O264  1  0.75433903  0.36326720  0.50098564  1
  O  O265  1  0.75785004  0.87413414  0.00494340  1
  O  O266  1  0.75651831  0.86711086  0.50119855  1
  O  O267  1  0.14204690  0.50196916  0.25178695  1
  O  O268  1  0.13269101  0.49466628  0.74324481  1
  O  O269  1  0.10963758  1.02063183  0.23737500  1
  O  O270  1  0.13226638  0.99636791  0.74204238  1
  O  O271  1  0.62544241  0.49505061  0.24141497  1
  O  O272  1  0.63411087  0.49554935  0.74333536  1
  O  O273  1  0.63030596  0.99527965  0.24885696  1
  O  O274  1  0.61873685  1.00588100  0.73392133  1
  O  O275  1  0.37804770  0.01207482  0.25991303  1
  O  O276  1  0.36811993  0.00116417  0.75071836  1
  O  O277  1  0.36807974  0.51603707  0.24311305  1
  O  O278  1  0.36828273  0.50407568  0.75335543  1
  O  O279  1  0.86606319  0.00695252  0.25043245  1
  O  O280  1  0.87764430  0.01366656  0.74434496  1
  O  O281  1  0.87325615  0.51224015  0.25652837  1
  O  O282  1  0.87123525  0.50745706  0.74981419  1
  O  O283  1  0.13060485  0.36503707  0.36628665  1
  O  O284  1  0.11607202  0.37455280  0.86334999  1
  O  O285  1  0.11231572  0.87780075  0.37948859  1
  O  O286  1  0.11457144  0.87455948  0.87288141  1
  O  O287  1  0.61200359  0.37521593  0.37240861  1
  O  O288  1  0.61778601  0.36878936  0.87071531  1
  O  O289  1  0.61363623  0.87578539  0.37066717  1
  O  O290  1  0.61652316  0.86220133  0.87225788  1
  O  O291  1  0.38438515  0.12986559  0.13020493  1
  O  O292  1  0.37476821  0.14039670  0.62583914  1
  O  O293  1  0.38141751  0.63662743  0.12906242  1
  O  O294  1  0.37617814  0.63757298  0.63275156  1
  O  O295  1  0.87048659  0.13369787  0.13868601  1
  O  O296  1  0.88389358  0.13283161  0.63147773  1
  O  O297  1  0.88086648  0.63016132  0.13265645  1
  O  O298  1  0.88557354  0.62147831  0.63018527  1
  O  O299  1  0.26452254  0.23885972  0.10458931  1
  O  O300  1  0.25694216  0.25087233  0.61307943  1
  O  O301  1  0.25783896  0.75571143  0.11287505  1
  O  O302  1  0.26151071  0.74422096  0.61022956  1
  O  O303  1  0.75922007  0.25822276  0.13146477  1
  O  O304  1  0.75769912  0.24968374  0.61792470  1
  O  O305  1  0.75602615  0.75517188  0.11915913  1
  O  O306  1  0.75420035  0.74622667  0.61077096  1
  O  O307  1  0.24347549  0.25098972  0.38639720  1
  O  O308  1  0.24973942  0.24180743  0.88216029  1
  O  O309  1  0.25785089  0.73845184  0.39122738  1
  O  O310  1  0.25351944  0.74188233  0.88651867  1
  O  O311  1  0.74531448  0.24860519  0.38318942  1
  O  O312  1  0.73717961  0.25751327  0.87294138  1
  O  O313  1  0.74992095  0.74164276  0.38426227  1
  O  O314  1  0.74408153  0.74218954  0.88085686  1
  O  O315  1  0.00778243  0.11160776  -0.00666642  1
  O  O316  1  -0.00264982  0.11460613  0.51034814  1
  O  O317  1  -0.00171740  0.61043698  0.00696600  1
  O  O318  1  0.00831353  0.62141393  0.50593241  1
  O  O319  1  0.50393586  0.12058279  0.00844177  1
  O  O320  1  0.50446014  0.11632962  0.49500066  1
  O  O321  1  0.50634760  0.62316207  0.00632645  1
  O  O322  1  0.51363678  0.62918844  0.48881060  1
  O  O323  1  0.49131320  0.37337369  0.48771950  1
  O  O324  1  0.49299268  0.37524558  0.99182797  1
  O  O325  1  0.48884194  0.88213172  0.49237788  1
  O  O326  1  0.50844870  0.88482972  0.98837294  1
  O  O327  1  0.99198088  0.38193996  0.50553590  1
  O  O328  1  1.00072332  0.38098083  0.99314050  1
  O  O329  1  0.99374715  0.87862114  0.49606496  1
  O  O330  1  1.00231944  0.88706158  0.99493515  1
  O  O331  1  0.49873452  0.48941856  0.37016261  1
  O  O332  1  0.49626833  0.48650155  0.87580874  1
  O  O333  1  0.48887039  0.99257773  0.38320094  1
  O  O334  1  0.50010176  0.98813518  0.88202668  1
  O  O335  1  0.98497180  0.50893595  0.37230075  1
  O  O336  1  1.00027755  0.49260574  0.88502539  1
  O  O337  1  0.99677638  0.99317467  0.38944118  1
  O  O338  1  0.99936800  0.98756500  0.88246665  1
  O  O339  1  -0.00152008  0.00254366  0.11985664  1
  O  O340  1  0.00511483  0.00354898  0.61956797  1
  O  O341  1  -0.00093107  0.50590648  0.11467550  1
  O  O342  1  0.01347337  0.51039641  0.62631444  1
  O  O343  1  0.49953978  0.00691226  0.11978899  1
  O  O344  1  0.50502311  -0.00337645  0.61370935  1
  O  O345  1  0.51148996  0.50516170  0.12444560  1
  O  O346  1  0.51122507  0.49683961  0.63229176  1
  O  O347  1  0.26089138  0.39497111  0.25329052  1
  O  O348  1  0.24357218  0.38963756  0.75946393  1
  O  O349  1  0.25237496  0.86940196  0.23803897  1
  O  O350  1  0.24875611  0.88616164  0.75589443  1
  O  O351  1  0.73876400  0.37759322  0.23942184  1
  O  O352  1  0.74483115  0.38271233  0.74816634  1
  O  O353  1  0.74623408  0.87864584  0.24642003  1
  O  O354  1  0.74267644  0.86473649  0.74116574  1
  O  O355  1  0.26004754  0.13893648  0.24789961  1
  O  O356  1  0.25117443  0.11533787  0.75652426  1
  O  O357  1  0.25756019  0.62393299  0.25563448  1
  O  O358  1  0.25779160  0.61762887  0.75971647  1
  O  O359  1  0.75365797  0.11677151  0.25131953  1
  O  O360  1  0.76164679  0.12538659  0.74660733  1
  O  O361  1  0.75734008  0.62636000  0.25848620  1
  O  O362  1  0.75936816  0.61878232  0.75281291  1
  O  O363  1  0.37246319  0.11881969  0.36520412  1
  O  O364  1  0.36314807  0.12384873  0.87255313  1
  O  O365  1  0.36975740  0.63025878  0.36327565  1
  O  O366  1  0.36778899  0.61962407  0.86886781  1
  O  O367  1  0.87290156  0.12166250  0.36208929  1
  O  O368  1  0.87504291  0.12672288  0.86040163  1
  O  O369  1  0.86773231  0.61982322  0.36807855  1
  O  O370  1  0.87010756  0.62152589  0.86619487  1
  O  O371  1  0.13707211  0.33707505  0.14246779  1
  O  O372  1  0.12339644  0.38368245  0.63768599  1
  O  O373  1  0.13904440  0.87405549  0.12724506  1
  O  O374  1  0.11953727  0.88544958  0.62736077  1
  O  O375  1  0.62732855  0.38126588  0.12810434  1
  O  O376  1  0.62799524  0.38293845  0.63090848  1
  O  O377  1  0.63811640  0.87423294  0.12976765  1
  O  O378  1  0.62389556  0.89091594  0.62355880  1
  O  O379  1  0.10614101  0.24043835  0.26545118  1
  O  O380  1  0.12248371  0.25768260  0.74872167  1
  O  O381  1  0.11405039  0.74601283  0.24913429  1
  O  O382  1  0.11545135  0.74661888  0.74275480  1
  O  O383  1  0.61399611  0.25686707  0.25150295  1
  O  O384  1  0.61888656  0.25259914  0.75534767  1
  O  O385  1  0.61572713  0.75738966  0.25258681  1
  O  O386  1  0.62539394  0.74082557  0.76225412  1
  O  O387  1  0.38083591  0.24752040  0.24589004  1
  O  O388  1  0.38239505  0.25343322  0.74068316  1
  O  O389  1  0.37881534  0.74266106  0.23944025  1
  O  O390  1  0.37072900  0.74392830  0.73607776  1
  O  O391  1  0.88043297  0.24304065  0.24836822  1
  O  O392  1  0.88178294  0.24076177  0.74274852  1
  O  O393  1  0.87827365  0.73980192  0.24166909  1
  O  O394  1  0.88567736  0.73462484  0.74694128  1
  O  O395  1  0.37281347  0.48764522  0.50849045  1
  O  O396  1  0.37529158  0.49380216  0.99440488  1
  O  O397  1  0.37798052  0.99444465  0.49737135  1
  O  O398  1  0.38726609  1.00614212  0.99667406  1
  O  O399  1  0.87402818  0.50174684  0.48331027  1
  O  O400  1  0.88668561  0.49254819  0.99770132  1
  O  O401  1  0.88182091  0.99319293  0.50206079  1
  O  O402  1  0.88061735  0.99977713  1.00305726  1
  O  O403  1  0.11942266  0.01182139  -0.00102172  1
  O  O404  1  0.11668631  0.00195776  0.50873172  1
  O  O405  1  0.11125376  0.49420839  -0.00058926  1
  O  O406  1  0.12925166  0.50508076  0.50598810  1
  O  O407  1  0.61189030  0.01278625  0.00505950  1
  O  O408  1  0.61449804  0.00685679  0.50524830  1
  O  O409  1  0.62368407  0.50692342  0.00709820  1
  O  O410  1  0.63056341  0.50880456  0.51035361  1
  O  O411  1  0.38211461  0.37202499  0.11136810  1
  O  O412  1  0.38060738  0.36556446  0.61000906  1
  O  O413  1  0.36951520  0.86180492  0.12727024  1
  O  O414  1  0.37760545  0.86407061  0.61818735  1
  O  O415  1  0.86416242  0.36678170  0.12609672  1
  O  O416  1  0.87335877  0.35998605  0.62901720  1
  O  O417  1  0.86318793  0.86380115  0.13147350  1
  O  O418  1  0.87707650  0.87081785  0.61241564  1
  O  O419  1  0.12640068  0.14111643  0.38757899  1
  O  O420  1  0.13590972  0.12447530  0.88033673  1
  O  O421  1  0.13160678  0.62262643  0.38709478  1
  O  O422  1  0.14063664  0.62318614  0.87011025  1
  O  O423  1  0.62490379  0.12650601  0.38789609  1
  O  O424  1  0.62154456  0.13131399  0.88932750  1
  O  O425  1  0.63475593  0.62687218  0.37928966  1
  O  O426  1  0.63002190  0.62799738  0.88093224  1
