# generated using pymatgen
data_V85Zn86O256
_symmetry_space_group_name_H-M   'P 1'
_cell_length_a   16.97054076
_cell_length_b   16.96588619
_cell_length_c   16.95744677
_cell_angle_alpha   90.00051667
_cell_angle_beta   90.08199809
_cell_angle_gamma   89.94072628
_symmetry_Int_Tables_number   1
_chemical_formula_structural   V85Zn86O256
_chemical_formula_sum   'V85 Zn86 O256'
_cell_volume   4882.38492147
_cell_formula_units_Z   1
loop_
 _symmetry_equiv_pos_site_id
 _symmetry_equiv_pos_as_xyz
  1  'x, y, z'
loop_
 _atom_site_type_symbol
 _atom_site_label
 _atom_site_symmetry_multiplicity
 _atom_site_fract_x
 _atom_site_fract_y
 _atom_site_fract_z
 _atom_site_occupancy
  V  V0  1  0.74813800  0.00363634  0.74999767  1
  V  V1  1  0.66698081  0.32439707  0.30703561  1
  V  V2  1  0.38028677  0.61585250  0.25566051  1
  V  V3  1  0.49905496  0.25764250  0.26077786  1
  V  V4  1  0.24120577  0.87915428  0.62811009  1
  V  V5  1  0.77528597  0.00251998  0.25088975  1
  V  V6  1  0.75719814  0.50908342  0.25466107  1
  V  V7  1  0.37518583  0.87729879  -0.00230547  1
  V  V8  1  -0.00032972  0.12276594  0.12576757  1
  V  V9  1  0.00168508  0.37756270  0.87558733  1
  V  V10  1  0.62595372  0.25148854  0.87101863  1
  V  V11  1  -0.00000466  0.24657239  0.74677303  1
  V  V12  1  0.87478726  0.86609795  -0.00128516  1
  V  V13  1  0.37009273  0.50288008  0.87062302  1
  V  V14  1  0.49975903  0.12457798  0.12396766  1
  V  V15  1  0.36955283  0.12045929  0.76648027  1
  V  V16  1  0.37169025  -0.00261835  0.36936800  1
  V  V17  1  0.87754548  0.12310102  0.74514460  1
  V  V18  1  0.49976959  -0.00034682  -0.00548996  1
  V  V19  1  0.25494269  0.25075967  0.49814576  1
  V  V20  1  0.12221946  0.38137957  0.24536274  1
  V  V21  1  0.87581484  0.50114283  0.87559594  1
  V  V22  1  0.62920946  0.75351711  0.37561334  1
  V  V23  1  0.13584074  0.62756671  0.00722188  1
  V  V24  1  0.75145106  0.37685241  0.61408484  1
  V  V25  1  0.25031194  0.24295510  -0.00698326  1
  V  V26  1  0.25308854  0.75199734  0.50134431  1
  V  V27  1  0.37351422  0.75022593  0.12601698  1
  V  V28  1  0.62623835  0.49420664  0.12669702  1
  V  V29  1  0.24808397  0.37572628  0.62344784  1
  V  V30  1  0.75594084  0.75234783  0.50941434  1
  V  V31  1  -0.05936162  0.55162887  0.43856617  1
  V  V32  1  0.37477102  0.37813073  -0.00179718  1
  V  V33  1  0.00661634  0.50713221  0.01615600  1
  V  V34  1  0.00193265  -0.00175848  -0.00083235  1
  V  V35  1  -0.00038229  0.74082126  0.24313228  1
  V  V36  1  0.62507284  0.37608955  0.74927499  1
  V  V37  1  0.75311178  0.86936735  0.12037132  1
  V  V38  1  0.62927035  0.88147703  0.24891345  1
  V  V39  1  0.37250946  0.62993426  0.75595268  1
  V  V40  1  0.62626386  0.12494274  -0.00241428  1
  V  V41  1  0.87317726  0.63641364  0.74700972  1
  V  V42  1  -0.00625059  0.62860610  0.62484430  1
  V  V43  1  0.74963424  0.25042502  0.00011443  1
  V  V44  1  0.50033232  0.63442403  0.63291392  1
  V  V45  1  0.87462209  0.24350320  0.12628372  1
  V  V46  1  0.25613673  0.62203405  0.37604772  1
  V  V47  1  0.25353271  0.49875128  0.25091344  1
  V  V48  1  0.62311411  0.75259985  0.87430381  1
  V  V49  1  0.49582386  0.11999147  0.62397689  1
  V  V50  1  0.49664461  0.87570679  0.86979345  1
  V  V51  1  0.12434983  0.25554178  0.37232815  1
  V  V52  1  0.37585804  0.75504246  0.62995122  1
  V  V53  1  0.87393789  0.37502608  0.00146788  1
  V  V54  1  0.11966360  0.00882466  0.62607478  1
  V  V55  1  0.62108384  0.50393591  0.62381598  1
  V  V56  1  0.37487833  0.25115917  0.12209927  1
  V  V57  1  0.87713896  -0.00146301  0.87507101  1
  V  V58  1  0.88072601  0.88564171  0.50585584  1
  V  V59  1  0.24418436  0.50565102  0.75264374  1
  V  V60  1  0.50052025  0.87497060  0.37410044  1
  V  V61  1  0.50346150  0.00077570  0.49706576  1
  V  V62  1  0.75081198  0.63130415  0.88006432  1
  V  V63  1  0.88955576  0.37313538  0.49090847  1
  V  V64  1  0.24535809  0.11888784  0.37253498  1
  V  V65  1  0.75016093  0.50061584  0.75289399  1
  V  V66  1  0.12703998  0.75508027  0.37181483  1
  V  V67  1  0.87408480  0.25046127  0.62097871  1
  V  V68  1  0.11688269  0.49937225  0.61810214  1
  V  V69  1  0.50182218  0.62253089  0.12211836  1
  V  V70  1  0.61902432  0.62769284  0.49861601  1
  V  V71  1  0.87686341  0.73829771  0.12706705  1
  V  V72  1  0.62218049  0.87530249  0.74685188  1
  V  V73  1  0.50334302  0.75064594  0.25005006  1
  V  V74  1  0.13631593  0.00174344  0.12583325  1
  V  V75  1  0.24689615  0.37908320  0.12153883  1
  V  V76  1  0.37045726  0.12130901  0.24677901  1
  V  V77  1  0.12671812  0.24290127  0.87308375  1
  V  V78  1  0.49607310  0.25127554  0.74771436  1
  V  V79  1  0.00927134  0.86688219  0.86911990  1
  V  V80  1  0.12288021  0.62231193  0.49571114  1
  V  V81  1  0.00271677  0.25008386  0.25052449  1
  V  V82  1  0.13098753  0.87906549  0.24718329  1
  V  V83  1  0.24742233  -0.00071837  0.76317095  1
  V  V84  1  0.62737543  0.63109868  -0.00008936  1
  Zn  Zn85  1  0.00341237  0.75589524  0.74068180  1
  Zn  Zn86  1  0.11986864  0.13066160  0.50368336  1
  Zn  Zn87  1  0.75345988  0.11381195  0.38326902  1
  Zn  Zn88  1  0.75305274  0.12528745  0.87562063  1
  Zn  Zn89  1  0.36931867  0.24728899  0.62545842  1
  Zn  Zn90  1  0.75463319  0.87317562  0.62975599  1
  Zn  Zn91  1  0.63097321  0.00128618  0.61536614  1
  Zn  Zn92  1  0.38297712  0.39867915  0.47810825  1
  Zn  Zn93  1  0.25404458  0.74809041  -0.00686549  1
  Zn  Zn94  1  -0.00021523  0.01137742  0.49631743  1
  Zn  Zn95  1  0.62839759  0.15741002  0.47445445  1
  Zn  Zn96  1  0.76046790  0.62558368  0.37521421  1
  Zn  Zn97  1  0.13905802  0.73667796  0.86408123  1
  Zn  Zn98  1  0.74560061  0.37237172  0.13184486  1
  Zn  Zn99  1  0.62985367  -0.00081704  0.12292130  1
  Zn  Zn100  1  0.50018798  0.50160661  -0.00439008  1
  Zn  Zn101  1  0.25447389  0.87795784  0.12716113  1
  Zn  Zn102  1  0.12930089  0.12093567  -0.00513586  1
  Zn  Zn103  1  0.49716862  0.37918763  0.86919946  1
  Zn  Zn104  1  0.12057406  0.37795205  0.74950058  1
  Zn  Zn105  1  -0.01135189  0.88905244  0.36420789  1
  Zn  Zn106  1  0.37229683  0.87792392  0.50001136  1
  Zn  Zn107  1  0.18807593  0.18763050  0.18378221  1
  Zn  Zn108  1  0.18929274  0.18614819  0.69126060  1
  Zn  Zn109  1  0.18694191  0.68308450  0.18193317  1
  Zn  Zn110  1  0.18333046  0.68753852  0.68642983  1
  Zn  Zn111  1  0.68802914  0.18068106  0.18834533  1
  Zn  Zn112  1  0.66756643  0.20575720  0.64602081  1
  Zn  Zn113  1  0.69254201  0.68696239  0.18786914  1
  Zn  Zn114  1  0.68561942  0.69126657  0.69253569  1
  Zn  Zn115  1  0.30966656  0.30742804  0.30907050  1
  Zn  Zn116  1  0.30944314  0.31740255  0.80863740  1
  Zn  Zn117  1  0.31262201  0.80997857  0.31012477  1
  Zn  Zn118  1  0.30865775  0.81571992  0.81352675  1
  Zn  Zn119  1  0.84105962  0.26794857  0.33790182  1
  Zn  Zn120  1  0.81145211  0.31153318  0.81008344  1
  Zn  Zn121  1  0.81356575  0.81453817  0.31339379  1
  Zn  Zn122  1  0.81028315  0.81405724  0.81514624  1
  Zn  Zn123  1  0.19080094  0.43648203  0.43581322  1
  Zn  Zn124  1  0.18510302  0.44003732  0.93655750  1
  Zn  Zn125  1  0.18366654  0.93915469  0.43958271  1
  Zn  Zn126  1  0.18753671  0.93117745  0.94136681  1
  Zn  Zn127  1  0.68699732  0.44321598  0.43839011  1
  Zn  Zn128  1  0.68594776  0.43948307  0.93895746  1
  Zn  Zn129  1  0.69473349  0.94358644  0.43594260  1
  Zn  Zn130  1  0.68960577  0.93697892  0.93663672  1
  Zn  Zn131  1  0.31527456  0.06199976  0.05571849  1
  Zn  Zn132  1  0.31135203  0.06271737  0.56147452  1
  Zn  Zn133  1  0.31394110  0.55979391  0.06640274  1
  Zn  Zn134  1  0.30499559  0.56794592  0.57229440  1
  Zn  Zn135  1  0.81349086  0.05814461  0.06380124  1
  Zn  Zn136  1  0.80820015  0.06565544  0.56441017  1
  Zn  Zn137  1  0.81079163  0.55858373  0.06225385  1
  Zn  Zn138  1  0.80557833  0.56539485  0.56444689  1
  Zn  Zn139  1  0.44735412  0.43431243  0.31403407  1
  Zn  Zn140  1  0.44792070  0.42529322  0.65292065  1
  Zn  Zn141  1  0.44102879  0.93915843  0.18521804  1
  Zn  Zn142  1  0.43180049  0.93958107  0.68840427  1
  Zn  Zn143  1  0.93367695  0.43076644  0.18973303  1
  Zn  Zn144  1  0.93643360  0.44039870  0.68766266  1
  Zn  Zn145  1  0.94667344  0.92947190  0.18178168  1
  Zn  Zn146  1  0.93566004  0.93501269  0.68511340  1
  Zn  Zn147  1  0.05978763  0.06264176  0.31011940  1
  Zn  Zn148  1  0.06212656  0.06017831  0.80947581  1
  Zn  Zn149  1  0.07067937  0.56560160  0.30391448  1
  Zn  Zn150  1  0.06188218  0.56852613  0.81479658  1
  Zn  Zn151  1  0.56378481  0.06654321  0.31247858  1
  Zn  Zn152  1  0.56146300  0.06262182  0.81097761  1
  Zn  Zn153  1  0.57373446  0.56694513  0.30889641  1
  Zn  Zn154  1  0.55762532  0.56402113  0.81095854  1
  Zn  Zn155  1  0.43453082  0.18497200  0.43668556  1
  Zn  Zn156  1  0.43955016  0.19060453  0.93495647  1
  Zn  Zn157  1  0.43819233  0.57106248  0.44356686  1
  Zn  Zn158  1  0.43868239  0.69184177  0.93504465  1
  Zn  Zn159  1  0.93679150  0.16741692  0.43829919  1
  Zn  Zn160  1  0.93991622  0.18566194  0.93613987  1
  Zn  Zn161  1  0.93281879  0.72122785  0.42994349  1
  Zn  Zn162  1  0.94009263  0.68598130  0.94014697  1
  Zn  Zn163  1  0.06361959  0.31263188  0.06065008  1
  Zn  Zn164  1  0.06217009  0.30888763  0.56140190  1
  Zn  Zn165  1  0.06475044  0.81003702  0.06140302  1
  Zn  Zn166  1  0.06433718  0.81323150  0.56326926  1
  Zn  Zn167  1  0.55757177  0.31194867  0.06231160  1
  Zn  Zn168  1  0.55435341  0.31717425  0.55122200  1
  Zn  Zn169  1  0.56357354  0.81105071  0.06146206  1
  Zn  Zn170  1  0.56009959  0.81583479  0.56141685  1
  O  O171  1  0.11956152  0.11826490  0.11990836  1
  O  O172  1  0.13077017  0.11203678  0.62554227  1
  O  O173  1  0.12128286  0.62454818  0.10847874  1
  O  O174  1  0.11617776  0.61757386  0.61386541  1
  O  O175  1  0.61906971  0.12406558  0.11183530  1
  O  O176  1  0.60151785  0.11163374  0.64367858  1
  O  O177  1  0.62192443  0.62544570  0.11586549  1
  O  O178  1  0.61867245  0.62572102  0.62364581  1
  O  O179  1  0.37565110  0.36968523  0.37110990  1
  O  O180  1  0.37420338  0.38487606  0.87958963  1
  O  O181  1  0.37850215  0.88252529  0.37252804  1
  O  O182  1  0.38916248  0.87028714  0.88287082  1
  O  O183  1  0.87434981  0.36542450  0.39273688  1
  O  O184  1  0.88294428  0.37613046  0.88450326  1
  O  O185  1  0.87999643  0.85734311  0.39682071  1
  O  O186  1  0.88072265  0.87899535  0.88310337  1
  O  O187  1  0.25530361  0.01082317  0.37814342  1
  O  O188  1  0.24223404  -0.00403667  0.86208428  1
  O  O189  1  0.24526819  0.50695247  0.35991145  1
  O  O190  1  0.25908477  0.49836684  0.86711667  1
  O  O191  1  0.75680511  -0.00623756  0.35409449  1
  O  O192  1  0.76045010  -0.00004317  0.86936795  1
  O  O193  1  0.74339266  0.50674669  0.35975067  1
  O  O194  1  0.75563860  0.50828969  0.87161861  1
  O  O195  1  0.25515006  0.49050695  0.13735911  1
  O  O196  1  0.23557936  0.49438255  0.63241728  1
  O  O197  1  0.23947959  1.00238437  0.11966266  1
  O  O198  1  0.24378484  0.99479433  0.63083237  1
  O  O199  1  0.74277717  0.49696633  0.13111658  1
  O  O200  1  0.74206816  0.49731732  0.63416213  1
  O  O201  1  0.75159638  0.98612213  0.13276777  1
  O  O202  1  0.74755642  0.99458382  0.63756417  1
  O  O203  1  0.01334152  0.36533342  0.23932896  1
  O  O204  1  -0.00127489  0.36981697  0.76032211  1
  O  O205  1  0.01541703  0.86597035  0.24954985  1
  O  O206  1  -0.00797363  0.87344684  0.76570887  1
  O  O207  1  0.49542725  0.35583203  0.24259480  1
  O  O208  1  0.50372104  0.36605404  0.74460131  1
  O  O209  1  0.50935819  0.86968149  0.25246951  1
  O  O210  1  0.50650712  0.88584816  0.76047782  1
  O  O211  1  0.49003430  0.12958863  0.24144989  1
  O  O212  1  0.48518971  0.12672483  0.74874012  1
  O  O213  1  0.49657375  0.63285421  0.24109615  1
  O  O214  1  0.49087114  0.62974720  0.74078152  1
  O  O215  1  1.00697969  0.13436658  0.23311513  1
  O  O216  1  0.99033285  0.13424835  0.75385668  1
  O  O217  1  1.00626172  0.64176265  0.24856675  1
  O  O218  1  0.98768731  0.62373003  0.74082306  1
  O  O219  1  0.36838093  0.25796915  -0.00143866  1
  O  O220  1  0.36077295  0.24521483  0.50231093  1
  O  O221  1  0.38084825  0.76102098  0.00864081  1
  O  O222  1  0.35852194  0.75105735  0.51387468  1
  O  O223  1  0.87196190  0.25558933  0.00576063  1
  O  O224  1  0.87954221  0.26120647  0.51623798  1
  O  O225  1  0.88125927  0.76049247  0.00779779  1
  O  O226  1  0.85853944  0.75125326  0.50888602  1
  O  O227  1  0.13387988  0.25282689  0.48844722  1
  O  O228  1  0.13335850  0.24941110  0.99122094  1
  O  O229  1  0.13153650  0.74682080  0.48992549  1
  O  O230  1  0.12927210  0.73769631  1.00045565  1
  O  O231  1  0.63401745  0.24627381  0.54074157  1
  O  O232  1  0.62788435  0.24383636  0.99391565  1
  O  O233  1  0.63209240  0.74947620  0.49289690  1
  O  O234  1  0.62435440  0.73881417  0.99308748  1
  O  O235  1  0.49252203  0.24145228  0.12749454  1
  O  O236  1  0.49201405  0.23841272  0.63894620  1
  O  O237  1  0.49409928  0.74225890  0.12910790  1
  O  O238  1  0.48792404  0.74695842  0.62153051  1
  O  O239  1  0.99612172  0.24157337  0.12591714  1
  O  O240  1  0.99179850  0.25910005  0.64058636  1
  O  O241  1  0.99336459  0.75521270  0.13566793  1
  O  O242  1  1.00319645  0.73270166  0.62024616  1
  O  O243  1  0.01047790  0.24475955  0.35704136  1
  O  O244  1  0.00433423  0.25808581  0.86752048  1
  O  O245  1  0.01250748  0.75688631  0.36073370  1
  O  O246  1  -0.00268771  0.76311918  0.87621084  1
  O  O247  1  0.49781971  0.24358781  0.36027657  1
  O  O248  1  0.50586174  0.25294817  0.86247008  1
  O  O249  1  0.51732634  0.75959373  0.36658615  1
  O  O250  1  0.51361582  0.76056989  0.87771463  1
  O  O251  1  0.24484093  0.13188925  0.48971806  1
  O  O252  1  0.25135056  0.13905787  0.99857100  1
  O  O253  1  0.24128740  0.63586096  0.49762719  1
  O  O254  1  0.23960795  0.62205116  1.00434027  1
  O  O255  1  0.73101579  0.10365482  0.49654249  1
  O  O256  1  0.74207597  0.12928319  0.99909525  1
  O  O257  1  0.74088293  0.63823578  0.49980049  1
  O  O258  1  0.74368381  0.62094606  0.98699733  1
  O  O259  1  0.25569098  0.37113138  0.00332903  1
  O  O260  1  0.25347987  0.36811873  0.50767470  1
  O  O261  1  0.26245647  0.87342654  0.00603452  1
  O  O262  1  0.25110394  0.86930333  0.50747546  1
  O  O263  1  0.75872063  0.36883326  -0.00075859  1
  O  O264  1  0.75990688  0.38556132  0.51185374  1
  O  O265  1  0.76091663  0.87893973  0.00830536  1
  O  O266  1  0.75827968  0.86735141  0.50196939  1
  O  O267  1  0.13420036  0.48821232  0.24894116  1
  O  O268  1  0.12931369  0.50379902  0.74358918  1
  O  O269  1  0.12236521  0.99141772  0.23782536  1
  O  O270  1  0.13905182  1.00643575  0.74120502  1
  O  O271  1  0.63623733  0.51052331  0.23267546  1
  O  O272  1  0.63132229  0.49783692  0.74673062  1
  O  O273  1  0.62094262  0.98644116  0.24391724  1
  O  O274  1  0.63370152  0.98978584  0.75691400  1
  O  O275  1  0.37986096  0.00676455  0.25936556  1
  O  O276  1  0.36264307  0.01194876  0.75034626  1
  O  O277  1  0.37118905  0.51132486  0.24780256  1
  O  O278  1  0.36590306  0.50998191  0.75575067  1
  O  O279  1  0.87385568  -0.00588044  0.24408509  1
  O  O280  1  0.87087116  0.00622876  0.75267443  1
  O  O281  1  0.85477365  0.49009703  0.24441394  1
  O  O282  1  0.86827631  0.50792731  0.75828851  1
  O  O283  1  0.13371213  0.36280098  0.36205037  1
  O  O284  1  0.11227804  0.36859516  0.87589835  1
  O  O285  1  0.13112855  0.86451697  0.36752817  1
  O  O286  1  0.11009644  0.87092168  0.88037698  1
  O  O287  1  0.61573623  0.37973132  0.37355284  1
  O  O288  1  0.62139822  0.37092188  0.86788433  1
  O  O289  1  0.62501101  0.87164228  0.36644255  1
  O  O290  1  0.61865078  0.86898399  0.87225323  1
  O  O291  1  0.37840194  0.12845897  0.12955463  1
  O  O292  1  0.38229047  0.12496251  0.63270050  1
  O  O293  1  0.38500456  0.63038078  0.13027650  1
  O  O294  1  0.38222414  0.63431638  0.63472835  1
  O  O295  1  0.88471564  0.13359299  0.11683540  1
  O  O296  1  0.86827724  0.13552939  0.63725529  1
  O  O297  1  0.86798162  0.63966521  0.11753050  1
  O  O298  1  0.88108309  0.61655584  0.63476700  1
  O  O299  1  0.25585545  0.25531116  0.11422067  1
  O  O300  1  0.24346291  0.25638643  0.61533958  1
  O  O301  1  0.26650876  0.74746553  0.12192756  1
  O  O302  1  0.25089412  0.75861196  0.61947813  1
  O  O303  1  0.75791265  0.25064489  0.12026401  1
  O  O304  1  0.76456989  0.26747415  0.64035928  1
  O  O305  1  0.76109411  0.76229754  0.13330569  1
  O  O306  1  0.74068745  0.75372740  0.61230215  1
  O  O307  1  0.24386413  0.24036928  0.37954554  1
  O  O308  1  0.23797281  0.25997010  0.88080742  1
  O  O309  1  0.24649902  0.74499265  0.38262566  1
  O  O310  1  0.25078095  0.75137364  0.88015884  1
  O  O311  1  0.72833201  0.26981424  0.36344355  1
  O  O312  1  0.74333936  0.24790481  0.88057565  1
  O  O313  1  0.74318872  0.74870251  0.38356170  1
  O  O314  1  0.73741254  0.74278729  0.87237933  1
  O  O315  1  0.00283066  0.11687156  0.00747848  1
  O  O316  1  0.00631555  0.12627186  0.50838801  1
  O  O317  1  -0.00305371  0.60872319  0.00349246  1
  O  O318  1  -0.00202106  0.61968600  0.49913503  1
  O  O319  1  0.50498542  0.11900997  0.00202384  1
  O  O320  1  0.50330231  0.11914902  0.50676852  1
  O  O321  1  0.50758676  0.62644879  0.00541332  1
  O  O322  1  0.51375358  0.63055661  0.51407841  1
  O  O323  1  0.47327552  0.38609643  0.54577319  1
  O  O324  1  0.48458170  0.37695765  0.99730343  1
  O  O325  1  0.49209422  0.88088212  0.49072270  1
  O  O326  1  0.49773947  0.88233347  0.99425590  1
  O  O327  1  0.98868730  0.37702855  0.50295477  1
  O  O328  1  0.99423330  0.38206972  0.99415380  1
  O  O329  1  0.98733282  0.87318210  0.50202507  1
  O  O330  1  0.99431708  0.87966840  0.99237337  1
  O  O331  1  0.50055694  0.51318237  0.37029264  1
  O  O332  1  0.48571286  0.49943761  0.87474593  1
  O  O333  1  0.49187310  0.99553827  0.37762217  1
  O  O334  1  0.50585805  0.99222834  0.88738873  1
  O  O335  1  0.99916421  0.50482790  0.37377497  1
  O  O336  1  0.99287159  0.49151615  0.88015216  1
  O  O337  1  1.00943109  0.99739562  0.38235829  1
  O  O338  1  0.99685369  0.99024684  0.87948005  1
  O  O339  1  0.00829338  0.00619751  0.11769062  1
  O  O340  1  0.01870359  -0.00691915  0.62988039  1
  O  O341  1  -0.00392124  0.49253768  0.11315893  1
  O  O342  1  0.01070370  0.50852105  0.62867329  1
  O  O343  1  0.50377119  0.00650913  0.11219572  1
  O  O344  1  0.49269790  0.00333157  0.61205032  1
  O  O345  1  0.51058394  0.51702932  0.12034654  1
  O  O346  1  0.51638305  0.51696980  0.63632264  1
  O  O347  1  0.24575004  0.37988226  0.24001368  1
  O  O348  1  0.23982994  0.38893113  0.74652117  1
  O  O349  1  0.23712408  0.86754339  0.24476168  1
  O  O350  1  0.25707576  0.89249430  0.74263238  1
  O  O351  1  0.73162764  0.38404490  0.25003153  1
  O  O352  1  0.74589262  0.38490184  0.74632247  1
  O  O353  1  0.74694258  0.88283308  0.24302336  1
  O  O354  1  0.74321753  0.88412195  0.75128907  1
  O  O355  1  0.26298751  0.13129093  0.25533101  1
  O  O356  1  0.26158809  0.11619648  0.74950190  1
  O  O357  1  0.25875453  0.61728626  0.25127569  1
  O  O358  1  0.25863438  0.61292964  0.73914747  1
  O  O359  1  0.75260104  0.10200563  0.23880343  1
  O  O360  1  0.75736129  0.11140236  0.75464600  1
  O  O361  1  0.75453479  0.61506979  0.25336181  1
  O  O362  1  0.75413730  0.62141610  0.75927903  1
  O  O363  1  0.36719092  0.11769191  0.36594122  1
  O  O364  1  0.37649522  0.12382813  0.86506036  1
  O  O365  1  0.36918437  0.63288305  0.36346857  1
  O  O366  1  0.38024279  0.62222241  0.86241893  1
  O  O367  1  0.85652213  0.16006879  0.36673641  1
  O  O368  1  0.87585832  0.11781657  0.86534269  1
  O  O369  1  0.88212019  0.62079908  0.38947006  1
  O  O370  1  0.86706350  0.62338810  0.87026804  1
  O  O371  1  0.13884273  0.36804349  0.12986431  1
  O  O372  1  0.13003005  0.38222029  0.62502225  1
  O  O373  1  0.12804183  0.88343044  0.12904793  1
  O  O374  1  0.13632982  0.88251756  0.62405228  1
  O  O375  1  0.62426068  0.39128905  0.11115417  1
  O  O376  1  0.63406036  0.38884994  0.63157154  1
  O  O377  1  0.63544543  0.87244157  0.13022880  1
  O  O378  1  0.62298157  0.87992838  0.63546532  1
  O  O379  1  0.12211607  0.25837980  0.25147106  1
  O  O380  1  0.11727226  0.25225869  0.75540060  1
  O  O381  1  0.12042770  0.75378375  0.25247173  1
  O  O382  1  0.11495823  0.74078691  0.75334513  1
  O  O383  1  0.61380373  0.25372993  0.24337514  1
  O  O384  1  0.61569918  0.25622488  0.74923755  1
  O  O385  1  0.62662635  0.75988615  0.25575112  1
  O  O386  1  0.62744465  0.76596503  0.75855552  1
  O  O387  1  0.38353098  0.24013924  0.24262586  1
  O  O388  1  0.37769879  0.23826562  0.75270473  1
  O  O389  1  0.38220034  0.74240953  0.24243577  1
  O  O390  1  0.36641147  0.74423935  0.73772382  1
  O  O391  1  0.88875946  0.26378401  0.23133529  1
  O  O392  1  0.88188791  0.24272126  0.74661253  1
  O  O393  1  0.89093070  0.75652843  0.24389047  1
  O  O394  1  0.87534393  0.73897685  0.75246033  1
  O  O395  1  0.36563789  0.50962335  0.50175739  1
  O  O396  1  0.37413350  0.49446966  0.99122478  1
  O  O397  1  0.38230658  1.00236001  0.48517357  1
  O  O398  1  0.38481731  0.98694062  1.00312781  1
  O  O399  1  0.87696688  0.49362148  0.49795188  1
  O  O400  1  0.88179629  0.49156175  0.99537363  1
  O  O401  1  0.87776140  0.98835517  0.50589082  1
  O  O402  1  0.88367996  0.99056020  0.99608158  1
  O  O403  1  0.11873272  0.00015609  0.00624856  1
  O  O404  1  0.12688300  0.00241928  0.51645638  1
  O  O405  1  0.11247692  0.50526129  -0.00008984  1
  O  O406  1  0.13048755  0.50754817  0.50652300  1
  O  O407  1  0.62058584  0.00849336  0.00047951  1
  O  O408  1  0.60793715  -0.01214780  0.49825741  1
  O  O409  1  0.62331174  0.51417795  0.00425538  1
  O  O410  1  0.63463019  0.51557853  0.51285105  1
  O  O411  1  0.36133760  0.36638745  0.11197980  1
  O  O412  1  0.34967462  0.36687283  0.64425423  1
  O  O413  1  0.37772584  0.86686428  0.11963799  1
  O  O414  1  0.36379550  0.86972873  0.62386458  1
  O  O415  1  0.87202819  0.36687642  0.11122927  1
  O  O416  1  0.86932811  0.37299112  0.62026666  1
  O  O417  1  0.87146986  0.86732721  0.11630895  1
  O  O418  1  0.87301320  0.87184288  0.61249314  1
  O  O419  1  0.13441518  0.13708282  0.36818602  1
  O  O420  1  0.11787357  0.13893398  0.87595543  1
  O  O421  1  0.13382633  0.63675012  0.37599587  1
  O  O422  1  0.11120108  0.62554400  0.89850448  1
  O  O423  1  0.63697668  0.12635605  0.36749272  1
  O  O424  1  0.62459584  0.13140208  0.88446445  1
  O  O425  1  0.62891788  0.63797127  0.38467824  1
  O  O426  1  0.62900303  0.63263868  0.87852889  1
