# generated using pymatgen
data_V85Zn86O256
_symmetry_space_group_name_H-M   'P 1'
_cell_length_a   16.95140381
_cell_length_b   16.94245188
_cell_length_c   16.96150358
_cell_angle_alpha   90.03391313
_cell_angle_beta   90.08568468
_cell_angle_gamma   90.00888041
_symmetry_Int_Tables_number   1
_chemical_formula_structural   V85Zn86O256
_chemical_formula_sum   'V85 Zn86 O256'
_cell_volume   4871.30936812
_cell_formula_units_Z   1
loop_
 _symmetry_equiv_pos_site_id
 _symmetry_equiv_pos_as_xyz
  1  'x, y, z'
loop_
 _atom_site_type_symbol
 _atom_site_label
 _atom_site_symmetry_multiplicity
 _atom_site_fract_x
 _atom_site_fract_y
 _atom_site_fract_z
 _atom_site_occupancy
  V  V0  1  0.62648102  0.88012915  0.73982182  1
  V  V1  1  0.50129674  0.13349188  0.12856774  1
  V  V2  1  0.00728510  0.13177384  0.62611933  1
  V  V3  1  0.11919372  0.36693392  0.24408030  1
  V  V4  1  0.12129314  0.62454856  -0.00304369  1
  V  V5  1  0.30143194  0.30328181  -0.05591604  1
  V  V6  1  0.75288855  0.25490182  0.00298744  1
  V  V7  1  0.24947369  0.12262682  0.87902439  1
  V  V8  1  0.75056899  0.12604384  0.87417065  1
  V  V9  1  0.24792955  0.49259297  0.25954039  1
  V  V10  1  0.61811109  0.36864523  0.24697614  1
  V  V11  1  0.87457364  0.37356375  0.49968002  1
  V  V12  1  0.74610452  0.00839537  0.73991002  1
  V  V13  1  0.37481681  0.87329850  0.00398986  1
  V  V14  1  0.62951132  0.12050588  0.00870231  1
  V  V15  1  0.37514691  -0.00420263  0.87780239  1
  V  V16  1  0.11774563  0.24746939  0.37583073  1
  V  V17  1  0.50119051  0.74280438  0.74567069  1
  V  V18  1  0.62480579  0.62383202  0.00112941  1
  V  V19  1  0.87853121  0.49851640  0.37264042  1
  V  V20  1  0.25020654  -0.00472425  0.75132026  1
  V  V21  1  0.24571557  0.12465962  0.38160632  1
  V  V22  1  0.25107658  0.86943100  0.62251730  1
  V  V23  1  0.49353240  0.38062387  0.37674514  1
  V  V24  1  0.50302804  0.87267369  0.87653321  1
  V  V25  1  0.74822025  0.62632966  0.37372976  1
  V  V26  1  0.88551846  0.37903038  0.00087545  1
  V  V27  1  0.50626711  -0.00422133  0.01047000  1
  V  V28  1  0.61311070  0.25515443  0.87464766  1
  V  V29  1  0.38947474  0.24537228  0.62851220  1
  V  V30  1  0.48007076  0.49122271  -0.00652724  1
  V  V31  1  0.37755046  0.12939869  0.25034755  1
  V  V32  1  0.87634065  0.87768046  0.00205674  1
  V  V33  1  -0.00012428  0.00377566  0.50012945  1
  V  V34  1  0.87496717  0.25122310  0.62673896  1
  V  V35  1  0.37636948  0.00255820  0.37722183  1
  V  V36  1  0.36035719  0.25739080  0.12504573  1
  V  V37  1  0.11823516  0.24943257  0.87054436  1
  V  V38  1  0.13336839  0.37861410  0.74740406  1
  V  V39  1  -0.00692123  0.75431254  0.73557971  1
  V  V40  1  0.88266629  0.50446963  0.87741339  1
  V  V41  1  0.74708021  0.12499939  0.37439467  1
  V  V42  1  0.75033969  0.62201071  0.87353926  1
  V  V43  1  0.62183040  0.12298792  0.51359197  1
  V  V44  1  0.24507984  0.24942289  0.50610053  1
  V  V45  1  0.26720265  0.52548557  0.75648261  1
  V  V46  1  0.62718141  0.75093565  0.87393669  1
  V  V47  1  0.62590361  0.87686610  0.24781093  1
  V  V48  1  0.38830438  0.12294004  0.74806513  1
  V  V49  1  0.12461927  0.12868082  0.00081481  1
  V  V50  1  0.74865587  0.49951861  0.24715468  1
  V  V51  1  0.12747796  0.00383848  0.61947497  1
  V  V52  1  0.88032112  0.13111247  0.75110376  1
  V  V53  1  0.11722185  0.74617850  0.87223510  1
  V  V54  1  0.61776951  0.61106583  0.50293148  1
  V  V55  1  0.74669607  0.87950531  0.12483121  1
  V  V56  1  0.49809646  0.62388143  0.12709602  1
  V  V57  1  0.00431845  0.50438469  0.50100432  1
  V  V58  1  0.27139740  0.73092424  -0.03442790  1
  V  V59  1  0.24706464  -0.00354136  0.24965033  1
  V  V60  1  -0.00330271  0.87813271  0.87251044  1
  V  V61  1  0.87816765  0.62872519  0.24872092  1
  V  V62  1  -0.00539491  0.37234924  0.86104803  1
  V  V63  1  0.13009690  0.49618693  0.12067907  1
  V  V64  1  0.00619361  0.87366646  0.36893829  1
  V  V65  1  0.36850381  0.74992871  0.13222562  1
  V  V66  1  0.74618204  0.00134637  0.24777628  1
  V  V67  1  0.75062493  0.75121626  0.00132796  1
  V  V68  1  0.37651479  0.73996086  0.62262633  1
  V  V69  1  0.50374609  0.00226040  0.51634473  1
  V  V70  1  0.14131137  0.74343009  0.37690087  1
  V  V71  1  0.61259529  0.24360069  0.36907125  1
  V  V72  1  0.12207035  -0.00507657  0.12521619  1
  V  V73  1  0.62290942  0.49620562  0.12134864  1
  V  V74  1  0.50129564  0.74952654  0.25294652  1
  V  V75  1  0.62381940  0.75051009  0.37783179  1
  V  V76  1  0.36745523  0.61988790  0.25788382  1
  V  V77  1  0.24512156  0.87059833  0.12563314  1
  V  V78  1  0.50182817  0.87797197  0.37687447  1
  V  V79  1  0.00104806  0.62271534  0.12142477  1
  V  V80  1  0.87338975  0.62813941  0.73720285  1
  V  V81  1  0.50346475  0.60736254  0.62248197  1
  V  V82  1  0.88128588  0.13198543  0.24937423  1
  V  V83  1  0.75385261  0.75066308  0.50966254  1
  V  V84  1  0.37366126  0.87220976  0.50069192  1
  Zn  Zn85  1  0.37385282  0.50978105  0.39269429  1
  Zn  Zn86  1  -0.00214739  0.36860949  0.36969711  1
  Zn  Zn87  1  0.00023170  0.00044002  0.00042718  1
  Zn  Zn88  1  0.14524266  0.62925409  0.50183070  1
  Zn  Zn89  1  0.01110502  0.75496789  0.24832011  1
  Zn  Zn90  1  0.87975139  0.87235253  0.50552723  1
  Zn  Zn91  1  0.74940640  0.24938703  0.49715311  1
  Zn  Zn92  1  0.75403517  0.87809169  0.62471857  1
  Zn  Zn93  1  0.74107636  0.38571149  0.62202616  1
  Zn  Zn94  1  0.87506301  -0.00244553  0.37584282  1
  Zn  Zn95  1  -0.00035139  0.63028204  0.61730298  1
  Zn  Zn96  1  0.87547611  0.00396686  0.87461052  1
  Zn  Zn97  1  0.37784390  0.37539707  0.50779863  1
  Zn  Zn98  1  0.00404149  0.13047225  0.12766996  1
  Zn  Zn99  1  0.75280016  0.37581137  0.12345475  1
  Zn  Zn100  1  0.12613161  0.50656454  0.62638331  1
  Zn  Zn101  1  0.74596445  0.49670130  0.74224046  1
  Zn  Zn102  1  0.87898480  0.75299642  0.12790670  1
  Zn  Zn103  1  0.25130650  0.37499571  0.62702030  1
  Zn  Zn104  1  0.12207306  0.87446475  0.74847124  1
  Zn  Zn105  1  0.88779788  0.25888095  0.13049476  1
  Zn  Zn106  1  0.61491335  0.38633817  0.74175490  1
  Zn  Zn107  1  0.18716711  0.18383751  0.18978001  1
  Zn  Zn108  1  0.19126826  0.18716110  0.69401211  1
  Zn  Zn109  1  0.18508195  0.68382476  0.19427452  1
  Zn  Zn110  1  0.18249766  0.68839770  0.68280319  1
  Zn  Zn111  1  0.69111239  0.18957309  0.18569360  1
  Zn  Zn112  1  0.67163079  0.22572400  0.67515577  1
  Zn  Zn113  1  0.68935893  0.68947413  0.18654097  1
  Zn  Zn114  1  0.68328795  0.68123448  0.68749710  1
  Zn  Zn115  1  0.30727913  0.30971914  0.30996456  1
  Zn  Zn116  1  0.44158500  0.30747785  0.81174805  1
  Zn  Zn117  1  0.31313776  0.81736780  0.31067258  1
  Zn  Zn118  1  0.31794544  0.79790723  0.81214557  1
  Zn  Zn119  1  0.80589649  0.31170067  0.31298955  1
  Zn  Zn120  1  0.80608404  0.31317269  0.81100658  1
  Zn  Zn121  1  0.81654705  0.81439046  0.31780766  1
  Zn  Zn122  1  0.81211275  0.81431437  0.80971893  1
  Zn  Zn123  1  0.18694917  0.43173932  0.43816052  1
  Zn  Zn124  1  0.18447970  0.44553327  0.92754008  1
  Zn  Zn125  1  0.18493081  0.93443205  0.43840766  1
  Zn  Zn126  1  0.18630900  0.93001659  0.94141757  1
  Zn  Zn127  1  0.69019776  0.43304792  0.43258566  1
  Zn  Zn128  1  0.68765338  0.43869374  0.93213390  1
  Zn  Zn129  1  0.68735027  0.94014560  0.43932599  1
  Zn  Zn130  1  0.68809233  0.94057135  0.93464293  1
  Zn  Zn131  1  0.31202402  0.06267685  0.06400491  1
  Zn  Zn132  1  0.31455839  0.06225135  0.56374309  1
  Zn  Zn133  1  0.30649937  0.56244151  0.06898725  1
  Zn  Zn134  1  0.31174511  0.55053370  0.56979439  1
  Zn  Zn135  1  0.81406279  0.06175996  0.06581088  1
  Zn  Zn136  1  0.81525201  0.06455419  0.56179662  1
  Zn  Zn137  1  0.81379716  0.56044347  0.06127930  1
  Zn  Zn138  1  0.80937875  0.56212085  0.55857932  1
  Zn  Zn139  1  0.43704211  0.43590096  0.18833160  1
  Zn  Zn140  1  0.43124710  0.43591580  0.69257363  1
  Zn  Zn141  1  0.43667223  0.94034142  0.18954066  1
  Zn  Zn142  1  0.43692141  0.93250905  0.69070340  1
  Zn  Zn143  1  0.94327139  0.44101842  0.18471331  1
  Zn  Zn144  1  0.93254053  0.44238006  0.68560174  1
  Zn  Zn145  1  0.93516278  0.94365495  0.18896494  1
  Zn  Zn146  1  0.93141175  0.94160755  0.68383995  1
  Zn  Zn147  1  0.06535027  0.05978342  0.31268915  1
  Zn  Zn148  1  0.06225011  0.06013259  0.80937235  1
  Zn  Zn149  1  0.06480233  0.56475999  0.31331215  1
  Zn  Zn150  1  0.05915082  0.56385750  0.80889542  1
  Zn  Zn151  1  0.56149838  0.06000346  0.31146331  1
  Zn  Zn152  1  0.56687893  0.06090703  0.82123464  1
  Zn  Zn153  1  0.56122122  0.56071495  0.31311359  1
  Zn  Zn154  1  0.55572072  0.55626046  0.81310349  1
  Zn  Zn155  1  0.43761331  0.18927863  0.44177701  1
  Zn  Zn156  1  0.43687564  0.17718168  0.94552588  1
  Zn  Zn157  1  0.32112296  0.68635888  0.44042688  1
  Zn  Zn158  1  0.44176572  0.68052241  0.93585945  1
  Zn  Zn159  1  0.93786029  0.18294406  0.43930973  1
  Zn  Zn160  1  0.93989357  0.19078194  0.94132283  1
  Zn  Zn161  1  0.93832601  0.68929868  0.43331845  1
  Zn  Zn162  1  0.93714733  0.69041134  0.93683808  1
  Zn  Zn163  1  0.06420018  0.31071516  0.05841749  1
  Zn  Zn164  1  0.06075781  0.31415787  0.55923003  1
  Zn  Zn165  1  0.06336427  0.80745700  0.06025963  1
  Zn  Zn166  1  0.06664783  0.81644208  0.55657415  1
  Zn  Zn167  1  0.55708374  0.31255218  0.05592806  1
  Zn  Zn168  1  0.56241054  0.31173201  0.55635233  1
  Zn  Zn169  1  0.56366761  0.80966832  0.06611131  1
  Zn  Zn170  1  0.56327011  0.80939523  0.56045810  1
  O  O171  1  0.12839818  0.11677057  0.11522619  1
  O  O172  1  0.11807154  0.11701716  0.63431508  1
  O  O173  1  0.11894264  0.62191175  0.11818893  1
  O  O174  1  0.11699049  0.62537604  0.61649203  1
  O  O175  1  0.61830219  0.12983282  0.11666551  1
  O  O176  1  0.62921789  0.13451611  0.61086177  1
  O  O177  1  0.61737534  0.61863310  0.12227194  1
  O  O178  1  0.61825320  0.62547912  0.61149466  1
  O  O179  1  0.39028308  0.36797550  0.36731746  1
  O  O180  1  0.36157986  0.35230135  0.88336002  1
  O  O181  1  0.38047483  0.88094976  0.38312916  1
  O  O182  1  0.38363798  0.87662726  0.88274013  1
  O  O183  1  0.87555122  0.38109280  0.37785396  1
  O  O184  1  0.87874450  0.38228530  0.87775345  1
  O  O185  1  0.88839868  0.87750898  0.38233442  1
  O  O186  1  0.88173822  0.87703915  0.88252854  1
  O  O187  1  0.25314410  0.00487917  0.36940638  1
  O  O188  1  0.25245382  -0.00034201  0.86920378  1
  O  O189  1  0.25263945  0.49518026  0.36277100  1
  O  O190  1  0.24301865  0.50516314  0.85351543  1
  O  O191  1  0.74971804  0.00995902  0.36813138  1
  O  O192  1  0.75230071  0.01451030  0.87155565  1
  O  O193  1  0.76018332  0.50507155  0.36762885  1
  O  O194  1  0.76070996  0.51403767  0.87977050  1
  O  O195  1  0.23528388  0.50331667  0.13661176  1
  O  O196  1  0.24459121  0.49393985  0.64593330  1
  O  O197  1  0.24550176  0.99274389  0.13122658  1
  O  O198  1  0.24587535  0.99438897  0.63226977  1
  O  O199  1  0.73947320  0.49937201  0.12899086  1
  O  O200  1  0.75206178  0.49865021  0.62696784  1
  O  O201  1  0.75173002  0.98788761  0.13196077  1
  O  O202  1  0.74870003  1.00589759  0.63749535  1
  O  O203  1  0.01452332  0.38064037  0.25250175  1
  O  O204  1  0.00086889  0.37697454  0.75830271  1
  O  O205  1  -0.00511668  0.87770669  0.26509449  1
  O  O206  1  -0.00413503  0.87123204  0.75651414  1
  O  O207  1  0.51194090  0.37607927  0.25663820  1
  O  O208  1  0.50251589  0.37618137  0.75296961  1
  O  O209  1  0.50503640  0.87169681  0.25530816  1
  O  O210  1  0.51003349  0.86964252  0.75682865  1
  O  O211  1  0.49077944  0.11708465  0.23952064  1
  O  O212  1  0.48671244  0.11237028  0.75917913  1
  O  O213  1  0.49503657  0.62699840  0.24092343  1
  O  O214  1  0.51022685  0.63669204  0.73903608  1
  O  O215  1  0.98298069  0.11826632  0.25386263  1
  O  O216  1  0.99147448  0.12041850  0.74005215  1
  O  O217  1  0.99241711  0.62749279  0.24409841  1
  O  O218  1  0.98967580  0.63620816  0.74649742  1
  O  O219  1  0.36505459  0.24462000  0.00857487  1
  O  O220  1  0.36683091  0.24843140  0.51208280  1
  O  O221  1  0.37507198  0.75259736  0.02063964  1
  O  O222  1  0.38040393  0.76547979  0.50647126  1
  O  O223  1  0.86778219  0.26024501  0.00044094  1
  O  O224  1  0.87661389  0.25786863  0.50385410  1
  O  O225  1  0.86867045  0.76234722  0.00165361  1
  O  O226  1  0.85634803  0.74797859  0.49182702  1
  O  O227  1  0.13352424  0.25362706  0.49058258  1
  O  O228  1  0.12526997  0.23937781  0.98600126  1
  O  O229  1  0.12310761  0.75114342  0.48174284  1
  O  O230  1  0.13081271  0.73974197  0.99017572  1
  O  O231  1  0.62557444  0.23520646  0.48697625  1
  O  O232  1  0.63200438  0.24189728  0.99601897  1
  O  O233  1  0.63236317  0.74269011  0.49180645  1
  O  O234  1  0.63052895  0.74377907  0.99612966  1
  O  O235  1  0.48862143  0.23634431  0.11443835  1
  O  O236  1  0.48668719  0.24266169  0.61597436  1
  O  O237  1  0.49289555  0.74305384  0.13381421  1
  O  O238  1  0.49545740  0.74792161  0.63029644  1
  O  O239  1  0.99954297  0.24364898  0.11991934  1
  O  O240  1  0.99250494  0.23791390  0.61697993  1
  O  O241  1  0.99985901  0.74029327  0.13069350  1
  O  O242  1  1.00157895  0.75576796  0.63292010  1
  O  O243  1  0.01387054  0.24614618  0.37956631  1
  O  O244  1  0.00716537  0.25881185  0.87540848  1
  O  O245  1  0.00302430  0.76273747  0.37203105  1
  O  O246  1  0.00342573  0.75893936  0.86777452  1
  O  O247  1  0.50868424  0.25336534  0.37167515  1
  O  O248  1  0.50855460  0.24450739  0.88717176  1
  O  O249  1  0.51466529  0.75856327  0.36911584  1
  O  O250  1  0.50836667  0.75186773  0.86652838  1
  O  O251  1  0.25565236  0.12718557  0.48701933  1
  O  O252  1  0.24011787  0.11332970  0.98673646  1
  O  O253  1  0.25810631  0.62678356  0.50753273  1
  O  O254  1  0.24278235  0.63796500  1.00702567  1
  O  O255  1  0.73891538  0.12202310  0.49042938  1
  O  O256  1  0.74601323  0.12984898  0.99805958  1
  O  O257  1  0.74159696  0.63502169  0.49209415  1
  O  O258  1  0.74588879  0.63129606  0.99514331  1
  O  O259  1  0.24375721  0.36919487  -0.00861966  1
  O  O260  1  0.25228509  0.36243125  0.50448177  1
  O  O261  1  0.25997847  0.85728261  0.00284265  1
  O  O262  1  0.26173800  0.88380517  0.51037448  1
  O  O263  1  0.75975998  0.36881363  -0.00168633  1
  O  O264  1  0.76217456  0.37099278  0.49842378  1
  O  O265  1  0.75468287  0.87341441  0.00677171  1
  O  O266  1  0.74513598  0.86079500  0.49982555  1
  O  O267  1  0.13402859  0.49480126  0.24661902  1
  O  O268  1  0.11915000  0.48638882  0.74867985  1
  O  O269  1  0.13401546  1.00526936  0.23576470  1
  O  O270  1  0.13357741  0.99560533  0.74067637  1
  O  O271  1  0.62669484  0.49473482  0.23812997  1
  O  O272  1  0.63561799  0.49578368  0.77235396  1
  O  O273  1  0.63793308  0.99375568  0.25277487  1
  O  O274  1  0.63425905  0.99220759  0.75897093  1
  O  O275  1  0.36853946  0.00943388  0.25618801  1
  O  O276  1  0.36805381  0.00054636  0.75802435  1
  O  O277  1  0.36250916  0.50379605  0.24846378  1
  O  O278  1  0.36636304  0.51037815  0.75074413  1
  O  O279  1  0.86196095  0.00919357  0.25392666  1
  O  O280  1  0.86537667  0.01494988  0.75246476  1
  O  O281  1  0.87164186  0.50883866  0.25380125  1
  O  O282  1  0.87199820  0.51220257  0.75947852  1
  O  O283  1  0.12302579  0.36416800  0.36527055  1
  O  O284  1  0.11412237  0.36937893  0.86610663  1
  O  O285  1  0.11441679  0.86587379  0.37691448  1
  O  O286  1  0.10719746  0.87286320  0.87513457  1
  O  O287  1  0.61711917  0.36618579  0.36710486  1
  O  O288  1  0.62808240  0.35564860  0.88095603  1
  O  O289  1  0.62305629  0.86929800  0.36856298  1
  O  O290  1  0.62111783  0.86857831  0.87035157  1
  O  O291  1  0.38012900  0.13038370  0.13134891  1
  O  O292  1  0.36861449  0.13315344  0.63617969  1
  O  O293  1  0.38019502  0.63182772  0.13626757  1
  O  O294  1  0.38823017  0.63732095  0.61816553  1
  O  O295  1  0.87469158  0.12478182  0.14054007  1
  O  O296  1  0.88522520  0.13005246  0.63191588  1
  O  O297  1  0.88265204  0.62487335  0.13109191  1
  O  O298  1  0.87592030  0.62546344  0.63489338  1
  O  O299  1  0.26128087  0.24483503  0.12505767  1
  O  O300  1  0.25059284  0.24490523  0.61448630  1
  O  O301  1  0.25846122  0.75473802  0.13593507  1
  O  O302  1  0.26010251  0.76329715  0.63302015  1
  O  O303  1  0.75439997  0.25349053  0.11236411  1
  O  O304  1  0.77008605  0.24140510  0.61589318  1
  O  O305  1  0.75334950  0.76109909  0.11965762  1
  O  O306  1  0.74367028  0.74779488  0.61089387  1
  O  O307  1  0.24467826  0.24188807  0.38424314  1
  O  O308  1  0.24265703  0.23755059  0.88129432  1
  O  O309  1  0.24658183  0.75144988  0.37522855  1
  O  O310  1  0.22152889  0.77376043  0.87189682  1
  O  O311  1  0.73975209  0.23765824  0.37527374  1
  O  O312  1  0.74486274  0.23992320  0.88691724  1
  O  O313  1  0.73891546  0.74555157  0.37728540  1
  O  O314  1  0.74744082  0.74188656  0.88124251  1
  O  O315  1  0.01358036  0.11972960  -0.00282013  1
  O  O316  1  -0.00010691  0.11229519  0.50903958  1
  O  O317  1  0.00777384  0.63178662  0.00906490  1
  O  O318  1  -0.00744730  0.61159150  0.49695582  1
  O  O319  1  0.50926946  0.11406034  0.00914015  1
  O  O320  1  0.51343807  0.11651031  0.49507245  1
  O  O321  1  0.50332311  0.62533870  0.01528906  1
  O  O322  1  0.51621420  0.62509455  0.50856679  1
  O  O323  1  0.49931044  0.36725489  0.48038236  1
  O  O324  1  0.49997496  0.39247057  0.99761373  1
  O  O325  1  0.49762376  0.88324792  0.49533172  1
  O  O326  1  0.49614308  0.87836788  1.00014776  1
  O  O327  1  0.98966475  0.38501988  0.49394000  1
  O  O328  1  0.98867205  0.37283651  0.98660762  1
  O  O329  1  1.00139977  0.88709400  0.49103591  1
  O  O330  1  0.99104021  0.87444649  0.99355701  1
  O  O331  1  0.49621199  0.48379685  0.36847339  1
  O  O332  1  0.48747150  0.52433157  0.89753648  1
  O  O333  1  0.49332737  0.99450676  0.38051078  1
  O  O334  1  0.49664760  0.99224705  0.89041755  1
  O  O335  1  0.98855430  0.49987331  0.37712118  1
  O  O336  1  0.98805620  0.49323565  0.87204842  1
  O  O337  1  1.00428745  0.99154067  0.38236751  1
  O  O338  1  0.99596975  0.99207494  0.87643244  1
  O  O339  1  0.00907542  0.00468252  0.12348303  1
  O  O340  1  0.00925017  0.00726934  0.61959760  1
  O  O341  1  0.01370631  0.51503515  0.12907500  1
  O  O342  1  0.00045740  0.50209998  0.61322042  1
  O  O343  1  0.49368582  0.00811693  0.11491897  1
  O  O344  1  0.49637930  -0.00385636  0.61538746  1
  O  O345  1  0.50484391  0.50678396  0.11933123  1
  O  O346  1  0.49703203  0.50908985  0.62878654  1
  O  O347  1  0.24030262  0.38604884  0.25003191  1
  O  O348  1  0.23196123  0.37431370  0.75233100  1
  O  O349  1  0.25552585  0.89008897  0.24471384  1
  O  O350  1  0.25293626  0.88485438  0.74349437  1
  O  O351  1  0.73777687  0.38236748  0.24803258  1
  O  O352  1  0.74245388  0.37484281  0.74453625  1
  O  O353  1  0.74870464  0.88124691  0.24438103  1
  O  O354  1  0.74294270  0.88752919  0.75234051  1
  O  O355  1  0.25811192  0.11410851  0.25755136  1
  O  O356  1  0.25576384  0.11206740  0.76213222  1
  O  O357  1  0.25738694  0.60996740  0.24824894  1
  O  O358  1  0.25101122  0.62490832  0.74795195  1
  O  O359  1  0.75439810  0.11816882  0.25453904  1
  O  O360  1  0.75475162  0.12259032  0.76050464  1
  O  O361  1  0.75551726  0.61924089  0.25394796  1
  O  O362  1  0.75741403  0.62964185  0.75977425  1
  O  O363  1  0.37026244  0.12258720  0.36795713  1
  O  O364  1  0.36660386  0.11575099  0.87283431  1
  O  O365  1  0.38311852  0.62484442  0.36128944  1
  O  O366  1  0.34111286  0.69845419  0.88917137  1
  O  O367  1  0.86529915  0.12439006  0.36606631  1
  O  O368  1  0.86888002  0.12851631  0.86914141  1
  O  O369  1  0.86954731  0.61802504  0.36630666  1
  O  O370  1  0.86959741  0.62005160  0.87199595  1
  O  O371  1  0.11921690  0.38531257  0.12969677  1
  O  O372  1  0.12223450  0.37061602  0.64010467  1
  O  O373  1  0.13292906  0.88138942  0.11729587  1
  O  O374  1  0.13559856  0.88165611  0.62622782  1
  O  O375  1  0.62332634  0.38051487  0.12902608  1
  O  O376  1  0.63678184  0.33336554  0.63533866  1
  O  O377  1  0.63474670  0.86937855  0.13457348  1
  O  O378  1  0.62930445  0.87203296  0.63725290  1
  O  O379  1  0.13432525  0.25848299  0.25845892  1
  O  O380  1  0.12848491  0.25760835  0.76330680  1
  O  O381  1  0.12674514  0.74896255  0.26894253  1
  O  O382  1  0.11095020  0.75385375  0.75526405  1
  O  O383  1  0.62973441  0.25769747  0.25529418  1
  O  O384  1  0.62192689  0.23438936  0.77682966  1
  O  O385  1  0.62113109  0.75455910  0.25662088  1
  O  O386  1  0.62127081  0.75827495  0.75450171  1
  O  O387  1  0.36834362  0.23678589  0.24036874  1
  O  O388  1  0.37799704  0.23661385  0.73882580  1
  O  O389  1  0.38090387  0.74375844  0.24706670  1
  O  O390  1  0.39190150  0.76017516  0.73463650  1
  O  O391  1  0.86642726  0.23610283  0.24916170  1
  O  O392  1  0.87203578  0.23929104  0.74280526  1
  O  O393  1  0.87328392  0.73688943  0.25006034  1
  O  O394  1  0.88286629  0.74111483  0.75682394  1
  O  O395  1  0.37406946  0.48759236  0.50154533  1
  O  O396  1  0.38182252  0.50121218  1.01249115  1
  O  O397  1  0.38368718  0.99367411  0.49611865  1
  O  O398  1  0.38101146  0.99315123  0.99674882  1
  O  O399  1  0.87867258  0.49345975  0.48880516  1
  O  O400  1  0.87243050  0.49178978  0.99049499  1
  O  O401  1  0.88532668  1.00150065  0.49540132  1
  O  O402  1  0.87527386  0.98894615  0.99869862  1
  O  O403  1  0.12579122  0.00403649  0.01051859  1
  O  O404  1  0.12108245  -0.00204196  0.51334480  1
  O  O405  1  0.13195961  0.51520488  0.00591658  1
  O  O406  1  0.11623948  0.49981736  0.49983328  1
  O  O407  1  0.61813143  0.00666086  0.00054232  1
  O  O408  1  0.61823756  0.01323194  0.49802058  1
  O  O409  1  0.62168072  0.50517116  0.00916823  1
  O  O410  1  0.63011014  0.51316098  0.48904507  1
  O  O411  1  0.37788548  0.35548624  0.13207808  1
  O  O412  1  0.37061874  0.35526068  0.62942537  1
  O  O413  1  0.36848020  0.86806533  0.12437484  1
  O  O414  1  0.37015542  0.87013955  0.61756637  1
  O  O415  1  0.87463199  0.37903453  0.11600087  1
  O  O416  1  0.87748322  0.36629459  0.61566319  1
  O  O417  1  0.86898799  0.87456727  0.11873572  1
  O  O418  1  0.86731966  0.87903146  0.61879632  1
  O  O419  1  0.13641249  0.13217599  0.36667962  1
  O  O420  1  0.13016925  0.12972190  0.87681734  1
  O  O421  1  0.12352835  0.63959128  0.38018790  1
  O  O422  1  0.11415662  0.63502509  0.88247026  1
  O  O423  1  0.63006060  0.12953589  0.37366172  1
  O  O424  1  0.63224417  0.12903903  0.89196519  1
  O  O425  1  0.62617617  0.63170617  0.38145558  1
  O  O426  1  0.63341013  0.63179916  0.88278244  1
