# generated using pymatgen
data_V85Zn86O256
_symmetry_space_group_name_H-M   'P 1'
_cell_length_a   16.91008369
_cell_length_b   16.90521663
_cell_length_c   16.91124498
_cell_angle_alpha   89.99216667
_cell_angle_beta   89.97943491
_cell_angle_gamma   90.01206322
_symmetry_Int_Tables_number   1
_chemical_formula_structural   V85Zn86O256
_chemical_formula_sum   'V85 Zn86 O256'
_cell_volume   4834.39393779
_cell_formula_units_Z   1
loop_
 _symmetry_equiv_pos_site_id
 _symmetry_equiv_pos_as_xyz
  1  'x, y, z'
loop_
 _atom_site_type_symbol
 _atom_site_label
 _atom_site_symmetry_multiplicity
 _atom_site_fract_x
 _atom_site_fract_y
 _atom_site_fract_z
 _atom_site_occupancy
  V  V0  1  0.62568423  0.38064263  0.25070040  1
  V  V1  1  0.37474510  0.87188191  -0.00454678  1
  V  V2  1  0.37601479  0.75870391  0.62134488  1
  V  V3  1  0.12760156  0.72695470  0.37596482  1
  V  V4  1  0.75207289  0.37600501  0.13254041  1
  V  V5  1  0.74855656  0.11928507  0.37353680  1
  V  V6  1  0.75298210  0.24758636  0.00826854  1
  V  V7  1  0.50167830  0.25740370  0.75623036  1
  V  V8  1  0.49509668  0.24373933  0.25134214  1
  V  V9  1  0.50078295  0.12528995  0.62535053  1
  V  V10  1  0.87668130  0.37077112  0.00611739  1
  V  V11  1  0.37656441  0.12541860  0.74959190  1
  V  V12  1  0.38072327  -0.00501186  0.87324746  1
  V  V13  1  0.37590930  0.25028233  0.62414457  1
  V  V14  1  0.63120152  0.76245715  0.86827883  1
  V  V15  1  0.24340734  -0.00255555  0.24762782  1
  V  V16  1  0.25105405  0.24717295  0.49980286  1
  V  V17  1  0.49293199  -0.01028160  0.50111504  1
  V  V18  1  0.86990586  0.62805811  0.75181774  1
  V  V19  1  0.62561341  0.75842504  0.37398206  1
  V  V20  1  0.49386771  0.62154666  0.63187776  1
  V  V21  1  0.87555817  0.37534066  0.50085690  1
  V  V22  1  0.61873783  0.62118932  0.50138219  1
  V  V23  1  0.87846861  0.13501581  0.25027412  1
  V  V24  1  0.87944121  0.24712796  0.62521238  1
  V  V25  1  0.75649544  0.75052993  0.50021964  1
  V  V26  1  0.11990954  0.00848872  0.62478948  1
  V  V27  1  0.25087301  -0.00033062  0.74741550  1
  V  V28  1  -0.00027713  0.62520177  0.12666738  1
  V  V29  1  0.74849754  0.37800595  0.62963980  1
  V  V30  1  0.87251352  0.87812024  0.00474370  1
  V  V31  1  0.62283558  0.12059847  0.50313228  1
  V  V32  1  0.00279077  0.24673703  0.74684532  1
  V  V33  1  0.26227105  0.50318766  0.75143392  1
  V  V34  1  0.01684109  0.87710449  0.37370557  1
  V  V35  1  0.12532678  0.74588426  0.87187302  1
  V  V36  1  0.12635442  0.62317218  -0.00204255  1
  V  V37  1  0.37126632  0.24544437  0.12717330  1
  V  V38  1  0.87101762  -0.01441996  0.37836347  1
  V  V39  1  0.49524823  0.49610703  -0.01574891  1
  V  V40  1  0.86723598  0.50274920  0.87545061  1
  V  V41  1  0.74174828  -0.00482464  0.75460330  1
  V  V42  1  0.37616337  0.37172803  -0.01082172  1
  V  V43  1  0.24084242  0.87215839  0.12726576  1
  V  V44  1  0.74575852  -0.01502414  0.24264170  1
  V  V45  1  0.37485911  0.50552411  0.37907583  1
  V  V46  1  0.86792390  0.50129816  0.37089630  1
  V  V47  1  0.11487058  0.12215040  -0.00108072  1
  V  V48  1  0.62715781  0.50565083  0.12825837  1
  V  V49  1  0.62397388  0.12271827  0.00931057  1
  V  V50  1  0.12073674  0.24837825  0.37496867  1
  V  V51  1  0.00542208  0.50537888  0.49803732  1
  V  V52  1  -0.00582592  0.00020098  0.50470839  1
  V  V53  1  0.49930099  -0.00326671  0.00235087  1
  V  V54  1  0.62224185  0.25042513  0.37545381  1
  V  V55  1  0.37314976  0.74860597  0.12489624  1
  V  V56  1  0.00159173  0.62860390  0.62248908  1
  V  V57  1  0.74996312  0.24768743  0.50223092  1
  V  V58  1  0.37236454  -0.00340418  0.37198411  1
  V  V59  1  0.75068753  0.87565765  0.62415857  1
  V  V60  1  0.87519275  0.12317249  0.74633261  1
  V  V61  1  0.86323300  0.62316704  0.24742361  1
  V  V62  1  0.00080188  0.37407023  0.87499534  1
  V  V63  1  0.25273334  0.37085182  0.12111796  1
  V  V64  1  0.63186196  0.62133338  -0.01349085  1
  V  V65  1  0.12594594  0.50152865  0.62567306  1
  V  V66  1  0.62210622  0.25563601  0.88106662  1
  V  V67  1  0.50056101  0.38287551  0.37638494  1
  V  V68  1  0.50350206  0.75936982  0.24808190  1
  V  V69  1  -0.00132965  0.37143093  0.37084709  1
  V  V70  1  0.87037321  0.75499882  0.12518324  1
  V  V71  1  0.12635135  0.49898415  0.12333692  1
  V  V72  1  0.25302553  0.12692365  0.36079562  1
  V  V73  1  0.49656147  0.76312646  0.75523840  1
  V  V74  1  0.12538025  0.87403476  0.74528385  1
  V  V75  1  0.87848680  0.00201537  0.88081030  1
  V  V76  1  0.37815910  0.37902395  0.50042810  1
  V  V77  1  0.26310135  0.62246851  0.87033253  1
  V  V78  1  0.25359466  0.13154162  0.88142372  1
  V  V79  1  0.00330220  0.88009148  0.88024410  1
  V  V80  1  0.25353802  0.74384671  0.49203799  1
  V  V81  1  0.50119604  0.62215621  0.12254344  1
  V  V82  1  0.37310517  0.62649267  0.25181848  1
  V  V83  1  0.25118615  0.50156309  0.25457725  1
  V  V84  1  0.12264142  0.37340852  0.24861299  1
  Zn  Zn85  1  0.74427079  0.62252088  0.37197508  1
  Zn  Zn86  1  0.12032879  0.12558687  0.50164052  1
  Zn  Zn87  1  0.87953548  0.75642066  0.62245625  1
  Zn  Zn88  1  0.75119184  0.74831174  -0.00202069  1
  Zn  Zn89  1  0.61989524  -0.00640120  0.63463962  1
  Zn  Zn90  1  0.24900899  0.37669098  0.62505946  1
  Zn  Zn91  1  0.11398377  -0.00468682  0.11820310  1
  Zn  Zn92  1  0.25191634  0.87718090  0.61487069  1
  Zn  Zn93  1  0.62385357  0.38004302  0.75689444  1
  Zn  Zn94  1  -0.00054173  0.75025739  0.74678850  1
  Zn  Zn95  1  0.61968622  0.49720273  0.62512705  1
  Zn  Zn96  1  0.25126857  0.74713925  -0.00166822  1
  Zn  Zn97  1  0.00654236  0.75782132  0.24659075  1
  Zn  Zn98  1  0.74472674  0.50494487  0.75334575  1
  Zn  Zn99  1  0.49463298  0.11986957  0.13250237  1
  Zn  Zn100  1  0.00010781  0.49833598  -0.00063954  1
  Zn  Zn101  1  0.74973330  0.12472145  0.87818300  1
  Zn  Zn102  1  0.13236644  0.25375054  0.87616473  1
  Zn  Zn103  1  0.12668413  0.37584198  0.75060801  1
  Zn  Zn104  1  -0.00946559  0.12968361  0.12575900  1
  Zn  Zn105  1  0.61855100  -0.02124543  0.13180569  1
  Zn  Zn106  1  0.49419168  0.87303506  0.37671573  1
  Zn  Zn107  1  0.15334236  0.20260911  0.17055884  1
  Zn  Zn108  1  0.18846758  0.18761760  0.68935158  1
  Zn  Zn109  1  0.18696881  0.68829726  0.19148864  1
  Zn  Zn110  1  0.18993664  0.68527832  0.68252430  1
  Zn  Zn111  1  0.68685121  0.18674405  0.18989651  1
  Zn  Zn112  1  0.68911101  0.18707045  0.69072681  1
  Zn  Zn113  1  0.68608230  0.80435383  0.18605126  1
  Zn  Zn114  1  0.68569842  0.68993054  0.68776286  1
  Zn  Zn115  1  0.31139091  0.31379935  0.31113857  1
  Zn  Zn116  1  0.31325894  0.31642602  0.80773875  1
  Zn  Zn117  1  0.30779604  0.81431860  0.31444323  1
  Zn  Zn118  1  0.31230723  0.81021907  0.80849972  1
  Zn  Zn119  1  0.80876746  0.31298859  0.31569521  1
  Zn  Zn120  1  0.81155846  0.31152941  0.81659902  1
  Zn  Zn121  1  0.81881137  0.80656740  0.31544082  1
  Zn  Zn122  1  0.81264374  0.81367254  0.81148931  1
  Zn  Zn123  1  0.18849367  0.43895464  0.43852607  1
  Zn  Zn124  1  0.19028726  0.43805214  0.93543876  1
  Zn  Zn125  1  0.19105983  0.93680119  0.44242110  1
  Zn  Zn126  1  0.19193567  0.93914261  0.93563450  1
  Zn  Zn127  1  0.68773384  0.43909860  0.44247932  1
  Zn  Zn128  1  0.68871419  0.43532587  0.94169533  1
  Zn  Zn129  1  0.68577118  0.93477436  0.44286883  1
  Zn  Zn130  1  0.68949154  0.93643916  0.94318740  1
  Zn  Zn131  1  0.30876198  0.06112247  0.06529298  1
  Zn  Zn132  1  0.31089300  0.06291635  0.55959470  1
  Zn  Zn133  1  0.31288603  0.55941718  0.06048331  1
  Zn  Zn134  1  0.31208403  0.56792778  0.56270729  1
  Zn  Zn135  1  0.81589996  0.06171186  0.06771596  1
  Zn  Zn136  1  0.81308810  0.05843536  0.56492436  1
  Zn  Zn137  1  0.81140518  0.56030217  0.06294678  1
  Zn  Zn138  1  0.81394092  0.56509900  0.56175571  1
  Zn  Zn139  1  0.43948935  0.43535626  0.18545481  1
  Zn  Zn140  1  0.43852467  0.43781652  0.68651770  1
  Zn  Zn141  1  0.42640497  0.93906830  0.18693746  1
  Zn  Zn142  1  0.43882976  0.93572539  0.68650356  1
  Zn  Zn143  1  0.93760824  0.43765573  0.18815925  1
  Zn  Zn144  1  0.93636956  0.43829239  0.68902160  1
  Zn  Zn145  1  0.94071030  0.94431717  0.19067753  1
  Zn  Zn146  1  0.93544946  0.93651813  0.68992221  1
  Zn  Zn147  1  0.06236313  0.06075939  0.31238733  1
  Zn  Zn148  1  0.06342565  0.06370481  0.81343737  1
  Zn  Zn149  1  0.05561476  0.55862928  0.30755606  1
  Zn  Zn150  1  0.05986481  0.56063772  0.80861463  1
  Zn  Zn151  1  0.56304668  0.05799048  0.31407438  1
  Zn  Zn152  1  0.56252843  0.06932019  0.81969506  1
  Zn  Zn153  1  0.56189820  0.56775861  0.31149907  1
  Zn  Zn154  1  0.56021380  0.56382240  0.80653823  1
  Zn  Zn155  1  0.43531639  0.18413927  0.43498923  1
  Zn  Zn156  1  0.43749991  0.18683168  0.94117410  1
  Zn  Zn157  1  0.43830860  0.68923021  0.43907058  1
  Zn  Zn158  1  0.44261692  0.68745916  0.93503437  1
  Zn  Zn159  1  0.93654001  0.18166365  0.43614189  1
  Zn  Zn160  1  0.93714776  0.18971469  0.93529840  1
  Zn  Zn161  1  0.93982561  0.68811447  0.43477158  1
  Zn  Zn162  1  0.93958917  0.68837584  0.93732964  1
  Zn  Zn163  1  0.06367511  0.30224476  0.05777790  1
  Zn  Zn164  1  0.06251460  0.31614196  0.56171420  1
  Zn  Zn165  1  0.05974549  0.80930069  0.05775243  1
  Zn  Zn166  1  0.06710544  0.81434950  0.55504075  1
  Zn  Zn167  1  0.55980640  0.31433480  0.06552551  1
  Zn  Zn168  1  0.56162524  0.31248740  0.56307779  1
  Zn  Zn169  1  0.55775989  0.80804865  0.05306871  1
  Zn  Zn170  1  0.56926952  0.81027478  0.56692923  1
  O  O171  1  0.14890237  0.11276146  0.09957900  1
  O  O172  1  0.12715404  0.11267743  0.62506192  1
  O  O173  1  0.12031703  0.62009027  0.12026568  1
  O  O174  1  0.11144787  0.61539223  0.62937210  1
  O  O175  1  0.62112978  0.12384938  0.11653548  1
  O  O176  1  0.62075965  0.12318797  0.61800803  1
  O  O177  1  0.61563242  0.61624034  0.10895333  1
  O  O178  1  0.61481204  0.62713221  0.61632923  1
  O  O179  1  0.38127117  0.38438146  0.37928069  1
  O  O180  1  0.37312044  0.36995829  0.88998904  1
  O  O181  1  0.37409506  0.88974019  0.37321567  1
  O  O182  1  0.36806291  0.88342672  0.88154639  1
  O  O183  1  0.88035797  0.38054290  0.37864912  1
  O  O184  1  0.88097463  0.37982876  0.88422971  1
  O  O185  1  0.87937214  0.88319326  0.37761066  1
  O  O186  1  0.88457632  0.88217434  0.87870351  1
  O  O187  1  0.25329218  0.00677747  0.37042976  1
  O  O188  1  0.26190811  0.00872516  0.86689737  1
  O  O189  1  0.25850624  0.49474926  0.36289729  1
  O  O190  1  0.24600204  0.50755081  0.85983219  1
  O  O191  1  0.75282459  0.00213612  0.37188163  1
  O  O192  1  0.75814119  0.00002939  0.87009419  1
  O  O193  1  0.76338247  0.50162423  0.38087689  1
  O  O194  1  0.76304492  0.49385496  0.87522108  1
  O  O195  1  0.24849156  0.49206216  0.13512669  1
  O  O196  1  0.24323924  0.50364400  0.63312529  1
  O  O197  1  0.25230947  0.98825754  0.13220652  1
  O  O198  1  0.24310036  0.99807688  0.62993791  1
  O  O199  1  0.73643572  0.49068467  0.11842858  1
  O  O200  1  0.75256421  0.48606987  0.62315871  1
  O  O201  1  0.74870814  0.99945125  0.14112070  1
  O  O202  1  0.74763989  0.99168307  0.63360395  1
  O  O203  1  0.00584121  0.37935320  0.26287565  1
  O  O204  1  -0.00166209  0.36483288  0.75746766  1
  O  O205  1  -0.00689964  0.87412077  0.26946206  1
  O  O206  1  0.01096672  0.87425327  0.75933651  1
  O  O207  1  0.50555990  0.36747509  0.25838015  1
  O  O208  1  0.50265089  0.36148330  0.74466072  1
  O  O209  1  0.49209293  0.86192853  0.24807740  1
  O  O210  1  0.50471131  0.86214778  0.74658174  1
  O  O211  1  0.50592237  0.13917644  0.25270400  1
  O  O212  1  0.49531282  0.13322068  0.74520307  1
  O  O213  1  0.48956583  0.63163948  0.24311713  1
  O  O214  1  0.50288416  0.63659181  0.73519274  1
  O  O215  1  0.97957726  0.12339067  0.26403021  1
  O  O216  1  0.99247537  0.13813815  0.75629913  1
  O  O217  1  0.99481210  0.62606174  0.23602292  1
  O  O218  1  0.99055037  0.62601307  0.74049021  1
  O  O219  1  0.38307182  0.26495735  0.00906735  1
  O  O220  1  0.36928071  0.25574421  0.50309778  1
  O  O221  1  0.37572898  0.75640775  0.00328543  1
  O  O222  1  0.36417846  0.74932316  0.50340331  1
  O  O223  1  0.86744011  0.26011968  -0.00107635  1
  O  O224  1  0.87021338  0.25250620  0.50492572  1
  O  O225  1  0.87586159  0.75698066  0.00621850  1
  O  O226  1  0.86052450  0.74188702  0.49985139  1
  O  O227  1  0.13320540  0.25160835  0.49252742  1
  O  O228  1  0.13104781  0.23076381  0.99055387  1
  O  O229  1  0.13310613  0.74924863  0.48362859  1
  O  O230  1  0.12830023  0.74144778  0.98945237  1
  O  O231  1  0.62749405  0.23866951  0.49552257  1
  O  O232  1  0.62819367  0.24423627  0.99936575  1
  O  O233  1  0.63327304  0.74174852  0.49388968  1
  O  O234  1  0.62063931  0.73546084  0.98439395  1
  O  O235  1  0.49112002  0.25000760  0.13528313  1
  O  O236  1  0.49538031  0.24322105  0.63115932  1
  O  O237  1  0.49315895  0.74139067  0.12956184  1
  O  O238  1  0.49625846  0.74621386  0.63266860  1
  O  O239  1  1.04166878  0.23073546  0.14045664  1
  O  O240  1  0.99166934  0.25567338  0.63268272  1
  O  O241  1  0.99407559  0.74201297  0.12627944  1
  O  O242  1  1.00066404  0.74298835  0.62107964  1
  O  O243  1  0.00821842  0.25908546  0.38414193  1
  O  O244  1  -0.00035494  0.26098450  0.86721591  1
  O  O245  1  0.01358939  0.75894559  0.37846804  1
  O  O246  1  0.01293408  0.75654391  0.87231891  1
  O  O247  1  0.50223683  0.25947676  0.37077669  1
  O  O248  1  0.50791856  0.24310404  0.86758436  1
  O  O249  1  0.50541907  0.75138436  0.36633800  1
  O  O250  1  0.50713947  0.74665721  0.86049317  1
  O  O251  1  0.24749612  0.13737908  0.49324941  1
  O  O252  1  0.25656157  0.12282414  0.98212635  1
  O  O253  1  0.24664776  0.64276222  0.50560683  1
  O  O254  1  0.24350915  0.62256562  0.99055876  1
  O  O255  1  0.74273527  0.12555374  0.49350782  1
  O  O256  1  0.74411228  0.13133406  1.00447508  1
  O  O257  1  0.73769975  0.63227791  0.50130649  1
  O  O258  1  0.73455322  0.62470060  1.00158014  1
  O  O259  1  0.26594558  0.38455691  0.00753814  1
  O  O260  1  0.26061416  0.36435098  0.49802250  1
  O  O261  1  0.26055310  0.87272718  0.00432298  1
  O  O262  1  0.24352023  0.85547362  0.50123297  1
  O  O263  1  0.75677999  0.36826043  0.01112173  1
  O  O264  1  0.75601596  0.36715645  0.50568294  1
  O  O265  1  0.76809948  0.87043569  -0.00447064  1
  O  O266  1  0.74865050  0.86693481  0.51181164  1
  O  O267  1  0.13333136  0.49469726  0.24570423  1
  O  O268  1  0.12974286  0.49731223  0.73999049  1
  O  O269  1  0.13912446  1.00524009  0.24700836  1
  O  O270  1  0.12850666  0.99431950  0.74393686  1
  O  O271  1  0.61903071  0.49598012  0.24001855  1
  O  O272  1  0.62807290  0.49717961  0.74491211  1
  O  O273  1  0.64047341  1.00025635  0.25086984  1
  O  O274  1  0.63781788  1.01036166  0.75444519  1
  O  O275  1  0.36119251  0.00304401  0.25844004  1
  O  O276  1  0.37363163  0.00366260  0.75602873  1
  O  O277  1  0.37050106  0.50469216  0.25568460  1
  O  O278  1  0.36147871  0.49991012  0.74509065  1
  O  O279  1  0.85918761  0.00499225  0.26094329  1
  O  O280  1  0.86836688  0.00711537  0.75904449  1
  O  O281  1  0.88109744  0.50865816  0.25978712  1
  O  O282  1  0.87316822  0.50636194  0.75902513  1
  O  O283  1  0.11680395  0.37048484  0.37260403  1
  O  O284  1  0.11622686  0.37332750  0.87460792  1
  O  O285  1  0.11708460  0.87683809  0.37200784  1
  O  O286  1  0.12175518  0.86869642  0.86940412  1
  O  O287  1  0.61779391  0.37335539  0.37436690  1
  O  O288  1  0.62784179  0.36057870  0.87829144  1
  O  O289  1  0.61967841  0.86219301  0.38053651  1
  O  O290  1  0.62361266  0.86052379  0.88278222  1
  O  O291  1  0.37307773  0.14149148  0.11867154  1
  O  O292  1  0.37964799  0.13057251  0.62998836  1
  O  O293  1  0.38019571  0.62837050  0.13027922  1
  O  O294  1  0.39001117  0.63691013  0.61733333  1
  O  O295  1  0.87118247  0.12670154  0.14449656  1
  O  O296  1  0.87057181  0.12968278  0.63815846  1
  O  O297  1  0.88197652  0.62848083  0.12785276  1
  O  O298  1  0.88703679  0.62560930  0.63093402  1
  O  O299  1  0.25358194  0.26454682  0.13150578  1
  O  O300  1  0.25608285  0.25180053  0.61741936  1
  O  O301  1  0.25494667  0.75437824  0.12284845  1
  O  O302  1  0.25929869  0.75115680  0.61826124  1
  O  O303  1  0.74278969  0.25905190  0.11589386  1
  O  O304  1  0.75670619  0.25694398  0.62056702  1
  O  O305  1  0.76680684  0.74737755  0.12261537  1
  O  O306  1  0.75070018  0.75941958  0.61920652  1
  O  O307  1  0.24732344  0.24483330  0.38185959  1
  O  O308  1  0.25287802  0.23488195  0.86425189  1
  O  O309  1  0.24040806  0.74591510  0.38051559  1
  O  O310  1  0.23965308  0.74171707  0.87203766  1
  O  O311  1  0.74197270  0.24109188  0.38287918  1
  O  O312  1  0.74382772  0.24834821  0.89113583  1
  O  O313  1  0.74287863  0.74684831  0.38145768  1
  O  O314  1  0.73582139  0.75093291  0.87467503  1
  O  O315  1  0.01092089  0.12768070  -0.00046905  1
  O  O316  1  0.00280979  0.10707376  0.49351261  1
  O  O317  1  0.00687251  0.62310081  0.01028395  1
  O  O318  1  -0.00549062  0.61313043  0.50607633  1
  O  O319  1  0.50496582  0.11344105  0.00449922  1
  O  O320  1  0.50667587  0.11997719  0.50478748  1
  O  O321  1  0.50432041  0.61241488  0.00164127  1
  O  O322  1  0.51255781  0.63420614  0.51136018  1
  O  O323  1  0.48781728  0.37027341  0.49158400  1
  O  O324  1  0.49099480  0.38708471  1.00359913  1
  O  O325  1  0.50589709  0.88699957  0.50256105  1
  O  O326  1  0.48571134  0.88527680  1.00098291  1
  O  O327  1  0.99420029  0.38357113  0.49084518  1
  O  O328  1  0.99328006  0.37150617  0.99475003  1
  O  O329  1  1.00314251  0.88566555  0.48596398  1
  O  O330  1  0.99274381  0.87230046  0.98629146  1
  O  O331  1  0.49295379  0.48955913  0.37038005  1
  O  O332  1  0.50015699  0.50039921  0.88541850  1
  O  O333  1  0.49125617  0.99829409  0.38187665  1
  O  O334  1  0.48791547  1.00555787  0.88294241  1
  O  O335  1  0.99272655  0.49274231  0.38166488  1
  O  O336  1  0.99214234  0.48741185  0.87539282  1
  O  O337  1  0.99373521  0.99035888  0.37955143  1
  O  O338  1  0.99132319  0.99208732  0.86906940  1
  O  O339  1  0.00366054  0.01529610  0.13367949  1
  O  O340  1  0.00595974  -0.00656819  0.61711442  1
  O  O341  1  0.00785626  0.50626496  0.12300697  1
  O  O342  1  0.00549738  0.50385873  0.61709021  1
  O  O343  1  0.49869050  0.00114916  0.11908311  1
  O  O344  1  0.50062662  0.00716265  0.61887681  1
  O  O345  1  0.50907231  0.50300138  0.11804403  1
  O  O346  1  0.49858405  0.51685072  0.62709013  1
  O  O347  1  0.24499656  0.38346584  0.24295891  1
  O  O348  1  0.24829141  0.38822462  0.74679134  1
  O  O349  1  0.25214779  0.88165175  0.23848051  1
  O  O350  1  0.23838745  0.88128536  0.74935362  1
  O  O351  1  0.74486349  0.37196950  0.23987265  1
  O  O352  1  0.74819984  0.37350026  0.74173279  1
  O  O353  1  0.75222432  0.88084778  0.25267619  1
  O  O354  1  0.75235491  0.88523529  0.74257967  1
  O  O355  1  0.24550857  0.12238372  0.25976298  1
  O  O356  1  0.25751331  0.11825445  0.75596952  1
  O  O357  1  0.26435781  0.61654555  0.24453975  1
  O  O358  1  0.24605727  0.61317634  0.75579824  1
  O  O359  1  0.75259078  0.11827452  0.26129684  1
  O  O360  1  0.75919186  0.11874052  0.75501347  1
  O  O361  1  0.76407784  0.62520217  0.25154832  1
  O  O362  1  0.76519439  0.62337796  0.74004225  1
  O  O363  1  0.36378749  0.11448252  0.37813420  1
  O  O364  1  0.36922908  0.11969237  0.86967881  1
  O  O365  1  0.38255254  0.61288252  0.36852497  1
  O  O366  1  0.36206248  0.62961882  0.87791859  1
  O  O367  1  0.86263636  0.11453890  0.37193413  1
  O  O368  1  0.87351570  0.11826043  0.86801870  1
  O  O369  1  0.87695641  0.61770270  0.36557490  1
  O  O370  1  0.88336503  0.61485632  0.86697281  1
  O  O371  1  0.13406398  0.38117079  0.12535461  1
  O  O372  1  0.12756011  0.38799404  0.62527561  1
  O  O373  1  0.13661660  0.87531388  0.11352515  1
  O  O374  1  0.12541622  0.88338583  0.63271718  1
  O  O375  1  0.63095028  0.38317906  0.12978855  1
  O  O376  1  0.63432953  0.37582060  0.62398269  1
  O  O377  1  0.62855307  0.86730831  0.11451251  1
  O  O378  1  0.64155943  0.87798918  0.62601569  1
  O  O379  1  0.13648973  0.26048178  0.26947541  1
  O  O380  1  0.11677642  0.25313392  0.75183060  1
  O  O381  1  0.12410378  0.74471828  0.26872941  1
  O  O382  1  0.12472910  0.75731079  0.75367090  1
  O  O383  1  0.61910909  0.25833247  0.25776526  1
  O  O384  1  0.61862730  0.24801123  0.76206303  1
  O  O385  1  0.61576267  0.74582266  0.25952636  1
  O  O386  1  0.61668344  0.74688391  0.76196457  1
  O  O387  1  0.38368044  0.25747128  0.24167881  1
  O  O388  1  0.38291862  0.24646542  0.74441119  1
  O  O389  1  0.37867458  0.74189167  0.24810610  1
  O  O390  1  0.38835058  0.75333955  0.74216710  1
  O  O391  1  0.86862106  0.23389031  0.26038615  1
  O  O392  1  0.87948809  0.24200380  0.74663608  1
  O  O393  1  0.88190692  0.74114349  0.24325758  1
  O  O394  1  0.87976672  0.74279750  0.74850485  1
  O  O395  1  0.36708023  0.49243776  0.49111419  1
  O  O396  1  0.38837736  0.49008405  1.00388097  1
  O  O397  1  0.38366160  1.00493743  0.49170275  1
  O  O398  1  0.38004823  0.99408679  0.99362608  1
  O  O399  1  0.88297629  0.49446481  0.49319828  1
  O  O400  1  0.87751229  0.48978485  0.99437966  1
  O  O401  1  0.88104219  1.00334141  0.49119035  1
  O  O402  1  0.87134565  0.99582797  0.98970947  1
  O  O403  1  0.12897854  0.01506867  -0.00852081  1
  O  O404  1  0.11899830  0.00083609  0.50959052  1
  O  O405  1  0.12396376  0.50594889  0.00506562  1
  O  O406  1  0.11586310  0.49628351  0.50718317  1
  O  O407  1  0.61657111  0.00537067  0.00232804  1
  O  O408  1  0.61662083  0.01052022  0.50045711  1
  O  O409  1  0.61553189  0.50560621  0.00104051  1
  O  O410  1  0.62673976  0.51675022  0.50238631  1
  O  O411  1  0.36943486  0.36812695  0.11904905  1
  O  O412  1  0.37412403  0.37012828  0.61529928  1
  O  O413  1  0.36530895  0.86663295  0.11599590  1
  O  O414  1  0.37341235  0.86381551  0.62515232  1
  O  O415  1  0.86652602  0.38001968  0.11852814  1
  O  O416  1  0.86911886  0.36869895  0.61985160  1
  O  O417  1  0.88645176  0.86790376  0.11655851  1
  O  O418  1  0.85966733  0.87388622  0.62954379  1
  O  O419  1  0.13200457  0.13341675  0.37815328  1
  O  O420  1  0.13886448  0.12418662  0.87947065  1
  O  O421  1  0.11841829  0.62865157  0.37597970  1
  O  O422  1  0.12643807  0.63078185  0.87799032  1
  O  O423  1  0.63122307  0.12779570  0.38266935  1
  O  O424  1  0.62810937  0.13475961  0.89176456  1
  O  O425  1  0.62277592  0.63271767  0.38595445  1
  O  O426  1  0.62083064  0.62767485  0.88388201  1
