# generated using pymatgen
data_V85Zn86O256
_symmetry_space_group_name_H-M   'P 1'
_cell_length_a   16.92221351
_cell_length_b   16.92598295
_cell_length_c   16.92285318
_cell_angle_alpha   89.94877632
_cell_angle_beta   89.96032497
_cell_angle_gamma   89.92913540
_symmetry_Int_Tables_number   1
_chemical_formula_structural   V85Zn86O256
_chemical_formula_sum   'V85 Zn86 O256'
_cell_volume   4847.12306535
_cell_formula_units_Z   1
loop_
 _symmetry_equiv_pos_site_id
 _symmetry_equiv_pos_as_xyz
  1  'x, y, z'
loop_
 _atom_site_type_symbol
 _atom_site_label
 _atom_site_symmetry_multiplicity
 _atom_site_fract_x
 _atom_site_fract_y
 _atom_site_fract_z
 _atom_site_occupancy
  V  V0  1  0.25971843  0.87184444  0.62392357  1
  V  V1  1  0.87534477  0.25024861  0.62483651  1
  V  V2  1  0.49691133  0.25472428  0.25164284  1
  V  V3  1  0.74997844  -0.00039484  0.74976547  1
  V  V4  1  0.24370713  0.37534801  0.12386622  1
  V  V5  1  0.11801505  0.62485416  0.49713932  1
  V  V6  1  0.00367210  0.49921699  0.00235799  1
  V  V7  1  0.62474212  0.00198050  0.62160803  1
  V  V8  1  0.87432268  0.37723383  -0.00470070  1
  V  V9  1  0.62309985  0.75002674  0.37819308  1
  V  V10  1  0.87522497  0.75166640  0.12735054  1
  V  V11  1  0.87823356  -0.00071063  0.87604851  1
  V  V12  1  0.25267710  0.00373125  0.25004363  1
  V  V13  1  0.24847437  0.51101675  0.75192874  1
  V  V14  1  0.61519422  0.75475726  0.87779460  1
  V  V15  1  0.87918035  0.88058392  0.00143488  1
  V  V16  1  0.48940335  0.87577184  0.37614306  1
  V  V17  1  0.23106971  0.13185981  0.37641516  1
  V  V18  1  0.87642051  -0.00907920  0.37308039  1
  V  V19  1  0.37379646  0.24472949  0.12880999  1
  V  V20  1  0.49303836  0.74204919  0.25016324  1
  V  V21  1  0.37018459  0.50785162  0.87731283  1
  V  V22  1  0.87578240  0.25147962  0.12318530  1
  V  V23  1  0.12190796  -0.00481368  0.12716713  1
  V  V24  1  0.75152645  0.38505216  0.12791582  1
  V  V25  1  0.75020638  0.12670483  0.87656626  1
  V  V26  1  0.74612044  0.61766299  0.37247123  1
  V  V27  1  0.12515374  0.37868418  0.24950944  1
  V  V28  1  0.37265802  0.00465315  0.87760438  1
  V  V29  1  0.50434461  -0.00349168  -0.00095053  1
  V  V30  1  0.37572829  0.13058166  0.74569389  1
  V  V31  1  0.38701613  0.37007071  0.49766320  1
  V  V32  1  0.49972956  0.12041395  0.12964288  1
  V  V33  1  0.37376654  0.01380864  0.37380627  1
  V  V34  1  0.62593023  0.12381481  0.00546257  1
  V  V35  1  0.75413751  0.87425964  0.62341668  1
  V  V36  1  0.62342425  0.62599050  0.00476926  1
  V  V37  1  0.12539000  -0.00182197  0.62050404  1
  V  V38  1  0.87503562  0.12395234  0.74994682  1
  V  V39  1  0.61617050  0.87770358  0.75493765  1
  V  V40  1  0.50101888  0.49836048  0.00212571  1
  V  V41  1  0.12703759  0.87473318  0.75248508  1
  V  V42  1  0.00119173  0.12187533  0.11784498  1
  V  V43  1  0.75109507  0.12401773  0.37340142  1
  V  V44  1  0.13238272  0.61755819  0.00422599  1
  V  V45  1  0.11905393  0.50167128  0.62270067  1
  V  V46  1  0.25273077  0.75150588  0.50324290  1
  V  V47  1  0.25906643  0.37125412  0.62291302  1
  V  V48  1  0.00175245  0.12285785  0.61875932  1
  V  V49  1  0.49315618  -0.00346403  0.50084735  1
  V  V50  1  0.12641902  0.74149755  0.87648539  1
  V  V51  1  0.24925894  0.87526688  0.13036095  1
  V  V52  1  0.75018332  0.75329312  0.00281470  1
  V  V53  1  0.00708745  0.37140142  0.37770722  1
  V  V54  1  0.87711362  0.12552274  0.24936283  1
  V  V55  1  0.00332377  -0.00716928  0.49393956  1
  V  V56  1  0.25026945  0.24231715  -0.00408392  1
  V  V57  1  0.75106319  0.25037000  0.49775085  1
  V  V58  1  0.00322321  0.76479975  0.25370830  1
  V  V59  1  0.62245540  0.88333320  0.24600358  1
  V  V60  1  0.75858798  0.62816585  0.87010959  1
  V  V61  1  0.25275769  0.50225907  0.24660394  1
  V  V62  1  0.74314900  0.37950633  0.62683322  1
  V  V63  1  0.12319188  0.76468657  0.37155144  1
  V  V64  1  0.25139562  0.62455129  0.37105786  1
  V  V65  1  0.56649116  0.56776597  0.55677715  1
  V  V66  1  0.87654696  0.49720746  0.37071056  1
  V  V67  1  0.00833051  0.24765953  0.25276720  1
  V  V68  1  0.62159980  0.25297204  0.87072393  1
  V  V69  1  0.12871450  0.24392033  0.86913038  1
  V  V70  1  0.88031280  0.73376522  0.62621061  1
  V  V71  1  0.62115580  0.25452592  0.37358786  1
  V  V72  1  0.62729888  0.38110249  0.25123504  1
  V  V73  1  0.12601155  0.37517970  0.74927477  1
  V  V74  1  0.25076322  0.74777045  -0.00030914  1
  V  V75  1  0.74758291  0.74514631  0.49966681  1
  V  V76  1  0.38206386  0.62848760  0.74417933  1
  V  V77  1  0.12604680  0.11704539  -0.00607463  1
  V  V78  1  0.24939222  0.00973603  0.75446923  1
  V  V79  1  0.37800349  0.87305531  -0.00399107  1
  V  V80  1  0.00185167  0.87765947  0.87787781  1
  V  V81  1  0.37442603  0.37302883  -0.00230270  1
  V  V82  1  0.00628412  0.62268345  0.12900035  1
  V  V83  1  0.87184957  0.62313339  0.24936414  1
  V  V84  1  0.37983780  0.49738641  0.37876506  1
  Zn  Zn85  1  0.49883117  0.37557660  0.87118964  1
  Zn  Zn86  1  0.38811989  0.74529664  0.61046505  1
  Zn  Zn87  1  -0.00174630  0.50162010  0.50211979  1
  Zn  Zn88  1  0.00143375  0.37614415  0.87264686  1
  Zn  Zn89  1  0.87957807  0.50729291  0.86706024  1
  Zn  Zn90  1  0.87829017  0.37559468  0.49943137  1
  Zn  Zn91  1  0.87885255  0.87101040  0.49628476  1
  Zn  Zn92  1  0.74374605  0.88312735  0.12348044  1
  Zn  Zn93  1  0.49248711  0.12954053  0.61954483  1
  Zn  Zn94  1  0.75311910  0.51301963  0.73883372  1
  Zn  Zn95  1  0.37056661  0.74381799  0.13017735  1
  Zn  Zn96  1  0.61772204  0.39007037  0.74550073  1
  Zn  Zn97  1  0.74363244  0.00497184  0.24495959  1
  Zn  Zn98  1  0.24542080  0.24737450  0.49519573  1
  Zn  Zn99  1  0.62737194  0.50355641  0.13104758  1
  Zn  Zn100  1  0.74825485  0.25347905  -0.00017849  1
  Zn  Zn101  1  -0.01140406  0.73873295  0.75161916  1
  Zn  Zn102  1  0.49529375  0.25895603  0.74087770  1
  Zn  Zn103  1  0.00129560  0.24991460  0.74889814  1
  Zn  Zn104  1  0.62131339  0.12500037  0.49837739  1
  Zn  Zn105  1  0.49749797  0.75257179  0.74892876  1
  Zn  Zn106  1  0.49107026  0.61856389  0.13252812  1
  Zn  Zn107  1  0.18788454  0.18428052  0.18935291  1
  Zn  Zn108  1  0.17883312  0.19925785  0.65809008  1
  Zn  Zn109  1  0.18670769  0.68824763  0.18917479  1
  Zn  Zn110  1  0.16312703  0.67813589  0.69626036  1
  Zn  Zn111  1  0.68783802  0.19268667  0.18582727  1
  Zn  Zn112  1  0.68433646  0.18866178  0.68695741  1
  Zn  Zn113  1  0.68509400  0.69214149  0.18984383  1
  Zn  Zn114  1  0.68029610  0.68939300  0.68701100  1
  Zn  Zn115  1  0.31220792  0.31078906  0.31457915  1
  Zn  Zn116  1  0.31000895  0.31638341  0.81215696  1
  Zn  Zn117  1  0.30994971  0.81566940  0.31554684  1
  Zn  Zn118  1  0.30962182  0.81463324  0.81467251  1
  Zn  Zn119  1  0.81479350  0.31352855  0.30999556  1
  Zn  Zn120  1  0.81159900  0.31295450  0.81146057  1
  Zn  Zn121  1  0.80909041  0.81068715  0.30989956  1
  Zn  Zn122  1  0.80989794  0.81008484  0.81027496  1
  Zn  Zn123  1  0.18904853  0.43633773  0.43721168  1
  Zn  Zn124  1  0.18855818  0.43551555  0.93547010  1
  Zn  Zn125  1  0.19123848  0.93960921  0.44016341  1
  Zn  Zn126  1  0.19086519  0.93632120  0.93873393  1
  Zn  Zn127  1  0.68675001  0.43706872  0.44038578  1
  Zn  Zn128  1  0.68744066  0.44130267  0.93362756  1
  Zn  Zn129  1  0.68536912  0.93501590  0.43552027  1
  Zn  Zn130  1  0.68788260  0.93961485  0.93848579  1
  Zn  Zn131  1  0.31382552  0.06294273  0.06348118  1
  Zn  Zn132  1  0.31023786  0.06098020  0.55980464  1
  Zn  Zn133  1  0.31552077  0.56291692  0.06824459  1
  Zn  Zn134  1  0.30920167  0.56155791  0.56180946  1
  Zn  Zn135  1  0.81014636  0.06074515  0.06416227  1
  Zn  Zn136  1  0.81413569  0.06175420  0.55823768  1
  Zn  Zn137  1  0.81528512  0.56326224  0.05936898  1
  Zn  Zn138  1  0.80994111  0.56127369  0.55429809  1
  Zn  Zn139  1  0.43460357  0.43418095  0.18777834  1
  Zn  Zn140  1  0.44318643  0.44599013  0.68292969  1
  Zn  Zn141  1  0.43453342  0.93563191  0.18628091  1
  Zn  Zn142  1  0.43690647  0.93900053  0.68820795  1
  Zn  Zn143  1  0.93881692  0.43907746  0.18651267  1
  Zn  Zn144  1  0.93392456  0.43978808  0.69035223  1
  Zn  Zn145  1  0.93365114  0.94107061  0.18519404  1
  Zn  Zn146  1  0.93956534  0.93210572  0.68852290  1
  Zn  Zn147  1  0.06318117  0.05506008  0.30834132  1
  Zn  Zn148  1  0.06114254  0.06192293  0.80934689  1
  Zn  Zn149  1  0.06457398  0.56205891  0.31274786  1
  Zn  Zn150  1  0.06002428  0.56407923  0.81333308  1
  Zn  Zn151  1  0.55937039  0.06734813  0.31420720  1
  Zn  Zn152  1  0.55946326  0.06333314  0.81628449  1
  Zn  Zn153  1  0.56395128  0.56032024  0.32280285  1
  Zn  Zn154  1  0.56629554  0.56170376  0.81396441  1
  Zn  Zn155  1  0.43625990  0.18900321  0.43954523  1
  Zn  Zn156  1  0.43886537  0.18459994  0.93408623  1
  Zn  Zn157  1  0.43480253  0.68150807  0.43452587  1
  Zn  Zn158  1  0.43577527  0.68372224  0.93835749  1
  Zn  Zn159  1  0.94028158  0.18407059  0.43703282  1
  Zn  Zn160  1  0.94153422  0.19034368  0.93609483  1
  Zn  Zn161  1  0.93704143  0.69027553  0.43525727  1
  Zn  Zn162  1  0.94150926  0.69187387  0.94179871  1
  Zn  Zn163  1  0.06366849  0.30979170  0.06049284  1
  Zn  Zn164  1  0.06800357  0.30992412  0.55902977  1
  Zn  Zn165  1  0.06219039  0.81143750  0.06401995  1
  Zn  Zn166  1  0.06421885  0.81229540  0.56124565  1
  Zn  Zn167  1  0.56370687  0.31210590  0.06244953  1
  Zn  Zn168  1  0.56127560  0.30950239  0.56321781  1
  Zn  Zn169  1  0.55903557  0.81247945  0.06629479  1
  Zn  Zn170  1  0.56114416  0.81155412  0.56270614  1
  O  O171  1  0.11988813  0.11664822  0.11790054  1
  O  O172  1  0.11336944  0.10449254  0.63945162  1
  O  O173  1  0.11346460  0.62805440  0.11993686  1
  O  O174  1  0.13622577  0.61229150  0.60750834  1
  O  O175  1  0.61757665  0.13283976  0.11302805  1
  O  O176  1  0.62787571  0.10997312  0.62334489  1
  O  O177  1  0.62413059  0.62503758  0.11613354  1
  O  O178  1  0.63471882  0.62084450  0.61330406  1
  O  O179  1  0.36518283  0.38517455  0.38768264  1
  O  O180  1  0.37445090  0.38556480  0.88194836  1
  O  O181  1  0.38546618  0.88526294  0.37108617  1
  O  O182  1  0.37012452  0.88458537  0.88860398  1
  O  O183  1  0.88514956  0.38163835  0.37257268  1
  O  O184  1  0.87792051  0.37322316  0.88612067  1
  O  O185  1  0.86859962  0.88746594  0.37333016  1
  O  O186  1  0.88188276  0.87592931  0.88021816  1
  O  O187  1  0.25448284  0.00608164  0.36828662  1
  O  O188  1  0.25766528  -0.00323298  0.86634400  1
  O  O189  1  0.25225259  0.50633119  0.36654521  1
  O  O190  1  0.25791845  0.49510343  0.86535039  1
  O  O191  1  0.75551685  0.00867727  0.37147294  1
  O  O192  1  0.75743472  0.00703213  0.87037524  1
  O  O193  1  0.75856919  0.51005772  0.37752867  1
  O  O194  1  0.75580188  0.52319560  0.88872497  1
  O  O195  1  0.25483827  0.48606733  0.13262706  1
  O  O196  1  0.24240126  0.49343995  0.63296842  1
  O  O197  1  0.24557900  0.99598350  0.13098013  1
  O  O198  1  0.24186649  0.99235436  0.62877534  1
  O  O199  1  0.75002197  0.48947127  0.12136508  1
  O  O200  1  0.75765861  0.48210257  0.61883691  1
  O  O201  1  0.75327780  0.99566424  0.13257881  1
  O  O202  1  0.74481346  0.99366466  0.62667475  1
  O  O203  1  0.00752607  0.36880622  0.25287466  1
  O  O204  1  0.01464541  0.37245091  0.74862806  1
  O  O205  1  -0.00311647  0.86375913  0.24374600  1
  O  O206  1  0.01090946  0.86728393  0.75687672  1
  O  O207  1  0.50912215  0.36162708  0.24257962  1
  O  O208  1  0.50073847  0.37676125  0.75239437  1
  O  O209  1  0.50609017  0.86903228  0.25615286  1
  O  O210  1  0.51329707  0.88140064  0.75346120  1
  O  O211  1  0.50791419  0.13599305  0.23617844  1
  O  O212  1  0.48319870  0.11984817  0.74936893  1
  O  O213  1  0.50720434  0.63968235  0.25416246  1
  O  O214  1  0.48458988  0.62575940  0.75752404  1
  O  O215  1  0.99937287  0.13170842  0.24075940  1
  O  O216  1  0.99137087  0.12343702  0.73807350  1
  O  O217  1  0.99215439  0.62783397  0.24350606  1
  O  O218  1  1.05482016  0.64903511  0.74372801  1
  O  O219  1  0.36707174  0.25168515  0.00307251  1
  O  O220  1  0.36782518  0.26595952  0.49365781  1
  O  O221  1  0.36790375  0.75628794  -0.00050979  1
  O  O222  1  0.35805181  0.74473890  0.49594689  1
  O  O223  1  0.87730658  0.25964129  0.00603485  1
  O  O224  1  0.86613506  0.24787384  0.50535650  1
  O  O225  1  0.86849033  0.75930357  0.00581821  1
  O  O226  1  0.86742489  0.75238836  0.50744158  1
  O  O227  1  0.14628886  0.23335405  0.54944954  1
  O  O228  1  0.13133494  0.23966728  0.99250072  1
  O  O229  1  0.13144523  0.74362451  0.49244771  1
  O  O230  1  0.13086790  0.74256640  0.99639537  1
  O  O231  1  0.63484551  0.24784004  0.49062768  1
  O  O232  1  0.62498058  0.24141578  0.99054119  1
  O  O233  1  0.63267405  0.75893117  0.48598130  1
  O  O234  1  0.63069903  0.74818405  0.99769255  1
  O  O235  1  0.49202785  0.24416543  0.12948264  1
  O  O236  1  0.50569131  0.24081526  0.62933210  1
  O  O237  1  0.49940840  0.74895285  0.14216131  1
  O  O238  1  0.49656286  0.76068411  0.63497379  1
  O  O239  1  0.99620688  0.24261918  0.13073063  1
  O  O240  1  0.99090922  0.23998215  0.62484423  1
  O  O241  1  0.99534327  0.74201906  0.13199003  1
  O  O242  1  0.98209177  0.75505434  0.62113165  1
  O  O243  1  -0.00460042  0.25682797  0.36488902  1
  O  O244  1  0.01488169  0.25271045  0.87105972  1
  O  O245  1  0.00909309  0.74810854  0.36563732  1
  O  O246  1  0.00900273  0.75874108  0.87341132  1
  O  O247  1  0.50963225  0.24343327  0.36520896  1
  O  O248  1  0.50821258  0.25168815  0.87135217  1
  O  O249  1  0.50318336  0.75684884  0.36925175  1
  O  O250  1  0.51227696  0.74787024  0.87558317  1
  O  O251  1  0.25590313  0.12318798  0.47962668  1
  O  O252  1  0.24258444  0.13548175  1.00454473  1
  O  O253  1  0.24143767  0.63077030  0.49022070  1
  O  O254  1  0.24008856  0.63258436  1.00925283  1
  O  O255  1  0.74893811  0.13135359  0.48813067  1
  O  O256  1  0.74237326  0.12686712  0.99471714  1
  O  O257  1  0.75511844  0.63766240  0.48678967  1
  O  O258  1  0.74554762  0.63883409  0.99938822  1
  O  O259  1  0.25130054  0.36351164  0.00705651  1
  O  O260  1  0.25063772  0.37222313  0.51283410  1
  O  O261  1  0.25628531  0.86912307  0.01062621  1
  O  O262  1  0.24346442  0.86581497  0.51202597  1
  O  O263  1  0.75929961  0.37582026  0.00545528  1
  O  O264  1  0.75433847  0.36531240  0.50709246  1
  O  O265  1  0.75644131  0.86601297  -0.00046349  1
  O  O266  1  0.75091647  0.86502595  0.50576247  1
  O  O267  1  0.13356040  0.48644881  0.25127166  1
  O  O268  1  0.13173397  0.49268870  0.74515332  1
  O  O269  1  0.13726100  1.00027529  0.23894557  1
  O  O270  1  0.13143412  0.98977519  0.74802018  1
  O  O271  1  0.61831246  0.48552482  0.25146953  1
  O  O272  1  0.64217303  0.49975466  0.76338976  1
  O  O273  1  0.62100449  0.98660142  0.25740950  1
  O  O274  1  0.63029923  0.99647473  0.74573840  1
  O  O275  1  0.36153760  -0.00393849  0.25573981  1
  O  O276  1  0.36857800  0.00433658  0.75931743  1
  O  O277  1  0.36028080  0.48650230  0.26194555  1
  O  O278  1  0.36941815  0.51134205  0.75598966  1
  O  O279  1  0.87584374  0.00959463  0.25775353  1
  O  O280  1  0.86980824  0.00272799  0.75520134  1
  O  O281  1  0.88005104  0.50854786  0.25987646  1
  O  O282  1  0.86590382  0.49777165  0.75517524  1
  O  O283  1  0.11548750  0.37566951  0.36686428  1
  O  O284  1  0.12592169  0.36686438  0.86459808  1
  O  O285  1  0.13185305  0.86376669  0.37595673  1
  O  O286  1  0.11818123  0.87039019  0.87415688  1
  O  O287  1  0.63473896  0.36180439  0.36705423  1
  O  O288  1  0.62482822  0.36477016  0.87651943  1
  O  O289  1  0.61394418  0.86957034  0.36632750  1
  O  O290  1  0.63374616  0.86724556  0.86649626  1
  O  O291  1  0.38317859  0.13703431  0.12049183  1
  O  O292  1  0.37281263  0.11674743  0.64118383  1
  O  O293  1  0.37812327  0.63086093  0.12774891  1
  O  O294  1  0.36717714  0.62787256  0.64061376  1
  O  O295  1  0.88456561  0.12965628  0.12727883  1
  O  O296  1  0.87865260  0.13206748  0.62812421  1
  O  O297  1  0.88280011  0.63015795  0.13092506  1
  O  O298  1  0.87233104  0.63510008  0.62007354  1
  O  O299  1  0.25588604  0.25238806  0.11969183  1
  O  O300  1  0.26930909  0.27300551  0.64163910  1
  O  O301  1  0.24665083  0.75865669  0.11764662  1
  O  O302  1  0.24709679  0.75718098  0.61713837  1
  O  O303  1  0.75967470  0.25979920  0.12142513  1
  O  O304  1  0.75550137  0.25197369  0.61525668  1
  O  O305  1  0.75560199  0.75641882  0.11915641  1
  O  O306  1  0.75586547  0.75559484  0.61735022  1
  O  O307  1  0.24559480  0.23611083  0.37237822  1
  O  O308  1  0.23866949  0.25359928  0.88320308  1
  O  O309  1  0.24370148  0.74304387  0.37761635  1
  O  O310  1  0.24148216  0.75791222  0.89272537  1
  O  O311  1  0.74830791  0.24445072  0.38100119  1
  O  O312  1  0.74377530  0.24217300  0.87740364  1
  O  O313  1  0.74287214  0.74422568  0.38027863  1
  O  O314  1  0.74386923  0.74477051  0.88463272  1
  O  O315  1  0.00961120  0.12925167  0.01035776  1
  O  O316  1  -0.00510179  0.11348956  0.51277045  1
  O  O317  1  0.00842161  0.62036993  0.00839505  1
  O  O318  1  0.01380240  0.62377698  0.49188096  1
  O  O319  1  0.50653767  0.11929281  0.00873523  1
  O  O320  1  0.50151434  0.11221867  0.49905264  1
  O  O321  1  0.50865066  0.61851261  0.00318517  1
  O  O322  1  0.50780685  0.63258030  0.50232696  1
  O  O323  1  0.48584956  0.37143042  0.49850835  1
  O  O324  1  0.49295526  0.38177819  0.99961639  1
  O  O325  1  0.50591057  0.88710260  0.48909391  1
  O  O326  1  0.49129544  0.88366829  1.00710265  1
  O  O327  1  1.00076429  0.37260007  0.49088049  1
  O  O328  1  0.99546905  0.38324675  1.00038033  1
  O  O329  1  0.99775173  0.88795167  0.50307187  1
  O  O330  1  0.99083519  0.86884543  0.99119710  1
  O  O331  1  0.47855586  0.50186773  0.36863450  1
  O  O332  1  0.49219738  0.50066604  0.88896984  1
  O  O333  1  0.49198985  0.99613402  0.37854478  1
  O  O334  1  0.49114762  1.00371052  0.89096260  1
  O  O335  1  0.99506029  0.48968135  0.37450565  1
  O  O336  1  0.99980330  0.50003854  0.88653780  1
  O  O337  1  0.99088877  1.00586752  0.38244107  1
  O  O338  1  0.99481058  0.98596006  0.86954313  1
  O  O339  1  0.00922397  0.00958443  0.12946101  1
  O  O340  1  0.00511401  0.00199090  0.61912991  1
  O  O341  1  -0.00325623  0.50874303  0.11315140  1
  O  O342  1  0.01476674  0.49144503  0.62236579  1
  O  O343  1  0.49112559  0.01070534  0.11570077  1
  O  O344  1  0.50679253  -0.00033720  0.61655175  1
  O  O345  1  0.50069053  0.49858716  0.11502617  1
  O  O346  1  0.50704117  0.51056109  0.61697406  1
  O  O347  1  0.24188849  0.37637541  0.24369489  1
  O  O348  1  0.24604950  0.38686966  0.74279801  1
  O  O349  1  0.25278436  0.87992122  0.23641300  1
  O  O350  1  0.24654276  0.88713769  0.74429792  1
  O  O351  1  0.74198949  0.36938724  0.23978804  1
  O  O352  1  0.74899056  0.36800787  0.73176018  1
  O  O353  1  0.73179965  0.87442748  0.25266336  1
  O  O354  1  0.74303456  0.88118837  0.74240378  1
  O  O355  1  0.24648736  0.11669368  0.26245516  1
  O  O356  1  0.25648626  0.11275232  0.74253192  1
  O  O357  1  0.24296868  0.61273293  0.25564250  1
  O  O358  1  0.25327158  0.61421592  0.74946072  1
  O  O359  1  0.75578868  0.12955228  0.25949181  1
  O  O360  1  0.75549396  0.11894266  0.75552891  1
  O  O361  1  0.76349451  0.63293073  0.25567737  1
  O  O362  1  0.74702327  0.63445460  0.76826336  1
  O  O363  1  0.37399042  0.11562239  0.37052392  1
  O  O364  1  0.37415179  0.11175553  0.86820224  1
  O  O365  1  0.36082790  0.61251281  0.37618360  1
  O  O366  1  0.37259338  0.61375451  0.86979451  1
  O  O367  1  0.86847362  0.11840746  0.36932353  1
  O  O368  1  0.87256894  0.12041127  0.87156267  1
  O  O369  1  0.87055228  0.61913633  0.36674502  1
  O  O370  1  0.86267219  0.63345220  0.88140588  1
  O  O371  1  0.13614255  0.36859286  0.13062484  1
  O  O372  1  0.13821776  0.38202634  0.63274878  1
  O  O373  1  0.13182543  0.88819540  0.11520443  1
  O  O374  1  0.12940608  0.88086646  0.63511713  1
  O  O375  1  0.63507249  0.37525103  0.13159637  1
  O  O376  1  0.64036619  0.37055557  0.62326450  1
  O  O377  1  0.62254663  0.87162667  0.14232075  1
  O  O378  1  0.63557509  0.88498367  0.63192799  1
  O  O379  1  0.11441328  0.25881682  0.24368797  1
  O  O380  1  0.12871969  0.25560602  0.75344664  1
  O  O381  1  0.11519787  0.74620900  0.25921775  1
  O  O382  1  0.14898650  0.76946781  0.76615890  1
  O  O383  1  0.61887381  0.25826022  0.25523171  1
  O  O384  1  0.62426978  0.24833477  0.76329929  1
  O  O385  1  0.61546338  0.75947390  0.26035631  1
  O  O386  1  0.62485627  0.76032531  0.76030423  1
  O  O387  1  0.38330331  0.25589490  0.24096229  1
  O  O388  1  0.37317862  0.23214805  0.76328521  1
  O  O389  1  0.39015796  0.75646173  0.25423407  1
  O  O390  1  0.37204820  0.73481666  0.75956620  1
  O  O391  1  0.88687249  0.24522699  0.24302892  1
  O  O392  1  0.87703833  0.24297295  0.74164756  1
  O  O393  1  0.88262934  0.74353192  0.24729068  1
  O  O394  1  0.87322482  0.75189027  0.73225224  1
  O  O395  1  0.36526812  0.49153738  0.48551549  1
  O  O396  1  0.37871781  0.49511713  0.99425808  1
  O  O397  1  0.38213148  1.00026307  0.48989620  1
  O  O398  1  0.37863114  0.99440194  0.99494341  1
  O  O399  1  0.87975881  0.49784890  0.48531665  1
  O  O400  1  0.88500633  0.49340959  0.99616351  1
  O  O401  1  0.88219070  0.99735382  0.48988630  1
  O  O402  1  0.87217696  0.98740415  0.99341879  1
  O  O403  1  0.13244631  0.01191822  0.00605004  1
  O  O404  1  0.11807204  -0.00293635  0.50957781  1
  O  O405  1  0.12075181  0.50874734  -0.00305117  1
  O  O406  1  0.12455875  0.50607772  0.50518403  1
  O  O407  1  0.61641321  0.00926269  -0.00339236  1
  O  O408  1  0.61901927  0.00063689  0.50663803  1
  O  O409  1  0.61739400  0.50902916  0.00219071  1
  O  O410  1  0.61719824  0.50858355  0.48910763  1
  O  O411  1  0.36533264  0.36312258  0.11800243  1
  O  O412  1  0.36634926  0.39185126  0.60896438  1
  O  O413  1  0.36654045  0.87041703  0.11490323  1
  O  O414  1  0.36239877  0.87191911  0.63106093  1
  O  O415  1  0.87106764  0.37275946  0.11677757  1
  O  O416  1  0.87031252  0.36063149  0.62189079  1
  O  O417  1  0.87545035  0.86925936  0.11617935  1
  O  O418  1  0.86169900  0.87473804  0.62281467  1
  O  O419  1  0.13229970  0.12173014  0.37492229  1
  O  O420  1  0.12037427  0.12967258  0.88192190  1
  O  O421  1  0.13488589  0.62901940  0.37944914  1
  O  O422  1  0.12498567  0.63645877  0.88973911  1
  O  O423  1  0.63431011  0.13581762  0.37315944  1
  O  O424  1  0.62940807  0.13020007  0.88431746  1
  O  O425  1  0.63719719  0.63551653  0.36626207  1
  O  O426  1  0.63405880  0.63584898  0.88961764  1
